data_PCOD9079980
_publ_section_title
;
Structure prediction by ZEFSAII (Michael W. Deem and Ramdas Pophale) SiO2 
 PCOD9079980
Probable space group: P -1
;
_chemical_formula_sum "Si O2"
_cell_formula_units_Z 14
_cell_length_a 20.131476
_cell_length_b 7.241993
_cell_length_c 8.219649
_cell_angle_alpha 53.866486
_cell_angle_beta 57.105033
_cell_angle_gamma 37.496807
_cell_volume 582.201264
_symmetry_space_group_name_H-M "P -1"
_symmetry_group_IT_number 2
_symmetry_cell_setting 'triclinic'
loop_
_space_group_symop_operation_xyz
x,y,z
-x,-y,-z
loop_
_atom_site_type_symbol
_atom_site_label
_atom_site_fract_x
_atom_site_fract_y
_atom_site_fract_z
Si Si1 0.116814 0.864737 0.466593
Si Si2 0.932857 0.821578 0.315909
Si Si3 0.536906 0.892845 0.319859
Si Si4 0.667283 0.071801 0.092082
Si Si5 0.297893 0.741419 0.751363
Si Si6 0.315828 0.454633 0.201652
Si Si7 0.087104 0.413551 0.060702
O O1 0.110793 0.895535 0.652278
O O2 0.119027 0.120371 0.268521
O O3 0.203520 0.254132 0.917500
O O4 0.000000 0.000000 0.500000
O O5 0.000000 0.500000 0.500000
O O6 0.019842 0.708490 0.119207
O O7 0.821451 0.947519 0.318126
O O8 0.623302 0.519905 0.355456
O O9 0.500000 0.000000 0.500000
O O10 0.597753 0.010328 0.141259
O O11 0.427767 0.088433 0.254024
O O12 0.644928 0.178562 0.255997
O O13 0.779497 0.448758 0.604464
O O14 0.652673 0.349404 0.882816
O O15 0.277797 0.584851 0.999818
O O16 0.000000 0.500000 0.000000
#
# Coordination Sequence:
#
# PCOD9079980 Si02
#       7
#     2   2   2   2   2   2   2
#     4  10  21  36  60  93 123 156 201 264 311 367
#     4  10  20  37  61  92 128 162 206 263 320 376
#     4  12  24  40  65  97 124 161 220 269 313 371
#     4   9  22  40  67  86 128 169 208 255 317 379
#     4  10  22  42  65  89 126 168 217 255 318 388
#     4   9  21  44  62  88 133 169 209 259 312 386
#     4  10  18  38  60  84 121 165 202 245 313 383
#
# _framework density 24.046665999999998
#
# number of rings (size 3 to 8) (size 9 to 14) (size 15 to 20)
#    0.857    1.143    1.429    1.714    0.000    4.000 
#    0.000    2.143    0.000    0.000    0.000    0.000 
#    0.000    0.000    0.000    0.000    0.000    0.000 
#
# Total GULP energy -78146.563150 kJ/mol
# GULP energy per Si atom -5581.897368 kJ/mol
# Density = 2.399193 g / cm^3
# Si number density = 24.046666 Si / 1000 Ang^3
#
#
#
# Elastic Constant Matrix: (Units=GPa)
#
#
# Indices 1 2 3 4 5 6 
#
# 1 59.1276 29.6422 4.7726 8.7217 7.5640 -12.9891
# 2 29.6422 154.4358 35.8068 13.0435 4.9805 -14.1102
# 3 4.7726 35.8068 64.4299 6.3666 8.1502 3.5619
# 4 8.7217 13.0435 6.3666 44.1386 0.9127 9.0708
# 5 7.5640 4.9805 8.1502 0.9127 34.3176 -1.6281
# 6 -12.9891 -14.1102 3.5619 9.0708 -1.6281 41.0733
#
#
#
# Elastic Compliance Matrix: (Units=1/GPa)
#
#
# Indices 1 2 3 4 5 6 
#
# 1 0.020982 -0.003115 0.000774 -0.004561 -0.003934 0.006350
# 2 -0.003115 0.008515 -0.004565 -0.001826 0.000715 0.002768
# 3 0.000774 -0.004565 0.018760 -0.000823 -0.004081 -0.002930
# 4 -0.004561 -0.001826 -0.000823 0.025784 0.000416 -0.007676
# 5 -0.003934 0.000715 -0.004081 0.000416 0.030884 0.000488
# 6 0.006350 0.002768 -0.002930 -0.007676 0.000488 0.029274
#
#
# Mechanical properties :
#
#
# Convention : Reuss Voigt Hill
#
# Bulk Modulus (GPa) = 29.03010 46.49296 37.76153
# Shear Modulus (GPa) = 31.34924 37.75734 34.55329
#
# Velocity S-wave (km/s) = 3.61457 3.96684 3.79479
# Velocity P-wave (km/s) = 5.43312 6.35275 5.91085
#
# Compressibility (1/GPa) = 0.03444701
#
# Stress axis : x y z
#
# Youngs Moduli (GPa) = 47.65890 117.43418 53.30560
#
# Poissons Ratio (x) = 0.36575 -0.04125
# Poissons Ratio (y) = 0.14844 0.24332
# Poissons Ratio (z) = -0.03688 0.53605
#
# Static dielectric constant tensor:
#      x y z
#    x 1.926260 0.011620 -0.000870 
#    y 0.011620 1.969210 0.009660 
#    z -0.000870 0.009660 1.978650 
# 
# From -- ./inp_files/356335.got.cif
#   From: 2010.05.17/outbox.cif.g08.bks.cpg/sg2_179_cif.got.tgz:356335.got - 2010.06.03 11:33:40.
