data_PCOD9079935
_publ_section_title
;
Structure prediction by ZEFSAII (Michael W. Deem and Ramdas Pophale) SiO2 
 PCOD9079935
Probable space group: P -1
;
_chemical_formula_sum "Si O2"
_cell_formula_units_Z 16
_cell_length_a 13.313663
_cell_length_b 11.150914
_cell_length_c 14.494816
_cell_angle_alpha 40.242459
_cell_angle_beta 122.868425
_cell_angle_gamma 146.663101
_cell_volume 736.123414
_symmetry_space_group_name_H-M "P -1"
_symmetry_group_IT_number 2
_symmetry_cell_setting 'triclinic'
loop_
_space_group_symop_operation_xyz
x,y,z
-x,-y,-z
loop_
_atom_site_type_symbol
_atom_site_label
_atom_site_fract_x
_atom_site_fract_y
_atom_site_fract_z
Si Si1 0.156042 0.974203 0.873444
Si Si2 0.344951 0.277578 0.258579
Si Si3 0.736787 0.396016 0.969856
Si Si4 0.942644 0.709895 0.328441
Si Si5 0.695694 0.281709 0.619858
Si Si6 0.460941 0.493225 0.590784
Si Si7 0.328390 0.833944 0.127907
Si Si8 0.588260 0.253655 0.321601
O O1 0.101692 0.122222 0.781486
O O2 0.290388 0.159235 0.741766
O O3 0.953868 0.626655 0.969753
O O4 0.279440 0.989994 0.991247
O O5 0.313629 0.453843 0.117386
O O6 0.370831 0.310854 0.363627
O O7 0.524351 0.380312 0.249276
O O8 0.165852 0.961288 0.307200
O O9 0.729717 0.350676 0.883106
O O10 0.555000 0.069369 0.111252
O O11 0.852963 0.482824 0.500771
O O12 0.815251 0.505509 0.295356
O O13 0.606299 0.376838 0.515275
O O14 0.771288 0.340466 0.724999
O O15 0.526485 0.933756 0.717171
O O16 0.500000 0.500000 0.500000
O O17 0.500000 0.000000 0.500000
#
# Coordination Sequence:
#
# PCOD9079935 Si02
#       8
#     2   2   2   2   2   2   2   2
#     4  10  20  40  59  83 114 156 190 226 286 343
#     4  11  19  38  62  84 110 157 190 229 289 336
#     4  10  22  36  62  82 112 159 189 225 285 349
#     4   9  20  37  62  84 112 151 193 231 284 343
#     4  10  22  37  56  89 117 145 187 243 281 331
#     4  11  21  37  61  87 117 148 187 235 283 336
#     4  11  21  39  57  84 120 149 190 234 284 336
#     4  10  18  38  57  83 117 148 188 237 285 330
#
# _framework density 21.735484
#
# number of rings (size 3 to 8) (size 9 to 14) (size 15 to 20)
#    0.000    1.750    5.000    1.125    1.750    3.000 
#    2.250    6.250    0.000    3.000    0.000    0.000 
#    0.000    0.000    0.000    0.000    0.000    0.000 
#
# Total GULP energy -89120.634409 kJ/mol
# GULP energy per Si atom -5570.039651 kJ/mol
# Density = 2.168601 g / cm^3
# Si number density = 21.735484 Si / 1000 Ang^3
#
#
#
# Elastic Constant Matrix: (Units=GPa)
#
#
# Indices 1 2 3 4 5 6 
#
# 1 43.5756 10.1283 8.5848 3.1806 16.3819 3.3981
# 2 10.1283 112.1351 -15.1132 -9.1811 -5.8303 32.9899
# 3 8.5848 -15.1132 31.5221 0.3734 10.2948 12.8138
# 4 3.1806 -9.1811 0.3734 16.0870 -5.9216 2.5217
# 5 16.3819 -5.8303 10.2948 -5.9216 20.6474 -0.7105
# 6 3.3981 32.9899 12.8138 2.5217 -0.7105 33.5811
#
#
#
# Elastic Compliance Matrix: (Units=1/GPa)
#
#
# Indices 1 2 3 4 5 6 
#
# 1 0.049643 -0.018314 -0.014309 -0.040989 -0.048475 0.020480
# 2 -0.018314 0.030983 0.031873 0.032941 0.015359 -0.042895
# 3 -0.014309 0.031873 0.081368 0.023216 -0.015726 -0.062989
# 4 -0.040989 0.032941 0.023216 0.118617 0.062730 -0.044652
# 5 -0.048475 0.015359 -0.015726 0.062730 0.116840 -0.006421
# 6 0.020480 -0.042895 -0.062989 -0.044652 -0.006421 0.097098
#
#
# Mechanical properties :
#
#
# Convention : Reuss Voigt Hill
#
# Bulk Modulus (GPa) = 6.23073 21.60362 13.91717
# Shear Modulus (GPa) = 9.09839 26.30530 17.70184
#
# Velocity S-wave (km/s) = 2.04818 3.48263 2.85690
# Velocity P-wave (km/s) = 2.90968 5.11200 4.15925
#
# Compressibility (1/GPa) = 0.16049481
#
# Stress axis : x y z
#
# Youngs Moduli (GPa) = 20.14393 32.27571 12.28979
#
# Poissons Ratio (x) = 0.59110 0.17585
# Poissons Ratio (y) = 0.36892 -0.39172
# Poissons Ratio (z) = 0.28824 -1.02873
#
# Static dielectric constant tensor:
#      x y z
#    x 1.815980 -0.008460 0.003540 
#    y -0.008460 1.873170 -0.042210 
#    z 0.003540 -0.042210 1.789940 
# 
# From -- ./inp_files/456066.got.cif
#   From: 2010.05.17/outbox.cif.g08.bks.cpg/sg2_229_cif.got.tgz:456066.got - 2010.06.03 11:33:40.
