data_PCOD9079426
_publ_section_title
;
Structure prediction by ZEFSAII (Michael W. Deem and Ramdas Pophale) SiO2 
 PCOD9079426
Probable space group: P -1
;
_chemical_formula_sum "Si O2"
_cell_formula_units_Z 16
_cell_length_a 9.002621
_cell_length_b 13.660227
_cell_length_c 8.705335
_cell_angle_alpha 52.561961
_cell_angle_beta 71.548823
_cell_angle_gamma 96.141534
_cell_volume 739.906009
_symmetry_space_group_name_H-M "P -1"
_symmetry_group_IT_number 2
_symmetry_cell_setting 'triclinic'
loop_
_space_group_symop_operation_xyz
x,y,z
-x,-y,-z
loop_
_atom_site_type_symbol
_atom_site_label
_atom_site_fract_x
_atom_site_fract_y
_atom_site_fract_z
Si Si1 0.822023 0.822496 0.026980
Si Si2 0.363140 0.442842 0.266530
Si Si3 0.232739 0.247490 0.223834
Si Si4 0.484762 0.632297 0.452125
Si Si5 0.316730 0.686199 0.171439
Si Si6 0.001127 0.713100 0.298349
Si Si7 0.865404 0.110969 0.623098
Si Si8 0.568416 0.944783 0.675642
O O1 0.769458 0.732007 0.977246
O O2 0.867708 0.971935 0.815860
O O3 0.652308 0.766740 0.237582
O O4 0.969916 0.805337 0.090737
O O5 0.320260 0.378429 0.174932
O O6 0.504447 0.399232 0.342423
O O7 0.391764 0.596824 0.131787
O O8 0.185941 0.372927 0.490621
O O9 0.317561 0.139490 0.329646
O O10 0.034420 0.181597 0.399762
O O11 0.500000 0.500000 0.500000
O O12 0.346519 0.655966 0.368361
O O13 0.115955 0.642782 0.254126
O O14 0.420785 0.838612 0.933205
O O15 0.113398 0.798596 0.320761
O O16 0.694071 0.068206 0.620345
O O17 0.500000 0.000000 0.500000
#
# Coordination Sequence:
#
# PCOD9079426 Si02
#       8
#     2   2   2   2   2   2   2   2
#     4  10  18  37  57  85 111 153 199 226 286 344
#     4   9  21  40  62  86 112 153 201 230 284 343
#     4  10  21  39  63  82 116 155 196 238 273 352
#     4   9  18  36  57  81 113 150 191 235 280 337
#     4  11  21  38  60  85 122 149 188 245 290 337
#     4  10  22  35  62  86 114 150 191 243 285 336
#     4  10  21  39  58  83 115 153 200 228 279 352
#     4  11  24  38  57  90 123 151 184 240 301 333
#
# _framework density 21.624369000000002
#
# number of rings (size 3 to 8) (size 9 to 14) (size 15 to 20)
#    0.000    2.000    2.500    2.250    3.500    2.000 
#    0.000    0.625    2.750    0.000    0.000    0.000 
#    0.000    0.000    0.000    0.000    0.000    0.000 
#
# Total GULP energy -89273.273690 kJ/mol
# GULP energy per Si atom -5579.579606 kJ/mol
# Density = 2.157515 g / cm^3
# Si number density = 21.624369 Si / 1000 Ang^3
#
#
#
# Elastic Constant Matrix: (Units=GPa)
#
#
# Indices 1 2 3 4 5 6 
#
# 1 105.2840 12.4829 28.4461 3.4333 26.7375 6.4472
# 2 12.4829 61.2520 10.2288 2.2053 5.0331 18.1285
# 3 28.4461 10.2288 81.6859 1.9062 13.9738 8.5721
# 4 3.4333 2.2053 1.9062 21.3588 4.0079 -7.9873
# 5 26.7375 5.0331 13.9738 4.0079 33.8399 4.4188
# 6 6.4472 18.1285 8.5721 -7.9873 4.4188 28.9016
#
#
#
# Elastic Compliance Matrix: (Units=1/GPa)
#
#
# Indices 1 2 3 4 5 6 
#
# 1 0.012591 -0.001486 -0.002753 0.000105 -0.008641 0.000290
# 2 -0.001486 0.021440 -0.000576 -0.007858 0.001151 -0.015293
# 3 -0.002753 -0.000576 0.014149 -0.001370 -0.003009 -0.003140
# 4 0.000105 -0.007858 -0.001370 0.057669 -0.008115 0.022490
# 5 -0.008641 0.001151 -0.003009 -0.008115 0.039213 -0.006140
# 6 0.000290 -0.015293 -0.003140 0.022490 -0.006140 0.052214
#
#
# Mechanical properties :
#
#
# Convention : Reuss Voigt Hill
#
# Bulk Modulus (GPa) = 25.94027 38.94861 32.44444
# Shear Modulus (GPa) = 22.75247 29.95766 26.35507
#
# Velocity S-wave (km/s) = 3.24723 3.72609 3.49487
# Velocity P-wave (km/s) = 5.10698 6.04667 5.59658
#
# Compressibility (1/GPa) = 0.03855009
#
# Stress axis : x y z
#
# Youngs Moduli (GPa) = 79.41866 46.64250 70.67520
#
# Poissons Ratio (x) = 0.06930 0.19460
# Poissons Ratio (y) = 0.11800 0.04070
# Poissons Ratio (z) = 0.21867 0.02686
#
# Static dielectric constant tensor:
#      x y z
#    x 1.800240 0.019030 -0.027150 
#    y 0.019030 1.814250 -0.001160 
#    z -0.027150 -0.001160 1.807070 
# 
# From -- ./inp_files/177956.got.cif
#   From: 2010.05.17/outbox.cif.g08.bks.cpg/sg2_89_cif.got.tgz:177956.got - 2010.06.03 11:33:40.
