data_PCOD9079234
_publ_section_title
;
Structure prediction by ZEFSAII (Michael W. Deem and Ramdas Pophale) SiO2 
 PCOD9079234
Probable space group: P -1
;
_chemical_formula_sum "Si O2"
_cell_formula_units_Z 14
_cell_length_a 9.465634
_cell_length_b 8.392577
_cell_length_c 11.440396
_cell_angle_alpha 72.230969
_cell_angle_beta 128.486489
_cell_angle_gamma 109.166011
_cell_volume 665.682721
_symmetry_space_group_name_H-M "P -1"
_symmetry_group_IT_number 2
_symmetry_cell_setting 'triclinic'
loop_
_space_group_symop_operation_xyz
x,y,z
-x,-y,-z
loop_
_atom_site_type_symbol
_atom_site_label
_atom_site_fract_x
_atom_site_fract_y
_atom_site_fract_z
Si Si1 0.662990 0.866090 0.066813
Si Si2 0.653263 0.234381 0.918481
Si Si3 0.151616 0.927088 0.666220
Si Si4 0.560644 0.527660 0.659018
Si Si5 0.940209 0.626255 0.267585
Si Si6 0.256670 0.684276 0.600654
Si Si7 0.025953 0.372093 0.185944
O O1 0.459543 0.765485 0.016655
O O2 0.803023 0.747591 0.128169
O O3 0.738779 0.939092 0.216778
O O4 0.659505 0.034506 0.950773
O O5 0.556157 0.341124 0.754522
O O6 0.861446 0.334107 0.017168
O O7 0.279542 0.847147 0.660109
O O8 0.036872 0.777295 0.719019
O O9 0.000000 0.000000 0.500000
O O10 0.500000 0.500000 0.500000
O O11 0.429288 0.631311 0.637766
O O12 0.770000 0.625836 0.752121
O O13 0.827075 0.476162 0.323803
O O14 0.106552 0.708822 0.419439
O O15 0.020871 0.543493 0.216868
#
# Coordination Sequence:
#
# PCOD9079234 Si02
#       7
#     2   2   2   2   2   2   2
#     4  10  20  39  66  90 123 155 209 255 304 349
#     4  10  23  41  61  91 123 165 199 252 307 359
#     4  10  20  36  65  90 122 156 202 258 300 347
#     4  12  23  40  65  89 126 162 203 248 303 371
#     4  10  18  36  64  94 117 156 210 252 294 357
#     4  10  20  35  61  96 120 156 206 253 297 355
#     4  10  23  39  62  90 124 164 201 247 307 360
#
# _framework density 21.031041999999999
#
# number of rings (size 3 to 8) (size 9 to 14) (size 15 to 20)
#    0.000    1.714    4.286    0.429    2.000    0.571 
#    5.143    1.429    6.286    0.000    0.000    0.000 
#    0.000    0.000    0.000    0.000    0.000    0.000 
#
# Total GULP energy -78196.820432 kJ/mol
# GULP energy per Si atom -5585.487174 kJ/mol
# Density = 2.098317 g / cm^3
# Si number density = 21.031042 Si / 1000 Ang^3
#
#
#
# Elastic Constant Matrix: (Units=GPa)
#
#
# Indices 1 2 3 4 5 6 
#
# 1 123.5287 14.9070 18.5639 2.8286 23.5606 -7.0022
# 2 14.9070 32.3026 17.4545 -0.4892 3.6918 -0.4856
# 3 18.5639 17.4545 84.5323 -20.8386 7.1521 1.4269
# 4 2.8286 -0.4892 -20.8386 39.2136 -0.4673 7.0786
# 5 23.5606 3.6918 7.1521 -0.4673 36.0094 -0.5845
# 6 -7.0022 -0.4856 1.4269 7.0786 -0.5845 27.6352
#
#
#
# Elastic Compliance Matrix: (Units=1/GPa)
#
#
# Indices 1 2 3 4 5 6 
#
# 1 0.010072 -0.003043 -0.001698 -0.002287 -0.005921 0.003047
# 2 -0.003043 0.036560 -0.007790 -0.003686 -0.000238 0.001213
# 3 -0.001698 -0.007790 0.016290 0.009359 -0.001267 -0.003832
# 4 -0.002287 -0.003686 0.009359 0.032293 0.000282 -0.009393
# 5 -0.005921 -0.000238 -0.001267 0.000282 0.031911 -0.000836
# 6 0.003047 0.001213 -0.003832 -0.009393 -0.000836 0.039565
#
#
# Mechanical properties :
#
#
# Convention : Reuss Voigt Hill
#
# Bulk Modulus (GPa) = 26.41209 38.02383 32.21796
# Shear Modulus (GPa) = 24.46515 33.20085 28.83300
#
# Velocity S-wave (km/s) = 3.41440 3.97754 3.70668
# Velocity P-wave (km/s) = 5.30378 6.26208 5.80274
#
# Compressibility (1/GPa) = 0.03786145
#
# Stress axis : x y z
#
# Youngs Moduli (GPa) = 99.28453 27.35218 61.38703
#
# Poissons Ratio (x) = 0.08322 0.10423
# Poissons Ratio (y) = 0.30209 0.47819
# Poissons Ratio (z) = 0.16858 0.21307
#
# Static dielectric constant tensor:
#      x y z
#    x 1.744500 0.023430 0.009090 
#    y 0.023430 1.764720 0.008830 
#    z 0.009090 0.008830 1.815050 
# 
# From -- ./inp_files/176464.got.cif
#   From: 2010.05.17/outbox.cif.g08.bks.cpg/sg2_89_cif.got.tgz:176464.got - 2010.06.03 11:33:40.
