data_PCOD9079978
_publ_section_title
;
Structure prediction by ZEFSAII (Michael W. Deem and Ramdas Pophale) SiO2 
 PCOD9079978
Probable space group: P -1
;
_chemical_formula_sum "Si O2"
_cell_formula_units_Z 14
_cell_length_a 12.461367
_cell_length_b 19.689462
_cell_length_c 8.397712
_cell_angle_alpha 35.501131
_cell_angle_beta 73.717569
_cell_angle_gamma 44.428579
_cell_volume 562.972704
_symmetry_space_group_name_H-M "P -1"
_symmetry_group_IT_number 2
_symmetry_cell_setting 'triclinic'
loop_
_space_group_symop_operation_xyz
x,y,z
-x,-y,-z
loop_
_atom_site_type_symbol
_atom_site_label
_atom_site_fract_x
_atom_site_fract_y
_atom_site_fract_z
Si Si1 0.534926 0.508572 0.652966
Si Si2 0.878916 0.235708 0.588924
Si Si3 0.309898 0.183747 0.588703
Si Si4 0.709263 0.037639 0.179706
Si Si5 0.625172 0.044114 0.535422
Si Si6 0.064578 0.722037 0.161597
Si Si7 0.877197 0.585544 0.223576
O O1 0.500000 0.500000 0.500000
O O2 0.390344 0.544158 0.743044
O O3 0.799129 0.304500 0.945526
O O4 0.407474 0.748732 0.272376
O O5 0.936488 0.236783 0.734929
O O6 0.017840 0.185637 0.501337
O O7 0.000000 0.000000 0.000000
O O8 0.062456 0.420344 0.320887
O O9 0.321747 0.055329 0.723780
O O10 0.391353 0.221601 0.379808
O O11 0.500000 0.000000 0.000000
O O12 0.623021 0.127365 0.225067
O O13 0.704871 0.849472 0.790246
O O14 0.818501 0.913543 0.825970
O O15 0.201071 0.474645 0.594226
O O16 0.000000 0.500000 0.500000
#
# Coordination Sequence:
#
# PCOD9079978 Si02
#       7
#     2   2   2   2   2   2   2
#     4   9  20  37  64  83 108 156 207 244 294 358
#     4   9  18  37  59  83 106 154 205 242 286 357
#     4  12  21  38  62  90 122 167 200 230 291 375
#     4  11  22  39  60  89 125 149 198 257 301 343
#     4  11  24  38  57  96 126 154 196 248 302 352
#     4  10  18  38  60  83 116 159 197 240 292 356
#     4  10  20  36  60  87 123 157 203 232 286 371
#
# _framework density 24.867989000000001
#
# number of rings (size 3 to 8) (size 9 to 14) (size 15 to 20)
#    0.000    1.714    4.286    1.286    2.000    0.571 
#    5.143    7.143    0.000    0.000    0.000    0.000 
#    0.000    0.000    0.000    0.000    0.000    0.000 
#
# Total GULP energy -78199.650384 kJ/mol
# GULP energy per Si atom -5585.689313 kJ/mol
# Density = 2.481139 g / cm^3
# Si number density = 24.867989 Si / 1000 Ang^3
#
#
#
# Elastic Constant Matrix: (Units=GPa)
#
#
# Indices 1 2 3 4 5 6 
#
# 1 163.4308 54.9328 15.7649 -3.7513 1.9988 -25.1307
# 2 54.9328 123.3134 -1.3894 4.5678 12.5702 -35.5080
# 3 15.7649 -1.3894 24.7157 -3.6647 5.6232 3.8560
# 4 -3.7513 4.5678 -3.6647 31.0682 2.0948 -5.9733
# 5 1.9988 12.5702 5.6232 2.0948 28.3837 -17.1293
# 6 -25.1307 -35.5080 3.8560 -5.9733 -17.1293 61.1583
#
#
#
# Elastic Compliance Matrix: (Units=1/GPa)
#
#
# Indices 1 2 3 4 5 6 
#
# 1 0.008356 -0.003342 -0.006783 0.001034 0.004067 0.003161
# 2 -0.003342 0.011105 0.002615 -0.000762 -0.002680 0.004085
# 3 -0.006783 0.002615 0.050580 0.004204 -0.016191 -0.008582
# 4 0.001034 -0.000762 0.004204 0.033515 -0.001489 0.002574
# 5 0.004067 -0.002680 -0.016191 -0.001489 0.048193 0.014489
# 6 0.003161 0.004085 -0.008582 0.002574 0.014489 0.024872
#
#
# Mechanical properties :
#
#
# Convention : Reuss Voigt Hill
#
# Bulk Modulus (GPa) = 18.17455 50.00850 34.09152
# Shear Modulus (GPa) = 23.81165 40.26548 32.03857
#
# Velocity S-wave (km/s) = 3.09774 4.02826 3.59325
# Velocity P-wave (km/s) = 4.48542 6.46444 5.56363
#
# Compressibility (1/GPa) = 0.05502200
#
# Stress axis : x y z
#
# Youngs Moduli (GPa) = 119.66889 90.04994 19.77073
#
# Poissons Ratio (x) = 0.30090 0.13411
# Poissons Ratio (y) = 0.39987 -0.05170
# Poissons Ratio (z) = 0.81174 -0.23549
#
# Static dielectric constant tensor:
#      x y z
#    x 2.012750 -0.108800 -0.022070 
#    y -0.108800 2.054600 0.003020 
#    z -0.022070 0.003020 2.109960 
# 
# From -- ./inp_files/221656.got.cif
#   From: 2010.05.17/outbox.cif.g08.bks.cpg/sg2_111_cif.got.tgz:221656.got - 2010.06.03 11:33:40.
