data_PCOD9079127
_publ_section_title
;
Structure prediction by ZEFSAII (Michael W. Deem and Ramdas Pophale) SiO2 
 PCOD9079127
Probable space group: P -1
;
_chemical_formula_sum "Si O2"
_cell_formula_units_Z 16
_cell_length_a 9.038333
_cell_length_b 18.940595
_cell_length_c 14.093443
_cell_angle_alpha 151.571495
_cell_angle_beta 137.762014
_cell_angle_gamma 40.133449
_cell_volume 721.930168
_symmetry_space_group_name_H-M "P -1"
_symmetry_group_IT_number 2
_symmetry_cell_setting 'triclinic'
loop_
_space_group_symop_operation_xyz
x,y,z
-x,-y,-z
loop_
_atom_site_type_symbol
_atom_site_label
_atom_site_fract_x
_atom_site_fract_y
_atom_site_fract_z
Si Si1 0.085275 0.437675 0.860221
Si Si2 0.367230 0.481854 0.652532
Si Si3 0.076325 0.385324 0.528310
Si Si4 0.414321 0.761475 0.115340
Si Si5 0.340935 0.646665 0.534214
Si Si6 0.041047 0.686783 0.985806
Si Si7 0.493301 0.087220 0.999327
Si Si8 0.216094 0.034859 0.191501
O O1 0.319640 0.281564 0.774495
O O2 0.133971 0.583387 0.002333
O O3 0.881372 0.394043 0.657175
O O4 0.000000 0.500000 0.000000
O O5 0.319708 0.380970 0.594691
O O6 0.516705 0.363033 0.505980
O O7 0.118969 0.590505 0.616667
O O8 0.463104 0.611566 0.890434
O O9 0.996120 0.552538 0.740694
O O10 0.122729 0.216462 0.395795
O O11 0.317258 0.916714 0.187768
O O12 0.225931 0.748113 0.089281
O O13 0.500000 0.500000 0.500000
O O14 0.352676 0.799597 0.775376
O O15 0.784175 0.815746 0.034456
O O16 0.500000 0.000000 0.000000
O O17 0.601799 0.991253 0.841512
O O18 0.000000 0.000000 0.000000
#
# Coordination Sequence:
#
# PCOD9079127 Si02
#       8
#     2   2   2   2   2   2   2   2
#     4  12  24  42  71 103 140 181 230 287 342 416
#     4  10  18  36  62  96 129 175 223 272 330 402
#     4  10  21  37  68  96 134 174 228 277 332 405
#     4  11  23  41  65  98 135 182 227 280 344 408
#     4  12  22  40  69 102 136 176 231 282 337 408
#     4  11  24  45  69  97 134 183 234 278 339 415
#     4  12  25  41  69 106 141 176 229 293 346 401
#     4  12  24  39  66 102 142 178 222 287 352 400
#
# _framework density 22.162808999999999
#
# number of rings (size 3 to 8) (size 9 to 14) (size 15 to 20)
#    0.000    0.750    5.000    3.375    3.500    0.000 
#    0.000    0.625    5.500    2.250    0.000    0.000 
#    0.000    0.000    0.000    0.000    0.000    0.000 
#
# Total GULP energy -89282.549322 kJ/mol
# GULP energy per Si atom -5580.159333 kJ/mol
# Density = 2.211237 g / cm^3
# Si number density = 22.162809 Si / 1000 Ang^3
#
#
#
# Elastic Constant Matrix: (Units=GPa)
#
#
# Indices 1 2 3 4 5 6 
#
# 1 99.7510 26.1695 -0.0205 3.4908 5.2072 -2.1861
# 2 26.1695 134.5725 18.9802 -2.8445 29.5284 1.8572
# 3 -0.0205 18.9802 70.7135 -2.8635 6.3625 -3.6518
# 4 3.4908 -2.8445 -2.8635 32.9689 3.3869 9.1855
# 5 5.2072 29.5284 6.3625 3.3869 34.9449 3.3566
# 6 -2.1861 1.8572 -3.6518 9.1855 3.3566 39.8700
#
#
#
# Elastic Compliance Matrix: (Units=1/GPa)
#
#
# Indices 1 2 3 4 5 6 
#
# 1 0.010686 -0.002268 0.000579 -0.001609 0.000270 0.001093
# 2 -0.002268 0.009903 -0.001907 0.001881 -0.007813 -0.000536
# 3 0.000579 -0.001907 0.014886 0.000817 -0.001400 0.001414
# 4 -0.001609 0.001881 0.000817 0.033213 -0.004005 -0.007416
# 5 0.000270 -0.007813 -0.001400 -0.004005 0.036000 -0.001858
# 6 0.001093 -0.000536 0.001414 -0.007416 -0.001858 0.027161
#
#
# Mechanical properties :
#
#
# Convention : Reuss Voigt Hill
#
# Bulk Modulus (GPa) = 35.35823 43.92174 39.63999
# Shear Modulus (GPa) = 33.67736 38.88394 36.28065
#
# Velocity S-wave (km/s) = 3.90236 4.19318 4.05038
# Velocity P-wave (km/s) = 6.02437 6.58061 6.30863
#
# Compressibility (1/GPa) = 0.02828196
#
# Stress axis : x y z
#
# Youngs Moduli (GPa) = 93.57809 100.98435 67.17870
#
# Poissons Ratio (x) = 0.22903 -0.03889
# Poissons Ratio (y) = 0.21224 0.12812
# Poissons Ratio (z) = -0.05417 0.19259
#
# Static dielectric constant tensor:
#      x y z
#    x 1.910580 -0.031900 0.050820 
#    y -0.031900 1.827330 -0.030330 
#    z 0.050820 -0.030330 1.796400 
# 
# From -- ./inp_files/507362.got.cif
#   From: 2010.05.17/outbox.cif.g08.bks.cpg/sg2_254_cif.got.tgz:507362.got - 2010.06.03 11:33:40.
