data_PCOD9079363
_publ_section_title
;
Structure prediction by ZEFSAII (Michael W. Deem and Ramdas Pophale) SiO2 
 PCOD9079363
Probable space group: P -1
;
_chemical_formula_sum "Si O2"
_cell_formula_units_Z 14
_cell_length_a 13.869890
_cell_length_b 9.244886
_cell_length_c 12.553139
_cell_angle_alpha 113.274726
_cell_angle_beta 50.956332
_cell_angle_gamma 72.253465
_cell_volume 724.213508
_symmetry_space_group_name_H-M "P -1"
_symmetry_group_IT_number 2
_symmetry_cell_setting 'triclinic'
loop_
_space_group_symop_operation_xyz
x,y,z
-x,-y,-z
loop_
_atom_site_type_symbol
_atom_site_label
_atom_site_fract_x
_atom_site_fract_y
_atom_site_fract_z
Si Si1 0.944219 0.000447 0.882009
Si Si2 0.623519 0.513276 0.626591
Si Si3 0.973580 0.172313 0.703367
Si Si4 0.162419 0.410988 0.941999
Si Si5 0.375522 0.472714 0.693373
Si Si6 0.695023 0.355421 0.761710
Si Si7 0.639661 0.067280 0.209695
O O1 0.913149 0.098143 0.811228
O O2 0.842939 0.238666 0.092604
O O3 0.824222 0.967825 0.994795
O O4 0.173287 0.734746 0.643762
O O5 0.479501 0.505566 0.701716
O O6 0.654393 0.496661 0.725951
O O7 0.527576 0.763979 0.715994
O O8 0.836741 0.297510 0.731878
O O9 0.951099 0.358782 0.832784
O O10 0.191021 0.910785 0.439110
O O11 0.322565 0.362207 0.755914
O O12 0.279869 0.163882 0.854148
O O13 0.000000 0.500000 0.000000
O O14 0.527827 0.286275 0.438983
O O15 0.500000 0.500000 0.000000
#
# Coordination Sequence:
#
# PCOD9079363 Si02
#       7
#     2   2   2   2   2   2   2
#     4   9  19  37  60  84 121 151 200 242 296 333
#     4  10  21  37  63  90 116 151 199 254 295 340
#     4   9  21  40  60  91 114 152 203 242 286 358
#     4  11  25  42  58  83 130 166 190 237 302 358
#     4  10  22  38  56  87 119 158 207 238 280 359
#     4  10  18  36  69  87 111 147 201 255 293 330
#     4  11  23  36  56  88 124 156 199 240 289 365
#
# _framework density 19.331316999999999
#
# number of rings (size 3 to 8) (size 9 to 14) (size 15 to 20)
#    0.000    2.000    0.000    4.714    8.000    1.143 
#    2.571    0.714    0.000   12.000    0.000    0.000 
#    0.000    0.000    0.000    0.000    0.000    0.000 
#
# Total GULP energy -78016.921810 kJ/mol
# GULP energy per Si atom -5572.637272 kJ/mol
# Density = 1.928732 g / cm^3
# Si number density = 19.331317 Si / 1000 Ang^3
#
#
#
# Elastic Constant Matrix: (Units=GPa)
#
#
# Indices 1 2 3 4 5 6 
#
# 1 59.1604 43.7212 33.4774 5.2510 7.0020 -16.5303
# 2 43.7212 148.1510 47.0003 8.6787 -10.5554 -19.9490
# 3 33.4774 47.0003 163.9160 -1.8542 -10.4257 -5.5309
# 4 5.2510 8.6787 -1.8542 31.1708 -3.0395 -0.8327
# 5 7.0020 -10.5554 -10.4257 -3.0395 33.4133 -3.1607
# 6 -16.5303 -19.9490 -5.5309 -0.8327 -3.1607 28.6029
#
#
#
# Elastic Compliance Matrix: (Units=1/GPa)
#
#
# Indices 1 2 3 4 5 6 
#
# 1 0.027797 -0.005872 -0.004229 -0.003847 -0.008393 0.010111
# 2 -0.005872 0.009721 -0.001219 -0.001291 0.004142 0.003570
# 3 -0.004229 -0.001219 0.007465 0.001734 0.002848 -0.001486
# 4 -0.003847 -0.001291 0.001734 0.033531 0.003859 -0.001386
# 5 -0.008393 0.004142 0.002848 0.003859 0.034472 0.002510
# 6 0.010111 0.003570 -0.001486 -0.001386 0.002510 0.043245
#
#
# Mechanical properties :
#
#
# Convention : Reuss Voigt Hill
#
# Bulk Modulus (GPa) = 44.76072 68.84723 56.80398
# Shear Modulus (GPa) = 26.83577 35.10598 30.97088
#
# Velocity S-wave (km/s) = 3.72990 4.26610 4.00698
# Velocity P-wave (km/s) = 6.46176 7.74324 7.13134
#
# Compressibility (1/GPa) = 0.02234102
#
# Stress axis : x y z
#
# Youngs Moduli (GPa) = 35.97573 102.87036 133.96735
#
# Poissons Ratio (x) = 0.60410 0.56660
# Poissons Ratio (y) = 0.21127 0.16326
# Poissons Ratio (z) = 0.15215 0.12537
#
# Static dielectric constant tensor:
#      x y z
#    x 1.693410 -0.050590 -0.010690 
#    y -0.050590 1.725820 0.006380 
#    z -0.010690 0.006380 1.687950 
# 
# From -- ./inp_files/277162.got.cif
#   From: 2010.05.17/outbox.cif.g08.bks.cpg/sg2_139_cif.got.tgz:277162.got - 2010.06.03 11:33:40.
