data_PCOD9079790
_publ_section_title
;
Structure prediction by ZEFSAII (Michael W. Deem and Ramdas Pophale) SiO2 
 PCOD9079790
Probable space group: P -1
;
_chemical_formula_sum "Si O2"
_cell_formula_units_Z 12
_cell_length_a 17.504138
_cell_length_b 5.094815
_cell_length_c 9.502274
_cell_angle_alpha 120.367266
_cell_angle_beta 37.063335
_cell_angle_gamma 109.265800
_cell_volume 436.245340
_symmetry_space_group_name_H-M "P -1"
_symmetry_group_IT_number 2
_symmetry_cell_setting 'triclinic'
loop_
_space_group_symop_operation_xyz
x,y,z
-x,-y,-z
loop_
_atom_site_type_symbol
_atom_site_label
_atom_site_fract_x
_atom_site_fract_y
_atom_site_fract_z
Si Si1 0.610719 0.586740 0.667581
Si Si2 0.427821 0.345512 0.685991
Si Si3 0.148134 0.974710 0.321809
Si Si4 0.714201 0.216978 0.667399
Si Si5 0.777092 0.032101 0.102006
Si Si6 0.948674 0.827537 0.218706
O O1 0.469236 0.525155 0.810786
O O2 0.628807 0.938880 0.718741
O O3 0.644082 0.485806 0.749642
O O4 0.705880 0.344094 0.364433
O O5 0.500000 0.500000 0.500000
O O6 0.500000 0.000000 0.500000
O O7 0.287678 0.262020 0.834301
O O8 0.214022 0.727186 0.274129
O O9 0.125210 0.241069 0.545408
O O10 0.232717 0.962929 0.054855
O O11 0.000000 0.000000 0.500000
O O12 0.840309 0.040789 0.350670
O O13 0.928632 0.000179 0.894562
O O14 0.000000 0.500000 0.000000
#
# Coordination Sequence:
#
# PCOD9079790 Si02
#       6
#     2   2   2   2   2   2
#     4  11  21  39  63  90 123 169 211 259 304 376
#     4  10  22  40  64  94 124 166 217 260 309 375
#     4   8  18  37  61  93 130 164 207 259 322 377
#     4  10  22  39  62  91 130 159 213 254 317 375
#     4  10  18  37  65  92 128 165 214 262 317 367
#     4   9  17  37  65  92 127 165 212 255 319 382
#
# _framework density 27.507458
#
# number of rings (size 3 to 8) (size 9 to 14) (size 15 to 20)
#    1.000    1.333    1.667    2.000    0.000    0.667 
#    0.000    7.500    0.000    0.000    0.000    3.500 
#    0.000    0.000    0.000    0.000    0.000    0.000 
#
# Total GULP energy -66978.711964 kJ/mol
# GULP energy per Si atom -5581.559330 kJ/mol
# Density = 2.744485 g / cm^3
# Si number density = 27.507458 Si / 1000 Ang^3
#
#
#
# Elastic Constant Matrix: (Units=GPa)
#
#
# Indices 1 2 3 4 5 6 
#
# 1 146.3957 25.4967 31.8051 -38.9373 -26.9520 6.4405
# 2 25.4967 126.2168 21.6407 -29.4279 -3.2328 21.6150
# 3 31.8051 21.6407 148.2207 -15.8766 9.9823 4.1587
# 4 -38.9373 -29.4279 -15.8766 53.8173 4.1134 -1.7135
# 5 -26.9520 -3.2328 9.9823 4.1134 76.0710 -7.7719
# 6 6.4405 21.6150 4.1587 -1.7135 -7.7719 47.2927
#
#
#
# Elastic Compliance Matrix: (Units=1/GPa)
#
#
# Indices 1 2 3 4 5 6 
#
# 1 0.009387 -0.000078 -0.001559 0.006036 0.003163 -0.000367
# 2 -0.000078 0.009986 -0.000763 0.005058 -0.000220 -0.004339
# 3 -0.001559 -0.000763 0.007392 0.000749 -0.001629 -0.000330
# 4 0.006036 0.005058 0.000749 0.025817 0.000638 -0.002159
# 5 0.003163 -0.000220 -0.001629 0.000638 0.014666 0.002246
# 6 -0.000367 -0.004339 -0.000330 -0.002159 0.002246 0.023498
#
#
# Mechanical properties :
#
#
# Convention : Reuss Voigt Hill
#
# Bulk Modulus (GPa) = 45.52674 64.30203 54.91439
# Shear Modulus (GPa) = 48.60619 58.22892 53.41755
#
# Velocity S-wave (km/s) = 4.20815 4.60591 4.41151
# Velocity P-wave (km/s) = 6.34019 7.19116 6.77904
#
# Compressibility (1/GPa) = 0.02196511
#
# Stress axis : x y z
#
# Youngs Moduli (GPa) = 106.53174 100.13874 135.28362
#
# Poissons Ratio (x) = 0.00779 0.21092
# Poissons Ratio (y) = 0.00829 0.10322
# Poissons Ratio (z) = 0.16609 0.07641
#
# Static dielectric constant tensor:
#      x y z
#    x 2.243120 -0.074220 0.071950 
#    y -0.074220 2.159700 0.047960 
#    z 0.071950 0.047960 2.341060 
# 
# From -- ./inp_files/322587.got.cif
#   From: 2010.05.17/outbox.cif.g08.bks.cpg/sg2_162_cif.got.tgz:322587.got - 2010.06.03 11:33:40.
