data_PCOD9079647
_publ_section_title
;
Structure prediction by ZEFSAII (Michael W. Deem and Ramdas Pophale) SiO2 
 PCOD9079647
Probable space group: P -1
;
_chemical_formula_sum "Si O2"
_cell_formula_units_Z 15
_cell_length_a 7.400853
_cell_length_b 13.379668
_cell_length_c 11.800804
_cell_angle_alpha 147.769565
_cell_angle_beta 78.497265
_cell_angle_gamma 111.140577
_cell_volume 567.996206
_symmetry_space_group_name_H-M "P -1"
_symmetry_group_IT_number 2
_symmetry_cell_setting 'triclinic'
loop_
_space_group_symop_operation_xyz
x,y,z
-x,-y,-z
loop_
_atom_site_type_symbol
_atom_site_label
_atom_site_fract_x
_atom_site_fract_y
_atom_site_fract_z
Si Si1 0.729689 0.623171 0.566716
Si Si2 0.215592 0.019250 0.798048
Si Si3 0.000000 0.500000 0.000000
Si Si4 0.421078 0.735102 0.133079
Si Si5 0.734663 0.062407 0.038242
Si Si6 0.897093 0.605988 0.759998
Si Si7 0.458985 0.656515 0.308951
Si Si8 0.863445 0.753207 0.439828
O O1 0.500000 0.500000 0.500000
O O2 0.834306 0.553190 0.587609
O O3 0.798884 0.601932 0.411272
O O4 0.772315 0.861708 0.803198
O O5 0.431333 0.077656 0.772755
O O6 0.202235 0.898769 0.800357
O O7 0.052486 0.929463 0.636047
O O8 0.194602 0.224129 0.037912
O O9 0.065201 0.332108 0.761124
O O10 0.810239 0.324585 0.915498
O O11 0.442926 0.749571 0.279806
O O12 0.489099 0.545433 0.914253
O O13 0.870416 0.253670 0.132647
O O14 0.500000 0.000000 0.000000
O O15 0.760494 0.422161 0.680810
O O16 0.659372 0.789402 0.476203
#
# Coordination Sequence:
#
# PCOD9079647 Si02
#       8
#     2   2   1   2   2   2   2   2
#     4  11  20  39  69  93 124 172 210 249 328 398
#     4  10  20  38  66  84 125 171 208 254 322 392
#     4  10  24  38  58  84 126 166 210 260 306 368
#     4   9  20  39  57  86 118 167 210 255 310 362
#     4  11  23  39  61 103 131 157 209 272 324 372
#     4  10  18  37  62  92 123 165 204 258 322 387
#     4   9  19  35  61  87 120 157 212 258 302 376
#     4  11  20  39  62  91 122 165 213 260 317 376
#
# _framework density 26.408626000000002
#
# number of rings (size 3 to 8) (size 9 to 14) (size 15 to 20)
#    0.000    1.867    4.000    0.800    1.867    2.133 
#    2.400    0.667    0.000    0.000    0.000    0.000 
#    0.000    0.000    0.000    0.000    0.000    0.000 
#
# Total GULP energy -83646.345161 kJ/mol
# GULP energy per Si atom -5576.423011 kJ/mol
# Density = 2.634852 g / cm^3
# Si number density = 26.408626 Si / 1000 Ang^3
#
#
#
# Elastic Constant Matrix: (Units=GPa)
#
#
# Indices 1 2 3 4 5 6 
#
# 1 90.2248 50.2286 34.6522 9.0767 -2.0037 42.2238
# 2 50.2286 157.6703 13.4370 -1.7395 -7.0159 55.5600
# 3 34.6522 13.4370 74.7290 -0.9983 -14.5518 6.7641
# 4 9.0767 -1.7395 -0.9983 27.6185 12.4742 -2.2825
# 5 -2.0037 -7.0159 -14.5518 12.4742 39.9778 9.8067
# 6 42.2238 55.5600 6.7641 -2.2825 9.8067 59.1626
#
#
#
# Elastic Compliance Matrix: (Units=1/GPa)
#
#
# Indices 1 2 3 4 5 6 
#
# 1 0.024113 -0.000882 -0.008500 -0.012374 0.005960 -0.016874
# 2 -0.000882 0.010325 0.000416 -0.002157 0.005054 -0.010035
# 3 -0.008500 0.000416 0.017996 0.001419 0.005059 0.002834
# 4 -0.012374 -0.002157 0.001419 0.050639 -0.020207 0.015998
# 5 0.005960 0.005054 0.005059 -0.020207 0.038451 -0.016732
# 6 -0.016874 -0.010035 0.002834 0.015998 -0.016732 0.041437
#
#
# Mechanical properties :
#
#
# Convention : Reuss Voigt Hill
#
# Bulk Modulus (GPa) = 28.98366 57.69554 43.33960
# Shear Modulus (GPa) = 23.54115 40.30551 31.92333
#
# Velocity S-wave (km/s) = 2.98890 3.91093 3.48058
# Velocity P-wave (km/s) = 4.78647 6.50296 5.70959
#
# Compressibility (1/GPa) = 0.03450220
#
# Stress axis : x y z
#
# Youngs Moduli (GPa) = 41.47063 96.84871 55.56777
#
# Poissons Ratio (x) = 0.08547 0.47234
# Poissons Ratio (y) = 0.03660 -0.02313
# Poissons Ratio (z) = 0.35251 -0.04032
#
# Static dielectric constant tensor:
#      x y z
#    x 2.134580 0.027740 -0.024420 
#    y 0.027740 2.040600 0.019940 
#    z -0.024420 0.019940 2.106960 
# 
# From -- ./inp_files/170239.got.cif
#   From: 2010.05.17/outbox.cif.g08.bks.cpg/sg2_86_cif.got.tgz:170239.got - 2010.06.03 11:33:40.
