data_PCOD9079062
_publ_section_title
;
Structure prediction by ZEFSAII (Michael W. Deem and Ramdas Pophale) SiO2 
 PCOD9079062
Probable space group: P -1
;
_chemical_formula_sum "Si O2"
_cell_formula_units_Z 16
_cell_length_a 10.865902
_cell_length_b 8.580041
_cell_length_c 17.274125
_cell_angle_alpha 52.845238
_cell_angle_beta 147.843835
_cell_angle_gamma 114.123055
_cell_volume 662.849686
_symmetry_space_group_name_H-M "P -1"
_symmetry_group_IT_number 2
_symmetry_cell_setting 'triclinic'
loop_
_space_group_symop_operation_xyz
x,y,z
-x,-y,-z
loop_
_atom_site_type_symbol
_atom_site_label
_atom_site_fract_x
_atom_site_fract_y
_atom_site_fract_z
Si Si1 0.519147 0.847496 0.389707
Si Si2 0.294888 0.518827 0.949185
Si Si3 0.327011 0.557567 0.127866
Si Si4 0.963428 0.687764 0.238883
Si Si5 0.481265 0.487612 0.389393
Si Si6 0.679537 0.808669 0.194078
Si Si7 0.949011 0.958415 0.635697
Si Si8 0.110633 0.080353 0.209215
O O1 0.416030 0.726982 0.303321
O O2 0.602179 0.654393 0.549689
O O3 0.748444 0.939402 0.472237
O O4 0.321003 0.012387 0.280163
O O5 0.121442 0.392003 0.860500
O O6 0.151360 0.751038 0.805633
O O7 0.500000 0.500000 0.000000
O O8 0.359149 0.459043 0.089939
O O9 0.389064 0.428834 0.276232
O O10 0.519282 0.695288 0.191177
O O11 0.063521 0.700529 0.953326
O O12 0.798899 0.665284 0.230210
O O13 0.233071 0.580159 0.435187
O O14 0.948270 0.923125 0.152789
O O15 0.896699 0.874056 0.333752
O O16 0.500000 0.000000 0.000000
O O17 0.823939 0.969951 0.650501
#
# Coordination Sequence:
#
# PCOD9079062 Si02
#       8
#     2   2   2   2   2   2   2   2
#     4  10  20  41  63  82 117 167 207 233 303 360
#     4  11  19  33  61  89 118 158 198 240 293 368
#     4  11  22  38  60  97 123 149 201 255 299 341
#     4  10  18  36  62  85 116 167 196 227 305 367
#     4  10  23  38  61  91 122 154 199 260 296 344
#     4  11  18  36  62  87 121 159 195 239 302 367
#     4  10  19  34  63  89 109 158 209 235 283 369
#     4   9  20  35  64  83 115 162 201 242 291 361
#
# _framework density 24.138204000000002
#
# number of rings (size 3 to 8) (size 9 to 14) (size 15 to 20)
#    0.000    1.750    6.250    0.375    0.000    1.000 
#    0.000    3.125   11.000    0.000    0.000    0.000 
#    0.000    0.000    0.000    0.000    0.000    0.000 
#
# Total GULP energy -89421.416412 kJ/mol
# GULP energy per Si atom -5588.838526 kJ/mol
# Density = 2.408326 g / cm^3
# Si number density = 24.138204 Si / 1000 Ang^3
#
#
#
# Elastic Constant Matrix: (Units=GPa)
#
#
# Indices 1 2 3 4 5 6 
#
# 1 78.7349 26.1816 42.7943 -1.5805 13.2445 -27.5265
# 2 26.1816 108.6189 24.4202 29.9317 2.9954 -18.1250
# 3 42.7943 24.4202 65.3678 21.5251 12.1847 -10.9212
# 4 -1.5805 29.9317 21.5251 42.8309 -6.5562 5.2680
# 5 13.2445 2.9954 12.1847 -6.5562 39.6917 4.3850
# 6 -27.5265 -18.1250 -10.9212 5.2680 4.3850 41.0374
#
#
#
# Elastic Compliance Matrix: (Units=1/GPa)
#
#
# Indices 1 2 3 4 5 6 
#
# 1 0.028960 -0.003857 -0.018724 0.011279 -0.003045 0.011617
# 2 -0.003857 0.014226 0.003355 -0.013162 -0.003728 0.006677
# 3 -0.018724 0.003355 0.035863 -0.022730 -0.009028 0.002349
# 4 0.011279 -0.013162 -0.022730 0.047902 0.013432 -0.011881
# 5 -0.003045 -0.003728 -0.009028 0.013432 0.032732 -0.011314
# 6 0.011617 0.006677 0.002349 -0.011881 -0.011314 0.038468
#
#
# Mechanical properties :
#
#
# Convention : Reuss Voigt Hill
#
# Bulk Modulus (GPa) = 24.63247 48.83489 36.73368
# Shear Modulus (GPa) = 19.98913 35.33370 27.66141
#
# Velocity S-wave (km/s) = 2.88081 3.83013 3.38888
# Velocity P-wave (km/s) = 4.61437 6.31151 5.52845
#
# Compressibility (1/GPa) = 0.04059682
#
# Stress axis : x y z
#
# Youngs Moduli (GPa) = 34.52995 70.29501 27.88381
#
# Poissons Ratio (x) = 0.27110 0.52211
# Poissons Ratio (y) = 0.13317 -0.09355
# Poissons Ratio (z) = 0.64655 -0.23583
#
# Static dielectric constant tensor:
#      x y z
#    x 1.947290 -0.005450 -0.011590 
#    y -0.005450 2.007300 0.039820 
#    z -0.011590 0.039820 1.934440 
# 
# From -- ./inp_files/299507.got.cif
#   From: 2010.05.17/outbox.cif.g08.bks.cpg/sg2_150_cif.got.tgz:299507.got - 2010.06.03 11:33:40.
