data_PCOD9079618
_publ_section_title
;
Structure prediction by ZEFSAII (Michael W. Deem and Ramdas Pophale) SiO2 
 PCOD9079618
Probable space group: P -1
;
_chemical_formula_sum "Si O2"
_cell_formula_units_Z 16
_cell_length_a 13.518806
_cell_length_b 9.117193
_cell_length_c 22.297845
_cell_angle_alpha 46.336546
_cell_angle_beta 157.563576
_cell_angle_gamma 135.588018
_cell_volume 729.341141
_symmetry_space_group_name_H-M "P -1"
_symmetry_group_IT_number 2
_symmetry_cell_setting 'triclinic'
loop_
_space_group_symop_operation_xyz
x,y,z
-x,-y,-z
loop_
_atom_site_type_symbol
_atom_site_label
_atom_site_fract_x
_atom_site_fract_y
_atom_site_fract_z
Si Si1 0.468989 0.853703 0.082616
Si Si2 0.824447 0.481262 0.712722
Si Si3 0.135244 0.196065 0.252928
Si Si4 0.499186 0.635338 0.694991
Si Si5 0.517931 0.194496 0.772102
Si Si6 0.014965 0.810022 0.382683
Si Si7 0.733319 0.821916 0.489834
Si Si8 0.931159 0.767149 0.000423
O O1 0.541440 0.957626 0.160050
O O2 0.692429 0.728658 0.230383
O O3 0.148104 0.756082 0.936410
O O4 0.500000 0.000000 0.000000
O O5 0.749147 0.625802 0.682533
O O6 0.869339 0.635764 0.637295
O O7 0.568408 0.276642 0.623542
O O8 0.064400 0.397077 0.897026
O O9 0.329295 0.203782 0.304033
O O10 0.072898 0.971321 0.313697
O O11 0.516136 0.415428 0.738715
O O12 0.196468 0.652079 0.523471
O O13 0.662844 0.701707 0.829322
O O14 0.314195 0.146828 0.615623
O O15 0.814237 0.225085 0.902317
O O16 0.121502 0.962791 0.456274
O O17 0.000000 0.000000 0.000000
#
# Coordination Sequence:
#
# PCOD9079618 Si02
#       8
#     2   2   2   2   2   2   2   2
#     4  10  22  40  58  83 123 162 195 236 294 358
#     4   9  17  33  56  84 116 150 188 242 300 340
#     4  10  18  37  62  87 114 154 198 244 292 345
#     4  12  20  35  61  92 115 147 203 257 287 339
#     4  11  21  37  61  86 116 160 199 238 299 350
#     4  10  23  36  56  89 124 157 191 240 296 351
#     4   9  18  35  56  84 118 150 191 240 295 347
#     4  11  21  34  55  88 121 150 191 248 300 344
#
# _framework density 21.937608000000001
#
# number of rings (size 3 to 8) (size 9 to 14) (size 15 to 20)
#    0.000    1.750    3.750    3.000    0.000    1.000 
#    2.250    0.000    0.000    0.000    0.000    8.750 
#    0.000    0.000    0.000    0.000    0.000    0.000 
#
# Total GULP energy -89264.012197 kJ/mol
# GULP energy per Si atom -5579.000762 kJ/mol
# Density = 2.188768 g / cm^3
# Si number density = 21.937608 Si / 1000 Ang^3
#
#
#
# Elastic Constant Matrix: (Units=GPa)
#
#
# Indices 1 2 3 4 5 6 
#
# 1 103.0657 19.0239 55.4032 -0.0176 -15.2496 10.7490
# 2 19.0239 57.6181 15.7991 -1.9848 2.9948 -15.7546
# 3 55.4032 15.7991 143.0983 -11.1272 2.8914 -13.0388
# 4 -0.0176 -1.9848 -11.1272 33.4693 -2.3355 1.0052
# 5 -15.2496 2.9948 2.8914 -2.3355 56.2466 -2.8220
# 6 10.7490 -15.7546 -13.0388 1.0052 -2.8220 23.7354
#
#
#
# Elastic Compliance Matrix: (Units=1/GPa)
#
#
# Indices 1 2 3 4 5 6 
#
# 1 0.018279 -0.009108 -0.007993 -0.002307 0.004851 -0.018039
# 2 -0.009108 0.025929 0.002899 0.001625 -0.002801 0.022526
# 3 -0.007993 0.002899 0.011092 0.003365 -0.002188 0.011234
# 4 -0.002307 0.001625 0.003365 0.031048 0.000541 0.002721
# 5 0.004851 -0.002801 -0.002188 0.000541 0.019228 -0.002995
# 6 -0.018039 0.022526 0.011234 0.002721 -0.002995 0.070952
#
#
# Mechanical properties :
#
#
# Convention : Reuss Voigt Hill
#
# Bulk Modulus (GPa) = 37.17905 53.80386 45.49145
# Shear Modulus (GPa) = 23.37585 36.92731 30.15158
#
# Velocity S-wave (km/s) = 3.26783 4.10724 3.71134
# Velocity P-wave (km/s) = 5.58773 6.86088 6.25677
#
# Compressibility (1/GPa) = 0.02689687
#
# Stress axis : x y z
#
# Youngs Moduli (GPa) = 54.70834 38.56745 90.15373
#
# Poissons Ratio (x) = 0.35126 0.72056
# Poissons Ratio (y) = 0.49827 -0.26135
# Poissons Ratio (z) = 0.43726 -0.11180
#
# Static dielectric constant tensor:
#      x y z
#    x 1.849590 0.081940 -0.059520 
#    y 0.081940 1.837850 -0.018740 
#    z -0.059520 -0.018740 1.888410 
# 
# From -- ./inp_files/403201.got.cif
#   From: 2010.05.17/outbox.cif.g08.bks.cpg/sg2_202_cif.got.tgz:403201.got - 2010.06.03 11:33:40.
