data_PCOD9079422
_publ_section_title
;
Structure prediction by ZEFSAII (Michael W. Deem and Ramdas Pophale) SiO2 
 PCOD9079422
Probable space group: P -1
;
_chemical_formula_sum "Si O2"
_cell_formula_units_Z 15
_cell_length_a 17.820266
_cell_length_b 21.840785
_cell_length_c 4.924080
_cell_angle_alpha 93.097719
_cell_angle_beta 77.921208
_cell_angle_gamma 25.863006
_cell_volume 672.766679
_symmetry_space_group_name_H-M "P -1"
_symmetry_group_IT_number 2
_symmetry_cell_setting 'triclinic'
loop_
_space_group_symop_operation_xyz
x,y,z
-x,-y,-z
loop_
_atom_site_type_symbol
_atom_site_label
_atom_site_fract_x
_atom_site_fract_y
_atom_site_fract_z
Si Si1 0.000000 0.500000 0.500000
Si Si2 0.271946 0.692411 0.327708
Si Si3 0.332637 0.459884 0.581773
Si Si4 0.270154 0.113714 0.444914
Si Si5 0.901026 0.305651 0.686278
Si Si6 0.082743 0.533722 0.968132
Si Si7 0.725595 0.782877 0.935717
Si Si8 0.223375 0.808782 0.893332
O O1 0.116509 0.466100 0.180361
O O2 0.753765 0.713388 0.655843
O O3 0.119972 0.747879 0.408733
O O4 0.278743 0.709600 0.634694
O O5 0.500000 0.500000 0.000000
O O6 0.209254 0.795802 0.208156
O O7 0.202354 0.573233 0.435289
O O8 0.580168 0.290618 0.310211
O O9 0.237038 0.576568 0.912629
O O10 0.275197 0.433722 0.709644
O O11 0.114597 0.271891 0.780758
O O12 0.142757 0.146343 0.514073
O O13 0.515514 0.926813 0.298900
O O14 0.279186 0.145713 0.164892
O O15 0.968371 0.583323 0.813373
O O16 0.000000 0.000000 0.000000
#
# Coordination Sequence:
#
# PCOD9079422 Si02
#       8
#     1   2   2   2   2   2   2   2
#     4  10  22  36  54  82 118 162 206 244 300 386
#     4  12  22  41  71  92 126 169 219 263 318 378
#     4  11  21  39  65  90 125 162 212 257 313 385
#     4   9  20  34  58  87 115 146 202 257 304 352
#     4  11  21  38  64  97 119 158 214 265 307 366
#     4  10  20  36  61  81 116 164 205 249 306 363
#     4  10  18  37  57  82 114 158 196 246 311 361
#     4  12  25  43  64  98 133 173 207 266 329 388
#
# _framework density 22.295988999999999
#
# number of rings (size 3 to 8) (size 9 to 14) (size 15 to 20)
#    0.000    1.333    4.000    2.400    0.000    0.000 
#    2.400    1.333    0.000    0.000    0.000    0.000 
#    0.000    0.000    0.000    0.000    0.000    0.000 
#
# Total GULP energy -83625.062888 kJ/mol
# GULP energy per Si atom -5575.004193 kJ/mol
# Density = 2.224524 g / cm^3
# Si number density = 22.295989 Si / 1000 Ang^3
#
#
#
# Elastic Constant Matrix: (Units=GPa)
#
#
# Indices 1 2 3 4 5 6 
#
# 1 136.6939 12.3346 40.7353 7.8461 -37.2261 0.6463
# 2 12.3346 72.9325 15.6744 -8.6902 -21.8704 -0.5674
# 3 40.7353 15.6744 69.7844 -2.3291 -17.2970 -2.0006
# 4 7.8461 -8.6902 -2.3291 39.7456 -2.1582 2.4503
# 5 -37.2261 -21.8704 -17.2970 -2.1582 49.8676 -4.7757
# 6 0.6463 -0.5674 -2.0006 2.4503 -4.7757 26.1967
#
#
#
# Elastic Compliance Matrix: (Units=1/GPa)
#
#
# Indices 1 2 3 4 5 6 
#
# 1 0.010568 0.001032 -0.004784 -0.001827 0.006678 0.000785
# 2 0.001032 0.016758 -0.002330 0.003662 0.007585 0.001200
# 3 -0.004784 -0.002330 0.018229 0.001506 0.001956 0.001675
# 4 -0.001827 0.003662 0.001506 0.026623 0.001732 -0.001935
# 5 0.006678 0.007585 0.001956 0.001732 0.029634 0.005389
# 6 0.000785 0.001200 0.001675 -0.001935 0.005389 0.039471
#
#
# Mechanical properties :
#
#
# Convention : Reuss Voigt Hill
#
# Bulk Modulus (GPa) = 29.94807 46.32216 38.13512
# Shear Modulus (GPa) = 30.38116 37.20640 33.79378
#
# Velocity S-wave (km/s) = 3.69539 4.08946 3.89741
# Velocity P-wave (km/s) = 5.62752 6.56654 6.11508
#
# Compressibility (1/GPa) = 0.03339113
#
# Stress axis : x y z
#
# Youngs Moduli (GPa) = 94.62582 59.67423 54.85898
#
# Poissons Ratio (x) = -0.06158 0.26243
# Poissons Ratio (y) = -0.09765 0.12780
# Poissons Ratio (z) = 0.45267 0.13902
#
# Static dielectric constant tensor:
#      x y z
#    x 1.692730 -0.238420 0.064780 
#    y -0.238420 1.762030 -0.042330 
#    z 0.064780 -0.042330 1.892730 
# 
# From -- ./inp_files/111975.got.cif
#   From: 2010.05.17/outbox.cif.g08.bks.cpg/sg2_56_cif.got.tgz:111975.got - 2010.06.03 11:33:40.
