data_PCOD9079122
_publ_section_title
;
Structure prediction by ZEFSAII (Michael W. Deem and Ramdas Pophale) SiO2 
 PCOD9079122
Probable space group: P -1
;
_chemical_formula_sum "Si O2"
_cell_formula_units_Z 14
_cell_length_a 15.781019
_cell_length_b 9.608207
_cell_length_c 7.095073
_cell_angle_alpha 108.044672
_cell_angle_beta 66.437998
_cell_angle_gamma 61.938786
_cell_volume 685.880813
_symmetry_space_group_name_H-M "P -1"
_symmetry_group_IT_number 2
_symmetry_cell_setting 'triclinic'
loop_
_space_group_symop_operation_xyz
x,y,z
-x,-y,-z
loop_
_atom_site_type_symbol
_atom_site_label
_atom_site_fract_x
_atom_site_fract_y
_atom_site_fract_z
Si Si1 0.789178 0.414213 0.958730
Si Si2 0.972547 0.736158 0.153969
Si Si3 0.048841 0.898463 0.634318
Si Si4 0.365150 0.590443 0.589490
Si Si5 0.826176 0.949901 0.021974
Si Si6 0.132767 0.320446 0.418937
Si Si7 0.271506 0.469945 0.349163
O O1 0.712460 0.554103 0.903229
O O2 0.893733 0.202848 0.664065
O O3 0.877371 0.431717 0.004077
O O4 0.705605 0.413145 0.175065
O O5 0.093649 0.277769 0.624278
O O6 0.907610 0.770278 0.028100
O O7 0.944469 0.939753 0.262030
O O8 0.921802 0.954297 0.827335
O O9 0.150989 0.705529 0.593510
O O10 0.500000 0.500000 0.500000
O O11 0.374652 0.452875 0.362748
O O12 0.284102 0.824811 0.709755
O O13 0.787579 0.873128 0.868223
O O14 0.218680 0.368357 0.406398
O O15 0.000000 0.500000 0.500000
#
# Coordination Sequence:
#
# PCOD9079122 Si02
#       7
#     2   2   2   2   2   2   2
#     4  10  20  34  64  89 126 159 194 257 318 359
#     4  12  20  33  65  98 131 162 191 254 334 376
#     4  10  18  36  62  94 124 156 200 258 321 372
#     4  12  26  43  65  89 119 175 229 258 288 356
#     4  12  22  37  63  94 131 159 210 255 312 378
#     4  12  23  38  58 106 137 157 189 249 339 397
#     4  10  23  42  61  96 132 154 210 260 312 381
#
# _framework density 20.411708999999998
#
# number of rings (size 3 to 8) (size 9 to 14) (size 15 to 20)
#    0.857    0.000    7.143    2.571    0.000    2.286 
#    0.000    0.714    0.000    1.714    0.000    0.000 
#    0.000    0.000    0.000    0.000    0.000    0.000 
#
# Total GULP energy -77989.433075 kJ/mol
# GULP energy per Si atom -5570.673791 kJ/mol
# Density = 2.036525 g / cm^3
# Si number density = 20.411709 Si / 1000 Ang^3
#
#
#
# Elastic Constant Matrix: (Units=GPa)
#
#
# Indices 1 2 3 4 5 6 
#
# 1 139.6360 52.4820 28.2008 -7.0408 20.0544 -2.3828
# 2 52.4820 83.0280 29.3591 -23.4744 19.3785 11.5559
# 3 28.2008 29.3591 48.6538 -16.9012 18.4889 -3.7942
# 4 -7.0408 -23.4744 -16.9012 34.1707 2.2363 9.6758
# 5 20.0544 19.3785 18.4889 2.2363 25.7650 6.4671
# 6 -2.3828 11.5559 -3.7942 9.6758 6.4671 30.9971
#
#
#
# Elastic Compliance Matrix: (Units=1/GPa)
#
#
# Indices 1 2 3 4 5 6 
#
# 1 0.010685 -0.008083 -0.002467 -0.006102 -0.001374 0.005724
# 2 -0.008083 0.029572 -0.001421 0.023448 -0.012834 -0.016461
# 3 -0.002467 -0.001421 0.041256 0.019289 -0.029687 0.005563
# 4 -0.006102 0.023448 0.019289 0.061174 -0.026936 -0.020325
# 5 -0.001374 -0.012834 -0.029687 -0.026936 0.074716 -0.006135
# 6 0.005724 -0.016461 0.005563 -0.020325 -0.006135 0.047144
#
#
# Mechanical properties :
#
#
# Convention : Reuss Voigt Hill
#
# Bulk Modulus (GPa) = 17.36961 54.60018 35.98489
# Shear Modulus (GPa) = 16.25070 28.93830 22.59450
#
# Velocity S-wave (km/s) = 2.82467 3.76936 3.33068
# Velocity P-wave (km/s) = 4.37795 6.76399 5.69728
#
# Compressibility (1/GPa) = 0.05757182
#
# Stress axis : x y z
#
# Youngs Moduli (GPa) = 93.58888 33.81612 24.23864
#
# Poissons Ratio (x) = 0.27333 0.05980
# Poissons Ratio (y) = 0.75647 0.03444
# Poissons Ratio (z) = 0.23088 0.04805
#
# Static dielectric constant tensor:
#      x y z
#    x 1.797030 -0.093820 0.088710 
#    y -0.093820 1.848720 -0.008460 
#    z 0.088710 -0.008460 1.779400 
# 
# From -- ./inp_files/304133.got.cif
#   From: 2010.05.17/outbox.cif.g08.bks.cpg/sg2_153_cif.got.tgz:304133.got - 2010.06.03 11:33:40.
