data_PCOD9079050
_publ_section_title
;
Structure prediction by ZEFSAII (Michael W. Deem and Ramdas Pophale) SiO2 
 PCOD9079050
Probable space group: P -1
;
_chemical_formula_sum "Si O2"
_cell_formula_units_Z 15
_cell_length_a 25.529345
_cell_length_b 9.978095
_cell_length_c 13.172134
_cell_angle_alpha 147.526505
_cell_angle_beta 158.794528
_cell_angle_gamma 33.923870
_cell_volume 635.267380
_symmetry_space_group_name_H-M "P -1"
_symmetry_group_IT_number 2
_symmetry_cell_setting 'triclinic'
loop_
_space_group_symop_operation_xyz
x,y,z
-x,-y,-z
loop_
_atom_site_type_symbol
_atom_site_label
_atom_site_fract_x
_atom_site_fract_y
_atom_site_fract_z
Si Si1 0.204781 0.575840 0.482745
Si Si2 0.719435 0.707242 0.261084
Si Si3 0.012289 0.744914 0.573714
Si Si4 0.999180 0.236748 0.965836
Si Si5 0.454964 0.681343 0.887534
Si Si6 0.000000 0.000000 0.500000
Si Si7 0.664982 0.743406 0.958620
Si Si8 0.725387 0.282280 0.627609
O O1 0.106123 0.644099 0.244242
O O2 0.373367 0.524469 0.716781
O O3 0.155958 0.827304 0.622907
O O4 0.139872 0.360952 0.286406
O O5 0.877571 0.527910 0.406354
O O6 0.632539 0.721232 0.005121
O O7 0.732962 0.994441 0.494886
O O8 0.624326 0.600401 0.106131
O O9 0.043415 0.879786 0.612907
O O10 0.839432 0.747395 0.269828
O O11 0.043083 0.932158 0.838132
O O12 0.892189 0.310209 0.915919
O O13 0.362087 0.692408 0.621241
O O14 0.424724 0.976883 0.059074
O O15 0.651954 0.503083 0.713569
#
# Coordination Sequence:
#
# PCOD9079050 Si02
#       8
#     2   2   2   2   2   1   2   2
#     4   9  17  33  57  85 110 149 203 245 288 345
#     4  11  24  39  57  89 134 156 190 249 308 356
#     4  11  21  39  60  92 118 157 201 257 300 344
#     4   9  17  32  58  86 114 146 198 257 286 334
#     4  10  21  40  59  89 126 161 194 243 302 363
#     4  10  18  36  62  82 110 152 208 246 286 352
#     4  11  20  38  65  88 119 160 209 240 293 359
#     4  10  20  36  64  90 116 160 205 244 292 358
#
# _framework density 23.612103999999999
#
# number of rings (size 3 to 8) (size 9 to 14) (size 15 to 20)
#    0.000    1.867    5.333    2.800    0.000    3.733 
#    2.400    1.333    0.000    0.000    0.000    0.000 
#    0.000    0.000    0.000    0.000    0.000    0.000 
#
# Total GULP energy -83569.164319 kJ/mol
# GULP energy per Si atom -5571.277621 kJ/mol
# Density = 2.355836 g / cm^3
# Si number density = 23.612104 Si / 1000 Ang^3
#
#
#
# Elastic Constant Matrix: (Units=GPa)
#
#
# Indices 1 2 3 4 5 6 
#
# 1 80.3807 7.8192 37.6459 5.3847 20.7989 -26.9676
# 2 7.8192 86.0376 32.0936 9.0691 -6.4509 -24.4749
# 3 37.6459 32.0936 107.4507 -7.3148 29.2684 -12.9918
# 4 5.3847 9.0691 -7.3148 30.9624 -11.8492 -5.9639
# 5 20.7989 -6.4509 29.2684 -11.8492 44.3863 -9.3821
# 6 -26.9676 -24.4749 -12.9918 -5.9639 -9.3821 30.7527
#
#
#
# Elastic Compliance Matrix: (Units=1/GPa)
#
#
# Indices 1 2 3 4 5 6 
#
# 1 0.023192 0.007218 -0.007579 -0.004311 -0.001403 0.021616
# 2 0.007218 0.021729 -0.009169 -0.001547 0.010176 0.022554
# 3 -0.007579 -0.009169 0.016425 0.002168 -0.010074 -0.009658
# 4 -0.004311 -0.001547 0.002168 0.040360 0.012751 0.007621
# 5 -0.001403 0.010176 -0.010074 0.012751 0.038254 0.016756
# 6 0.021616 0.022554 -0.009658 0.007621 0.016756 0.071933
#
#
# Mechanical properties :
#
#
# Convention : Reuss Voigt Hill
#
# Bulk Modulus (GPa) = 23.64912 47.66516 35.65714
# Shear Modulus (GPa) = 20.40412 34.30763 27.35587
#
# Velocity S-wave (km/s) = 2.94281 3.81592 3.40744
# Velocity P-wave (km/s) = 4.64589 6.29647 5.53307
#
# Compressibility (1/GPa) = 0.04228487
#
# Stress axis : x y z
#
# Youngs Moduli (GPa) = 43.11782 46.02159 60.88440
#
# Poissons Ratio (x) = -0.33217 0.46145
# Poissons Ratio (y) = -0.31121 0.55825
# Poissons Ratio (z) = 0.32680 0.42198
#
# Static dielectric constant tensor:
#      x y z
#    x 1.900600 0.048510 -0.034710 
#    y 0.048510 1.888780 0.010120 
#    z -0.034710 0.010120 1.940910 
# 
# From -- ./inp_files/579748.got.cif
#   From: 2010.05.17/outbox.cif.g08.bks.cpg/sg2_290_cif.got.tgz:579748.got - 2010.06.03 11:33:40.
