data_PCOD9079702
_publ_section_title
;
Structure prediction by ZEFSAII (Michael W. Deem and Ramdas Pophale) SiO2 
 PCOD9079702
Probable space group: P -1
;
_chemical_formula_sum "Si O2"
_cell_formula_units_Z 14
_cell_length_a 10.325179
_cell_length_b 11.469946
_cell_length_c 7.877298
_cell_angle_alpha 114.075877
_cell_angle_beta 64.305411
_cell_angle_gamma 140.923917
_cell_volume 525.710375
_symmetry_space_group_name_H-M "P -1"
_symmetry_group_IT_number 2
_symmetry_cell_setting 'triclinic'
loop_
_space_group_symop_operation_xyz
x,y,z
-x,-y,-z
loop_
_atom_site_type_symbol
_atom_site_label
_atom_site_fract_x
_atom_site_fract_y
_atom_site_fract_z
Si Si1 0.428885 0.558123 0.210902
Si Si2 0.700487 0.177982 0.305821
Si Si3 0.367495 0.288095 0.333901
Si Si4 0.746135 0.180199 0.677950
Si Si5 0.781476 0.933434 0.057431
Si Si6 0.890259 0.527977 0.889732
Si Si7 0.826969 0.641019 0.325166
O O1 0.381862 0.437456 0.322944
O O2 0.615107 0.779186 0.205420
O O3 0.214144 0.479967 0.222550
O O4 0.500000 0.500000 0.000000
O O5 0.716501 0.205635 0.515232
O O6 0.878929 0.372333 0.225623
O O7 0.461517 0.036505 0.296980
O O8 0.774756 0.080651 0.169311
O O9 0.606515 0.419083 0.329333
O O10 0.225273 0.241722 0.545327
O O11 0.289477 0.147519 0.143686
O O12 0.755645 0.312634 0.868954
O O13 0.966268 0.252621 0.619392
O O14 0.000000 0.000000 0.000000
O O15 0.888812 0.634786 0.096943
#
# Coordination Sequence:
#
# PCOD9079702 Si02
#       7
#     2   2   2   2   2   2   2
#     4  10  18  37  63  93 117 161 213 253 307 366
#     4  11  24  41  68  95 123 164 221 262 309 372
#     4  10  22  40  65  94 125 171 210 257 318 377
#     4  11  24  44  63  94 129 166 213 264 312 375
#     4  11  20  36  65  95 127 157 213 273 307 361
#     4  12  22  41  69  93 126 170 206 261 320 373
#     4  11  22  40  65  91 132 167 209 255 320 384
#
# _framework density 26.630633
#
# number of rings (size 3 to 8) (size 9 to 14) (size 15 to 20)
#    0.000    1.143    4.286    4.286    0.000    0.571 
#    0.000    0.714    6.286    0.000    0.000    0.000 
#    0.000    0.000    0.000    0.000    0.000    0.000 
#
# Total GULP energy -78248.736989 kJ/mol
# GULP energy per Si atom -5589.195499 kJ/mol
# Density = 2.657002 g / cm^3
# Si number density = 26.630633 Si / 1000 Ang^3
#
#
#
# Elastic Constant Matrix: (Units=GPa)
#
#
# Indices 1 2 3 4 5 6 
#
# 1 106.6004 35.5833 17.5096 11.5271 -19.9407 42.9006
# 2 35.5833 125.5324 31.2524 5.4267 -5.3801 43.0823
# 3 17.5096 31.2524 124.5617 16.2615 -9.6751 15.4846
# 4 11.5271 5.4267 16.2615 32.2204 6.1735 -2.2729
# 5 -19.9407 -5.3801 -9.6751 6.1735 32.4178 -5.8679
# 6 42.9006 43.0823 15.4846 -2.2729 -5.8679 50.5423
#
#
#
# Elastic Compliance Matrix: (Units=1/GPa)
#
#
# Indices 1 2 3 4 5 6 
#
# 1 0.018624 0.000855 0.001459 -0.010824 0.011167 -0.016175
# 2 0.000855 0.011762 -0.001418 -0.002425 0.000643 -0.010352
# 3 0.001459 -0.001418 0.009655 -0.006159 0.004214 -0.002775
# 4 -0.010824 -0.002425 -0.006159 0.042147 -0.014508 0.013352
# 5 0.011167 0.000643 0.004214 -0.014508 0.040528 -0.007265
# 6 -0.016175 -0.010352 -0.002775 0.013352 -0.007265 0.042946
#
#
# Mechanical properties :
#
#
# Convention : Reuss Voigt Hill
#
# Bulk Modulus (GPa) = 23.90451 58.37611 41.14031
# Shear Modulus (GPa) = 28.11912 41.19271 34.65592
#
# Velocity S-wave (km/s) = 3.25298 3.93723 3.61134
# Velocity P-wave (km/s) = 4.80676 6.52972 5.73333
#
# Compressibility (1/GPa) = 0.04183310
#
# Stress axis : x y z
#
# Youngs Moduli (GPa) = 53.69278 85.02218 103.57054
#
# Poissons Ratio (x) = -0.07271 -0.15106
# Poissons Ratio (y) = -0.04592 0.14685
# Poissons Ratio (z) = -0.07831 0.12055
#
# Static dielectric constant tensor:
#      x y z
#    x 2.113410 -0.045230 0.066000 
#    y -0.045230 2.322280 -0.266730 
#    z 0.066000 -0.266730 2.357820 
# 
# From -- ./inp_files/270834.got.cif
#   From: 2010.05.17/outbox.cif.g08.bks.cpg/sg2_136_cif.got.tgz:270834.got - 2010.06.03 11:33:40.
