data_PCOD9079760
_publ_section_title
;
Structure prediction by ZEFSAII (Michael W. Deem and Ramdas Pophale) SiO2 
 PCOD9079760
Probable space group: P -1
;
_chemical_formula_sum "Si O2"
_cell_formula_units_Z 15
_cell_length_a 13.974790
_cell_length_b 27.484002
_cell_length_c 7.274296
_cell_angle_alpha 140.139779
_cell_angle_beta 131.863786
_cell_angle_gamma 21.011217
_cell_volume 627.155569
_symmetry_space_group_name_H-M "P -1"
_symmetry_group_IT_number 2
_symmetry_cell_setting 'triclinic'
loop_
_space_group_symop_operation_xyz
x,y,z
-x,-y,-z
loop_
_atom_site_type_symbol
_atom_site_label
_atom_site_fract_x
_atom_site_fract_y
_atom_site_fract_z
Si Si1 0.672667 0.043250 0.071875
Si Si2 0.009559 0.217214 0.689794
Si Si3 0.500000 0.000000 0.500000
Si Si4 0.174678 0.395301 0.607464
Si Si5 0.635858 0.544910 0.064781
Si Si6 0.115719 0.877497 0.929429
Si Si7 0.134497 0.704294 0.848124
Si Si8 0.303427 0.449281 0.401013
O O1 0.520818 0.081135 0.818789
O O2 0.905269 0.984011 0.141067
O O3 0.855155 0.877960 0.903035
O O4 0.438260 0.204017 0.358917
O O5 0.928424 0.183860 0.385096
O O6 0.872503 0.358830 0.819381
O O7 0.899141 0.270107 0.903435
O O8 0.325145 0.072588 0.670825
O O9 0.286729 0.421387 0.850630
O O10 0.000000 0.500000 0.500000
O O11 0.960291 0.467180 0.676610
O O12 0.611935 0.577353 0.349867
O O13 0.371990 0.640232 0.921658
O O14 0.440073 0.719473 0.866361
O O15 0.000000 0.000000 0.000000
O O16 0.221124 0.571903 0.555507
#
# Coordination Sequence:
#
# PCOD9079760 Si02
#       8
#     2   2   1   2   2   2   2   2
#     4  11  25  39  63  95 122 164 208 266 318 371
#     4  10  20  38  64  89 121 170 211 249 311 375
#     4  10  22  40  56  88 126 156 208 252 314 376
#     4  10  21  37  62  91 122 161 213 257 308 366
#     4  10  18  37  64  92 120 167 207 257 300 378
#     4  11  21  38  61  90 125 165 210 251 311 375
#     4  11  21  38  67  90 126 159 218 262 302 372
#     4  10  19  37  64  90 121 171 210 249 307 375
#
# _framework density 23.917508999999999
#
# number of rings (size 3 to 8) (size 9 to 14) (size 15 to 20)
#    0.000    1.600    2.667    4.800    0.000    4.267 
#    0.000    0.000    0.000    0.800    0.000    2.800 
#    0.000    0.000    0.000    0.000    0.000    0.000 
#
# Total GULP energy -83510.457994 kJ/mol
# GULP energy per Si atom -5567.363866 kJ/mol
# Density = 2.386307 g / cm^3
# Si number density = 23.917509 Si / 1000 Ang^3
#
#
#
# Elastic Constant Matrix: (Units=GPa)
#
#
# Indices 1 2 3 4 5 6 
#
# 1 124.0017 51.0442 32.4446 29.6981 -5.8631 -66.5918
# 2 51.0442 88.8612 34.6188 43.3199 -14.8501 -25.3714
# 3 32.4446 34.6188 70.5138 20.4713 3.2063 -17.4740
# 4 29.6981 43.3199 20.4713 23.8102 15.5652 3.5763
# 5 -5.8631 -14.8501 3.2063 15.5652 5.3850 -7.2276
# 6 -66.5918 -25.3714 -17.4740 3.5763 -7.2276 44.0905
#
#
#
# Elastic Compliance Matrix: (Units=1/GPa)
#
#
# Indices 1 2 3 4 5 6 
#
# 1 0.021605 -0.015001 0.000422 0.009944 -0.019857 0.020104
# 2 -0.015001 0.014497 -0.005182 0.003019 -0.005504 -0.017515
# 3 0.000422 -0.005182 0.019282 -0.004539 -0.005880 0.004702
# 4 0.009944 0.003019 -0.004539 0.006606 0.028354 0.019069
# 5 -0.019857 -0.005504 -0.005880 0.028354 0.025294 -0.033642
# 6 0.020104 -0.017515 0.004702 0.019069 -0.033642 0.037767
#
#
# Mechanical properties :
#
#
# Convention : Reuss Voigt Hill
#
# Bulk Modulus (GPa) = 63.04477 57.73244 60.38861
# Shear Modulus (GPa) = 29.43618 25.67509 27.55563
#
# Velocity S-wave (km/s) = 3.51199 3.27996 3.39796
# Velocity P-wave (km/s) = 6.54690 6.20764 6.37953
#
# Compressibility (1/GPa) = 0.01586174
#
# Stress axis : x y z
#
# Youngs Moduli (GPa) = 46.28650 68.98018 51.86287
#
# Poissons Ratio (x) = 1.03477 -0.02188
# Poissons Ratio (y) = 0.69434 0.26873
# Poissons Ratio (z) = -0.01953 0.35743
#
# Static dielectric constant tensor:
#      x y z
#    x 1.960760 -0.057480 -0.041100 
#    y -0.057480 1.929760 -0.056340 
#    z -0.041100 -0.056340 1.938190 
# 
# From -- ./inp_files/285604.got.cif
#   From: 2010.05.17/outbox.cif.g08.bks.cpg/sg2_143_cif.got.tgz:285604.got - 2010.06.03 11:33:40.
