data_PCOD9079927
_publ_section_title
;
Structure prediction by ZEFSAII (Michael W. Deem and Ramdas Pophale) SiO2 
 PCOD9079927
Probable space group: P -1
;
_chemical_formula_sum "Si O2"
_cell_formula_units_Z 12
_cell_length_a 9.239867
_cell_length_b 5.075343
_cell_length_c 14.533743
_cell_angle_alpha 104.607847
_cell_angle_beta 48.400897
_cell_angle_gamma 120.098132
_cell_volume 437.512954
_symmetry_space_group_name_H-M "P -1"
_symmetry_group_IT_number 2
_symmetry_cell_setting 'triclinic'
loop_
_space_group_symop_operation_xyz
x,y,z
-x,-y,-z
loop_
_atom_site_type_symbol
_atom_site_label
_atom_site_fract_x
_atom_site_fract_y
_atom_site_fract_z
Si Si1 0.331889 0.535586 0.006633
Si Si2 0.237148 0.614603 0.862904
Si Si3 0.912350 0.378193 0.732655
Si Si4 0.312406 0.300731 0.490929
Si Si5 0.117444 0.963037 0.806926
Si Si6 0.258888 0.671173 0.389368
O O1 0.225628 0.723523 0.123474
O O2 0.500000 0.500000 0.000000
O O3 0.391654 0.658372 0.888957
O O4 0.124608 0.194737 0.059537
O O5 0.268513 0.891446 0.807634
O O6 0.203219 0.320307 0.791207
O O7 0.000000 0.500000 0.000000
O O8 0.739273 0.331283 0.721705
O O9 0.072970 0.239433 0.623980
O O10 0.072949 0.741420 0.718089
O O11 0.500000 0.500000 0.500000
O O12 0.343289 0.478953 0.397273
O O13 0.328809 0.997472 0.433899
O O14 0.000000 0.500000 0.500000
#
# Coordination Sequence:
#
# PCOD9079927 Si02
#       6
#     2   2   2   2   2   2
#     4   9  19  38  58  87 121 156 207 242 297 356
#     4  10  18  38  56  80 116 162 190 249 289 347
#     4   9  21  39  60  92 116 167 198 252 310 369
#     4  11  23  43  64  96 124 159 207 263 310 372
#     4   9  21  36  59  80 117 155 202 236 302 347
#     4  10  21  42  67  90 128 162 202 259 319 371
#
# _framework density 27.427755999999999
#
# number of rings (size 3 to 8) (size 9 to 14) (size 15 to 20)
#    1.000    1.333    0.000    4.500    0.000    4.000 
#    6.000    7.500    0.000    0.000    0.000    0.000 
#    0.000    0.000    0.000    0.000    0.000    0.000 
#
# Total GULP energy -67217.273334 kJ/mol
# GULP energy per Si atom -5601.439444 kJ/mol
# Density = 2.736533 g / cm^3
# Si number density = 27.427756 Si / 1000 Ang^3
#
#
#
# Elastic Constant Matrix: (Units=GPa)
#
#
# Indices 1 2 3 4 5 6 
#
# 1 82.4871 -33.3661 -10.4649 -76.1899 20.7564 56.3843
# 2 -33.3661 47.5975 -5.2394 -20.5780 1.4839 15.0213
# 3 -10.4649 -5.2394 102.3425 -16.5073 8.0233 20.1649
# 4 -76.1899 -20.5780 -16.5073 -15.7221 -0.2985 38.5892
# 5 20.7564 1.4839 8.0233 -0.2985 63.9506 4.3333
# 6 56.3843 15.0213 20.1649 38.5892 4.3333 27.3300
#
#
#
# Elastic Compliance Matrix: (Units=1/GPa)
#
#
# Indices 1 2 3 4 5 6 
#
# 1 0.003626 -0.001339 -0.001273 -0.006321 -0.001240 0.003316
# 2 -0.001339 0.016316 -0.000911 -0.006150 -0.000073 0.003162
# 3 -0.001273 -0.000911 0.009261 -0.002498 -0.000735 -0.000062
# 4 -0.006321 -0.006150 -0.002498 0.004883 0.001779 0.011088
# 5 -0.001240 -0.000073 -0.000735 0.001779 0.016274 -0.001951
# 6 0.003316 0.003162 -0.000062 0.011088 -0.001951 0.012709
#
#
# Mechanical properties :
#
#
# Convention : Reuss Voigt Hill
#
# Bulk Modulus (GPa) = 45.13114 14.92070 30.02592
# Shear Modulus (GPa) = 64.51399 33.87821 49.19610
#
# Velocity S-wave (km/s) = 4.85515 3.51833 4.23976
# Velocity P-wave (km/s) = 6.92245 4.68579 5.91087
#
# Compressibility (1/GPa) = 0.02215765
#
# Stress axis : x y z
#
# Youngs Moduli (GPa) = 275.75163 61.28826 107.97782
#
# Poissons Ratio (x) = 0.08206 0.13751
# Poissons Ratio (y) = 0.36920 0.09834
# Poissons Ratio (z) = 0.35117 0.05582
#
# Static dielectric constant tensor:
#      x y z
#    x 2.183550 0.029370 -0.008030 
#    y 0.029370 2.115180 -0.060750 
#    z -0.008030 -0.060750 2.228400 
# 
# From -- ./inp_files/486660.got.cif
#   From: 2010.05.17/outbox.cif.g08.bks.cpg/sg2_244_cif.got.tgz:486660.got - 2010.06.03 11:33:40.
