data_PCOD9079751
_publ_section_title
;
Structure prediction by ZEFSAII (Michael W. Deem and Ramdas Pophale) SiO2 
 PCOD9079751
Probable space group: P -1
;
_chemical_formula_sum "Si O2"
_cell_formula_units_Z 16
_cell_length_a 9.320805
_cell_length_b 8.035928
_cell_length_c 11.810854
_cell_angle_alpha 85.698166
_cell_angle_beta 70.731419
_cell_angle_gamma 65.169457
_cell_volume 755.802051
_symmetry_space_group_name_H-M "P -1"
_symmetry_group_IT_number 2
_symmetry_cell_setting 'triclinic'
loop_
_space_group_symop_operation_xyz
x,y,z
-x,-y,-z
loop_
_atom_site_type_symbol
_atom_site_label
_atom_site_fract_x
_atom_site_fract_y
_atom_site_fract_z
Si Si1 0.839857 0.219250 0.974258
Si Si2 0.959697 0.045295 0.638148
Si Si3 0.970861 0.593737 0.381255
Si Si4 0.294640 0.468545 0.195097
Si Si5 0.613892 0.868012 0.376004
Si Si6 0.540603 0.169096 0.995381
Si Si7 0.172375 0.935996 0.794791
Si Si8 0.415555 0.732869 0.258142
O O1 0.756618 0.397697 0.908591
O O2 0.736531 0.104336 0.968235
O O3 0.029564 0.109229 0.890136
O O4 0.805635 0.229843 0.116673
O O5 0.766663 0.093905 0.707420
O O6 0.982752 0.232071 0.640964
O O7 0.088986 0.909800 0.701072
O O8 0.000000 0.000000 0.500000
O O9 0.777986 0.691484 0.388009
O O10 0.000000 0.500000 0.500000
O O11 0.124106 0.451739 0.273653
O O12 0.367059 0.557791 0.270905
O O13 0.442055 0.286267 0.121504
O O14 0.683583 0.997145 0.279710
O O15 0.512525 0.780561 0.330974
O O16 0.500000 0.000000 0.500000
O O17 0.493584 0.279297 0.884283
O O18 0.500000 0.000000 0.000000
#
# Coordination Sequence:
#
# PCOD9079751 Si02
#       8
#     2   2   2   2   2   2   2   2
#     4  10  18  37  64  90 126 164 209 260 322 387
#     4  10  19  37  60  88 124 167 209 257 316 376
#     4  10  22  42  61  88 128 170 210 264 320 383
#     4  10  21  42  64  88 129 171 208 268 335 379
#     4  11  22  39  65  97 132 170 219 267 314 380
#     4  11  22  37  63  94 124 165 215 268 325 390
#     4  10  19  35  62  91 129 169 208 258 318 381
#     4  10  19  37  60  89 122 163 210 262 316 378
#
# _framework density 21.169564999999999
#
# number of rings (size 3 to 8) (size 9 to 14) (size 15 to 20)
#    0.000    1.750    5.000    3.750    0.000    3.000 
#    0.000    5.625    2.750    0.000    0.000    0.000 
#    0.000    0.000    0.000    0.000    0.000    0.000 
#
# Total GULP energy -89099.430882 kJ/mol
# GULP energy per Si atom -5568.714430 kJ/mol
# Density = 2.112138 g / cm^3
# Si number density = 21.169565 Si / 1000 Ang^3
#
#
#
# Elastic Constant Matrix: (Units=GPa)
#
#
# Indices 1 2 3 4 5 6 
#
# 1 142.2336 30.3182 60.2517 6.6315 8.4010 -11.0856
# 2 30.3182 23.9749 23.0451 0.4029 -2.8922 -6.7260
# 3 60.2517 23.0451 146.6167 1.9891 2.2503 -8.7176
# 4 6.6315 0.4029 1.9891 43.2012 -4.6873 4.5087
# 5 8.4010 -2.8922 2.2503 -4.6873 42.3488 -2.0208
# 6 -11.0856 -6.7260 -8.7176 4.5087 -2.0208 13.4863
#
#
#
# Elastic Compliance Matrix: (Units=1/GPa)
#
#
# Indices 1 2 3 4 5 6 
#
# 1 0.010890 -0.011081 -0.002543 -0.001976 -0.002905 0.002006
# 2 -0.011081 0.067799 -0.004866 -0.000207 0.008155 0.022850
# 3 -0.002543 -0.004866 0.008701 -0.000107 -0.000249 0.001106
# 4 -0.001976 -0.000207 -0.000107 0.024756 0.002662 -0.009674
# 5 -0.002905 0.008155 -0.000249 0.002662 0.025265 0.004414
# 6 0.002006 0.022850 0.001106 -0.009674 0.004414 0.091805
#
#
# Mechanical properties :
#
#
# Convention : Reuss Voigt Hill
#
# Bulk Modulus (GPa) = 19.83768 60.00614 39.92191
# Shear Modulus (GPa) = 17.66779 33.08796 25.37788
#
# Velocity S-wave (km/s) = 2.89205 3.95776 3.46611
# Velocity P-wave (km/s) = 4.53245 7.02084 5.90912
#
# Compressibility (1/GPa) = 0.05040913
#
# Stress axis : x y z
#
# Youngs Moduli (GPa) = 91.82729 14.74948 114.92427
#
# Poissons Ratio (x) = 0.16345 0.29222
# Poissons Ratio (y) = 1.01758 0.55927
# Poissons Ratio (z) = 0.23349 0.07178
#
# Static dielectric constant tensor:
#      x y z
#    x 1.813470 -0.032460 -0.023000 
#    y -0.032460 1.861580 -0.052680 
#    z -0.023000 -0.052680 2.034450 
# 
# From -- ./inp_files/382240.got.cif
#   From: 2010.05.17/outbox.cif.g08.bks.cpg/sg2_192_cif.got.tgz:382240.got - 2010.06.03 11:33:40.
