data_PCOD9079034
_publ_section_title
;
Structure prediction by ZEFSAII (Michael W. Deem and Ramdas Pophale) SiO2 
 PCOD9079034
Probable space group: P -1
;
_chemical_formula_sum "Si O2"
_cell_formula_units_Z 16
_cell_length_a 17.739312
_cell_length_b 14.419690
_cell_length_c 9.079715
_cell_angle_alpha 42.673164
_cell_angle_beta 134.057541
_cell_angle_gamma 155.503595
_cell_volume 649.874353
_symmetry_space_group_name_H-M "P -1"
_symmetry_group_IT_number 2
_symmetry_cell_setting 'triclinic'
loop_
_space_group_symop_operation_xyz
x,y,z
-x,-y,-z
loop_
_atom_site_type_symbol
_atom_site_label
_atom_site_fract_x
_atom_site_fract_y
_atom_site_fract_z
Si Si1 0.241011 0.686075 0.651144
Si Si2 0.766572 0.591081 0.864420
Si Si3 0.918748 0.995552 0.759006
Si Si4 0.566438 0.715063 0.774669
Si Si5 0.418186 0.124240 0.088645
Si Si6 0.004472 0.386198 0.413431
Si Si7 0.603545 0.308367 0.684224
Si Si8 0.241925 0.827346 0.932742
O O1 0.162781 0.734037 0.571460
O O2 0.173764 0.616201 0.473704
O O3 0.453508 0.875466 0.732710
O O4 0.155632 0.461501 0.884034
O O5 0.884333 0.850312 0.753465
O O6 0.726265 0.518843 0.724669
O O7 0.566033 0.387396 0.908719
O O8 0.728208 0.850430 0.726858
O O9 0.029186 0.250911 0.585231
O O10 0.000000 0.000000 0.000000
O O11 0.621194 0.864605 0.815694
O O12 0.425147 0.644289 0.562134
O O13 0.500000 0.500000 0.000000
O O14 0.251417 0.921947 0.987446
O O15 0.935048 0.359698 0.191729
O O16 0.408143 0.071028 0.776495
O O17 0.693472 0.256704 0.849148
#
# Coordination Sequence:
#
# PCOD9079034 Si02
#       8
#     2   2   2   2   2   2   2   2
#     4   9  18  35  61  89 120 159 203 258 305 364
#     4   9  18  37  59  85 118 159 203 257 296 355
#     4  12  23  37  60  92 118 163 211 253 294 372
#     4  12  24  39  60  90 126 168 199 251 325 372
#     4   9  20  37  59  85 126 155 200 257 312 365
#     4  11  19  33  64  93 117 158 211 257 300 356
#     4  10  20  35  62  89 120 155 212 261 298 364
#     4  10  18  36  61  95 119 151 214 263 302 356
#
# _framework density 24.620145000000001
#
# number of rings (size 3 to 8) (size 9 to 14) (size 15 to 20)
#    0.750    1.000    5.000    0.750    0.000    2.000 
#    0.000    0.000    2.750    2.250    0.000    0.000 
#    0.000    0.000    0.000    0.000    0.000    0.000 
#
# Total GULP energy -89474.738058 kJ/mol
# GULP energy per Si atom -5592.171129 kJ/mol
# Density = 2.456411 g / cm^3
# Si number density = 24.620145 Si / 1000 Ang^3
#
#
#
# Elastic Constant Matrix: (Units=GPa)
#
#
# Indices 1 2 3 4 5 6 
#
# 1 73.8121 53.5696 39.6968 0.8322 0.1862 -29.5927
# 2 53.5696 129.8970 67.2218 30.7757 -8.3636 -50.7569
# 3 39.6968 67.2218 181.3146 24.1875 -2.1154 -30.8844
# 4 0.8322 30.7757 24.1875 44.6538 -10.4321 -10.7326
# 5 0.1862 -8.3636 -2.1154 -10.4321 31.0909 6.1834
# 6 -29.5927 -50.7569 -30.8844 -10.7326 6.1834 54.7270
#
#
#
# Elastic Compliance Matrix: (Units=1/GPa)
#
#
# Indices 1 2 3 4 5 6 
#
# 1 0.022376 -0.007930 -0.002055 0.007149 -0.001023 0.005102
# 2 -0.007930 0.017746 -0.002097 -0.008739 -0.000100 0.009285
# 3 -0.002055 -0.002097 0.007168 -0.002490 -0.001022 0.000616
# 4 0.007149 -0.008739 -0.002490 0.031421 0.008058 -0.000393
# 5 -0.001023 -0.000100 -0.001022 0.008058 0.035504 -0.003654
# 6 0.005102 0.009285 0.000616 -0.000393 -0.003654 0.030326
#
#
# Mechanical properties :
#
#
# Convention : Reuss Voigt Hill
#
# Bulk Modulus (GPa) = 43.24358 78.44447 60.84402
# Shear Modulus (GPa) = 28.34228 41.06338 34.70283
#
# Velocity S-wave (km/s) = 3.39659 4.08840 3.75844
# Velocity P-wave (km/s) = 5.74324 7.36327 6.60313
#
# Compressibility (1/GPa) = 0.02312482
#
# Stress axis : x y z
#
# Youngs Moduli (GPa) = 44.68981 56.35094 139.51155
#
# Poissons Ratio (x) = 0.44688 0.28676
# Poissons Ratio (y) = 0.35441 0.29254
# Poissons Ratio (z) = 0.09186 0.11816
#
# Static dielectric constant tensor:
#      x y z
#    x 2.147180 0.162000 0.054530 
#    y 0.162000 2.092100 -0.046850 
#    z 0.054530 -0.046850 2.035310 
# 
# From -- ./inp_files/347477.got.cif
#   From: 2010.05.17/outbox.cif.g08.bks.cpg/sg2_174_cif.got.tgz:347477.got - 2010.06.03 11:33:40.
