data_PCOD9079997
_publ_section_title
;
Structure prediction by ZEFSAII (Michael W. Deem and Ramdas Pophale) SiO2 
 PCOD9079997
Probable space group: P -1
;
_chemical_formula_sum "Si O2"
_cell_formula_units_Z 14
_cell_length_a 11.289183
_cell_length_b 12.225744
_cell_length_c 18.729670
_cell_angle_alpha 148.066301
_cell_angle_beta 154.862580
_cell_angle_gamma 37.474043
_cell_volume 577.121154
_symmetry_space_group_name_H-M "P -1"
_symmetry_group_IT_number 2
_symmetry_cell_setting 'triclinic'
loop_
_space_group_symop_operation_xyz
x,y,z
-x,-y,-z
loop_
_atom_site_type_symbol
_atom_site_label
_atom_site_fract_x
_atom_site_fract_y
_atom_site_fract_z
Si Si1 0.070469 0.604787 0.200454
Si Si2 0.744228 0.272745 0.267920
Si Si3 0.483874 0.794330 0.170528
Si Si4 0.133553 0.663966 0.467900
Si Si5 0.561985 0.754909 0.645507
Si Si6 0.122234 0.190660 0.930720
Si Si7 0.484302 0.548602 0.897304
O O1 0.315690 0.685942 0.422766
O O2 0.084519 0.705767 0.185860
O O3 0.090687 0.355233 0.068219
O O4 0.760751 0.659978 0.092504
O O5 0.848920 0.349133 0.443737
O O6 0.702862 0.424592 0.261202
O O7 0.907955 0.050986 0.210696
O O8 0.432191 0.217875 0.086143
O O9 0.438786 0.684784 0.160804
O O10 0.826956 0.776374 0.343872
O O11 0.358835 0.029589 0.220988
O O12 0.368994 0.665077 0.970771
O O13 0.391175 0.780421 0.641571
O O14 0.197716 0.437568 0.339733
#
# Coordination Sequence:
#
# PCOD9079997 Si02
#       7
#     2   2   2   2   2   2   2
#     4  10  18  38  60  92 119 153 202 254 291 362
#     4  10  20  36  60  91 119 155 199 252 298 352
#     4  11  24  44  61  86 127 166 195 244 304 363
#     4  11  23  39  64  94 122 150 207 255 295 356
#     4  11  23  38  66  93 119 157 202 254 302 350
#     4   9  19  31  62  90 121 149 201 253 304 338
#     4  10  24  42  60  85 125 162 200 240 300 367
#
# _framework density 24.258336
#
# number of rings (size 3 to 8) (size 9 to 14) (size 15 to 20)
#    0.000    1.714    2.857    1.286    6.000    0.571 
#    2.571    2.143    0.000    0.000    0.000    0.000 
#    0.000    0.000    0.000    0.000    0.000    0.000 
#
# Total GULP energy -78180.234538 kJ/mol
# GULP energy per Si atom -5584.302467 kJ/mol
# Density = 2.420312 g / cm^3
# Si number density = 24.258336 Si / 1000 Ang^3
#
#
#
# Elastic Constant Matrix: (Units=GPa)
#
#
# Indices 1 2 3 4 5 6 
#
# 1 68.7990 22.8679 37.0674 -0.3305 -11.0777 24.4429
# 2 22.8679 85.6956 10.5679 23.0890 -11.1241 16.5546
# 3 37.0674 10.5679 36.1252 -5.5599 -18.7920 10.5058
# 4 -0.3305 23.0890 -5.5599 49.0103 7.6198 5.5730
# 5 -11.0777 -11.1241 -18.7920 7.6198 36.5265 -13.0408
# 6 24.4429 16.5546 10.5058 5.5730 -13.0408 38.7941
#
#
#
# Elastic Compliance Matrix: (Units=1/GPa)
#
#
# Indices 1 2 3 4 5 6 
#
# 1 0.050946 -0.006317 -0.055761 0.003326 -0.024013 -0.022853
# 2 -0.006317 0.015979 0.004152 -0.008049 0.006550 -0.000605
# 3 -0.055761 0.004152 0.100157 -0.000073 0.043327 0.020813
# 4 0.003326 -0.008049 -0.000073 0.026201 -0.008869 -0.005387
# 5 -0.024013 0.006550 0.043327 -0.008869 0.053296 0.019792
# 6 -0.022853 -0.000605 0.020813 -0.005387 0.019792 0.042225
#
#
# Mechanical properties :
#
#
# Convention : Reuss Voigt Hill
#
# Bulk Modulus (GPa) = 19.52007 36.84736 28.18372
# Shear Modulus (GPa) = 11.85587 32.87394 22.36490
#
# Velocity S-wave (km/s) = 2.21313 3.68524 3.03965
# Velocity P-wave (km/s) = 3.82032 5.77326 4.89517
#
# Compressibility (1/GPa) = 0.05122933
#
# Stress axis : x y z
#
# Youngs Moduli (GPa) = 19.62854 62.58396 9.98437
#
# Poissons Ratio (x) = 0.39536 0.55673
# Poissons Ratio (y) = 0.12400 -0.04145
# Poissons Ratio (z) = 1.09450 -0.25984
#
# Static dielectric constant tensor:
#      x y z
#    x 2.001130 0.011520 -0.006730 
#    y 0.011520 1.990940 0.009040 
#    z -0.006730 0.009040 1.934850 
# 
# From -- ./inp_files/209742.got.cif
#   From: 2010.05.17/outbox.cif.g08.bks.cpg/sg2_105_cif.got.tgz:209742.got - 2010.06.03 11:33:40.
