data_PCOD9079568
_publ_section_title
;
Structure prediction by ZEFSAII (Michael W. Deem and Ramdas Pophale) SiO2 
 PCOD9079568
Probable space group: P -1
;
_chemical_formula_sum "Si O2"
_cell_formula_units_Z 14
_cell_length_a 12.796407
_cell_length_b 26.078687
_cell_length_c 15.928775
_cell_angle_alpha 163.659755
_cell_angle_beta 30.543285
_cell_angle_gamma 148.364418
_cell_volume 748.345942
_symmetry_space_group_name_H-M "P -1"
_symmetry_group_IT_number 2
_symmetry_cell_setting 'triclinic'
loop_
_space_group_symop_operation_xyz
x,y,z
-x,-y,-z
loop_
_atom_site_type_symbol
_atom_site_label
_atom_site_fract_x
_atom_site_fract_y
_atom_site_fract_z
Si Si1 0.957109 0.942314 0.100253
Si Si2 0.395062 0.877355 0.631541
Si Si3 0.557392 0.888937 0.202523
Si Si4 0.815223 0.831011 0.344274
Si Si5 0.648829 0.476276 0.998781
Si Si6 0.839890 0.638324 0.846234
Si Si7 0.172028 0.660419 0.168576
O O1 0.794018 0.863037 0.014489
O O2 0.193272 0.934941 0.902397
O O3 0.925702 0.152506 0.465463
O O4 0.887673 0.812607 0.024118
O O5 0.598191 0.901779 0.587145
O O6 0.337767 0.662636 0.306509
O O7 0.451944 0.990642 0.684248
O O8 0.379830 0.708631 0.043115
O O9 0.500000 0.000000 0.500000
O O10 0.767085 0.679463 0.212994
O O11 0.859425 0.721219 0.056742
O O12 0.000000 0.000000 0.500000
O O13 0.749089 0.395576 0.883377
O O14 0.399470 0.462647 0.161422
O O15 0.000000 0.500000 0.500000
O O16 0.000000 0.500000 0.000000
#
# Coordination Sequence:
#
# PCOD9079568 Si02
#       7
#     2   2   2   2   2   2   2
#     4  11  21  39  65  93 117 156 209 255 297 364
#     4  11  21  40  65  90 120 158 209 252 303 366
#     4  10  18  37  61  89 113 156 201 243 296 360
#     4  11  25  41  61  92 125 164 202 262 312 357
#     4  11  21  40  63  87 123 162 208 245 305 375
#     4  11  22  43  67  90 119 165 214 252 298 373
#     4  11  23  38  60  93 126 162 195 249 314 363
#
# _framework density 18.707926
#
# number of rings (size 3 to 8) (size 9 to 14) (size 15 to 20)
#    0.000    1.143    4.286    6.429    4.000    0.000 
#    2.571    2.143    0.000    0.000    0.000    0.000 
#    0.000    0.000    0.000    0.000    0.000    0.000 
#
# Total GULP energy -78195.922466 kJ/mol
# GULP energy per Si atom -5585.423033 kJ/mol
# Density = 1.866535 g / cm^3
# Si number density = 18.707926 Si / 1000 Ang^3
#
#
#
# Elastic Constant Matrix: (Units=GPa)
#
#
# Indices 1 2 3 4 5 6 
#
# 1 69.7486 55.6819 45.9917 15.1015 -19.9721 11.2196
# 2 55.6819 156.9971 72.7229 27.8607 -11.8499 12.6377
# 3 45.9917 72.7229 102.4577 -2.6082 -26.8432 17.4737
# 4 15.1015 27.8607 -2.6082 38.6977 2.5737 -6.2228
# 5 -19.9721 -11.8499 -26.8432 2.5737 26.5768 8.0313
# 6 11.2196 12.6377 17.4737 -6.2228 8.0313 49.4062
#
#
#
# Elastic Compliance Matrix: (Units=1/GPa)
#
#
# Indices 1 2 3 4 5 6 
#
# 1 0.030602 -0.004858 -0.003357 -0.011618 0.021427 -0.009466
# 2 -0.004858 0.013146 -0.009348 -0.007547 -0.006866 0.001212
# 3 -0.003357 -0.009348 0.024645 0.007107 0.019901 -0.007903
# 4 -0.011618 -0.007547 0.007107 0.038442 -0.011279 0.008731
# 5 0.021427 -0.006866 0.019901 -0.011279 0.079249 -0.024451
# 6 -0.009466 0.001212 -0.007903 0.008731 -0.024451 0.029949
#
#
# Mechanical properties :
#
#
# Convention : Reuss Voigt Hill
#
# Bulk Modulus (GPa) = 30.05905 75.33293 52.69599
# Shear Modulus (GPa) = 19.06595 33.25659 26.16127
#
# Velocity S-wave (km/s) = 3.19586 4.22082 3.74358
# Velocity P-wave (km/s) = 5.45164 8.00682 6.84944
#
# Compressibility (1/GPa) = 0.03326786
#
# Stress axis : x y z
#
# Youngs Moduli (GPa) = 32.67741 76.06794 40.57670
#
# Poissons Ratio (x) = 0.36952 0.13620
# Poissons Ratio (y) = 0.15874 0.37932
# Poissons Ratio (z) = 0.10969 0.71110
#
# Static dielectric constant tensor:
#      x y z
#    x 1.652680 -0.003420 -0.018000 
#    y -0.003420 1.672510 0.000510 
#    z -0.018000 0.000510 1.646870 
# 
# From -- ./inp_files/177670.got.cif
#   From: 2010.05.17/outbox.cif.g08.bks.cpg/sg2_89_cif.got.tgz:177670.got - 2010.06.03 11:33:40.
