data_PCOD9079859
_publ_section_title
;
Structure prediction by ZEFSAII (Michael W. Deem and Ramdas Pophale) SiO2 
 PCOD9079859
Probable space group: P -1
;
_chemical_formula_sum "Si O2"
_cell_formula_units_Z 14
_cell_length_a 14.007789
_cell_length_b 7.345764
_cell_length_c 8.712150
_cell_angle_alpha 119.352392
_cell_angle_beta 42.535509
_cell_angle_gamma 120.695434
_cell_volume 511.013992
_symmetry_space_group_name_H-M "P -1"
_symmetry_group_IT_number 2
_symmetry_cell_setting 'triclinic'
loop_
_space_group_symop_operation_xyz
x,y,z
-x,-y,-z
loop_
_atom_site_type_symbol
_atom_site_label
_atom_site_fract_x
_atom_site_fract_y
_atom_site_fract_z
Si Si1 0.331264 0.948874 0.123490
Si Si2 0.647585 0.647846 0.948324
Si Si3 0.873619 0.149270 0.139653
Si Si4 0.127011 0.165586 0.644943
Si Si5 0.708085 0.389981 0.199648
Si Si6 0.070731 0.455380 0.556768
Si Si7 0.586917 0.838491 0.405397
O O1 0.330740 0.115595 0.053988
O O2 0.223341 0.014883 0.400406
O O3 0.500000 0.000000 0.000000
O O4 0.272187 0.704484 0.031446
O O5 0.767788 0.540512 0.693265
O O6 0.500000 0.500000 0.000000
O O7 0.628308 0.680844 0.164778
O O8 0.789954 0.256097 0.156808
O O9 0.951674 0.351409 0.231559
O O10 0.009507 0.944636 0.130057
O O11 0.744665 0.991160 0.320824
O O12 0.228074 0.371174 0.705143
O O13 0.055304 0.259129 0.619193
O O14 0.533736 0.297542 0.394090
O O15 0.000000 0.500000 0.500000
O O16 0.500000 0.000000 0.500000
#
# Coordination Sequence:
#
# PCOD9079859 Si02
#       7
#     2   2   2   2   2   2   2
#     4  11  24  43  68 106 136 179 245 295 345 425
#     4  11  21  42  67  95 135 182 231 287 355 416
#     4  10  20  42  66  95 138 183 224 286 363 421
#     4  10  23  45  71  96 144 189 227 286 372 424
#     4  10  20  41  71  95 135 186 231 287 351 421
#     4  10  22  41  64 100 133 178 236 290 347 425
#     4  10  18  37  67  90 127 181 228 272 343 417
#
# _framework density 27.396512000000001
#
# number of rings (size 3 to 8) (size 9 to 14) (size 15 to 20)
#    0.000    1.714    2.857    5.143    0.000    1.143 
#   10.286    0.714    0.000    0.000    0.000    0.000 
#    0.000    0.000    0.000    0.000    0.000    0.000 
#
# Total GULP energy -78406.924944 kJ/mol
# GULP energy per Si atom -5600.494639 kJ/mol
# Density = 2.733416 g / cm^3
# Si number density = 27.396512 Si / 1000 Ang^3
#
#
#
# Elastic Constant Matrix: (Units=GPa)
#
#
# Indices 1 2 3 4 5 6 
#
# 1 117.1242 34.0860 49.4320 0.9724 -5.4341 -1.7895
# 2 34.0860 108.1159 56.8149 9.0613 -4.5760 -10.0328
# 3 49.4320 56.8149 217.8611 -8.2983 -4.1103 -13.2395
# 4 0.9724 9.0613 -8.2983 57.2550 5.8727 -5.7955
# 5 -5.4341 -4.5760 -4.1103 5.8727 68.1023 4.9850
# 6 -1.7895 -10.0328 -13.2395 -5.7955 4.9850 34.7127
#
#
#
# Elastic Compliance Matrix: (Units=1/GPa)
#
#
# Indices 1 2 3 4 5 6 
#
# 1 0.009940 -0.002274 -0.001715 -0.000215 0.000623 -0.000924
# 2 -0.002274 0.011629 -0.002469 -0.002018 0.000486 0.001895
# 3 -0.001715 -0.002469 0.005776 0.001447 -0.000201 0.001671
# 4 -0.000215 -0.002018 0.001447 0.018531 -0.001907 0.003325
# 5 0.000623 0.000486 -0.000201 -0.001907 0.015093 -0.002390
# 6 -0.000924 0.001895 0.001671 0.003325 -0.002390 0.030844
#
#
# Mechanical properties :
#
#
# Convention : Reuss Voigt Hill
#
# Bulk Modulus (GPa) = 69.30465 80.41855 74.86160
# Shear Modulus (GPa) = 45.64549 52.19855 48.92202
#
# Velocity S-wave (km/s) = 4.08622 4.36971 4.23034
# Velocity P-wave (km/s) = 6.90035 7.40786 7.15860
#
# Compressibility (1/GPa) = 0.01442905
#
# Stress axis : x y z
#
# Youngs Moduli (GPa) = 100.60258 85.98829 173.12877
#
# Poissons Ratio (x) = 0.19554 0.29691
# Poissons Ratio (y) = 0.22877 0.42751
# Poissons Ratio (z) = 0.17253 0.21233
#
# Static dielectric constant tensor:
#      x y z
#    x 2.189030 -0.090400 -0.001360 
#    y -0.090400 2.124630 -0.010840 
#    z -0.001360 -0.010840 2.034470 
# 
# From -- ./inp_files/296583.got.cif
#   From: 2010.05.17/outbox.cif.g08.bks.cpg/sg2_149_cif.got.tgz:296583.got - 2010.06.03 11:33:40.
