data_PCOD9079789
_publ_section_title
;
Structure prediction by ZEFSAII (Michael W. Deem and Ramdas Pophale) SiO2 
 PCOD9079789
Probable space group: P -1
;
_chemical_formula_sum "Si O2"
_cell_formula_units_Z 14
_cell_length_a 20.342352
_cell_length_b 7.640934
_cell_length_c 9.122244
_cell_angle_alpha 104.726238
_cell_angle_beta 59.535508
_cell_angle_gamma 143.496221
_cell_volume 693.762394
_symmetry_space_group_name_H-M "P -1"
_symmetry_group_IT_number 2
_symmetry_cell_setting 'triclinic'
loop_
_space_group_symop_operation_xyz
x,y,z
-x,-y,-z
loop_
_atom_site_type_symbol
_atom_site_label
_atom_site_fract_x
_atom_site_fract_y
_atom_site_fract_z
Si Si1 0.483602 0.267451 0.171125
Si Si2 0.588790 0.252834 0.327407
Si Si3 0.363168 0.272722 0.525592
Si Si4 0.931043 0.418712 0.710243
Si Si5 0.225154 0.188547 0.079832
Si Si6 0.292010 0.713856 0.058602
Si Si7 0.887963 0.186803 0.152184
O O1 0.506507 0.181171 0.268780
O O2 0.387862 0.241134 0.330445
O O3 0.419862 0.037665 0.061717
O O4 0.628767 0.613632 0.043999
O O5 0.658758 0.555235 0.394768
O O6 0.500000 0.000000 0.500000
O O7 0.677407 0.280870 0.143956
O O8 0.500000 0.500000 0.500000
O O9 0.240887 0.951024 0.679784
O O10 0.817278 0.345961 0.813984
O O11 0.000000 0.500000 0.500000
O O12 0.038324 0.712654 0.759758
O O13 0.867886 0.112429 0.780909
O O14 0.247609 0.444170 0.134016
O O15 0.166677 0.062103 0.954904
O O16 0.000000 0.500000 0.000000
#
# Coordination Sequence:
#
# PCOD9079789 Si02
#       7
#     2   2   2   2   2   2   2
#     4  10  21  40  66  93 132 167 211 268 332 384
#     4  10  21  36  62  99 130 154 219 273 316 385
#     4  10  18  37  65  92 124 163 213 264 318 374
#     4  11  26  42  62  93 131 171 222 261 322 397
#     4  10  21  43  65  92 125 171 215 269 325 379
#     4  11  23  44  64  93 135 171 210 268 329 387
#     4  10  20  39  64  89 128 168 215 264 317 387
#
# _framework density 20.179819999999999
#
# number of rings (size 3 to 8) (size 9 to 14) (size 15 to 20)
#    0.000    1.714    4.286    2.571    2.000    2.857 
#    7.714    0.000    0.000    0.000    0.000    0.000 
#    0.000    0.000    0.000    0.000    0.000    0.000 
#
# Total GULP energy -77980.228944 kJ/mol
# GULP energy per Si atom -5570.016353 kJ/mol
# Density = 2.013389 g / cm^3
# Si number density = 20.179820 Si / 1000 Ang^3
#
#
#
# Elastic Constant Matrix: (Units=GPa)
#
#
# Indices 1 2 3 4 5 6 
#
# 1 34.7870 15.8660 45.3231 -0.5524 -6.3234 4.1879
# 2 15.8660 123.9118 49.5447 4.6688 -1.2528 9.8022
# 3 45.3231 49.5447 153.0568 -3.5393 2.6538 -11.8783
# 4 -0.5524 4.6688 -3.5393 42.8679 -3.4503 -2.5412
# 5 -6.3234 -1.2528 2.6538 -3.4503 24.0782 -6.9869
# 6 4.1879 9.8022 -11.8783 -2.5412 -6.9869 31.9317
#
#
#
# Elastic Compliance Matrix: (Units=1/GPa)
#
#
# Indices 1 2 3 4 5 6 
#
# 1 0.055235 0.001113 -0.017839 -0.000498 0.013155 -0.011383
# 2 0.001113 0.009964 -0.003968 -0.001724 -0.000424 -0.004911
# 3 -0.017839 -0.003968 0.013821 0.001503 -0.003887 0.007968
# 4 -0.000498 -0.001724 0.001503 0.024212 0.004247 0.004010
# 5 0.013155 -0.000424 -0.003887 0.004247 0.048282 0.007861
# 6 -0.011383 -0.004911 0.007968 0.004010 0.007861 0.039321
#
#
# Mechanical properties :
#
#
# Convention : Reuss Voigt Hill
#
# Bulk Modulus (GPa) = 26.57459 59.24702 42.91080
# Shear Modulus (GPa) = 20.42745 33.17701 26.80223
#
# Velocity S-wave (km/s) = 3.18507 4.05911 3.64836
# Velocity P-wave (km/s) = 5.16950 7.16881 6.24962
#
# Compressibility (1/GPa) = 0.03762993
#
# Stress axis : x y z
#
# Youngs Moduli (GPa) = 18.10438 100.36547 72.35247
#
# Poissons Ratio (x) = -0.11168 1.29073
# Poissons Ratio (y) = -0.02014 0.28712
# Poissons Ratio (z) = 0.32297 0.39828
#
# Static dielectric constant tensor:
#      x y z
#    x 1.750270 -0.014750 -0.020170 
#    y -0.014750 1.757480 0.000240 
#    z -0.020170 0.000240 1.763940 
# 
# From -- ./inp_files/345911.got.cif
#   From: 2010.05.17/outbox.cif.g08.bks.cpg/sg2_173_cif.got.tgz:345911.got - 2010.06.03 11:33:40.
