data_PCOD9079112
_publ_section_title
;
Structure prediction by ZEFSAII (Michael W. Deem and Ramdas Pophale) SiO2 
 PCOD9079112
Probable space group: P -1
;
_chemical_formula_sum "Si O2"
_cell_formula_units_Z 14
_cell_length_a 14.831768
_cell_length_b 7.699606
_cell_length_c 10.755151
_cell_angle_alpha 64.185312
_cell_angle_beta 33.502718
_cell_angle_gamma 50.846273
_cell_volume 513.691549
_symmetry_space_group_name_H-M "P -1"
_symmetry_group_IT_number 2
_symmetry_cell_setting 'triclinic'
loop_
_space_group_symop_operation_xyz
x,y,z
-x,-y,-z
loop_
_atom_site_type_symbol
_atom_site_label
_atom_site_fract_x
_atom_site_fract_y
_atom_site_fract_z
Si Si1 0.260277 0.364990 0.445439
Si Si2 0.388733 0.930773 0.021766
Si Si3 0.806352 0.661171 0.038460
Si Si4 0.404196 0.661314 0.304623
Si Si5 0.191728 0.757663 0.106042
Si Si6 0.000000 0.500000 0.500000
Si Si7 0.907574 0.238740 0.187415
Si Si8 0.500000 0.000000 0.500000
O O1 0.305504 0.553646 0.371414
O O2 0.048184 0.468122 0.606313
O O3 0.352712 0.172991 0.504936
O O4 0.384652 0.236340 0.217654
O O5 0.359940 0.881455 0.209917
O O6 0.285028 0.849917 0.069298
O O7 0.305454 0.189156 0.999908
O O8 0.866340 0.401964 0.068263
O O9 0.648266 0.812207 0.282204
O O10 0.993493 0.672420 0.856217
O O11 0.294363 0.719569 0.542948
O O12 0.626214 0.454021 0.107193
O O13 0.072665 0.679224 0.346227
O O14 0.062657 0.968016 0.094886
#
# Coordination Sequence:
#
# PCOD9079112 Si02
#       8
#     2   2   2   2   2   1   2   1
#     4  10  19  33  64  92 121 164 206 260 317 371
#     4   9  17  35  59  90 115 160 208 258 307 366
#     4   9  19  33  56  95 122 150 207 273 307 360
#     4  11  18  38  62  92 120 163 211 268 312 367
#     4  10  21  35  58  88 126 163 203 261 318 365
#     4  12  20  38  60  94 134 164 206 266 322 380
#     4  10  21  34  58  95 124 155 217 266 306 372
#     4  10  18  36  62  92 118 168 208 252 310 378
#
# _framework density 27.253710000000002
#
# number of rings (size 3 to 8) (size 9 to 14) (size 15 to 20)
#    0.000    2.000    4.286    1.714    0.000    2.286 
#    0.000    0.714    0.000   17.143    0.000    0.000 
#    0.000    0.000    0.000    0.000    0.000    0.000 
#
# Total GULP energy -77958.527480 kJ/mol
# GULP energy per Si atom -5568.466249 kJ/mol
# Density = 2.719168 g / cm^3
# Si number density = 27.253710 Si / 1000 Ang^3
#
#
#
# Elastic Constant Matrix: (Units=GPa)
#
#
# Indices 1 2 3 4 5 6 
#
# 1 103.1435 26.0452 -14.3047 -13.8051 8.7032 2.3875
# 2 26.0452 211.4200 71.2609 -27.1502 29.6098 -20.8202
# 3 -14.3047 71.2609 102.0318 -1.4675 18.7432 8.5497
# 4 -13.8051 -27.1502 -1.4675 42.1756 -5.1888 13.2931
# 5 8.7032 29.6098 18.7432 -5.1888 -20.0636 -18.9268
# 6 2.3875 -20.8202 8.5497 13.2931 -18.9268 42.2915
#
#
#
# Elastic Compliance Matrix: (Units=1/GPa)
#
#
# Indices 1 2 3 4 5 6 
#
# 1 0.010821 -0.002611 0.002758 0.002948 0.004108 -0.001542
# 2 -0.002611 0.007940 -0.006227 0.002627 -0.000103 0.004443
# 3 0.002758 -0.006227 0.013421 -0.000995 0.007105 -0.002442
# 4 0.002948 0.002627 -0.000995 0.028706 0.002855 -0.006417
# 5 0.004108 -0.000103 0.007105 0.002855 -0.028016 -0.015155
# 6 -0.001542 0.004443 -0.002442 -0.006417 -0.015155 0.021648
#
#
# Mechanical properties :
#
#
# Convention : Reuss Voigt Hill
#
# Bulk Modulus (GPa) = 49.94761 64.73312 57.34036
# Shear Modulus (GPa) = 68.16247 35.12031 51.64139
#
# Velocity S-wave (km/s) = 5.00646 3.59366 4.35770
# Velocity P-wave (km/s) = 7.19626 6.40491 6.81209
#
# Compressibility (1/GPa) = 0.02002098
#
# Stress axis : x y z
#
# Youngs Moduli (GPa) = 92.41590 125.94879 74.50740
#
# Poissons Ratio (x) = 0.32886 -0.20546
# Poissons Ratio (y) = 0.24131 0.46395
# Poissons Ratio (z) = -0.25484 0.78427
#
# Static dielectric constant tensor:
#      x y z
#    x 2.098720 -0.022250 -0.024240 
#    y -0.022250 2.094730 0.070350 
#    z -0.024240 0.070350 2.291200 
# 
# From -- ./inp_files/462761.got.cif
#   From: 2010.05.17/outbox.cif.g08.bks.cpg/sg2_232_cif.got.tgz:462761.got - 2010.06.03 11:33:40.
