data_PCOD9079759
_publ_section_title
;
Structure prediction by ZEFSAII (Michael W. Deem and Ramdas Pophale) SiO2 
 PCOD9079759
Probable space group: P -1
;
_chemical_formula_sum "Si O2"
_cell_formula_units_Z 16
_cell_length_a 9.000030
_cell_length_b 21.029559
_cell_length_c 27.093055
_cell_angle_alpha 17.053767
_cell_angle_beta 144.891334
_cell_angle_gamma 152.142500
_cell_volume 688.744502
_symmetry_space_group_name_H-M "P -1"
_symmetry_group_IT_number 2
_symmetry_cell_setting 'triclinic'
loop_
_space_group_symop_operation_xyz
x,y,z
-x,-y,-z
loop_
_atom_site_type_symbol
_atom_site_label
_atom_site_fract_x
_atom_site_fract_y
_atom_site_fract_z
Si Si1 0.339139 0.424726 0.146235
Si Si2 0.873277 0.056915 0.844376
Si Si3 0.172674 0.702259 0.661716
Si Si4 0.192989 0.833673 0.151157
Si Si5 0.169258 0.774268 0.011707
Si Si6 0.820269 0.036676 0.736296
Si Si7 0.069415 0.604776 0.864446
Si Si8 0.765015 0.217014 0.485267
O O1 0.551512 0.335117 0.250885
O O2 0.128662 0.311649 0.222632
O O3 0.103561 0.405056 0.055490
O O4 0.588260 0.746103 0.985370
O O5 0.748189 0.140931 0.792875
O O6 0.965382 0.184481 0.719592
O O7 0.133942 0.041052 0.956459
O O8 0.083785 0.776585 0.531470
O O9 0.384377 0.958125 0.566896
O O10 0.873173 0.410193 0.817007
O O11 0.875559 0.524220 0.288400
O O12 0.508770 0.929994 0.134295
O O13 0.899404 0.822118 0.910592
O O14 0.097837 0.572614 0.097674
O O15 0.908544 0.190957 0.593656
O O16 0.432961 0.869586 0.757679
#
# Coordination Sequence:
#
# PCOD9079759 Si02
#       8
#     2   2   2   2   2   2   2   2
#     4  10  18  37  64  92 119 158 216 258 300 356
#     4  10  21  42  65  91 122 170 211 249 302 378
#     4  11  22  41  66  90 126 165 211 259 305 366
#     4  11  24  41  67  92 128 166 206 255 309 378
#     4  12  21  38  68  94 120 165 220 248 302 373
#     4  11  22  39  64  93 126 162 210 260 305 367
#     4  10  19  33  63  98 115 155 211 265 297 354
#     4  11  24  40  62  91 134 162 198 262 326 353
#
# _framework density 23.230675000000002
#
# number of rings (size 3 to 8) (size 9 to 14) (size 15 to 20)
#    0.000    1.250    6.250    1.125    0.000    3.000 
#    0.000    0.625   13.750    0.000    0.000    0.000 
#    0.000    0.000    0.000    0.000    0.000    0.000 
#
# Total GULP energy -89074.333652 kJ/mol
# GULP energy per Si atom -5567.145853 kJ/mol
# Density = 2.317780 g / cm^3
# Si number density = 23.230675 Si / 1000 Ang^3
#
#
#
# Elastic Constant Matrix: (Units=GPa)
#
#
# Indices 1 2 3 4 5 6 
#
# 1 113.0865 44.0437 34.2716 8.6775 -22.5871 -17.7779
# 2 44.0437 62.4532 19.8416 8.4461 -8.7066 -27.2752
# 3 34.2716 19.8416 79.0203 2.8038 -21.2771 -22.3773
# 4 8.6775 8.4461 2.8038 31.2615 -19.0524 -10.2166
# 5 -22.5871 -8.7066 -21.2771 -19.0524 27.1349 14.6979
# 6 -17.7779 -27.2752 -22.3773 -10.2166 14.6979 48.0472
#
#
#
# Elastic Compliance Matrix: (Units=1/GPa)
#
#
# Indices 1 2 3 4 5 6 
#
# 1 0.015474 -0.011269 -0.001208 0.006890 0.015618 -0.004547
# 2 -0.011269 0.030319 -0.002802 -0.010467 -0.017200 0.014772
# 3 -0.001208 -0.002802 0.020238 0.013592 0.021504 0.003700
# 4 0.006890 -0.010467 0.013592 0.069280 0.062457 -0.001437
# 5 0.015618 -0.017200 0.021504 0.062457 0.113376 -0.015372
# 6 -0.004547 0.014772 0.003700 -0.001437 -0.015372 0.033636
#
#
# Mechanical properties :
#
#
# Convention : Reuss Voigt Hill
#
# Bulk Modulus (GPa) = 28.19127 50.09709 39.14418
# Shear Modulus (GPa) = 15.39860 31.71559 23.55710
#
# Velocity S-wave (km/s) = 2.57739 3.69893 3.18787
# Velocity P-wave (km/s) = 4.58465 6.31306 5.51696
#
# Compressibility (1/GPa) = 0.03547198
#
# Stress axis : x y z
#
# Youngs Moduli (GPa) = 64.62546 32.98309 49.41145
#
# Poissons Ratio (x) = 0.37168 0.05970
# Poissons Ratio (y) = 0.72826 0.13845
# Poissons Ratio (z) = 0.07809 0.09242
#
# Static dielectric constant tensor:
#      x y z
#    x 1.988990 -0.030400 -0.046160 
#    y -0.030400 1.932930 0.037260 
#    z -0.046160 0.037260 1.952420 
# 
# From -- ./inp_files/348857.got.cif
#   From: 2010.05.17/outbox.cif.g08.bks.cpg/sg2_175_cif.got.tgz:348857.got - 2010.06.03 11:33:40.
