data_PCOD9079201
_publ_section_title
;
Structure prediction by ZEFSAII (Michael W. Deem and Ramdas Pophale) SiO2 
 PCOD9079201
Probable space group: P -1
;
_chemical_formula_sum "Si O2"
_cell_formula_units_Z 13
_cell_length_a 13.792066
_cell_length_b 11.779904
_cell_length_c 11.296519
_cell_angle_alpha 38.458478
_cell_angle_beta 148.686182
_cell_angle_gamma 150.378402
_cell_volume 465.608134
_symmetry_space_group_name_H-M "P -1"
_symmetry_group_IT_number 2
_symmetry_cell_setting 'triclinic'
loop_
_space_group_symop_operation_xyz
x,y,z
-x,-y,-z
loop_
_atom_site_type_symbol
_atom_site_label
_atom_site_fract_x
_atom_site_fract_y
_atom_site_fract_z
Si Si1 0.613336 0.758729 0.756355
Si Si2 0.029736 0.840261 0.774881
Si Si3 0.907300 0.848623 0.205123
Si Si4 0.000000 0.500000 0.500000
Si Si5 0.392223 0.858404 0.266349
Si Si6 0.597166 0.782758 0.317695
Si Si7 0.342716 0.611422 0.957125
O O1 0.431887 0.797855 0.485912
O O2 0.700591 0.811035 0.938716
O O3 0.534154 0.505653 0.852653
O O4 0.848582 0.938864 0.777356
O O5 0.758163 0.698164 0.568745
O O6 0.077539 0.050114 0.733607
O O7 0.210762 0.964123 0.752260
O O8 0.127030 0.738969 0.042345
O O9 0.914002 0.634876 0.372802
O O10 0.091907 0.458283 0.754449
O O11 0.540336 0.135648 0.182254
O O12 0.512412 0.803652 0.337468
O O13 0.387399 0.648212 0.113102
#
# Coordination Sequence:
#
# PCOD9079201 Si02
#       7
#     2   2   2   1   2   2   2
#     4  10  21  37  63  88 125 160 201 254 303 362
#     4  10  20  37  66  89 123 161 206 254 297 365
#     4  10  20  38  62  93 121 162 203 252 307 357
#     4  10  18  36  64  88 114 160 204 238 308 360
#     4  11  21  41  67  88 123 168 199 251 310 353
#     4  10  21  39  63  93 122 162 206 252 301 359
#     4  10  20  35  62  90 117 163 203 241 307 361
#
# _framework density 27.920476000000001
#
# number of rings (size 3 to 8) (size 9 to 14) (size 15 to 20)
#    0.000    1.846    3.077    1.846    0.000    2.462 
#    0.000   13.077   30.462    0.000    0.000    0.000 
#    0.000    0.000    0.000    0.000    0.000    0.000 
#
# Total GULP energy -72608.183346 kJ/mol
# GULP energy per Si atom -5585.244873 kJ/mol
# Density = 2.785693 g / cm^3
# Si number density = 27.920476 Si / 1000 Ang^3
#
#
#
# Elastic Constant Matrix: (Units=GPa)
#
#
# Indices 1 2 3 4 5 6 
#
# 1 94.5186 49.6816 37.9999 9.4473 4.9455 -16.1850
# 2 49.6816 80.0240 41.2176 -9.0011 -8.4481 -0.3813
# 3 37.9999 41.2176 257.5068 14.1175 -14.4821 -6.0345
# 4 9.4473 -9.0011 14.1175 47.1895 -1.2263 -6.9948
# 5 4.9455 -8.4481 -14.4821 -1.2263 49.8080 2.7944
# 6 -16.1850 -0.3813 -6.0345 -6.9948 2.7944 38.8629
#
#
#
# Elastic Compliance Matrix: (Units=1/GPa)
#
#
# Indices 1 2 3 4 5 6 
#
# 1 0.019704 -0.012973 -0.000645 -0.005259 -0.004888 0.007383
# 2 -0.012973 0.022850 -0.001951 0.006991 0.005026 -0.004585
# 3 -0.000645 -0.001951 0.004431 -0.001535 0.000981 0.000054
# 4 -0.005259 0.006991 -0.001535 0.024364 0.001755 0.001899
# 5 -0.004888 0.005026 0.000981 0.001755 0.021917 -0.003094
# 6 0.007383 -0.004585 0.000054 0.001899 -0.003094 0.029334
#
#
# Mechanical properties :
#
#
# Convention : Reuss Voigt Hill
#
# Bulk Modulus (GPa) = 63.10039 76.64971 69.87505
# Shear Modulus (GPa) = 31.44237 47.38208 39.41223
#
# Velocity S-wave (km/s) = 3.35944 4.12398 3.76119
# Velocity P-wave (km/s) = 6.13978 7.08440 6.62894
#
# Compressibility (1/GPa) = 0.01584776
#
# Stress axis : x y z
#
# Youngs Moduli (GPa) = 50.75135 43.76282 225.66101
#
# Poissons Ratio (x) = 0.56774 0.14548
# Poissons Ratio (y) = 0.65841 0.44030
# Poissons Ratio (z) = 0.03272 0.08539
#
# Static dielectric constant tensor:
#      x y z
#    x 2.142560 0.124140 0.061450 
#    y 0.124140 2.279510 0.048600 
#    z 0.061450 0.048600 2.173470 
# 
# From -- ./inp_files/449688.got.cif
#   From: 2010.05.17/outbox.cif.g08.bks.cpg/sg2_225_cif.got.tgz:449688.got - 2010.06.03 11:33:40.
