data_PCOD9079553
_publ_section_title
;
Structure prediction by ZEFSAII (Michael W. Deem and Ramdas Pophale) SiO2 
 PCOD9079553
Probable space group: P -1
;
_chemical_formula_sum "Si O2"
_cell_formula_units_Z 16
_cell_length_a 9.530336
_cell_length_b 12.624902
_cell_length_c 11.599484
_cell_angle_alpha 113.142111
_cell_angle_beta 128.394056
_cell_angle_gamma 36.389232
_cell_volume 631.545324
_symmetry_space_group_name_H-M "P -1"
_symmetry_group_IT_number 2
_symmetry_cell_setting 'triclinic'
loop_
_space_group_symop_operation_xyz
x,y,z
-x,-y,-z
loop_
_atom_site_type_symbol
_atom_site_label
_atom_site_fract_x
_atom_site_fract_y
_atom_site_fract_z
Si Si1 0.574101 0.333477 0.146411
Si Si2 0.815678 0.418494 0.420427
Si Si3 0.814028 0.368216 0.645668
Si Si4 0.426400 0.031942 0.111370
Si Si5 0.833861 0.018562 0.320597
Si Si6 0.645947 0.733592 0.385547
Si Si7 0.170516 0.388079 0.827413
Si Si8 0.068695 0.091689 0.123845
O O1 0.580079 0.445058 0.272399
O O2 0.284655 0.429506 0.987073
O O3 0.731584 0.156864 0.228545
O O4 0.786746 0.263004 0.122663
O O5 0.948129 0.304790 0.558089
O O6 0.649396 0.623486 0.426262
O O7 0.119257 0.293218 0.460218
O O8 0.500000 0.500000 0.500000
O O9 0.960344 0.188611 0.707088
O O10 0.887810 0.462131 0.760294
O O11 0.597651 0.829860 0.138947
O O12 0.137334 0.146064 0.079054
O O13 0.557777 0.084393 0.249505
O O14 0.500000 0.000000 0.000000
O O15 0.000000 0.000000 0.500000
O O16 0.785468 0.607967 0.284300
O O17 0.342176 0.938249 0.283249
O O18 0.000000 0.000000 0.000000
#
# Coordination Sequence:
#
# PCOD9079553 Si02
#       8
#     2   2   2   2   2   2   2   2
#     4  12  22  38  65  96 125 158 211 267 317 357
#     4  10  22  40  61  85 123 170 202 254 320 368
#     4  10  22  40  62  86 120 170 218 242 299 391
#     4  10  18  37  61  86 123 161 194 244 316 365
#     4  11  22  39  62  89 128 163 198 260 322 359
#     4   9  20  41  60  81 122 167 204 245 317 372
#     4   9  19  38  61  85 122 159 202 255 312 366
#     4  11  21  37  63  98 120 155 217 260 296 380
#
# _framework density 25.334681
#
# number of rings (size 3 to 8) (size 9 to 14) (size 15 to 20)
#    0.000    1.750    5.000    0.750    1.750    1.000 
#    0.000    0.625    0.000    0.000    0.000    0.875 
#    0.000    0.000    0.000    0.000    0.000    0.000 
#
# Total GULP energy -89175.971181 kJ/mol
# GULP energy per Si atom -5573.498199 kJ/mol
# Density = 2.527702 g / cm^3
# Si number density = 25.334681 Si / 1000 Ang^3
#
#
#
# Elastic Constant Matrix: (Units=GPa)
#
#
# Indices 1 2 3 4 5 6 
#
# 1 127.2384 20.0896 40.2403 -2.1464 25.9096 19.0460
# 2 20.0896 69.5280 16.6289 -9.5744 5.2341 17.7615
# 3 40.2403 16.6289 145.2861 6.8425 44.8369 9.9553
# 4 -2.1464 -9.5744 6.8425 27.8416 5.5031 5.0324
# 5 25.9096 5.2341 44.8369 5.5031 59.6630 -0.7725
# 6 19.0460 17.7615 9.9553 5.0324 -0.7725 23.2723
#
#
#
# Elastic Compliance Matrix: (Units=1/GPa)
#
#
# Indices 1 2 3 4 5 6 
#
# 1 0.010481 0.000498 -0.001212 0.003798 -0.004156 -0.009399
# 2 0.000498 0.020970 -0.001005 0.011356 -0.002588 -0.018524
# 3 -0.001212 -0.001005 0.009545 -0.001086 -0.006488 -0.002305
# 4 0.003798 0.011356 -0.001086 0.045488 -0.006302 -0.021356
# 5 -0.004156 -0.002588 -0.006488 -0.006302 0.024384 0.010324
# 6 -0.009399 -0.018524 -0.002305 -0.021356 0.010324 0.070745
#
#
# Mechanical properties :
#
#
# Convention : Reuss Voigt Hill
#
# Bulk Modulus (GPa) = 26.62527 55.10778 40.86653
# Shear Modulus (GPa) = 25.30744 39.82831 32.56788
#
# Velocity S-wave (km/s) = 3.16401 3.96926 3.58928
# Velocity P-wave (km/s) = 4.88673 6.54261 5.77434
#
# Compressibility (1/GPa) = 0.03755830
#
# Stress axis : x y z
#
# Youngs Moduli (GPa) = 95.40855 47.68777 104.76503
#
# Poissons Ratio (x) = -0.02376 0.12699
# Poissons Ratio (y) = -0.04754 0.10529
# Poissons Ratio (z) = 0.11565 0.04793
#
# Static dielectric constant tensor:
#      x y z
#    x 2.396720 -0.235030 -0.194690 
#    y -0.235030 2.207240 0.214190 
#    z -0.194690 0.214190 2.302140 
# 
# From -- ./inp_files/392747.got.cif
#   From: 2010.05.17/outbox.cif.g08.bks.cpg/sg2_197_cif.got.tgz:392747.got - 2010.06.03 11:33:40.
