data_PCOD9079001
_publ_section_title
;
Structure prediction by ZEFSAII (Michael W. Deem and Ramdas Pophale) SiO2 
 PCOD9079001
Probable space group: P -1
;
_chemical_formula_sum "Si O2"
_cell_formula_units_Z 16
_cell_length_a 9.220786
_cell_length_b 8.200495
_cell_length_c 11.673831
_cell_angle_alpha 96.298273
_cell_angle_beta 90.924550
_cell_angle_gamma 46.851020
_cell_volume 638.009348
_symmetry_space_group_name_H-M "P -1"
_symmetry_group_IT_number 2
_symmetry_cell_setting 'triclinic'
loop_
_space_group_symop_operation_xyz
x,y,z
-x,-y,-z
loop_
_atom_site_type_symbol
_atom_site_label
_atom_site_fract_x
_atom_site_fract_y
_atom_site_fract_z
Si Si1 0.638177 0.934992 0.292427
Si Si2 0.410279 0.314731 0.164063
Si Si3 0.582487 0.488508 0.126887
Si Si4 0.205231 0.741088 0.505473
Si Si5 0.996296 0.643321 0.612842
Si Si6 0.215070 0.376301 0.946176
Si Si7 0.946503 0.357845 0.698708
Si Si8 0.592133 0.171011 0.637537
O O1 0.830731 0.886279 0.330698
O O2 0.577177 0.838559 0.371033
O O3 0.445267 0.181129 0.267127
O O4 0.713212 0.804984 0.162548
O O5 0.590074 0.303839 0.168105
O O6 0.378828 0.247847 0.039887
O O7 0.193352 0.571438 0.190258
O O8 0.451255 0.697954 0.233009
O O9 0.500000 0.500000 0.000000
O O10 0.770084 0.455472 0.098462
O O11 0.168921 0.651249 0.609031
O O12 0.380572 0.726245 0.461902
O O13 0.186979 0.615075 0.399590
O O14 0.000000 0.000000 0.500000
O O15 0.986930 0.522667 0.708097
O O16 0.000000 0.500000 0.500000
O O17 0.796066 0.907449 0.626752
O O18 0.000000 0.500000 0.000000
#
# Coordination Sequence:
#
# PCOD9079001 Si02
#       8
#     2   2   2   2   2   2   2   2
#     4  11  23  36  60  94 119 161 209 242 302 367
#     4  11  20  39  61  84 127 163 193 252 302 350
#     4   9  20  35  60  88 122 161 200 244 299 361
#     4   9  19  37  63  85 119 160 199 253 312 356
#     4   9  19  36  61  89 113 158 200 249 315 358
#     4  10  20  38  61  89 125 158 204 250 295 361
#     4  11  20  38  63  87 120 157 204 251 300 370
#     4  10  18  36  61  87 123 158 197 255 303 359
#
# _framework density 25.078001
#
# number of rings (size 3 to 8) (size 9 to 14) (size 15 to 20)
#    0.000    2.000    3.750    0.375    0.000    0.000 
#    0.000   13.125    0.000    0.000    0.000    0.000 
#    0.000    0.000    0.000    0.000    0.000    0.000 
#
# Total GULP energy -89103.243992 kJ/mol
# GULP energy per Si atom -5568.952750 kJ/mol
# Density = 2.502092 g / cm^3
# Si number density = 25.078001 Si / 1000 Ang^3
#
#
#
# Elastic Constant Matrix: (Units=GPa)
#
#
# Indices 1 2 3 4 5 6 
#
# 1 154.7173 26.3012 36.5170 -0.7890 -36.3019 2.2666
# 2 26.3012 81.9380 24.5173 -1.8154 -10.2821 9.8989
# 3 36.5170 24.5173 91.2839 18.3441 -6.9989 7.0033
# 4 -0.7890 -1.8154 18.3441 37.5803 4.8311 -7.6655
# 5 -36.3019 -10.2821 -6.9989 4.8311 57.2924 -4.8840
# 6 2.2666 9.8989 7.0033 -7.6655 -4.8840 31.6934
#
#
#
# Elastic Compliance Matrix: (Units=1/GPa)
#
#
# Indices 1 2 3 4 5 6 
#
# 1 0.008531 -0.001380 -0.003054 0.001302 0.004807 0.001551
# 2 -0.001380 0.014134 -0.003238 0.001488 0.000877 -0.003105
# 3 -0.003054 -0.003238 0.015020 -0.008358 -0.000331 -0.004162
# 4 0.001302 0.001488 -0.008358 0.032861 -0.001938 0.008938
# 5 0.004807 0.000877 -0.000331 -0.001938 0.020970 0.002218
# 6 0.001551 -0.003105 -0.004162 0.008938 0.002218 0.035835
#
#
# Mechanical properties :
#
#
# Convention : Reuss Voigt Hill
#
# Bulk Modulus (GPa) = 44.76018 55.84558 50.30288
# Shear Modulus (GPa) = 33.30216 41.35347 37.32781
#
# Velocity S-wave (km/s) = 3.64805 4.06519 3.86225
# Velocity P-wave (km/s) = 5.96921 6.65969 6.32388
#
# Compressibility (1/GPa) = 0.02234128
#
# Stress axis : x y z
#
# Youngs Moduli (GPa) = 117.22568 70.75036 66.57891
#
# Poissons Ratio (x) = 0.09762 0.20333
# Poissons Ratio (y) = 0.16174 0.21557
# Poissons Ratio (z) = 0.35801 0.22908
#
# Static dielectric constant tensor:
#      x y z
#    x 2.048890 -0.038430 -0.083790 
#    y -0.038430 2.109080 -0.002150 
#    z -0.083790 -0.002150 2.140750 
# 
# From -- ./inp_files/215370.got.cif
#   From: 2010.05.17/outbox.cif.g08.bks.cpg/sg2_108_cif.got.tgz:215370.got - 2010.06.03 11:33:40.
