data_PCOD9079538
_publ_section_title
;
Structure prediction by ZEFSAII (Michael W. Deem and Ramdas Pophale) SiO2 
 PCOD9079538
Probable space group: P -1
;
_chemical_formula_sum "Si O2"
_cell_formula_units_Z 16
_cell_length_a 9.167842
_cell_length_b 13.750378
_cell_length_c 8.211783
_cell_angle_alpha 71.940941
_cell_angle_beta 46.736389
_cell_angle_gamma 63.043452
_cell_volume 671.928523
_symmetry_space_group_name_H-M "P -1"
_symmetry_group_IT_number 2
_symmetry_cell_setting 'triclinic'
loop_
_space_group_symop_operation_xyz
x,y,z
-x,-y,-z
loop_
_atom_site_type_symbol
_atom_site_label
_atom_site_fract_x
_atom_site_fract_y
_atom_site_fract_z
Si Si1 0.282486 0.036401 0.533000
Si Si2 0.348276 0.465906 0.759164
Si Si3 0.907534 0.848835 0.095358
Si Si4 0.219429 0.820638 0.580120
Si Si5 0.432827 0.942911 0.933290
Si Si6 0.313787 0.327913 0.596251
Si Si7 0.304761 0.739119 0.225817
Si Si8 0.400440 0.606841 0.911545
O O1 0.081954 0.094591 0.769775
O O2 0.356973 0.107757 0.312590
O O3 0.500000 0.000000 0.500000
O O4 0.231779 0.941725 0.523206
O O5 0.500000 0.500000 0.500000
O O6 0.210592 0.425286 0.755589
O O7 0.492528 0.362784 0.810058
O O8 0.274245 0.567111 0.887681
O O9 0.814095 0.755015 0.264962
O O10 0.743838 0.954266 0.070832
O O11 0.096697 0.808014 0.843001
O O12 0.462685 0.745046 0.456940
O O13 0.151585 0.779739 0.482448
O O14 0.361275 0.845710 0.093083
O O15 0.500000 0.000000 0.000000
O O16 0.404042 0.365231 0.341665
O O17 0.264729 0.696267 0.100242
O O18 0.500000 0.500000 0.000000
#
# Coordination Sequence:
#
# PCOD9079538 Si02
#       8
#     2   2   2   2   2   2   2   2
#     4  10  19  36  54  76 113 157 189 232 268 323
#     4   8  16  32  57  81 103 140 185 232 280 335
#     4  11  23  35  57  82 118 156 192 226 272 339
#     4  11  21  37  54  82 116 156 195 225 274 335
#     4  11  19  35  55  80 120 155 180 229 284 328
#     4  10  18  37  61  83 114 146 192 233 280 338
#     4  10  19  31  53  82 115 144 182 233 283 338
#     4   9  18  33  60  89 107 142 190 239 296 337
#
# _framework density 23.812056999999999
#
# number of rings (size 3 to 8) (size 9 to 14) (size 15 to 20)
#    0.000    2.000    3.750    1.875    1.750    0.500 
#    0.000    0.000    0.000   28.500    0.000    0.000 
#    0.000    0.000    0.000    0.000    0.000    0.000 
#
# Total GULP energy -89104.353962 kJ/mol
# GULP energy per Si atom -5569.022123 kJ/mol
# Density = 2.375786 g / cm^3
# Si number density = 23.812057 Si / 1000 Ang^3
#
#
#
# Elastic Constant Matrix: (Units=GPa)
#
#
# Indices 1 2 3 4 5 6 
#
# 1 55.1378 36.5280 42.2185 11.6558 8.7907 20.3841
# 2 36.5280 135.3048 37.8330 4.7444 11.2229 29.0719
# 3 42.2185 37.8330 134.5744 17.1179 21.1783 23.3483
# 4 11.6558 4.7444 17.1179 61.9514 15.0244 15.9315
# 5 8.7907 11.2229 21.1783 15.0244 33.5296 12.8767
# 6 20.3841 29.0719 23.3483 15.9315 12.8767 35.3831
#
#
#
# Elastic Compliance Matrix: (Units=1/GPa)
#
#
# Indices 1 2 3 4 5 6 
#
# 1 0.029345 -0.004239 -0.006556 -0.001531 0.002070 -0.009160
# 2 -0.004239 0.009968 -0.000602 0.001841 -0.000345 -0.006055
# 3 -0.006556 -0.000602 0.010534 -0.000359 -0.004191 -0.000993
# 4 -0.001531 0.001841 -0.000359 0.019677 -0.006104 -0.007031
# 5 0.002070 -0.000345 -0.004191 -0.006104 0.038374 -0.009361
# 6 -0.009160 -0.006055 -0.000993 -0.007031 -0.009361 0.045741
#
#
# Mechanical properties :
#
#
# Convention : Reuss Voigt Hill
#
# Bulk Modulus (GPa) = 36.96382 62.01955 49.49168
# Shear Modulus (GPa) = 26.96124 40.06867 33.51496
#
# Velocity S-wave (km/s) = 3.36855 4.10653 3.75571
# Velocity P-wave (km/s) = 5.53952 6.97042 6.29576
#
# Compressibility (1/GPa) = 0.02705348
#
# Stress axis : x y z
#
# Youngs Moduli (GPa) = 34.07790 100.31755 94.92742
#
# Poissons Ratio (x) = 0.42522 0.62235
# Poissons Ratio (y) = 0.14445 0.05716
# Poissons Ratio (z) = 0.22342 0.06040
#
# Static dielectric constant tensor:
#      x y z
#    x 1.911140 0.044300 0.081940 
#    y 0.044300 2.000030 0.121070 
#    z 0.081940 0.121070 2.137950 
# 
# From -- ./inp_files/269909.got.cif
#   From: 2010.05.17/outbox.cif.g08.bks.cpg/sg2_135_cif.got.tgz:269909.got - 2010.06.03 11:33:40.
