data_PCOD9079489
_publ_section_title
;
Structure prediction by ZEFSAII (Michael W. Deem and Ramdas Pophale) SiO2 
 PCOD9079489
Probable space group: P -1
;
_chemical_formula_sum "Si O2"
_cell_formula_units_Z 16
_cell_length_a 19.835609
_cell_length_b 11.678049
_cell_length_c 25.929760
_cell_angle_alpha 22.746082
_cell_angle_beta 18.092982
_cell_angle_gamma 23.653274
_cell_volume 681.378571
_symmetry_space_group_name_H-M "P -1"
_symmetry_group_IT_number 2
_symmetry_cell_setting 'triclinic'
loop_
_space_group_symop_operation_xyz
x,y,z
-x,-y,-z
loop_
_atom_site_type_symbol
_atom_site_label
_atom_site_fract_x
_atom_site_fract_y
_atom_site_fract_z
Si Si1 0.146681 0.281161 0.291500
Si Si2 0.338482 0.760547 0.739872
Si Si3 0.350580 0.175946 0.085229
Si Si4 0.532076 0.161634 0.575220
Si Si5 0.367790 0.429440 0.478806
Si Si6 0.325102 0.476282 0.319732
Si Si7 0.084794 0.973863 0.570009
Si Si8 0.103122 0.977982 0.993250
O O1 0.337047 0.082843 0.193880
O O2 0.881209 0.322942 0.453235
O O3 0.170810 0.145036 0.388637
O O4 0.147043 0.639742 0.130184
O O5 0.390038 0.616075 0.706183
O O6 0.571431 0.561074 0.682303
O O7 0.332434 0.110139 0.614245
O O8 0.100103 0.762992 0.935664
O O9 0.089525 0.209704 0.244951
O O10 0.471416 0.441432 0.892047
O O11 0.500000 0.000000 0.000000
O O12 0.672412 0.851776 0.568200
O O13 0.331232 0.068812 0.787717
O O14 0.709696 0.216510 0.463403
O O15 0.414750 0.408640 0.513630
O O16 0.083639 0.743741 0.389563
O O17 0.000000 0.000000 0.000000
#
# Coordination Sequence:
#
# PCOD9079489 Si02
#       8
#     2   2   2   2   2   2   2   2
#     4  11  19  37  61  80 109 153 198 224 271 344
#     4   9  16  30  56  88 105 142 196 231 263 330
#     4  10  22  39  58  81 111 155 196 227 271 342
#     4  11  21  36  56  90 119 142 179 243 296 323
#     4   9  18  31  58  84 112 143 191 229 278 336
#     4  10  18  37  60  82 111 154 192 226 276 344
#     4  11  24  36  55  87 118 147 187 238 285 324
#     4  11  18  32  58  84 114 145 188 228 277 339
#
# _framework density 23.481805999999999
#
# number of rings (size 3 to 8) (size 9 to 14) (size 15 to 20)
#    0.000    1.750    6.250    0.750    1.750    0.500 
#    0.000    1.875    0.000    0.750    0.000    0.000 
#    0.000    0.000    0.000    0.000    0.000    0.000 
#
# Total GULP energy -89103.374614 kJ/mol
# GULP energy per Si atom -5568.960913 kJ/mol
# Density = 2.342836 g / cm^3
# Si number density = 23.481806 Si / 1000 Ang^3
#
#
#
# Elastic Constant Matrix: (Units=GPa)
#
#
# Indices 1 2 3 4 5 6 
#
# 1 95.8297 24.3356 49.8445 10.5574 17.3729 -4.0325
# 2 24.3356 90.6550 17.6561 14.5216 7.4779 -2.8777
# 3 49.8445 17.6561 97.7183 14.1114 27.1539 -4.8167
# 4 10.5574 14.5216 14.1114 43.7240 2.6442 4.7825
# 5 17.3729 7.4779 27.1539 2.6442 31.6744 4.3633
# 6 -4.0325 -2.8777 -4.8167 4.7825 4.3633 43.6784
#
#
#
# Elastic Compliance Matrix: (Units=1/GPa)
#
#
# Indices 1 2 3 4 5 6 
#
# 1 0.014891 -0.002437 -0.006426 -0.000670 -0.002137 0.000792
# 2 -0.002437 0.012415 -0.000036 -0.003560 -0.001421 0.001121
# 3 -0.006426 -0.000036 0.017368 -0.003663 -0.011445 0.002864
# 4 -0.000670 -0.003560 -0.003663 0.025646 0.002728 -0.003781
# 5 -0.002137 -0.001421 -0.011445 0.002728 0.043516 -0.006199
# 6 0.000792 0.001121 0.002864 -0.003781 -0.006199 0.024391
#
#
# Mechanical properties :
#
#
# Convention : Reuss Voigt Hill
#
# Bulk Modulus (GPa) = 37.20740 51.98618 44.59679
# Shear Modulus (GPa) = 30.30610 36.63981 33.47296
#
# Velocity S-wave (km/s) = 3.59642 3.95441 3.77966
# Velocity P-wave (km/s) = 5.75545 6.56024 6.17098
#
# Compressibility (1/GPa) = 0.02687637
#
# Stress axis : x y z
#
# Youngs Moduli (GPa) = 67.15557 80.54728 57.57643
#
# Poissons Ratio (x) = 0.19631 0.36997
# Poissons Ratio (y) = 0.16367 0.00207
# Poissons Ratio (z) = 0.43152 0.00290
#
# Static dielectric constant tensor:
#      x y z
#    x 1.905980 0.006230 0.088110 
#    y 0.006230 2.093390 -0.123470 
#    z 0.088110 -0.123470 2.029590 
# 
# From -- ./inp_files/253030.got.cif
#   From: 2010.05.17/outbox.cif.g08.bks.cpg/sg2_127_cif.got.tgz:253030.got - 2010.06.03 11:33:40.
