data_PCOD9079366
_publ_section_title
;
Structure prediction by ZEFSAII (Michael W. Deem and Ramdas Pophale) SiO2 
 PCOD9079366
Probable space group: P -1
;
_chemical_formula_sum "Si O2"
_cell_formula_units_Z 13
_cell_length_a 9.544270
_cell_length_b 9.910739
_cell_length_c 8.675340
_cell_angle_alpha 131.158056
_cell_angle_beta 61.996735
_cell_angle_gamma 122.350681
_cell_volume 512.977216
_symmetry_space_group_name_H-M "P -1"
_symmetry_group_IT_number 2
_symmetry_cell_setting 'triclinic'
loop_
_space_group_symop_operation_xyz
x,y,z
-x,-y,-z
loop_
_atom_site_type_symbol
_atom_site_label
_atom_site_fract_x
_atom_site_fract_y
_atom_site_fract_z
Si Si1 0.849747 0.794324 0.915115
Si Si2 0.020448 0.671133 0.472644
Si Si3 0.160352 0.604681 0.895111
Si Si4 0.000000 0.000000 0.500000
Si Si5 0.609440 0.198035 0.512305
Si Si6 0.664923 0.023211 0.029186
Si Si7 0.302714 0.335742 0.766539
O O1 0.775062 0.709165 0.054166
O O2 0.708559 0.841240 0.921036
O O3 0.935752 0.672071 0.681750
O O4 0.000000 0.000000 0.000000
O O5 0.103583 0.507580 0.688446
O O6 0.017481 0.856402 0.519383
O O7 0.218536 0.705184 0.411030
O O8 0.190726 0.828820 0.040273
O O9 0.303039 0.537865 0.849929
O O10 0.000000 0.500000 0.000000
O O11 0.823842 0.828661 0.398414
O O12 0.652278 0.134823 0.274837
O O13 0.488243 0.322301 0.659720
O O14 0.500000 0.000000 0.500000
O O15 0.500000 0.000000 0.000000
#
# Coordination Sequence:
#
# PCOD9079366 Si02
#       7
#     2   2   2   1   2   2   2
#     4  12  21  46  73 109 140 197 251 290 365 450
#     4  11  25  43  77 103 150 192 249 301 362 443
#     4  11  29  50  73 110 149 196 249 305 375 438
#     4  10  18  36  70 100 138 196 234 286 358 436
#     4  12  23  45  72 111 145 192 244 300 370 432
#     4  12  29  46  76 108 151 191 249 310 371 441
#     4  11  24  43  72 104 150 191 247 302 368 438
#
# _framework density 25.342252999999999
#
# number of rings (size 3 to 8) (size 9 to 14) (size 15 to 20)
#    0.000    0.615    6.154    0.923    8.615    1.231 
#    0.000    1.538    0.000    0.000    0.000    0.000 
#    0.000    0.000    0.000    0.000    0.000    0.000 
#
# Total GULP energy -72661.624396 kJ/mol
# GULP energy per Si atom -5589.355723 kJ/mol
# Density = 2.528457 g / cm^3
# Si number density = 25.342253 Si / 1000 Ang^3
#
#
#
# Elastic Constant Matrix: (Units=GPa)
#
#
# Indices 1 2 3 4 5 6 
#
# 1 171.9621 57.5329 25.5150 -8.4603 -20.0981 -40.6932
# 2 57.5329 127.5349 -2.7653 -12.4479 8.3934 -19.9764
# 3 25.5150 -2.7653 69.1030 -10.8499 -14.7953 -7.7144
# 4 -8.4603 -12.4479 -10.8499 31.1011 -5.3530 -1.1260
# 5 -20.0981 8.3934 -14.7953 -5.3530 33.5774 2.9423
# 6 -40.6932 -19.9764 -7.7144 -1.1260 2.9423 54.1444
#
#
#
# Elastic Compliance Matrix: (Units=1/GPa)
#
#
# Indices 1 2 3 4 5 6 
#
# 1 0.009169 -0.003572 -0.001512 0.001674 0.005536 0.005092
# 2 -0.003572 0.010285 0.001626 0.003145 -0.003632 0.001604
# 3 -0.001512 0.001626 0.018233 0.008015 0.007843 0.001802
# 4 0.001674 0.003145 0.008015 0.038445 0.009540 0.003842
# 5 0.005536 -0.003632 0.007843 0.009540 0.038802 0.002028
# 6 0.005092 0.001604 0.001802 0.003842 0.002028 0.023114
#
#
# Mechanical properties :
#
#
# Convention : Reuss Voigt Hill
#
# Bulk Modulus (GPa) = 32.49903 58.79616 45.64759
# Shear Modulus (GPa) = 32.21184 42.98573 37.59879
#
# Velocity S-wave (km/s) = 3.56908 4.12297 3.85598
# Velocity P-wave (km/s) = 5.46226 6.77616 6.15438
#
# Compressibility (1/GPa) = 0.03077015
#
# Stress axis : x y z
#
# Youngs Moduli (GPa) = 109.06239 97.22807 54.84478
#
# Poissons Ratio (x) = 0.34735 0.08292
# Poissons Ratio (y) = 0.38962 -0.08917
# Poissons Ratio (z) = 0.16490 -0.15808
#
# Static dielectric constant tensor:
#      x y z
#    x 1.984920 -0.058580 -0.021300 
#    y -0.058580 2.107510 -0.019510 
#    z -0.021300 -0.019510 2.219930 
# 
# From -- ./inp_files/151253.got.cif
#   From: 2010.05.17/outbox.cif.g08.bks.cpg/sg2_76_cif.got.tgz:151253.got - 2010.06.03 11:33:40.
