data_PCOD9079784
_publ_section_title
;
Structure prediction by ZEFSAII (Michael W. Deem and Ramdas Pophale) SiO2 
 PCOD9079784
Probable space group: P -1
;
_chemical_formula_sum "Si O2"
_cell_formula_units_Z 16
_cell_length_a 14.051015
_cell_length_b 15.348927
_cell_length_c 8.617422
_cell_angle_alpha 27.903117
_cell_angle_beta 76.343028
_cell_angle_gamma 65.626211
_cell_volume 755.308082
_symmetry_space_group_name_H-M "P -1"
_symmetry_group_IT_number 2
_symmetry_cell_setting 'triclinic'
loop_
_space_group_symop_operation_xyz
x,y,z
-x,-y,-z
loop_
_atom_site_type_symbol
_atom_site_label
_atom_site_fract_x
_atom_site_fract_y
_atom_site_fract_z
Si Si1 0.900200 0.444377 0.611125
Si Si2 0.547184 0.779902 0.417847
Si Si3 0.114365 0.295714 0.290393
Si Si4 0.748605 0.647958 0.085414
Si Si5 0.247869 0.181392 0.709712
Si Si6 0.389415 0.527416 0.416734
Si Si7 0.185901 0.865283 0.789515
Si Si8 0.317907 0.916650 0.396633
O O1 0.858941 0.490043 0.379883
O O2 0.804537 0.619188 0.472901
O O3 0.000000 0.500000 0.500000
O O4 0.897872 0.234558 0.999250
O O5 0.648694 0.795535 0.437719
O O6 0.582261 0.607676 0.540184
O O7 0.448953 0.777256 0.561038
O O8 0.500000 0.000000 0.000000
O O9 0.154595 0.204121 0.589433
O O10 0.121620 0.108217 0.473833
O O11 0.211226 0.345820 0.110745
O O12 0.000000 0.500000 0.000000
O O13 0.662460 0.565172 0.289867
O O14 0.704319 0.874948 0.825143
O O15 0.282754 0.987306 0.120616
O O16 0.500000 0.500000 0.500000
O O17 0.290314 0.749205 0.050496
O O18 0.243163 0.832985 0.649098
#
# Coordination Sequence:
#
# PCOD9079784 Si02
#       8
#     2   2   2   2   2   2   2   2
#     4  10  19  41  67  84 120 172 209 266 327 369
#     4  10  18  37  65  89 130 170 218 244 322 391
#     4  11  24  42  66  92 129 168 221 276 329 375
#     4   9  19  41  58  87 128 162 211 262 314 385
#     4  10  20  39  63  90 124 172 216 262 319 381
#     4  11  22  38  63  98 136 169 204 263 329 387
#     4  10  23  42  62  98 134 158 223 268 316 397
#     4   9  19  37  66  90 126 171 208 263 309 386
#
# _framework density 21.183408
#
# number of rings (size 3 to 8) (size 9 to 14) (size 15 to 20)
#    0.000    2.000    5.000    0.750    3.500    1.500 
#    2.250   18.125    0.000    0.000    0.000    0.000 
#    0.000    0.000    0.000    0.000    0.000    0.000 
#
# Total GULP energy -89132.845844 kJ/mol
# GULP energy per Si atom -5570.802865 kJ/mol
# Density = 2.113519 g / cm^3
# Si number density = 21.183408 Si / 1000 Ang^3
#
#
#
# Elastic Constant Matrix: (Units=GPa)
#
#
# Indices 1 2 3 4 5 6 
#
# 1 148.0133 27.3493 47.6744 14.8633 -7.3316 -14.0641
# 2 27.3493 57.7070 29.7268 7.2209 3.4885 -19.8873
# 3 47.6744 29.7268 79.6663 3.8152 -10.5792 -18.8612
# 4 14.8633 7.2209 3.8152 33.4018 -5.9568 6.2711
# 5 -7.3316 3.4885 -10.5792 -5.9568 23.9212 3.9702
# 6 -14.0641 -19.8873 -18.8612 6.2711 3.9702 22.6663
#
#
#
# Elastic Compliance Matrix: (Units=1/GPa)
#
#
# Indices 1 2 3 4 5 6 
#
# 1 0.008879 -0.000546 -0.004390 -0.003907 -0.000537 0.002553
# 2 -0.000546 0.035323 -0.006735 -0.015880 -0.017651 0.032535
# 3 -0.004390 -0.006735 0.020195 0.001287 0.007819 0.006447
# 4 -0.003907 -0.015880 0.001287 0.043842 0.017669 -0.030512
# 5 -0.000537 -0.017651 0.007819 0.017669 0.056058 -0.024022
# 6 0.002553 0.032535 0.006447 -0.030512 -0.024022 0.092262
#
#
# Mechanical properties :
#
#
# Convention : Reuss Voigt Hill
#
# Bulk Modulus (GPa) = 24.35625 54.98752 39.67189
# Shear Modulus (GPa) = 17.03075 28.04027 22.53551
#
# Velocity S-wave (km/s) = 2.83851 3.64220 3.26518
# Velocity P-wave (km/s) = 4.71864 6.61073 5.74314
#
# Compressibility (1/GPa) = 0.04105723
#
# Stress axis : x y z
#
# Youngs Moduli (GPa) = 112.62305 28.30978 49.51669
#
# Poissons Ratio (x) = 0.01545 0.21736
# Poissons Ratio (y) = 0.06148 0.33348
# Poissons Ratio (z) = 0.49438 0.19066
#
# Static dielectric constant tensor:
#      x y z
#    x 1.850140 -0.039480 -0.006150 
#    y -0.039480 1.803430 0.020930 
#    z -0.006150 0.020930 1.810650 
# 
# From -- ./inp_files/314396.got.cif
#   From: 2010.05.17/outbox.cif.g08.bks.cpg/sg2_158_cif.got.tgz:314396.got - 2010.06.03 11:33:40.
