data_PCOD9079419
_publ_section_title
;
Structure prediction by ZEFSAII (Michael W. Deem and Ramdas Pophale) SiO2 
 PCOD9079419
Probable space group: P -1
;
_chemical_formula_sum "Si O2"
_cell_formula_units_Z 16
_cell_length_a 6.793763
_cell_length_b 12.773347
_cell_length_c 8.464516
_cell_angle_alpha 61.957003
_cell_angle_beta 79.854254
_cell_angle_gamma 79.145405
_cell_volume 633.443580
_symmetry_space_group_name_H-M "P -1"
_symmetry_group_IT_number 2
_symmetry_cell_setting 'triclinic'
loop_
_space_group_symop_operation_xyz
x,y,z
-x,-y,-z
loop_
_atom_site_type_symbol
_atom_site_label
_atom_site_fract_x
_atom_site_fract_y
_atom_site_fract_z
Si Si1 0.726753 0.450368 0.055917
Si Si2 0.497165 0.301005 0.391023
Si Si3 0.238701 0.509995 0.454887
Si Si4 0.351027 0.175606 0.193435
Si Si5 0.938425 0.088932 0.240240
Si Si6 0.732689 0.643423 0.155616
Si Si7 0.870108 0.280056 0.871492
Si Si8 0.709353 0.075412 0.612135
O O1 0.696287 0.350495 0.260969
O O2 0.810439 0.560721 0.051689
O O3 0.500000 0.500000 0.000000
O O4 0.818653 0.381171 0.941698
O O5 0.341030 0.411098 0.389469
O O6 0.403042 0.234521 0.306387
O O7 0.573071 0.198030 0.576914
O O8 0.330738 0.455417 0.645250
O O9 0.240221 0.649279 0.310824
O O10 0.000000 0.500000 0.500000
O O11 0.108977 0.172272 0.214164
O O12 0.421049 0.034942 0.274511
O O13 0.415501 0.255118 0.983434
O O14 0.790705 0.077132 0.416994
O O15 0.845882 0.154341 0.049617
O O16 0.085292 0.963392 0.289441
O O17 0.888803 0.714299 0.179493
#
# Coordination Sequence:
#
# PCOD9079419 Si02
#       8
#     2   2   2   2   2   2   2   2
#     4  12  21  33  56  89 113 136 190 243 280 327
#     4  12  21  35  56  87 116 143 186 238 277 326
#     4  10  23  38  54  80 117 155 187 222 278 348
#     4   9  18  34  59  83 109 146 185 231 280 325
#     4   8  17  31  55  85 112 137 178 238 285 316
#     4  10  21  37  55  79 116 154 183 219 285 339
#     4  10  18  37  57  81 111 146 183 230 279 331
#     4   9  18  34  55  88 110 139 188 237 281 320
#
# _framework density 25.258762000000001
#
# number of rings (size 3 to 8) (size 9 to 14) (size 15 to 20)
#    0.750    1.250    3.750    0.750    0.000    3.500 
#    0.000    0.625    0.000    0.000    0.000    4.375 
#    0.000    0.000    0.000    0.000    0.000    0.000 
#
# Total GULP energy -89200.581150 kJ/mol
# GULP energy per Si atom -5575.036322 kJ/mol
# Density = 2.520127 g / cm^3
# Si number density = 25.258762 Si / 1000 Ang^3
#
#
#
# Elastic Constant Matrix: (Units=GPa)
#
#
# Indices 1 2 3 4 5 6 
#
# 1 66.2769 19.0664 14.7699 -10.1302 14.4488 -10.0673
# 2 19.0664 60.9691 42.9822 -32.8805 18.1112 -9.1319
# 3 14.7699 42.9822 162.5175 -54.3470 15.7621 -9.2831
# 4 -10.1302 -32.8805 -54.3470 49.5070 -8.1231 9.3136
# 5 14.4488 18.1112 15.7621 -8.1231 36.4505 -12.2267
# 6 -10.0673 -9.1319 -9.2831 9.3136 -12.2267 38.4302
#
#
#
# Elastic Compliance Matrix: (Units=1/GPa)
#
#
# Indices 1 2 3 4 5 6 
#
# 1 0.017475 -0.003952 -0.000098 -0.000287 -0.004197 0.002349
# 2 -0.003952 0.030035 -0.001223 0.016457 -0.009572 -0.001228
# 3 -0.000098 -0.001223 0.009930 0.009951 -0.001725 -0.000878
# 4 -0.000287 0.016457 0.009951 0.042246 -0.004806 -0.005528
# 5 -0.004197 -0.009572 -0.001725 -0.004806 0.036549 0.009002
# 6 0.002349 -0.001228 -0.000878 -0.005528 0.009002 0.030337
#
#
# Mechanical properties :
#
#
# Convention : Reuss Voigt Hill
#
# Bulk Modulus (GPa) = 21.32409 49.26672 35.29541
# Shear Modulus (GPa) = 25.94065 39.07387 32.50726
#
# Velocity S-wave (km/s) = 3.20815 3.93739 3.59133
# Velocity P-wave (km/s) = 4.70995 6.34175 5.58576
#
# Compressibility (1/GPa) = 0.04689532
#
# Stress axis : x y z
#
# Youngs Moduli (GPa) = 57.22506 33.29504 100.70153
#
# Poissons Ratio (x) = 0.13158 0.00983
# Poissons Ratio (y) = 0.22615 0.12312
# Poissons Ratio (z) = 0.00558 0.04071
#
# Static dielectric constant tensor:
#      x y z
#    x 2.040430 -0.041930 -0.012220 
#    y -0.041930 1.967520 -0.038140 
#    z -0.012220 -0.038140 2.146900 
# 
# From -- ./inp_files/195703.got.cif
#   From: 2010.05.17/outbox.cif.g08.bks.cpg/sg2_98_cif.got.tgz:195703.got - 2010.06.03 11:33:40.
