data_PCOD9079901
_publ_section_title
;
Structure prediction by ZEFSAII (Michael W. Deem and Ramdas Pophale) SiO2 
 PCOD9079901
Probable space group: P -1
;
_chemical_formula_sum "Si O2"
_cell_formula_units_Z 16
_cell_length_a 9.218571
_cell_length_b 13.288448
_cell_length_c 14.939120
_cell_angle_alpha 148.979249
_cell_angle_beta 81.901431
_cell_angle_gamma 112.570154
_cell_volume 800.003938
_symmetry_space_group_name_H-M "P -1"
_symmetry_group_IT_number 2
_symmetry_cell_setting 'triclinic'
loop_
_space_group_symop_operation_xyz
x,y,z
-x,-y,-z
loop_
_atom_site_type_symbol
_atom_site_label
_atom_site_fract_x
_atom_site_fract_y
_atom_site_fract_z
Si Si1 0.710898 0.507195 0.358220
Si Si2 0.825478 0.275828 0.869757
Si Si3 0.360456 0.020658 0.847379
Si Si4 0.730533 0.133665 0.965541
Si Si5 0.823633 0.480002 0.526751
Si Si6 0.296957 0.218025 0.164976
Si Si7 0.566309 0.447441 0.042871
Si Si8 0.181179 0.133961 0.532833
O O1 0.746051 0.512235 0.464617
O O2 0.504496 0.394459 0.277740
O O3 0.807546 0.732679 0.459377
O O4 0.771821 0.341463 0.185774
O O5 0.831234 0.212608 0.924465
O O6 0.782541 0.062406 0.649177
O O7 0.683890 0.344829 0.929835
O O8 0.000000 0.500000 0.000000
O O9 0.533059 0.046510 0.893336
O O10 0.277906 0.777422 0.623079
O O11 0.253619 0.041472 0.953162
O O12 0.411606 0.240199 0.951224
O O13 0.741406 0.934577 0.860036
O O14 0.804999 0.649888 0.724099
O O15 0.000000 0.500000 0.500000
O O16 0.678364 0.667172 0.263624
O O17 0.500000 0.500000 0.000000
O O18 0.000000 0.000000 0.500000
#
# Coordination Sequence:
#
# PCOD9079901 Si02
#       8
#     2   2   2   2   2   2   2   2
#     4  11  20  40  67  94 120 166 220 257 309 391
#     4  11  22  41  65  96 132 170 219 267 325 383
#     4  10  21  41  63  89 126 160 215 261 310 390
#     4  10  18  37  69  94 116 162 220 267 297 376
#     4  12  26  38  58  98 135 164 204 265 330 381
#     4  11  20  39  68  89 118 167 216 252 313 377
#     4  11  25  44  66  97 131 168 217 277 328 383
#     4  12  23  41  71  98 129 170 225 271 318 387
#
# _framework density 19.999901999999999
#
# number of rings (size 3 to 8) (size 9 to 14) (size 15 to 20)
#    0.000    1.000    7.500    1.875    3.500    2.000 
#    2.250    1.250    0.000    0.000    0.000    0.000 
#    0.000    0.000    0.000    0.000    0.000    0.000 
#
# Total GULP energy -89277.212876 kJ/mol
# GULP energy per Si atom -5579.825805 kJ/mol
# Density = 1.995438 g / cm^3
# Si number density = 19.999902 Si / 1000 Ang^3
#
#
#
# Elastic Constant Matrix: (Units=GPa)
#
#
# Indices 1 2 3 4 5 6 
#
# 1 29.5471 27.5807 22.8006 7.4161 -17.3928 5.0674
# 2 27.5807 121.8107 44.5527 23.8878 -8.3762 4.0641
# 3 22.8006 44.5527 138.8877 15.4573 -34.1256 2.9786
# 4 7.4161 23.8878 15.4573 34.2391 7.0148 -3.1795
# 5 -17.3928 -8.3762 -34.1256 7.0148 23.3370 -3.2853
# 6 5.0674 4.0641 2.9786 -3.1795 -3.2853 27.8101
#
#
#
# Elastic Compliance Matrix: (Units=1/GPa)
#
#
# Indices 1 2 3 4 5 6 
#
# 1 0.139792 -0.018394 0.029049 -0.064143 0.157280 -0.014649
# 2 -0.018394 0.013006 -0.005553 0.001001 -0.017448 0.000099
# 3 0.029049 -0.005553 0.020938 -0.023810 0.057051 -0.002707
# 4 -0.064143 0.001001 -0.023810 0.075314 -0.103426 0.010485
# 5 0.157280 -0.017448 0.057051 -0.103426 0.266554 -0.012556
# 6 -0.014649 0.000099 -0.002707 0.010485 -0.012556 0.038618
#
#
# Mechanical properties :
#
#
# Convention : Reuss Voigt Hill
#
# Bulk Modulus (GPa) = 5.43654 53.34592 29.39123
# Shear Modulus (GPa) = 8.25994 30.09801 19.17897
#
# Velocity S-wave (km/s) = 2.03444 3.88352 3.10006
# Velocity P-wave (km/s) = 2.87103 6.84397 5.24799
#
# Compressibility (1/GPa) = 0.18394057
#
# Stress axis : x y z
#
# Youngs Moduli (GPa) = 7.15348 76.88792 47.75959
#
# Poissons Ratio (x) = 1.41428 -1.38737
# Poissons Ratio (y) = 0.13158 0.26520
# Poissons Ratio (z) = -0.20780 0.42695
#
# Static dielectric constant tensor:
#      x y z
#    x 2.019400 0.218010 0.104310 
#    y 0.218010 1.898870 0.037430 
#    z 0.104310 0.037430 1.766580 
# 
# From -- ./inp_files/501155.got.cif
#   From: 2010.05.17/outbox.cif.g08.bks.cpg/sg2_251_cif.got.tgz:501155.got - 2010.06.03 11:33:40.
