data_PCOD9079737
_publ_section_title
;
Structure prediction by ZEFSAII (Michael W. Deem and Ramdas Pophale) SiO2 
 PCOD9079737
Probable space group: P -1
;
_chemical_formula_sum "Si O2"
_cell_formula_units_Z 16
_cell_length_a 15.665973
_cell_length_b 15.097946
_cell_length_c 9.521398
_cell_angle_alpha 34.652610
_cell_angle_beta 59.599245
_cell_angle_gamma 40.144022
_cell_volume 777.873115
_symmetry_space_group_name_H-M "P -1"
_symmetry_group_IT_number 2
_symmetry_cell_setting 'triclinic'
loop_
_space_group_symop_operation_xyz
x,y,z
-x,-y,-z
loop_
_atom_site_type_symbol
_atom_site_label
_atom_site_fract_x
_atom_site_fract_y
_atom_site_fract_z
Si Si1 0.502214 0.842776 0.876136
Si Si2 0.559328 0.283920 0.649661
Si Si3 0.264625 0.275757 0.333459
Si Si4 0.857826 0.263245 0.757571
Si Si5 0.442048 0.543079 0.835907
Si Si6 0.833501 0.276633 0.074676
Si Si7 0.845975 0.057469 0.810624
Si Si8 0.957463 0.673177 0.426826
O O1 0.642001 0.785759 0.799107
O O2 0.373291 0.087753 0.604106
O O3 0.483723 0.813212 0.091337
O O4 0.508834 0.675025 0.994824
O O5 0.500000 0.500000 0.500000
O O6 0.517890 0.357635 0.427233
O O7 0.727724 0.118843 0.731453
O O8 0.198054 0.512077 0.129937
O O9 0.138568 0.293072 0.416504
O O10 0.789187 0.313207 0.900064
O O11 0.790189 0.270807 0.664154
O O12 0.908918 0.383482 0.550890
O O13 0.000000 0.000000 0.000000
O O14 0.500000 0.500000 0.000000
O O15 0.272666 0.713759 0.765998
O O16 0.001969 0.068423 0.215946
O O17 0.871349 0.897074 0.117065
O O18 0.000000 0.500000 0.500000
#
# Coordination Sequence:
#
# PCOD9079737 Si02
#       8
#     2   2   2   2   2   2   2   2
#     4   9  20  32  52  81 111 151 185 229 270 334
#     4  10  21  36  53  81 112 153 184 232 290 333
#     4  10  16  30  53  82 110 148 196 219 267 342
#     4   8  17  27  46  81 116 136 177 228 277 323
#     4  10  22  36  56  83 111 145 191 238 283 339
#     4   9  18  31  52  85 110 143 191 232 272 330
#     4  10  19  32  53  83 117 146 182 238 282 332
#     4  10  15  27  50  85 111 149 184 226 275 334
#
# _framework density 20.568906999999999
#
# number of rings (size 3 to 8) (size 9 to 14) (size 15 to 20)
#    0.000    2.750    3.750    0.000    3.500    1.500 
#    0.000    0.000    0.000    6.750   22.750    8.750 
#    0.000    0.000    0.000    0.000    0.000    0.000 
#
# Total GULP energy -89104.946495 kJ/mol
# GULP energy per Si atom -5569.059156 kJ/mol
# Density = 2.052209 g / cm^3
# Si number density = 20.568907 Si / 1000 Ang^3
#
#
#
# Elastic Constant Matrix: (Units=GPa)
#
#
# Indices 1 2 3 4 5 6 
#
# 1 46.2076 24.2725 29.5604 8.3192 -6.5311 -1.7028
# 2 24.2725 68.8866 30.6203 19.5838 -6.2106 -20.2937
# 3 29.5604 30.6203 88.3332 40.1431 -8.6746 -9.2059
# 4 8.3192 19.5838 40.1431 34.8732 -3.6942 -4.8069
# 5 -6.5311 -6.2106 -8.6746 -3.6942 27.2596 2.4564
# 6 -1.7028 -20.2937 -9.2059 -4.8069 2.4564 25.9790
#
#
#
# Elastic Compliance Matrix: (Units=1/GPa)
#
#
# Indices 1 2 3 4 5 6 
#
# 1 0.035367 -0.012856 -0.014841 0.014805 0.003784 -0.010602
# 2 -0.012856 0.027026 0.002614 -0.012467 0.000522 0.018839
# 3 -0.014841 0.002614 0.030993 -0.032593 0.001960 0.005836
# 4 0.014805 -0.012467 -0.032593 0.068643 0.000327 -0.007648
# 5 0.003784 0.000522 0.001960 0.000327 0.038579 -0.002237
# 6 -0.010602 0.018839 0.005836 -0.007648 -0.002237 0.053378
#
#
# Mechanical properties :
#
#
# Convention : Reuss Voigt Hill
#
# Bulk Modulus (GPa) = 23.13675 41.37040 32.25357
# Shear Modulus (GPa) = 15.69566 25.55398 20.62482
#
# Velocity S-wave (km/s) = 2.76538 3.52854 3.17001
# Velocity P-wave (km/s) = 4.63350 6.06280 5.39568
#
# Compressibility (1/GPa) = 0.04322129
#
# Stress axis : x y z
#
# Youngs Moduli (GPa) = 28.27472 37.00176 32.26499
#
# Poissons Ratio (x) = 0.47570 0.47883
# Poissons Ratio (y) = 0.36351 -0.08435
# Poissons Ratio (z) = 0.41961 -0.09674
#
# Static dielectric constant tensor:
#      x y z
#    x 1.787380 -0.020700 0.019420 
#    y -0.020700 1.785200 0.007990 
#    z 0.019420 0.007990 1.741140 
# 
# From -- ./inp_files/334636.got.cif
#   From: 2010.05.17/outbox.cif.g08.bks.cpg/sg2_168_cif.got.tgz:334636.got - 2010.06.03 11:33:40.
