data_PCOD9079655
_publ_section_title
;
Structure prediction by ZEFSAII (Michael W. Deem and Ramdas Pophale) SiO2 
 PCOD9079655
Probable space group: P -1
;
_chemical_formula_sum "Si O2"
_cell_formula_units_Z 16
_cell_length_a 10.553972
_cell_length_b 13.851064
_cell_length_c 8.518983
_cell_angle_alpha 59.420086
_cell_angle_beta 97.717216
_cell_angle_gamma 133.432201
_cell_volume 730.870258
_symmetry_space_group_name_H-M "P -1"
_symmetry_group_IT_number 2
_symmetry_cell_setting 'triclinic'
loop_
_space_group_symop_operation_xyz
x,y,z
-x,-y,-z
loop_
_atom_site_type_symbol
_atom_site_label
_atom_site_fract_x
_atom_site_fract_y
_atom_site_fract_z
Si Si1 0.905884 0.626236 0.945520
Si Si2 0.063596 0.921439 0.507611
Si Si3 0.608146 0.820330 0.458852
Si Si4 0.699290 0.558930 0.281915
Si Si5 0.859634 0.861984 0.219837
Si Si6 0.993320 0.371882 0.531354
Si Si7 0.627062 0.163156 0.789092
Si Si8 0.165185 0.587952 0.115198
O O1 0.809782 0.618594 0.087408
O O2 0.074080 0.648716 0.003064
O O3 0.769641 0.449605 0.983470
O O4 0.972295 0.767457 0.726737
O O5 0.983356 0.869187 0.361015
O O6 0.282618 0.067531 0.461774
O O7 0.000000 0.000000 0.500000
O O8 0.492906 0.630763 0.613602
O O9 0.754518 0.888005 0.285976
O O10 0.472795 0.831457 0.368256
O O11 0.706874 0.688591 0.246795
O O12 0.828781 0.576418 0.413825
O O13 0.000000 0.000000 0.000000
O O14 0.799742 0.206066 0.705459
O O15 0.000000 0.500000 0.500000
O O16 0.007426 0.409282 0.319867
O O17 0.691125 0.293573 0.823377
O O18 0.500000 0.000000 0.000000
#
# Coordination Sequence:
#
# PCOD9079655 Si02
#       8
#     2   2   2   2   2   2   2   2
#     4  11  21  38  67  93 131 177 212 267 327 390
#     4  10  23  44  63  90 128 169 220 271 327 379
#     4  11  23  42  66  99 132 165 223 277 320 386
#     4  12  21  41  69  95 133 175 221 265 324 393
#     4  11  26  46  69  91 125 179 223 270 333 393
#     4  10  18  37  62  93 128 174 204 257 320 389
#     4  11  21  36  66 100 135 166 218 268 324 390
#     4  10  20  38  61  99 132 172 218 255 331 396
#
# _framework density 21.89171
#
# number of rings (size 3 to 8) (size 9 to 14) (size 15 to 20)
#    0.000    1.250    5.000    3.375    1.750    0.000 
#    2.250    3.125    0.000    5.250    0.000    0.000 
#    0.000    0.000    0.000    0.000    0.000    0.000 
#
# Total GULP energy -89246.825301 kJ/mol
# GULP energy per Si atom -5577.926581 kJ/mol
# Density = 2.184188 g / cm^3
# Si number density = 21.891710 Si / 1000 Ang^3
#
#
#
# Elastic Constant Matrix: (Units=GPa)
#
#
# Indices 1 2 3 4 5 6 
#
# 1 26.6665 1.3708 1.1718 5.9327 -2.1850 -6.9497
# 2 1.3708 106.0097 26.7111 10.6884 -2.1557 -0.8865
# 3 1.1718 26.7111 129.2918 -6.6543 7.6045 2.9643
# 4 5.9327 10.6884 -6.6543 36.2479 4.7123 -1.7052
# 5 -2.1850 -2.1557 7.6045 4.7123 20.5681 5.1832
# 6 -6.9497 -0.8865 2.9643 -1.7052 5.1832 35.2641
#
#
#
# Elastic Compliance Matrix: (Units=1/GPa)
#
#
# Indices 1 2 3 4 5 6 
#
# 1 0.041488 0.000730 -0.001370 -0.007554 0.004901 0.007224
# 2 0.000730 0.010550 -0.002578 -0.004106 0.003084 -0.000026
# 3 -0.001370 -0.002578 0.008698 0.003124 -0.004275 -0.000287
# 4 -0.007554 -0.004106 0.003124 0.031963 -0.010003 0.001161
# 5 0.004901 0.003084 -0.004275 -0.010003 0.055146 -0.007186
# 6 0.007224 -0.000026 -0.000287 0.001161 -0.007186 0.030917
#
#
# Mechanical properties :
#
#
# Convention : Reuss Voigt Hill
#
# Bulk Modulus (GPa) = 18.41591 35.60838 27.01214
# Shear Modulus (GPa) = 24.59446 33.93030 29.26238
#
# Velocity S-wave (km/s) = 3.35544 3.94117 3.66004
# Velocity P-wave (km/s) = 4.84175 6.08370 5.49791
#
# Compressibility (1/GPa) = 0.05430088
#
# Stress axis : x y z
#
# Youngs Moduli (GPa) = 24.10347 94.78903 114.96512
#
# Poissons Ratio (x) = -0.06923 0.15745
# Poissons Ratio (y) = -0.01760 0.29641
# Poissons Ratio (z) = 0.03301 0.24439
#
# Static dielectric constant tensor:
#      x y z
#    x 1.821690 0.025440 -0.015140 
#    y 0.025440 1.913040 0.019610 
#    z -0.015140 0.019610 1.882280 
# 
# From -- ./inp_files/272174.got.cif
#   From: 2010.05.17/outbox.cif.g08.bks.cpg/sg2_137_cif.got.tgz:272174.got - 2010.06.03 11:33:40.
