data_PCOD9079848
_publ_section_title
;
Structure prediction by ZEFSAII (Michael W. Deem and Ramdas Pophale) SiO2 
 PCOD9079848
Probable space group: P -1
;
_chemical_formula_sum "Si O2"
_cell_formula_units_Z 14
_cell_length_a 9.298614
_cell_length_b 7.824749
_cell_length_c 10.734633
_cell_angle_alpha 84.460238
_cell_angle_beta 131.522057
_cell_angle_gamma 105.123818
_cell_volume 561.350328
_symmetry_space_group_name_H-M "P -1"
_symmetry_group_IT_number 2
_symmetry_cell_setting 'triclinic'
loop_
_space_group_symop_operation_xyz
x,y,z
-x,-y,-z
loop_
_atom_site_type_symbol
_atom_site_label
_atom_site_fract_x
_atom_site_fract_y
_atom_site_fract_z
Si Si1 0.312307 0.837028 0.670331
Si Si2 0.338469 0.809570 0.407379
Si Si3 0.906452 0.697656 0.592576
Si Si4 0.125513 0.531050 0.939730
Si Si5 0.478072 0.265812 0.718099
Si Si6 0.723956 0.797657 0.950104
Si Si7 0.904715 0.941561 0.793012
O O1 0.292428 0.754928 0.525605
O O2 0.493909 0.777640 0.841354
O O3 0.099614 0.772591 0.615090
O O4 0.388782 0.052811 0.698171
O O5 0.421947 0.696528 0.365029
O O6 0.161212 0.877213 0.241401
O O7 0.500000 0.000000 0.500000
O O8 0.706311 0.643803 0.397777
O O9 0.866040 0.857277 0.642457
O O10 0.981583 0.580774 0.749243
O O11 0.338062 0.668747 0.086577
O O12 0.202109 0.365413 0.946425
O O13 0.000000 0.500000 0.000000
O O14 0.780204 0.808995 0.833597
O O15 0.858937 0.990206 0.058020
#
# Coordination Sequence:
#
# PCOD9079848 Si02
#       7
#     2   2   2   2   2   2   2
#     4  11  23  43  69  99 136 171 229 275 334 397
#     4  10  18  37  66  99 124 162 224 279 320 386
#     4  12  25  44  68 105 136 176 220 282 338 396
#     4  12  27  44  68 101 140 175 227 273 340 403
#     4  11  23  45  73 101 132 176 226 282 331 394
#     4  11  23  42  66  97 132 178 222 280 327 401
#     4  11  20  40  70  96 128 170 235 278 323 388
#
# _framework density 24.939864
#
# number of rings (size 3 to 8) (size 9 to 14) (size 15 to 20)
#    0.000    0.857    7.143    2.143    0.000    3.429 
#    2.571    0.714    0.000    0.000    0.000    0.000 
#    0.000    0.000    0.000    0.000    0.000    0.000 
#
# Total GULP energy -78246.815735 kJ/mol
# GULP energy per Si atom -5589.058267 kJ/mol
# Density = 2.488310 g / cm^3
# Si number density = 24.939864 Si / 1000 Ang^3
#
#
#
# Elastic Constant Matrix: (Units=GPa)
#
#
# Indices 1 2 3 4 5 6 
#
# 1 87.4607 22.7126 25.8700 -4.9136 31.6429 13.8805
# 2 22.7126 67.3815 43.6212 -18.3325 21.4566 -1.4077
# 3 25.8700 43.6212 122.8837 -11.3913 50.5310 2.0686
# 4 -4.9136 -18.3325 -11.3913 38.4563 -8.2923 8.1483
# 5 31.6429 21.4566 50.5310 -8.2923 45.0789 -5.5379
# 6 13.8805 -1.4077 2.0686 8.1483 -5.5379 18.5493
#
#
#
# Elastic Compliance Matrix: (Units=1/GPa)
#
#
# Indices 1 2 3 4 5 6 
#
# 1 0.025624 -0.004902 0.009155 0.003958 -0.028991 -0.030961
# 2 -0.004902 0.022634 -0.007619 0.007782 0.003099 0.003743
# 3 0.009155 -0.007619 0.021104 0.001678 -0.028485 -0.019024
# 4 0.003958 0.007782 0.001678 0.033717 -0.004458 -0.018700
# 5 -0.028991 0.003099 -0.028485 -0.004458 0.078368 0.050461
# 6 -0.030961 0.003743 -0.019024 -0.018700 0.050461 0.102764
#
#
# Mechanical properties :
#
#
# Convention : Reuss Voigt Hill
#
# Bulk Modulus (GPa) = 15.96660 51.34816 33.65738
# Shear Modulus (GPa) = 16.03496 32.78503 24.41000
#
# Velocity S-wave (km/s) = 2.53839 3.62962 3.13190
# Velocity P-wave (km/s) = 3.87391 6.18054 5.15782
#
# Compressibility (1/GPa) = 0.06263075
#
# Stress axis : x y z
#
# Youngs Moduli (GPa) = 39.02639 44.18136 47.38435
#
# Poissons Ratio (x) = 0.21659 -0.43382
# Poissons Ratio (y) = 0.19132 0.36100
# Poissons Ratio (z) = -0.35730 0.33660
#
# Static dielectric constant tensor:
#      x y z
#    x 1.939770 0.018980 0.064300 
#    y 0.018980 2.030530 0.003640 
#    z 0.064300 0.003640 2.130090 
# 
# From -- ./inp_files/382119.got.cif
#   From: 2010.05.17/outbox.cif.g08.bks.cpg/sg2_192_cif.got.tgz:382119.got - 2010.06.03 11:33:40.
