data_PCOD9079928
_publ_section_title
;
Structure prediction by ZEFSAII (Michael W. Deem and Ramdas Pophale) SiO2 
 PCOD9079928
Probable space group: P -1
;
_chemical_formula_sum "Si O2"
_cell_formula_units_Z 12
_cell_length_a 9.509548
_cell_length_b 8.196098
_cell_length_c 6.941038
_cell_angle_alpha 86.106082
_cell_angle_beta 96.413330
_cell_angle_gamma 112.020183
_cell_volume 498.190758
_symmetry_space_group_name_H-M "P -1"
_symmetry_group_IT_number 2
_symmetry_cell_setting 'triclinic'
loop_
_space_group_symop_operation_xyz
x,y,z
-x,-y,-z
loop_
_atom_site_type_symbol
_atom_site_label
_atom_site_fract_x
_atom_site_fract_y
_atom_site_fract_z
Si Si1 0.768687 0.447855 0.346923
Si Si2 0.656914 0.891896 0.955416
Si Si3 0.464524 0.402365 0.792236
Si Si4 0.320892 0.732719 0.024873
Si Si5 0.922763 0.915735 0.794030
Si Si6 0.941132 0.228350 0.490601
O O1 0.617576 0.493102 0.350072
O O2 0.782685 0.414781 0.122141
O O3 0.793958 0.281553 0.458605
O O4 0.914120 0.613186 0.418696
O O5 0.475068 0.830764 0.909611
O O6 0.745209 0.815304 0.826093
O O7 0.662033 0.794564 0.166365
O O8 0.724206 0.103377 0.940860
O O9 0.500000 0.500000 0.000000
O O10 0.615318 0.356863 0.788059
O O11 0.010614 0.807993 0.712688
O O12 0.920938 0.063013 0.632260
O O13 0.000000 0.000000 0.000000
#
# Coordination Sequence:
#
# PCOD9079928 Si02
#       6
#     2   2   2   2   2   2
#     4  10  18  38  56  81 128 153 187 252 295 340
#     4   9  17  34  59  92 110 150 212 230 290 357
#     4   8  15  30  59  86 112 155 188 233 296 340
#     4   8  17  33  63  89 111 157 198 239 294 344
#     4  11  22  41  62  86 118 158 202 242 289 357
#     4  10  24  38  60  90 118 158 197 243 298 342
#
# _framework density 24.087160000000001
#
# number of rings (size 3 to 8) (size 9 to 14) (size 15 to 20)
#    1.000    1.667    0.000    2.000    0.000    1.333 
#    0.000   20.000    0.000    0.000    0.000    0.000 
#    0.000    0.000    0.000    0.000    0.000    0.000 
#
# Total GULP energy -66813.743900 kJ/mol
# GULP energy per Si atom -5567.811992 kJ/mol
# Density = 2.403234 g / cm^3
# Si number density = 24.087160 Si / 1000 Ang^3
#
#
#
# Elastic Constant Matrix: (Units=GPa)
#
#
# Indices 1 2 3 4 5 6 
#
# 1 95.4448 25.5773 43.9329 4.2644 10.1337 -35.7258
# 2 25.5773 89.7228 32.5492 -0.4080 13.5623 -35.9641
# 3 43.9329 32.5492 86.3162 1.0729 18.3588 -14.9640
# 4 4.2644 -0.4080 1.0729 29.1587 -14.0455 13.0848
# 5 10.1337 13.5623 18.3588 -14.0455 41.6818 -9.3021
# 6 -35.7258 -35.9641 -14.9640 13.0848 -9.3021 37.9509
#
#
#
# Elastic Compliance Matrix: (Units=1/GPa)
#
#
# Indices 1 2 3 4 5 6 
#
# 1 0.031872 0.015433 -0.011952 -0.028756 -0.006427 0.048256
# 2 0.015433 0.029502 -0.009024 -0.025910 -0.007856 0.045935
# 3 -0.011952 -0.009024 0.019229 0.005777 -0.004076 -0.015211
# 4 -0.028756 -0.025910 0.005777 0.081829 0.024481 -0.071558
# 5 -0.006427 -0.007856 -0.004076 0.024481 0.034805 -0.015012
# 6 0.048256 0.045935 -0.015211 -0.071558 -0.015012 0.130301
#
#
# Mechanical properties :
#
#
# Convention : Reuss Voigt Hill
#
# Bulk Modulus (GPa) = 14.38460 52.84475 33.61467
# Shear Modulus (GPa) = 13.81997 33.05324 23.43661
#
# Velocity S-wave (km/s) = 2.39790 3.70839 3.12267
# Velocity P-wave (km/s) = 3.69479 6.35002 5.19491
#
# Compressibility (1/GPa) = 0.06951880
#
# Stress axis : x y z
#
# Youngs Moduli (GPa) = 31.37503 33.89655 52.00373
#
# Poissons Ratio (x) = -0.52313 0.62155
# Poissons Ratio (y) = -0.48422 0.46926
# Poissons Ratio (z) = 0.37500 0.30587
#
# Static dielectric constant tensor:
#      x y z
#    x 1.979210 -0.010030 0.009040 
#    y -0.010030 2.012190 -0.017790 
#    z 0.009040 -0.017790 1.955590 
# 
# From -- ./inp_files/57541.got.cif
#   From: 2010.05.17/outbox.cif.g08.bks.cpg/sg2_29_cif.got.tgz:57541.got - 2010.06.03 11:33:40.
