data_PCOD9079495
_publ_section_title
;
Structure prediction by ZEFSAII (Michael W. Deem and Ramdas Pophale) SiO2 
 PCOD9079495
Probable space group: P -1
;
_chemical_formula_sum "Si O2"
_cell_formula_units_Z 16
_cell_length_a 8.085075
_cell_length_b 17.308053
_cell_length_c 8.826144
_cell_angle_alpha 127.655938
_cell_angle_beta 50.798380
_cell_angle_gamma 105.379754
_cell_volume 742.878372
_symmetry_space_group_name_H-M "P -1"
_symmetry_group_IT_number 2
_symmetry_cell_setting 'triclinic'
loop_
_space_group_symop_operation_xyz
x,y,z
-x,-y,-z
loop_
_atom_site_type_symbol
_atom_site_label
_atom_site_fract_x
_atom_site_fract_y
_atom_site_fract_z
Si Si1 0.370954 0.024528 0.444476
Si Si2 0.398895 0.345726 0.701684
Si Si3 0.768916 0.156888 0.599159
Si Si4 0.499528 0.471952 0.292085
Si Si5 0.316877 0.313929 0.056808
Si Si6 0.061583 0.680964 0.150190
Si Si7 0.991494 0.799058 0.035697
Si Si8 0.307501 0.872969 0.738849
O O1 0.550513 0.041243 0.238896
O O2 0.500000 0.000000 0.500000
O O3 0.234354 0.938096 0.406446
O O4 0.214091 0.130943 0.682418
O O5 0.528052 0.427886 0.668605
O O6 0.538560 0.235727 0.463961
O O7 0.167514 0.353361 0.761376
O O8 0.344705 0.356583 0.923891
O O9 0.936704 0.225478 0.629463
O O10 0.789819 0.126081 0.374049
O O11 0.529756 0.226496 0.847425
O O12 0.500000 0.500000 0.500000
O O13 0.328503 0.401604 0.271360
O O14 0.735962 0.406123 0.033476
O O15 0.105525 0.264671 0.112085
O O16 0.103072 0.723822 0.010017
O O17 0.129176 0.872164 0.968162
#
# Coordination Sequence:
#
# PCOD9079495 Si02
#       8
#     2   2   2   2   2   2   2   2
#     4  10  18  37  60  83 116 149 192 229 278 333
#     4  10  19  39  57  78 111 155 191 224 278 344
#     4   9  19  36  58  83 114 150 188 233 279 335
#     4  11  22  35  57  85 114 143 189 239 282 334
#     4   9  19  38  56  79 112 151 188 229 280 335
#     4  10  21  38  58  82 117 151 183 234 294 327
#     4  11  20  37  60  84 117 151 186 236 277 334
#     4  10  20  36  60  83 112 153 194 228 275 331
#
# _framework density 21.537845000000001
#
# number of rings (size 3 to 8) (size 9 to 14) (size 15 to 20)
#    0.000    2.000    5.000    1.500    0.000    3.500 
#    0.000    7.500    0.000    0.000    0.000    0.000 
#    0.000    0.000    0.000    0.000    0.000    0.000 
#
# Total GULP energy -89325.035989 kJ/mol
# GULP energy per Si atom -5582.814749 kJ/mol
# Density = 2.148882 g / cm^3
# Si number density = 21.537845 Si / 1000 Ang^3
#
#
#
# Elastic Constant Matrix: (Units=GPa)
#
#
# Indices 1 2 3 4 5 6 
#
# 1 27.7277 -9.9092 -2.1045 9.8679 -3.7805 -2.2640
# 2 -9.9092 95.8013 4.4147 0.4308 -5.1198 -1.3271
# 3 -2.1045 4.4147 16.8794 -2.4479 7.4796 9.1947
# 4 9.8679 0.4308 -2.4479 29.5126 8.9737 -1.4434
# 5 -3.7805 -5.1198 7.4796 8.9737 13.9065 3.6248
# 6 -2.2640 -1.3271 9.1947 -1.4434 3.6248 21.1203
#
#
#
# Elastic Compliance Matrix: (Units=1/GPa)
#
#
# Indices 1 2 3 4 5 6 
#
# 1 0.063621 0.012247 -0.036820 -0.044816 0.068221 0.008848
# 2 0.012247 0.014020 -0.017939 -0.013310 0.025498 0.004718
# 3 -0.036820 -0.017939 0.145903 0.059729 -0.122286 -0.043523
# 4 -0.044816 -0.013310 0.059729 0.084471 -0.101515 -0.008448
# 5 0.068221 0.025498 -0.122286 -0.101515 0.226877 0.016277
# 6 0.008848 0.004718 -0.043523 -0.008448 0.016277 0.064170
#
#
# Mechanical properties :
#
#
# Convention : Reuss Voigt Hill
#
# Bulk Modulus (GPa) = 7.21921 13.91229 10.56575
# Shear Modulus (GPa) = 6.84690 22.77504 14.81097
#
# Velocity S-wave (km/s) = 1.78491 3.25536 2.62519
# Velocity P-wave (km/s) = 2.75808 4.53909 3.75569
#
# Compressibility (1/GPa) = 0.13851934
#
# Stress axis : x y z
#
# Youngs Moduli (GPa) = 15.71820 71.32870 6.85389
#
# Poissons Ratio (x) = -0.87358 0.25236
# Poissons Ratio (y) = -0.19251 0.12295
# Poissons Ratio (z) = 0.57875 1.27954
#
# Static dielectric constant tensor:
#      x y z
#    x 1.817010 0.023990 0.007710 
#    y 0.023990 1.798740 0.016350 
#    z 0.007710 0.016350 1.760570 
# 
# From -- ./inp_files/218482.got.cif
#   From: 2010.05.17/outbox.cif.g08.bks.cpg/sg2_110_cif.got.tgz:218482.got - 2010.06.03 11:33:40.
