data_PCOD9079588
_publ_section_title
;
Structure prediction by ZEFSAII (Michael W. Deem and Ramdas Pophale) SiO2 
 PCOD9079588
Probable space group: P -1
;
_chemical_formula_sum "Si O2"
_cell_formula_units_Z 16
_cell_length_a 7.384797
_cell_length_b 6.725648
_cell_length_c 13.573730
_cell_angle_alpha 85.326209
_cell_angle_beta 101.888512
_cell_angle_gamma 76.354405
_cell_volume 635.064959
_symmetry_space_group_name_H-M "P -1"
_symmetry_group_IT_number 2
_symmetry_cell_setting 'triclinic'
loop_
_space_group_symop_operation_xyz
x,y,z
-x,-y,-z
loop_
_atom_site_type_symbol
_atom_site_label
_atom_site_fract_x
_atom_site_fract_y
_atom_site_fract_z
Si Si1 0.812211 0.902600 0.206946
Si Si2 0.711465 0.563540 0.730676
Si Si3 0.061076 0.473250 0.895953
Si Si4 0.406211 0.199252 0.648346
Si Si5 0.829143 0.594320 0.552022
Si Si6 0.311537 0.786735 0.595737
Si Si7 0.356265 0.634654 0.808607
Si Si8 0.829132 0.042819 0.630156
O O1 0.901489 0.762634 0.129313
O O2 0.692035 0.763959 0.257873
O O3 0.989083 0.953541 0.283656
O O4 0.661038 0.127558 0.168479
O O5 0.880749 0.614865 0.809341
O O6 0.830985 0.451598 0.654501
O O7 0.540927 0.695681 0.636168
O O8 0.572181 0.515875 0.802870
O O9 0.249209 0.541825 0.883217
O O10 0.000000 0.500000 0.000000
O O11 0.347177 0.366231 0.548264
O O12 0.634086 0.112430 0.670941
O O13 0.304884 0.022344 0.611743
O O14 0.843805 0.813045 0.594690
O O15 0.000000 0.500000 0.500000
O O16 0.250239 0.672548 0.687346
O O17 0.209156 0.814845 0.478984
#
# Coordination Sequence:
#
# PCOD9079588 Si02
#       8
#     2   2   2   2   2   2   2   2
#     4  11  25  41  69 102 128 177 227 259 337 401
#     4  10  20  44  65  95 138 176 223 274 327 395
#     4  12  28  48  71 100 127 162 226 298 351 399
#     4  10  18  37  61  96 138 180 224 251 310 398
#     4  11  19  33  64 103 140 184 222 259 315 385
#     4   8  17  37  64  91 133 181 214 248 316 385
#     4   9  22  45  71  94 138 173 217 277 332 398
#     4  11  19  38  63  96 144 185 216 267 302 390
#
# _framework density 25.194272999999999
#
# number of rings (size 3 to 8) (size 9 to 14) (size 15 to 20)
#    0.750    1.000    2.500    2.250    0.000    7.500 
#    0.000    3.125    0.000    5.250    0.000    0.000 
#    0.000    0.000    0.000    0.000    0.000    0.000 
#
# Total GULP energy -89089.647402 kJ/mol
# GULP energy per Si atom -5568.102963 kJ/mol
# Density = 2.513693 g / cm^3
# Si number density = 25.194273 Si / 1000 Ang^3
#
#
#
# Elastic Constant Matrix: (Units=GPa)
#
#
# Indices 1 2 3 4 5 6 
#
# 1 148.5352 17.7623 35.2696 12.6105 -43.7991 -9.6095
# 2 17.7623 87.5346 33.7160 17.3013 -12.3394 6.8235
# 3 35.2696 33.7160 131.9423 27.2637 -49.1969 -2.5283
# 4 12.6105 17.3013 27.2637 28.4437 -6.1412 -9.0616
# 5 -43.7991 -12.3394 -49.1969 -6.1412 42.7953 -3.3149
# 6 -9.6095 6.8235 -2.5283 -9.0616 -3.3149 35.7319
#
#
#
# Elastic Compliance Matrix: (Units=1/GPa)
#
#
# Indices 1 2 3 4 5 6 
#
# 1 0.010934 -0.001229 0.003681 -0.003121 0.014932 0.004030
# 2 -0.001229 0.014370 -0.002275 -0.008012 -0.001296 -0.005388
# 3 0.003681 -0.002275 0.017994 -0.012176 0.022179 0.001667
# 4 -0.003121 -0.008012 -0.012176 0.054850 -0.010643 0.012752
# 5 0.014932 -0.001296 0.022179 -0.010643 0.062940 0.008973
# 6 0.004030 -0.005388 0.001667 0.012752 0.008973 0.034283
#
#
# Mechanical properties :
#
#
# Convention : Reuss Voigt Hill
#
# Bulk Modulus (GPa) = 22.90762 60.16753 41.53757
# Shear Modulus (GPa) = 23.85854 40.14511 32.00182
#
# Velocity S-wave (km/s) = 3.08065 3.99610 3.56786
# Velocity P-wave (km/s) = 4.66540 6.72496 5.78753
#
# Compressibility (1/GPa) = 0.04365360
#
# Stress axis : x y z
#
# Youngs Moduli (GPa) = 91.45761 69.58735 55.57324
#
# Poissons Ratio (x) = 0.08552 -0.20456
# Poissons Ratio (y) = 0.11239 0.12641
# Poissons Ratio (z) = -0.33665 0.15829
#
# Static dielectric constant tensor:
#      x y z
#    x 2.082590 -0.039120 -0.066430 
#    y -0.039120 2.283620 0.024270 
#    z -0.066430 0.024270 2.016090 
# 
# From -- ./inp_files/379179.got.cif
#   From: 2010.05.17/outbox.cif.g08.bks.cpg/sg2_190_cif.got.tgz:379179.got - 2010.06.03 11:33:40.
