data_PCOD9079563
_publ_section_title
;
Structure prediction by ZEFSAII (Michael W. Deem and Ramdas Pophale) SiO2 
 PCOD9079563
Probable space group: P -1
;
_chemical_formula_sum "Si O2"
_cell_formula_units_Z 16
_cell_length_a 11.263974
_cell_length_b 16.966950
_cell_length_c 9.715259
_cell_angle_alpha 81.534241
_cell_angle_beta 117.240902
_cell_angle_gamma 45.530540
_cell_volume 795.701252
_symmetry_space_group_name_H-M "P -1"
_symmetry_group_IT_number 2
_symmetry_cell_setting 'triclinic'
loop_
_space_group_symop_operation_xyz
x,y,z
-x,-y,-z
loop_
_atom_site_type_symbol
_atom_site_label
_atom_site_fract_x
_atom_site_fract_y
_atom_site_fract_z
Si Si1 0.828956 0.112924 0.747126
Si Si2 0.078633 0.133476 0.750990
Si Si3 0.713274 0.102364 0.290915
Si Si4 0.426002 0.969199 0.229789
Si Si5 0.977769 0.269942 0.388918
Si Si6 0.263295 0.432556 0.817372
Si Si7 0.156496 0.051139 0.348542
Si Si8 0.673580 0.667927 0.419006
O O1 0.509390 0.269351 0.570278
O O2 0.878243 0.176235 0.708859
O O3 0.942291 0.983838 0.743886
O O4 0.000000 0.000000 0.000000
O O5 0.944084 0.259166 0.531419
O O6 0.255500 0.979212 0.792569
O O7 0.241304 0.092775 0.970628
O O8 0.636545 0.088475 0.387065
O O9 0.487776 0.282640 0.078999
O O10 0.000000 0.000000 0.500000
O O11 0.698436 0.878295 0.417804
O O12 0.534716 0.825937 0.275582
O O13 0.275494 0.032895 0.280455
O O14 0.939967 0.218682 0.271998
O O15 0.811797 0.436516 0.231122
O O16 0.347055 0.374884 0.717105
O O17 0.985894 0.524223 0.659168
#
# Coordination Sequence:
#
# PCOD9079563 Si02
#       8
#     2   2   2   2   2   2   2   2
#     4  11  18  35  65  89 116 158 217 249 279 351
#     4  11  20  36  63  92 111 159 215 245 283 365
#     4  11  21  36  64  91 116 158 209 248 292 365
#     4  10  18  37  61  88 120 159 210 248 289 355
#     4  10  23  36  57  90 129 157 189 252 322 353
#     4  10  20  40  59  88 129 155 197 252 311 356
#     4  10  21  35  61  91 118 158 207 246 298 359
#     4   9  19  34  64  89 111 163 205 252 297 338
#
# _framework density 20.108049000000001
#
# number of rings (size 3 to 8) (size 9 to 14) (size 15 to 20)
#    0.000    1.750    5.000    0.750    0.000    0.000 
#    0.000    8.750    5.500    0.000    0.000    0.000 
#    0.000    0.000    0.000    0.000    0.000    0.000 
#
# Total GULP energy -89148.065585 kJ/mol
# GULP energy per Si atom -5571.754099 kJ/mol
# Density = 2.006228 g / cm^3
# Si number density = 20.108049 Si / 1000 Ang^3
#
#
#
# Elastic Constant Matrix: (Units=GPa)
#
#
# Indices 1 2 3 4 5 6 
#
# 1 52.9000 12.6557 27.3815 -3.0188 -18.4625 -6.4955
# 2 12.6557 93.2634 48.6395 7.6515 -11.3634 8.9658
# 3 27.3815 48.6395 106.6085 -1.5211 -24.1867 -2.1118
# 4 -3.0188 7.6515 -1.5211 27.9548 -0.9287 -10.7978
# 5 -18.4625 -11.3634 -24.1867 -0.9287 27.0745 0.7863
# 6 -6.4955 8.9658 -2.1118 -10.7978 0.7863 27.4529
#
#
#
# Elastic Compliance Matrix: (Units=1/GPa)
#
#
# Indices 1 2 3 4 5 6 
#
# 1 0.027820 -0.002273 -0.002156 0.007818 0.016075 0.009774
# 2 -0.002273 0.016549 -0.007622 -0.009131 -0.001434 -0.010079
# 3 -0.002156 -0.007622 0.015707 0.004890 0.009390 0.004842
# 4 0.007818 -0.009131 0.004890 0.048987 0.006843 0.024280
# 5 0.016075 -0.001434 0.009390 0.006843 0.055742 0.006089
# 6 0.009774 -0.010079 0.004842 0.024280 0.006089 0.051778
#
#
# Mechanical properties :
#
#
# Convention : Reuss Voigt Hill
#
# Bulk Modulus (GPa) = 27.79748 47.79171 37.79459
# Shear Modulus (GPa) = 19.78815 27.43612 23.61214
#
# Velocity S-wave (km/s) = 3.14043 3.69783 3.43047
# Velocity P-wave (km/s) = 5.19652 6.48467 5.87600
#
# Compressibility (1/GPa) = 0.03597449
#
# Stress axis : x y z
#
# Youngs Moduli (GPa) = 35.94545 60.42615 63.66471
#
# Poissons Ratio (x) = 0.13735 0.13726
# Poissons Ratio (y) = 0.08171 0.48524
# Poissons Ratio (z) = 0.07750 0.46056
#
# Static dielectric constant tensor:
#      x y z
#    x 1.789350 -0.018760 0.036700 
#    y -0.018760 1.781340 0.098660 
#    z 0.036700 0.098660 1.823380 
# 
# From -- ./inp_files/259694.got.cif
#   From: 2010.05.17/outbox.cif.g08.bks.cpg/sg2_130_cif.got.tgz:259694.got - 2010.06.03 11:33:40.
