data_PCOD9079232
_publ_section_title
;
Structure prediction by ZEFSAII (Michael W. Deem and Ramdas Pophale) SiO2 
 PCOD9079232
Probable space group: P -1
;
_chemical_formula_sum "Si O2"
_cell_formula_units_Z 16
_cell_length_a 9.035441
_cell_length_b 12.676425
_cell_length_c 11.166648
_cell_angle_alpha 126.307616
_cell_angle_beta 79.213305
_cell_angle_gamma 137.244090
_cell_volume 623.929729
_symmetry_space_group_name_H-M "P -1"
_symmetry_group_IT_number 2
_symmetry_cell_setting 'triclinic'
loop_
_space_group_symop_operation_xyz
x,y,z
-x,-y,-z
loop_
_atom_site_type_symbol
_atom_site_label
_atom_site_fract_x
_atom_site_fract_y
_atom_site_fract_z
Si Si1 0.456755 0.702229 0.995218
Si Si2 0.637269 0.307602 0.731908
Si Si3 0.209063 0.300055 0.392920
Si Si4 0.701768 0.071724 0.621283
Si Si5 0.846583 0.014893 0.776362
Si Si6 0.211117 0.823314 0.670391
Si Si7 0.369310 0.777740 0.822778
Si Si8 0.763822 0.666278 0.864048
O O1 0.337784 0.622609 0.090249
O O2 0.673244 0.958915 0.154058
O O3 0.316291 0.659763 0.871323
O O4 0.552620 0.622606 0.903625
O O5 0.369130 0.076356 0.572663
O O6 0.696990 0.467989 0.744578
O O7 0.776236 0.263975 0.690208
O O8 0.500000 0.500000 0.500000
O O9 0.115150 0.109002 0.348665
O O10 0.170449 0.249398 0.223211
O O11 0.041213 0.312187 0.448405
O O12 0.868528 0.123924 0.732545
O O13 0.438651 0.917992 0.625565
O O14 0.575117 0.843168 0.758509
O O15 0.024416 0.172106 0.962729
O O16 0.172835 0.700755 0.707235
O O17 0.500000 0.000000 0.000000
#
# Coordination Sequence:
#
# PCOD9079232 Si02
#       8
#     2   2   2   2   2   2   2   2
#     4  10  18  36  64  93 129 162 211 257 305 371
#     4  10  22  39  64  89 128 175 208 251 309 365
#     4  12  24  39  63  98 129 160 202 261 327 377
#     4   9  21  44  67  87 129 167 212 257 303 378
#     4  11  21  39  65  91 125 162 207 262 318 364
#     4   9  19  38  67  92 120 166 207 257 318 363
#     4   9  17  33  61  94 119 158 201 258 312 363
#     4  12  22  37  63  96 130 161 209 262 311 376
#
# _framework density 25.643915
#
# number of rings (size 3 to 8) (size 9 to 14) (size 15 to 20)
#    0.000    1.750    2.500    3.750    0.000    0.500 
#    0.000    7.500   13.750    0.000    0.000    0.000 
#    0.000    0.000    0.000    0.000    0.000    0.000 
#
# Total GULP energy -89449.730823 kJ/mol
# GULP energy per Si atom -5590.608176 kJ/mol
# Density = 2.558555 g / cm^3
# Si number density = 25.643915 Si / 1000 Ang^3
#
#
#
# Elastic Constant Matrix: (Units=GPa)
#
#
# Indices 1 2 3 4 5 6 
#
# 1 151.9286 56.8695 44.8793 3.2071 13.6394 -29.1280
# 2 56.8695 48.2289 30.4301 1.3817 -2.1074 -30.5826
# 3 44.8793 30.4301 65.9239 -5.7160 8.8909 -11.1292
# 4 3.2071 1.3817 -5.7160 32.9737 -11.1452 2.7478
# 5 13.6394 -2.1074 8.8909 -11.1452 47.6776 0.7223
# 6 -29.1280 -30.5826 -11.1292 2.7478 0.7223 47.8302
#
#
#
# Elastic Compliance Matrix: (Units=1/GPa)
#
#
# Indices 1 2 3 4 5 6 
#
# 1 0.013069 -0.016371 -0.001341 -0.002182 -0.004683 -0.002625
# 2 -0.016371 0.072985 -0.018769 -0.004050 0.009972 0.032412
# 3 -0.001341 -0.018769 0.024413 0.004461 -0.003844 -0.007335
# 4 -0.002182 -0.004050 0.004461 0.034520 0.007758 -0.004981
# 5 -0.004683 0.009972 -0.003844 0.007758 0.025258 0.001803
# 6 -0.002625 0.032412 -0.007335 -0.004981 0.001803 0.038585
#
#
# Mechanical properties :
#
#
# Convention : Reuss Voigt Hill
#
# Bulk Modulus (GPa) = 26.66312 58.93768 42.80040
# Shear Modulus (GPa) = 16.98977 34.62312 25.80645
#
# Velocity S-wave (km/s) = 2.57675 3.67842 3.17572
# Velocity P-wave (km/s) = 4.39009 6.40891 5.49304
#
# Compressibility (1/GPa) = 0.03750499
#
# Stress axis : x y z
#
# Youngs Moduli (GPa) = 76.51408 13.70135 40.96232
#
# Poissons Ratio (x) = 0.22431 0.05494
# Poissons Ratio (y) = 1.25262 0.76882
# Poissons Ratio (z) = 0.10263 0.25716
#
# Static dielectric constant tensor:
#      x y z
#    x 2.041620 0.024310 -0.011300 
#    y 0.024310 2.042190 0.019660 
#    z -0.011300 0.019660 2.059490 
# 
# From -- ./inp_files/393118.got.cif
#   From: 2010.05.17/outbox.cif.g08.bks.cpg/sg2_197_cif.got.tgz:393118.got - 2010.06.03 11:33:40.
