data_PCOD9079219
_publ_section_title
;
Structure prediction by ZEFSAII (Michael W. Deem and Ramdas Pophale) SiO2 
 PCOD9079219
Probable space group: P -1
;
_chemical_formula_sum "Si O2"
_cell_formula_units_Z 16
_cell_length_a 7.129636
_cell_length_b 10.763747
_cell_length_c 14.827407
_cell_angle_alpha 136.102214
_cell_angle_beta 63.746574
_cell_angle_gamma 117.139220
_cell_volume 690.098190
_symmetry_space_group_name_H-M "P -1"
_symmetry_group_IT_number 2
_symmetry_cell_setting 'triclinic'
loop_
_space_group_symop_operation_xyz
x,y,z
-x,-y,-z
loop_
_atom_site_type_symbol
_atom_site_label
_atom_site_fract_x
_atom_site_fract_y
_atom_site_fract_z
Si Si1 0.314252 0.694762 0.556815
Si Si2 0.092449 0.447691 0.751020
Si Si3 0.371164 0.533354 0.132387
Si Si4 0.962279 0.113645 0.480834
Si Si5 0.748541 0.173479 0.172829
Si Si6 0.256359 0.191998 0.108152
Si Si7 0.176786 0.273978 0.364301
Si Si8 0.599204 0.788215 0.365187
O O1 0.363512 0.807211 0.697825
O O2 0.297963 0.480132 0.468848
O O3 0.469489 0.746696 0.465387
O O4 0.072648 0.712416 0.591594
O O5 0.870378 0.473910 0.852597
O O6 0.006508 0.323764 0.615523
O O7 0.234941 0.642007 0.792015
O O8 0.221574 0.334727 0.726128
O O9 0.362241 0.371655 0.123010
O O10 0.468186 0.717060 0.265395
O O11 0.500000 0.500000 0.000000
O O12 0.141082 0.123948 0.371960
O O13 0.730652 0.998552 0.439253
O O14 0.000000 0.000000 0.500000
O O15 0.999937 0.174437 0.140084
O O16 0.670653 0.984021 0.038146
O O17 0.279908 0.214942 0.221890
#
# Coordination Sequence:
#
# PCOD9079219 Si02
#       8
#     2   2   2   2   2   2   2   2
#     4  10  19  34  65  95 119 169 221 268 325 378
#     4  10  22  42  62  92 132 167 214 277 321 386
#     4  11  24  42  66  90 131 176 215 270 331 392
#     4  10  22  39  60  95 134 170 212 272 329 385
#     4   9  18  35  61  91 127 166 212 268 323 379
#     4   9  19  36  61  93 124 165 221 262 321 389
#     4  10  18  36  64  90 128 168 215 271 320 381
#     4  11  24  40  64  98 128 169 223 266 331 391
#
# _framework density 23.185106999999999
#
# number of rings (size 3 to 8) (size 9 to 14) (size 15 to 20)
#    0.000    2.000    2.500    0.750    0.000    8.000 
#    0.000    1.875    0.000    0.000    0.000    0.000 
#    0.000    0.000    0.000    0.000    0.000    0.000 
#
# Total GULP energy -89462.157541 kJ/mol
# GULP energy per Si atom -5591.384846 kJ/mol
# Density = 2.313234 g / cm^3
# Si number density = 23.185107 Si / 1000 Ang^3
#
#
#
# Elastic Constant Matrix: (Units=GPa)
#
#
# Indices 1 2 3 4 5 6 
#
# 1 74.9958 21.6376 7.6247 -10.1820 -6.0873 10.9473
# 2 21.6376 137.1084 66.6948 -15.8527 -4.9243 6.9761
# 3 7.6247 66.6948 146.1216 -19.7766 2.5033 13.0520
# 4 -10.1820 -15.8527 -19.7766 54.2107 5.5405 -1.2806
# 5 -6.0873 -4.9243 2.5033 5.5405 24.5457 -1.1371
# 6 10.9473 6.9761 13.0520 -1.2806 -1.1371 33.7320
#
#
#
# Elastic Compliance Matrix: (Units=1/GPa)
#
#
# Indices 1 2 3 4 5 6 
#
# 1 0.015054 -0.002240 0.000894 0.002135 0.002498 -0.004603
# 2 -0.002240 0.009896 -0.004375 0.000711 0.001737 0.000459
# 3 0.000894 -0.004375 0.009442 0.002499 -0.002323 -0.003022
# 4 0.002135 0.000711 0.002499 0.020372 -0.004236 -0.001176
# 5 0.002498 0.001737 -0.002323 -0.004236 0.042948 0.001016
# 6 -0.004603 0.000459 -0.003022 -0.001176 0.001016 0.032203
#
#
# Mechanical properties :
#
#
# Convention : Reuss Voigt Hill
#
# Bulk Modulus (GPa) = 43.57119 61.12667 52.34893
# Shear Modulus (GPa) = 33.55554 39.98226 36.76890
#
# Velocity S-wave (km/s) = 3.80845 4.15719 3.98664
# Velocity P-wave (km/s) = 6.17840 7.03312 6.61957
#
# Compressibility (1/GPa) = 0.02295095
#
# Stress axis : x y z
#
# Youngs Moduli (GPa) = 66.42795 101.04913 105.91369
#
# Poissons Ratio (x) = 0.22634 -0.09470
# Poissons Ratio (y) = 0.14879 0.46333
# Poissons Ratio (z) = -0.05940 0.44205
#
# Static dielectric constant tensor:
#      x y z
#    x 2.009590 -0.019180 0.001460 
#    y -0.019180 1.844240 0.023720 
#    z 0.001460 0.023720 1.880000 
# 
# From -- ./inp_files/500960.got.cif
#   From: 2010.05.17/outbox.cif.g08.bks.cpg/sg2_251_cif.got.tgz:500960.got - 2010.06.03 11:33:40.
