data_PCOD9079741
_publ_section_title
;
Structure prediction by ZEFSAII (Michael W. Deem and Ramdas Pophale) SiO2 
 PCOD9079741
Probable space group: P -1
;
_chemical_formula_sum "Si O2"
_cell_formula_units_Z 14
_cell_length_a 14.763171
_cell_length_b 10.282960
_cell_length_c 16.189417
_cell_angle_alpha 116.099799
_cell_angle_beta 27.766379
_cell_angle_gamma 95.599901
_cell_volume 737.062005
_symmetry_space_group_name_H-M "P -1"
_symmetry_group_IT_number 2
_symmetry_cell_setting 'triclinic'
loop_
_space_group_symop_operation_xyz
x,y,z
-x,-y,-z
loop_
_atom_site_type_symbol
_atom_site_label
_atom_site_fract_x
_atom_site_fract_y
_atom_site_fract_z
Si Si1 0.796785 0.157289 0.007417
Si Si2 0.201183 0.665119 0.246833
Si Si3 0.414906 0.305031 0.878135
Si Si4 0.570475 0.379098 0.601779
Si Si5 0.983466 0.988087 0.629038
Si Si6 0.827653 0.882301 0.007273
Si Si7 0.291508 0.978589 0.676342
O O1 0.070022 0.071971 0.808877
O O2 0.672918 0.094175 0.145939
O O3 0.611192 0.391851 0.211006
O O4 0.863334 0.056182 0.836161
O O5 0.992459 0.827163 0.531279
O O6 0.500000 0.500000 0.000000
O O7 0.191421 0.515879 0.166999
O O8 0.166652 0.812873 0.249468
O O9 0.490075 0.357832 0.750260
O O10 0.696342 0.140039 0.655242
O O11 0.309320 0.201773 0.911754
O O12 0.881544 0.268726 0.314255
O O13 0.548513 0.256479 0.521487
O O14 0.854769 0.914556 0.089507
O O15 0.500000 0.000000 0.500000
#
# Coordination Sequence:
#
# PCOD9079741 Si02
#       7
#     2   2   2   2   2   2   2
#     4  11  22  38  62  89 124 159 200 248 299 353
#     4   9  20  34  64  94 117 155 203 244 300 361
#     4  11  20  40  64  88 120 161 201 243 298 358
#     4  11  22  39  61  87 122 159 200 245 295 354
#     4  10  18  37  64  89 120 160 196 247 304 350
#     4  11  24  40  60  89 125 159 199 251 296 349
#     4  11  22  41  61  88 123 159 202 250 294 354
#
# _framework density 18.994330999999999
#
# number of rings (size 3 to 8) (size 9 to 14) (size 15 to 20)
#    0.000    1.429    5.714    1.714    0.000    4.000 
#    2.571    0.714    0.000    5.143    0.000    0.000 
#    0.000    0.000    0.000    0.000    0.000    0.000 
#
# Total GULP energy -78035.125560 kJ/mol
# GULP energy per Si atom -5573.937540 kJ/mol
# Density = 1.895110 g / cm^3
# Si number density = 18.994331 Si / 1000 Ang^3
#
#
#
# Elastic Constant Matrix: (Units=GPa)
#
#
# Indices 1 2 3 4 5 6 
#
# 1 80.6660 41.2068 32.9568 6.4650 25.7121 -7.9948
# 2 41.2068 118.1265 56.2731 19.1493 1.9877 -9.2796
# 3 32.9568 56.2731 67.3173 17.9910 13.8576 0.9407
# 4 6.4650 19.1493 17.9910 37.1117 2.1591 0.9988
# 5 25.7121 1.9877 13.8576 2.1591 23.4318 7.2511
# 6 -7.9948 -9.2796 0.9407 0.9988 7.2511 30.2397
#
#
#
# Elastic Compliance Matrix: (Units=1/GPa)
#
#
# Indices 1 2 3 4 5 6 
#
# 1 0.029789 -0.008710 -0.000389 0.001222 -0.036113 0.013834
# 2 -0.008710 0.018042 -0.013604 -0.002142 0.016328 -0.000187
# 3 -0.000389 -0.013604 0.031712 -0.007316 -0.016144 -0.001151
# 4 0.001222 -0.002142 -0.007316 0.031380 0.000680 -0.001306
# 5 -0.036113 0.016328 -0.016144 0.000680 0.099006 -0.027797
# 6 0.013834 -0.000187 -0.001151 -0.001306 -0.027797 0.043413
#
#
# Mechanical properties :
#
#
# Convention : Reuss Voigt Hill
#
# Bulk Modulus (GPa) = 29.29328 58.55370 43.92349
# Shear Modulus (GPa) = 16.12235 27.20152 21.66193
#
# Velocity S-wave (km/s) = 2.91657 3.78840 3.38071
# Velocity P-wave (km/s) = 5.17663 7.07317 6.19787
#
# Compressibility (1/GPa) = 0.03413753
#
# Stress axis : x y z
#
# Youngs Moduli (GPa) = 33.56952 55.42478 31.53349
#
# Poissons Ratio (x) = 0.48275 0.01226
# Poissons Ratio (y) = 0.29239 0.42899
# Poissons Ratio (z) = 0.01305 0.75402
#
# Static dielectric constant tensor:
#      x y z
#    x 1.690250 -0.012510 0.029250 
#    y -0.012510 1.661850 0.021800 
#    z 0.029250 0.021800 1.683600 
# 
# From -- ./inp_files/315234.got.cif
#   From: 2010.05.17/outbox.cif.g08.bks.cpg/sg2_158_cif.got.tgz:315234.got - 2010.06.03 11:33:40.
