data_PCOD9079911
_publ_section_title
;
Structure prediction by ZEFSAII (Michael W. Deem and Ramdas Pophale) SiO2 
 PCOD9079911
Probable space group: P -1
;
_chemical_formula_sum "Si O2"
_cell_formula_units_Z 12
_cell_length_a 10.488793
_cell_length_b 7.382338
_cell_length_c 12.346918
_cell_angle_alpha 119.431177
_cell_angle_beta 142.734994
_cell_angle_gamma 56.292383
_cell_volume 479.213028
_symmetry_space_group_name_H-M "P -1"
_symmetry_group_IT_number 2
_symmetry_cell_setting 'triclinic'
loop_
_space_group_symop_operation_xyz
x,y,z
-x,-y,-z
loop_
_atom_site_type_symbol
_atom_site_label
_atom_site_fract_x
_atom_site_fract_y
_atom_site_fract_z
Si Si1 0.571664 0.811630 0.242599
Si Si2 0.023896 0.217257 0.635169
Si Si3 0.855336 0.592512 0.035745
Si Si4 0.456222 0.496339 0.665524
Si Si5 0.086365 0.836996 0.908905
Si Si6 0.328857 0.924236 0.434891
O O1 0.775727 0.729632 0.275929
O O2 0.580371 0.638973 0.294027
O O3 0.605736 0.024745 0.386361
O O4 0.327468 0.847785 0.041516
O O5 0.083515 0.218522 0.802526
O O6 0.783637 0.391486 0.510505
O O7 0.000000 0.000000 0.500000
O O8 0.898856 0.394225 0.094242
O O9 0.598473 0.649582 0.846242
O O10 0.000000 0.500000 0.000000
O O11 0.613554 0.326258 0.636362
O O12 0.907631 0.917141 0.717206
O O13 0.000000 0.000000 0.000000
O O14 0.500000 0.000000 0.500000
#
# Coordination Sequence:
#
# PCOD9079911 Si02
#       6
#     2   2   2   2   2   2
#     4  10  23  41  70 100 138 171 225 290 335 399
#     4  12  29  46  65 101 142 186 225 277 349 399
#     4  11  26  45  68 102 140 180 225 280 339 414
#     4  10  23  44  71 101 131 178 232 279 340 403
#     4  11  20  39  73 109 127 173 230 281 340 399
#     4  10  18  37  71 105 129 163 226 279 335 397
#
# _framework density 25.041056999999999
#
# number of rings (size 3 to 8) (size 9 to 14) (size 15 to 20)
#    0.000    1.333    5.000    2.500    2.333    6.667 
#    0.000    0.000    0.000    0.000    0.000    0.000 
#    0.000    0.000    0.000    0.000    0.000    0.000 
#
# Total GULP energy -67196.459947 kJ/mol
# GULP energy per Si atom -5599.704996 kJ/mol
# Density = 2.498406 g / cm^3
# Si number density = 25.041057 Si / 1000 Ang^3
#
#
#
# Elastic Constant Matrix: (Units=GPa)
#
#
# Indices 1 2 3 4 5 6 
#
# 1 153.6952 39.0329 70.3951 -6.9152 19.1269 -16.4503
# 2 39.0329 56.8304 63.5403 -6.8795 -6.7545 3.2933
# 3 70.3951 63.5403 224.1533 -22.0863 14.9674 -6.3558
# 4 -6.9152 -6.8795 -22.0863 48.8404 -18.8646 -3.9412
# 5 19.1269 -6.7545 14.9674 -18.8646 38.9159 1.9677
# 6 -16.4503 3.2933 -6.3558 -3.9412 1.9677 31.9871
#
#
#
# Elastic Compliance Matrix: (Units=1/GPa)
#
#
# Indices 1 2 3 4 5 6 
#
# 1 0.010315 -0.008129 -0.000476 -0.002401 -0.007776 0.006230
# 2 -0.008129 0.035895 -0.008454 0.005762 0.016770 -0.009877
# 3 -0.000476 -0.008454 0.007411 0.000818 -0.003811 0.002433
# 4 -0.002401 0.005762 0.000818 0.027171 0.014998 0.000760
# 5 -0.007776 0.016770 -0.003811 0.014998 0.041529 -0.007190
# 6 0.006230 -0.009877 0.002433 0.000760 -0.007190 0.036503
#
#
# Mechanical properties :
#
#
# Convention : Reuss Voigt Hill
#
# Bulk Modulus (GPa) = 51.27260 86.73503 69.00381
# Shear Modulus (GPa) = 25.06990 41.39606 33.23298
#
# Velocity S-wave (km/s) = 3.16753 4.07028 3.64694
# Velocity P-wave (km/s) = 5.82216 7.53670 6.73422
#
# Compressibility (1/GPa) = 0.01950359
#
# Stress axis : x y z
#
# Youngs Moduli (GPa) = 96.94376 27.85921 134.93005
#
# Poissons Ratio (x) = 0.22646 0.06422
# Poissons Ratio (y) = 0.78802 1.14074
# Poissons Ratio (z) = 0.04614 0.23553
#
# Static dielectric constant tensor:
#      x y z
#    x 2.140030 -0.018790 0.262720 
#    y -0.018790 2.050030 0.034450 
#    z 0.262720 0.034450 2.340760 
# 
# From -- ./inp_files/512442.got.cif
#   From: 2010.05.17/outbox.cif.g08.bks.cpg/sg2_257_cif.got.tgz:512442.got - 2010.06.03 11:33:40.
