data_PCOD9079104
_publ_section_title
;
Structure prediction by ZEFSAII (Michael W. Deem and Ramdas Pophale) SiO2 
 PCOD9079104
Probable space group: P -1
;
_chemical_formula_sum "Si O2"
_cell_formula_units_Z 16
_cell_length_a 9.562768
_cell_length_b 23.371297
_cell_length_c 12.147912
_cell_angle_alpha 159.828458
_cell_angle_beta 127.459028
_cell_angle_gamma 53.550375
_cell_volume 740.476675
_symmetry_space_group_name_H-M "P -1"
_symmetry_group_IT_number 2
_symmetry_cell_setting 'triclinic'
loop_
_space_group_symop_operation_xyz
x,y,z
-x,-y,-z
loop_
_atom_site_type_symbol
_atom_site_label
_atom_site_fract_x
_atom_site_fract_y
_atom_site_fract_z
Si Si1 0.556400 0.228031 0.780404
Si Si2 0.417689 0.895559 0.868454
Si Si3 0.882397 0.190551 0.159423
Si Si4 0.266560 0.107978 0.814769
Si Si5 0.436235 0.436321 0.736796
Si Si6 0.499666 0.696253 0.858181
Si Si7 0.065134 0.328504 0.285878
Si Si8 0.189044 0.120663 0.319984
O O1 0.367535 0.195710 0.577454
O O2 0.707426 0.081934 0.557407
O O3 0.591760 0.408029 0.077557
O O4 0.531504 0.231977 0.905556
O O5 0.413118 0.706741 0.485655
O O6 0.566271 0.887797 0.017858
O O7 0.500000 0.000000 0.000000
O O8 0.249188 0.997971 0.024722
O O9 0.680013 0.248870 0.194424
O O10 0.934697 0.263261 0.197924
O O11 0.027249 0.237467 0.403329
O O12 0.875817 0.991609 0.814373
O O13 0.321174 0.234800 0.975965
O O14 0.108036 0.187668 0.957757
O O15 0.247352 0.356573 0.491082
O O16 0.500000 0.500000 0.000000
O O17 0.500000 0.500000 0.500000
O O18 0.000000 0.500000 0.500000
#
# Coordination Sequence:
#
# PCOD9079104 Si02
#       8
#     2   2   2   2   2   2   2   2
#     4  11  22  40  67  95 125 168 222 266 314 393
#     4  10  18  36  62  90 120 165 213 253 315 386
#     4  11  22  40  67  93 133 163 211 267 334 382
#     4  10  21  39  62  91 121 167 219 253 312 386
#     4  11  22  37  63  93 127 163 217 266 313 383
#     4  12  23  41  68  92 126 171 218 265 318 390
#     4  11  23  43  64  93 129 175 213 266 328 385
#     4  10  22  40  66  94 127 169 208 272 331 381
#
# _framework density 21.607703000000001
#
# number of rings (size 3 to 8) (size 9 to 14) (size 15 to 20)
#    0.000    1.250    2.500    7.125    0.000    0.000 
#    0.000    4.375    8.250    0.000    0.000    0.000 
#    0.000    0.000    0.000    0.000    0.000    0.000 
#
# Total GULP energy -89241.477661 kJ/mol
# GULP energy per Si atom -5577.592354 kJ/mol
# Density = 2.155852 g / cm^3
# Si number density = 21.607703 Si / 1000 Ang^3
#
#
#
# Elastic Constant Matrix: (Units=GPa)
#
#
# Indices 1 2 3 4 5 6 
#
# 1 97.4784 18.8950 20.9802 5.0956 17.4660 10.4852
# 2 18.8950 73.4890 11.6096 5.5111 -3.8430 1.4522
# 3 20.9802 11.6096 87.5633 4.8415 -10.1774 2.7740
# 4 5.0956 5.5111 4.8415 37.5587 4.8293 13.5868
# 5 17.4660 -3.8430 -10.1774 4.8293 31.6242 3.3216
# 6 10.4852 1.4522 2.7740 13.5868 3.3216 44.0542
#
#
#
# Elastic Compliance Matrix: (Units=1/GPa)
#
#
# Indices 1 2 3 4 5 6 
#
# 1 0.013584 -0.003402 -0.003846 0.001252 -0.009074 -0.002581
# 2 -0.003402 0.014944 -0.000618 -0.002435 0.003782 0.000822
# 3 -0.003846 -0.000618 0.013298 -0.002034 0.006615 0.000227
# 4 0.001252 -0.002435 -0.002034 0.031129 -0.005421 -0.009282
# 5 -0.009074 0.003782 0.006615 -0.005421 0.040021 0.000273
# 6 -0.002581 0.000822 0.000227 -0.009282 0.000273 0.026114
#
#
# Mechanical properties :
#
#
# Convention : Reuss Voigt Hill
#
# Bulk Modulus (GPa) = 38.32366 40.16669 39.24517
# Shear Modulus (GPa) = 30.57734 36.45047 33.51391
#
# Velocity S-wave (km/s) = 3.76588 4.11167 3.94257
# Velocity P-wave (km/s) = 6.05671 6.41643 6.23916
#
# Compressibility (1/GPa) = 0.02609354
#
# Stress axis : x y z
#
# Youngs Moduli (GPa) = 73.61682 66.91621 75.20011
#
# Poissons Ratio (x) = 0.22768 0.28920
# Poissons Ratio (y) = 0.25048 0.04647
# Poissons Ratio (z) = 0.28311 0.04135
#
# Static dielectric constant tensor:
#      x y z
#    x 1.679900 -0.109840 -0.103750 
#    y -0.109840 1.718920 -0.085000 
#    z -0.103750 -0.085000 1.717940 
# 
# From -- ./inp_files/406944.got.cif
#   From: 2010.05.17/outbox.cif.g08.bks.cpg/sg2_204_cif.got.tgz:406944.got - 2010.06.03 11:33:40.
