data_PCOD9079716
_publ_section_title
;
Structure prediction by ZEFSAII (Michael W. Deem and Ramdas Pophale) SiO2 
 PCOD9079716
Probable space group: P -1
;
_chemical_formula_sum "Si O2"
_cell_formula_units_Z 14
_cell_length_a 14.480034
_cell_length_b 8.287963
_cell_length_c 11.426525
_cell_angle_alpha 41.567153
_cell_angle_beta 58.560040
_cell_angle_gamma 88.610364
_cell_volume 592.199464
_symmetry_space_group_name_H-M "P -1"
_symmetry_group_IT_number 2
_symmetry_cell_setting 'triclinic'
loop_
_space_group_symop_operation_xyz
x,y,z
-x,-y,-z
loop_
_atom_site_type_symbol
_atom_site_label
_atom_site_fract_x
_atom_site_fract_y
_atom_site_fract_z
Si Si1 0.662358 0.675444 0.510579
Si Si2 0.418383 0.618161 0.754347
Si Si3 0.849507 0.286571 0.381464
Si Si4 0.019884 0.713342 0.476729
Si Si5 0.718097 0.283806 0.031332
Si Si6 0.941745 0.062809 0.232840
Si Si7 0.586309 0.245100 0.571135
O O1 0.526095 0.555109 0.743673
O O2 0.615152 0.444097 0.558752
O O3 0.714689 0.018697 0.245134
O O4 0.796756 0.750243 0.442995
O O5 0.298512 0.506899 0.986586
O O6 0.383518 0.550740 0.676710
O O7 0.500000 0.000000 0.500000
O O8 0.886648 0.151204 0.327418
O O9 0.694956 0.179138 0.528370
O O10 0.872712 0.219569 0.532093
O O11 0.968568 0.665035 0.071734
O O12 0.000000 0.500000 0.500000
O O13 0.046354 0.014303 0.241366
O O14 0.867023 0.515854 0.745420
O O15 0.578158 0.072173 0.157215
#
# Coordination Sequence:
#
# PCOD9079716 Si02
#       7
#     2   2   2   2   2   2   2
#     4  10  18  37  64 100 127 165 221 267 329 383
#     4   8  16  32  59  91 125 163 214 258 314 386
#     4  11  24  45  69  93 132 175 225 268 324 394
#     4  12  27  44  66 100 136 168 220 275 330 391
#     4  10  20  40  64  93 134 169 215 270 324 391
#     4  11  24  43  70  94 131 180 220 267 328 391
#     4  10  20  35  68  99 125 172 218 268 329 383
#
# _framework density 23.640682000000002
#
# number of rings (size 3 to 8) (size 9 to 14) (size 15 to 20)
#    0.000    2.000    1.429    5.571    4.000    1.143 
#    0.000    5.714    0.000    0.000    0.000    0.000 
#    0.000    0.000    0.000    0.000    0.000    0.000 
#
# Total GULP energy -78297.448229 kJ/mol
# GULP energy per Si atom -5592.674874 kJ/mol
# Density = 2.358687 g / cm^3
# Si number density = 23.640682 Si / 1000 Ang^3
#
#
#
# Elastic Constant Matrix: (Units=GPa)
#
#
# Indices 1 2 3 4 5 6 
#
# 1 117.2160 -21.1849 1.9805 -10.1665 0.0206 3.2939
# 2 -21.1849 49.5755 2.2855 9.4875 6.4171 2.3680
# 3 1.9805 2.2855 24.8207 1.2839 -8.0446 -2.5310
# 4 -10.1665 9.4875 1.2839 20.7018 -4.5300 -2.0670
# 5 0.0206 6.4171 -8.0446 -4.5300 29.6910 -0.3232
# 6 3.2939 2.3680 -2.5310 -2.0670 -0.3232 37.5282
#
#
#
# Elastic Compliance Matrix: (Units=1/GPa)
#
#
# Indices 1 2 3 4 5 6 
#
# 1 0.009509 0.003772 -0.001632 0.002751 -0.000856 -0.001039
# 2 0.003772 0.025549 -0.005191 -0.011752 -0.008757 -0.003016
# 3 -0.001632 -0.005191 0.045666 0.002158 0.013867 0.003789
# 4 0.002751 -0.011752 0.002158 0.057928 0.012004 0.003940
# 5 -0.000856 -0.008757 0.013867 0.012004 0.041190 0.002579
# 6 -0.001039 -0.003016 0.003789 0.003940 0.002579 0.027423
#
#
# Mechanical properties :
#
#
# Convention : Reuss Voigt Hill
#
# Bulk Modulus (GPa) = 13.40076 17.53051 15.46563
# Shear Modulus (GPa) = 20.98717 31.48626 26.23672
#
# Velocity S-wave (km/s) = 2.98276 3.65344 3.33500
# Velocity P-wave (km/s) = 4.18847 5.02278 4.62448
#
# Compressibility (1/GPa) = 0.07462262
#
# Stress axis : x y z
#
# Youngs Moduli (GPa) = 105.16848 39.14017 21.89798
#
# Poissons Ratio (x) = -0.14765 0.03573
# Poissons Ratio (y) = -0.39673 0.11368
# Poissons Ratio (z) = 0.17159 0.20319
#
# Static dielectric constant tensor:
#      x y z
#    x 1.903200 0.002500 0.024640 
#    y 0.002500 1.877090 -0.004650 
#    z 0.024640 -0.004650 2.009150 
# 
# From -- ./inp_files/413930.got.cif
#   From: 2010.05.17/outbox.cif.g08.bks.cpg/sg2_207_cif.got.tgz:413930.got - 2010.06.03 11:33:40.
