data_PCOD9079847
_publ_section_title
;
Structure prediction by ZEFSAII (Michael W. Deem and Ramdas Pophale) SiO2 
 PCOD9079847
Probable space group: P -1
;
_chemical_formula_sum "Si O2"
_cell_formula_units_Z 14
_cell_length_a 9.727687
_cell_length_b 16.760541
_cell_length_c 9.332258
_cell_angle_alpha 123.263456
_cell_angle_beta 88.093402
_cell_angle_gamma 44.151763
_cell_volume 603.006519
_symmetry_space_group_name_H-M "P -1"
_symmetry_group_IT_number 2
_symmetry_cell_setting 'triclinic'
loop_
_space_group_symop_operation_xyz
x,y,z
-x,-y,-z
loop_
_atom_site_type_symbol
_atom_site_label
_atom_site_fract_x
_atom_site_fract_y
_atom_site_fract_z
Si Si1 0.731501 0.282677 0.833629
Si Si2 0.261725 0.271122 0.722622
Si Si3 0.708657 0.022206 0.993348
Si Si4 0.968578 0.315125 0.964739
Si Si5 0.604255 0.686048 0.498549
Si Si6 0.878859 0.725774 0.786076
Si Si7 0.280695 0.913903 0.266831
O O1 0.611249 0.260599 0.885879
O O2 0.909582 0.239829 0.895718
O O3 0.500000 0.500000 0.000000
O O4 0.954417 0.117950 0.539197
O O5 0.121715 0.255181 0.753895
O O6 0.334230 0.258387 0.546785
O O7 0.000000 0.500000 0.000000
O O8 0.677699 0.554304 0.253331
O O9 0.718551 0.057952 0.870172
O O10 0.926381 0.800294 0.787380
O O11 0.691859 0.112461 0.207553
O O12 0.394117 0.162118 0.156612
O O13 0.478872 0.858294 0.307662
O O14 0.184429 0.212541 0.983565
O O15 0.836988 0.513044 0.442674
#
# Coordination Sequence:
#
# PCOD9079847 Si02
#       7
#     2   2   2   2   2   2   2
#     4  11  25  45  65  88 128 167 217 267 310 376
#     4  10  18  37  66  99 124 159 211 260 313 367
#     4  11  20  39  60  94 132 161 204 256 316 384
#     4   9  20  39  63  94 125 159 213 257 311 365
#     4   9  20  34  61  92 130 161 198 257 314 370
#     4   9  21  34  59  96 129 163 199 252 319 371
#     4  11  25  42  67  93 124 171 212 258 324 375
#
# _framework density 23.216996000000002
#
# number of rings (size 3 to 8) (size 9 to 14) (size 15 to 20)
#    0.857    1.143    1.429    2.143    2.000    4.000 
#    0.000    1.429    0.000    0.000    0.000    0.000 
#    0.000    0.000    0.000    0.000    0.000    0.000 
#
# Total GULP energy -78024.214095 kJ/mol
# GULP energy per Si atom -5573.158150 kJ/mol
# Density = 2.316415 g / cm^3
# Si number density = 23.216996 Si / 1000 Ang^3
#
#
#
# Elastic Constant Matrix: (Units=GPa)
#
#
# Indices 1 2 3 4 5 6 
#
# 1 52.5994 20.9676 16.5552 7.6928 12.4548 14.0282
# 2 20.9676 143.1262 58.4035 -2.1715 0.0990 28.2546
# 3 16.5552 58.4035 92.5755 -6.2853 11.1033 14.9705
# 4 7.6928 -2.1715 -6.2853 37.5962 5.3678 4.1065
# 5 12.4548 0.0990 11.1033 5.3678 24.4350 7.6340
# 6 14.0282 28.2546 14.9705 4.1065 7.6340 30.3534
#
#
#
# Elastic Compliance Matrix: (Units=1/GPa)
#
#
# Indices 1 2 3 4 5 6 
#
# 1 0.024489 -0.001880 -0.001322 -0.003353 -0.009218 -0.006144
# 2 -0.001880 0.011479 -0.006330 -0.000016 0.006384 -0.008298
# 3 -0.001322 -0.006330 0.016192 0.003685 -0.007433 -0.000111
# 4 -0.003353 -0.000016 0.003685 0.028985 -0.005457 -0.002802
# 5 -0.009218 0.006384 -0.007433 -0.005457 0.053529 -0.010741
# 6 -0.006144 -0.008298 -0.000111 -0.002802 -0.010741 0.046644
#
#
# Mechanical properties :
#
#
# Convention : Reuss Voigt Hill
#
# Bulk Modulus (GPa) = 30.21608 53.35040 41.78324
# Shear Modulus (GPa) = 23.65033 31.30191 27.47612
#
# Velocity S-wave (km/s) = 3.19511 3.67581 3.44386
# Velocity P-wave (km/s) = 5.16281 6.40659 5.81803
#
# Compressibility (1/GPa) = 0.03309496
#
# Stress axis : x y z
#
# Youngs Moduli (GPa) = 40.83530 87.11751 61.75959
#
# Poissons Ratio (x) = 0.16375 0.08165
# Poissons Ratio (y) = 0.07676 0.39097
# Poissons Ratio (z) = 0.05398 0.55149
#
# Static dielectric constant tensor:
#      x y z
#    x 1.955270 -0.038470 0.047780 
#    y -0.038470 1.934960 0.033560 
#    z 0.047780 0.033560 1.879340 
# 
# From -- ./inp_files/270631.got.cif
#   From: 2010.05.17/outbox.cif.g08.bks.cpg/sg2_136_cif.got.tgz:270631.got - 2010.06.03 11:33:40.
