data_PCOD9079819
_publ_section_title
;
Structure prediction by ZEFSAII (Michael W. Deem and Ramdas Pophale) SiO2 
 PCOD9079819
Probable space group: P -1
;
_chemical_formula_sum "Si O2"
_cell_formula_units_Z 14
_cell_length_a 13.395395
_cell_length_b 10.846539
_cell_length_c 11.174342
_cell_angle_alpha 35.080089
_cell_angle_beta 149.288709
_cell_angle_gamma 136.701285
_cell_volume 474.918998
_symmetry_space_group_name_H-M "P -1"
_symmetry_group_IT_number 2
_symmetry_cell_setting 'triclinic'
loop_
_space_group_symop_operation_xyz
x,y,z
-x,-y,-z
loop_
_atom_site_type_symbol
_atom_site_label
_atom_site_fract_x
_atom_site_fract_y
_atom_site_fract_z
Si Si1 0.717088 0.284420 0.085564
Si Si2 0.154444 0.786592 0.397800
Si Si3 0.634841 0.503524 0.477106
Si Si4 0.144182 0.235799 0.107000
Si Si5 0.093300 0.774047 0.899166
Si Si6 0.751983 0.657547 0.211749
Si Si7 0.534174 0.014677 0.759580
O O1 0.525577 0.342464 0.763585
O O2 0.782515 0.513925 0.030593
O O3 0.888567 0.211976 0.235875
O O4 0.627544 0.110338 0.223655
O O5 0.272218 0.575911 0.690584
O O6 0.972451 0.743943 0.335693
O O7 0.249698 0.025229 0.337205
O O8 0.052698 0.788496 0.160342
O O9 0.813865 0.451181 0.787415
O O10 0.711488 0.596919 0.355973
O O11 0.522017 0.268158 0.522138
O O12 0.082667 0.207711 0.204672
O O13 0.263517 0.950979 0.978193
O O14 0.612467 0.841805 0.885136
#
# Coordination Sequence:
#
# PCOD9079819 Si02
#       7
#     2   2   2   2   2   2   2
#     4  11  22  38  61  92 124 153 190 255 296 336
#     4  10  20  38  63  85 116 163 199 242 297 353
#     4   9  20  38  61  90 117 155 198 235 295 364
#     4  11  22  39  62  89 122 153 204 245 293 349
#     4  10  19  40  63  85 124 158 196 235 292 368
#     4  10  18  37  66  82 109 157 208 235 287 353
#     4   9  20  38  61  90 117 155 198 235 295 364
#
# _framework density 29.478711000000001
#
# number of rings (size 3 to 8) (size 9 to 14) (size 15 to 20)
#    0.857    1.143    2.857    1.286    2.000    0.000 
#    5.143    5.714    0.000    3.429    0.000    0.000 
#    0.000    0.000    0.000    0.000    0.000    0.000 
#
# Total GULP energy -78385.104202 kJ/mol
# GULP energy per Si atom -5598.936014 kJ/mol
# Density = 2.941162 g / cm^3
# Si number density = 29.478711 Si / 1000 Ang^3
#
#
#
# Elastic Constant Matrix: (Units=GPa)
#
#
# Indices 1 2 3 4 5 6 
#
# 1 200.8439 34.1338 68.2252 -36.4384 -2.0110 11.8542
# 2 34.1338 118.5588 -1.2138 -43.0114 -24.6230 16.5565
# 3 68.2252 -1.2138 121.5925 -42.9928 15.0249 0.8958
# 4 -36.4384 -43.0114 -42.9928 36.6617 -6.8016 3.9162
# 5 -2.0110 -24.6230 15.0249 -6.8016 52.2143 -13.5689
# 6 11.8542 16.5565 0.8958 3.9162 -13.5689 41.2901
#
#
#
# Elastic Compliance Matrix: (Units=1/GPa)
#
#
# Indices 1 2 3 4 5 6 
#
# 1 0.006689 0.001433 -0.001309 0.007372 0.001583 -0.002646
# 2 0.001433 0.143656 0.103149 0.309568 0.060306 -0.069796
# 3 -0.001309 0.103149 0.089418 0.237620 0.040240 -0.052239
# 4 0.007372 0.309568 0.237620 0.717403 0.130674 -0.156503
# 5 0.001583 0.060306 0.040240 0.130674 0.047283 -0.022365
# 6 -0.002646 -0.069796 -0.052239 -0.156503 -0.022365 0.061593
#
#
# Mechanical properties :
#
#
# Convention : Reuss Voigt Hill
#
# Bulk Modulus (GPa) = 2.24058 71.47617 36.85838
# Shear Modulus (GPa) = 4.95902 48.68988 26.82445
#
# Velocity S-wave (km/s) = 1.29842 4.06852 3.01983
# Velocity P-wave (km/s) = 1.73481 6.80954 4.96887
#
# Compressibility (1/GPa) = 0.44631256
#
# Stress axis : x y z
#
# Youngs Moduli (GPa) = 149.49032 6.96107 11.18337
#
# Poissons Ratio (x) = -0.00998 0.01463
# Poissons Ratio (y) = -0.21428 -1.15356
# Poissons Ratio (z) = 0.19561 -0.71803
#
# Static dielectric constant tensor:
#      x y z
#    x 2.187410 -0.001240 0.073210 
#    y -0.001240 2.430860 0.254500 
#    z 0.073210 0.254500 2.610780 
# 
# From -- ./inp_files/422907.got.cif
#   From: 2010.05.17/outbox.cif.g08.bks.cpg/sg2_212_cif.got.tgz:422907.got - 2010.06.03 11:33:40.
