data_PCOD9079812
_publ_section_title
;
Structure prediction by ZEFSAII (Michael W. Deem and Ramdas Pophale) SiO2 
 PCOD9079812
Probable space group: P -1
;
_chemical_formula_sum "Si O2"
_cell_formula_units_Z 16
_cell_length_a 7.514293
_cell_length_b 11.804459
_cell_length_c 11.733876
_cell_angle_alpha 121.630262
_cell_angle_beta 76.745248
_cell_angle_gamma 131.892472
_cell_volume 647.578215
_symmetry_space_group_name_H-M "P -1"
_symmetry_group_IT_number 2
_symmetry_cell_setting 'triclinic'
loop_
_space_group_symop_operation_xyz
x,y,z
-x,-y,-z
loop_
_atom_site_type_symbol
_atom_site_label
_atom_site_fract_x
_atom_site_fract_y
_atom_site_fract_z
Si Si1 0.596015 0.440224 0.692355
Si Si2 0.037895 0.299421 0.386780
Si Si3 0.785574 0.865652 0.842426
Si Si4 0.960671 0.245699 0.047575
Si Si5 0.249331 0.756169 0.134788
Si Si6 0.563054 0.439884 0.073854
Si Si7 0.396457 0.835002 0.764384
Si Si8 0.275791 0.792809 0.410957
O O1 0.371502 0.410955 0.765768
O O2 0.599831 0.285496 0.611520
O O3 0.692238 0.530005 0.601803
O O4 0.819801 0.588366 0.824428
O O5 0.836505 0.295489 0.350803
O O6 0.950167 0.268435 0.511328
O O7 0.026823 0.148114 0.249673
O O8 0.633719 0.729393 0.897708
O O9 0.592823 0.815454 0.745602
O O10 0.913317 0.065230 0.963622
O O11 0.961197 0.287053 0.938105
O O12 0.720431 0.195082 0.110730
O O13 0.189736 0.732469 0.263055
O O14 0.468580 0.966791 0.193526
O O15 0.313069 0.636867 0.027290
O O16 0.500000 0.500000 0.000000
O O17 0.500000 0.000000 0.500000
#
# Coordination Sequence:
#
# PCOD9079812 Si02
#       8
#     2   2   2   2   2   2   2   2
#     4  10  24  38  65  95 122 165 214 276 314 380
#     4  10  23  39  66  93 129 177 222 257 309 394
#     4  10  20  37  66  99 131 166 215 269 321 387
#     4  10  20  37  65  99 129 156 212 273 335 379
#     4  11  20  37  65  93 128 168 202 263 336 379
#     4  11  20  36  61  98 131 156 210 265 333 384
#     4  10  18  37  65  99 127 168 212 265 322 388
#     4  12  24  42  63  87 131 181 215 256 322 392
#
# _framework density 24.707439999999998
#
# number of rings (size 3 to 8) (size 9 to 14) (size 15 to 20)
#    0.000    1.500    5.000    1.125    1.750    2.000 
#    0.000    2.500    5.500    3.000    0.000    0.000 
#    0.000    0.000    0.000    0.000    0.000    0.000 
#
# Total GULP energy -89271.327194 kJ/mol
# GULP energy per Si atom -5579.457950 kJ/mol
# Density = 2.465120 g / cm^3
# Si number density = 24.707440 Si / 1000 Ang^3
#
#
#
# Elastic Constant Matrix: (Units=GPa)
#
#
# Indices 1 2 3 4 5 6 
#
# 1 90.2120 22.6421 30.2211 -1.1541 -16.5526 -14.8929
# 2 22.6421 120.2891 55.3993 -7.6443 -24.1409 -32.7771
# 3 30.2211 55.3993 142.7585 -26.3190 -41.8569 -2.3296
# 4 -1.1541 -7.6443 -26.3190 47.2194 -1.9103 -12.1066
# 5 -16.5526 -24.1409 -41.8569 -1.9103 36.7458 3.0292
# 6 -14.8929 -32.7771 -2.3296 -12.1066 3.0292 35.1593
#
#
#
# Elastic Compliance Matrix: (Units=1/GPa)
#
#
# Indices 1 2 3 4 5 6 
#
# 1 0.013260 0.000966 -0.001494 0.001508 0.004444 0.006554
# 2 0.000966 0.015436 -0.003353 0.004931 0.005712 0.015783
# 3 -0.001494 -0.003353 0.013895 0.007332 0.013454 -0.001473
# 4 0.001508 0.004931 0.007332 0.030490 0.012608 0.015134
# 5 0.004444 0.005712 0.013454 0.012608 0.048267 0.008281
# 6 0.006554 0.015783 -0.001473 0.015134 0.008281 0.050332
#
#
# Mechanical properties :
#
#
# Convention : Reuss Voigt Hill
#
# Bulk Modulus (GPa) = 28.71251 63.30941 46.01096
# Shear Modulus (GPa) = 26.17094 40.15804 33.16449
#
# Velocity S-wave (km/s) = 3.25812 4.03593 3.66770
# Velocity P-wave (km/s) = 5.07937 6.88459 6.04969
#
# Compressibility (1/GPa) = 0.03482803
#
# Stress axis : x y z
#
# Youngs Moduli (GPa) = 75.41603 64.78268 71.96910
#
# Poissons Ratio (x) = -0.06256 0.10751
# Poissons Ratio (y) = -0.07283 0.24134
# Poissons Ratio (z) = 0.11266 0.21724
#
# Static dielectric constant tensor:
#      x y z
#    x 2.090710 0.064980 -0.019650 
#    y 0.064980 2.070150 -0.067330 
#    z -0.019650 -0.067330 2.003840 
# 
# From -- ./inp_files/391006.got.cif
#   From: 2010.05.17/outbox.cif.g08.bks.cpg/sg2_196_cif.got.tgz:391006.got - 2010.06.03 11:33:40.
