data_PCOD9079057
_publ_section_title
;
Structure prediction by ZEFSAII (Michael W. Deem and Ramdas Pophale) SiO2 
 PCOD9079057
Probable space group: P -1
;
_chemical_formula_sum "Si O2"
_cell_formula_units_Z 16
_cell_length_a 11.541041
_cell_length_b 12.255415
_cell_length_c 12.449898
_cell_angle_alpha 107.853766
_cell_angle_beta 130.612579
_cell_angle_gamma 33.645970
_cell_volume 613.896339
_symmetry_space_group_name_H-M "P -1"
_symmetry_group_IT_number 2
_symmetry_cell_setting 'triclinic'
loop_
_space_group_symop_operation_xyz
x,y,z
-x,-y,-z
loop_
_atom_site_type_symbol
_atom_site_label
_atom_site_fract_x
_atom_site_fract_y
_atom_site_fract_z
Si Si1 0.570333 0.711434 0.998610
Si Si2 0.009594 0.786703 0.722228
Si Si3 0.955636 0.567094 0.616039
Si Si4 0.889465 0.957298 0.479411
Si Si5 0.303899 0.637139 0.063028
Si Si6 0.950414 0.238750 0.836917
Si Si7 0.888454 0.384555 0.630792
Si Si8 0.604817 0.850770 0.880868
O O1 0.613328 0.552488 0.945904
O O2 0.737284 0.678847 0.999248
O O3 0.206856 0.986975 0.861422
O O4 0.721681 0.637092 0.182216
O O5 0.837954 0.776185 0.611930
O O6 0.376795 0.515819 0.832086
O O7 0.908526 0.937703 0.612480
O O8 0.029866 0.827901 0.865316
O O9 0.783988 0.574901 0.576958
O O10 0.000000 0.500000 0.500000
O O11 0.122634 0.705847 0.494685
O O12 0.541584 0.137845 0.292654
O O13 0.000000 0.000000 0.500000
O O14 0.211145 0.724033 0.154095
O O15 0.761072 0.422547 0.679693
O O16 0.150180 0.209142 0.007125
O O17 0.275429 0.128572 0.804296
#
# Coordination Sequence:
#
# PCOD9079057 Si02
#       8
#     2   2   2   2   2   2   2   2
#     4  10  18  36  62  84 119 160 196 248 302 347
#     4  10  22  40  55  86 126 160 203 241 311 363
#     4  11  17  33  62  84 118 163 196 242 303 362
#     4  10  19  34  64  84 119 166 195 245 309 362
#     4  10  24  39  60  89 123 162 200 254 298 369
#     4  11  19  38  64  94 119 149 217 252 293 356
#     4   9  18  33  61  92 112 159 200 246 302 351
#     4   9  17  32  59  91 113 154 204 245 299 349
#
# _framework density 26.063029
#
# number of rings (size 3 to 8) (size 9 to 14) (size 15 to 20)
#    0.750    1.250    3.750    1.500    0.000    0.500 
#    0.000    6.875    0.000    0.000    0.000    0.000 
#    0.000    0.000    0.000    0.000    0.000    0.000 
#
# Total GULP energy -89385.553737 kJ/mol
# GULP energy per Si atom -5586.597109 kJ/mol
# Density = 2.600371 g / cm^3
# Si number density = 26.063029 Si / 1000 Ang^3
#
#
#
# Elastic Constant Matrix: (Units=GPa)
#
#
# Indices 1 2 3 4 5 6 
#
# 1 149.6531 41.2077 36.8740 -2.7804 -20.3035 20.3057
# 2 41.2077 47.4531 10.7341 9.1301 8.0763 7.3176
# 3 36.8740 10.7341 95.0640 -6.9244 -12.0332 3.5551
# 4 -2.7804 9.1301 -6.9244 15.3187 4.8506 -0.6596
# 5 -20.3035 8.0763 -12.0332 4.8506 50.9488 8.0843
# 6 20.3057 7.3176 3.5551 -0.6596 8.0843 45.0896
#
#
#
# Elastic Compliance Matrix: (Units=1/GPa)
#
#
# Indices 1 2 3 4 5 6 
#
# 1 0.011819 -0.011341 -0.001930 0.005887 0.006182 -0.004352
# 2 -0.011341 0.037310 -0.002618 -0.022611 -0.008985 0.000539
# 3 -0.001930 -0.002618 0.012254 0.006137 0.001945 0.000069
# 4 0.005887 -0.022611 0.006137 0.082938 -0.000817 0.001894
# 5 0.006182 -0.008985 0.001945 -0.000817 0.025000 -0.005974
# 6 -0.004352 0.000539 0.000069 0.001894 -0.005974 0.025144
#
#
# Mechanical properties :
#
#
# Convention : Reuss Voigt Hill
#
# Bulk Modulus (GPa) = 33.77736 52.20018 42.98877
# Shear Modulus (GPa) = 21.17639 35.82840 28.50239
#
# Velocity S-wave (km/s) = 2.85354 3.71169 3.31054
# Velocity P-wave (km/s) = 4.88313 6.20007 5.58058
#
# Compressibility (1/GPa) = 0.02960563
#
# Stress axis : x y z
#
# Youngs Moduli (GPa) = 84.61038 26.80230 81.60573
#
# Poissons Ratio (x) = 0.30395 0.15748
# Poissons Ratio (y) = 0.95953 0.21368
# Poissons Ratio (z) = 0.16328 0.07018
#
# Static dielectric constant tensor:
#      x y z
#    x 2.066360 -0.000600 0.015930 
#    y -0.000600 2.069340 -0.021250 
#    z 0.015930 -0.021250 2.104050 
# 
# From -- ./inp_files/392690.got.cif
#   From: 2010.05.17/outbox.cif.g08.bks.cpg/sg2_197_cif.got.tgz:392690.got - 2010.06.03 11:33:40.
