data_PCOD9079121
_publ_section_title
;
Structure prediction by ZEFSAII (Michael W. Deem and Ramdas Pophale) SiO2 
 PCOD9079121
Probable space group: P -1
;
_chemical_formula_sum "Si O2"
_cell_formula_units_Z 15
_cell_length_a 8.036631
_cell_length_b 10.171718
_cell_length_c 14.242210
_cell_angle_alpha 40.706836
_cell_angle_beta 56.873228
_cell_angle_gamma 74.702787
_cell_volume 611.294944
_symmetry_space_group_name_H-M "P -1"
_symmetry_group_IT_number 2
_symmetry_cell_setting 'triclinic'
loop_
_space_group_symop_operation_xyz
x,y,z
-x,-y,-z
loop_
_atom_site_type_symbol
_atom_site_label
_atom_site_fract_x
_atom_site_fract_y
_atom_site_fract_z
Si Si1 0.066632 0.170941 0.296935
Si Si2 0.830168 0.686704 0.121873
Si Si3 0.230360 0.998244 0.785270
Si Si4 0.261108 0.243770 0.457557
Si Si5 0.494342 0.293044 0.173789
Si Si6 0.518400 0.303127 0.663262
Si Si7 0.000000 0.500000 0.000000
Si Si8 0.947484 0.407467 0.387257
O O1 0.287302 0.137238 0.276771
O O2 0.987020 0.267915 0.361816
O O3 0.100524 0.338547 0.113561
O O4 0.899650 0.971951 0.413955
O O5 0.590722 0.675269 0.216430
O O6 0.913932 0.611906 0.235103
O O7 0.987056 0.910948 0.925255
O O8 0.864949 0.526061 0.121268
O O9 0.303559 0.791461 0.846957
O O10 0.298027 0.173803 0.588463
O O11 0.362293 0.094402 0.782207
O O12 0.443465 0.297803 0.296712
O O13 0.144900 0.423720 0.383399
O O14 0.500000 0.500000 0.000000
O O15 0.500000 0.500000 0.500000
O O16 0.751914 0.306349 0.568585
#
# Coordination Sequence:
#
# PCOD9079121 Si02
#       8
#     2   2   2   2   2   2   1   2
#     4  10  19  35  61  87 124 162 200 248 317 367
#     4  10  21  39  65  87 123 166 207 256 316 375
#     4  12  22  39  62  94 126 161 215 263 307 375
#     4  11  21  36  60  94 123 161 208 264 308 368
#     4  11  23  38  59  96 134 167 202 256 322 379
#     4  10  22  42  64  86 122 172 215 252 316 381
#     4  10  18  36  62  94 118 152 206 262 304 364
#     4   9  19  38  62  84 123 168 204 248 317 375
#
# _framework density 24.538072
#
# number of rings (size 3 to 8) (size 9 to 14) (size 15 to 20)
#    0.000    1.600    1.333    6.400    0.000    0.000 
#    7.200    3.333    2.933    0.000    0.000    0.000 
#    0.000    0.000    0.000    0.000    0.000    0.000 
#
# Total GULP energy -83537.103167 kJ/mol
# GULP energy per Si atom -5569.140211 kJ/mol
# Density = 2.448222 g / cm^3
# Si number density = 24.538072 Si / 1000 Ang^3
#
#
#
# Elastic Constant Matrix: (Units=GPa)
#
#
# Indices 1 2 3 4 5 6 
#
# 1 76.1896 9.6683 32.2109 12.4317 6.5694 -11.8634
# 2 9.6683 55.9015 23.0141 31.6113 -8.4095 -9.0264
# 3 32.2109 23.0141 125.0917 23.3175 10.3725 -6.7406
# 4 12.4317 31.6113 23.3175 44.0820 -8.7360 -8.7277
# 5 6.5694 -8.4095 10.3725 -8.7360 51.4827 -0.2768
# 6 -11.8634 -9.0264 -6.7406 -8.7277 -0.2768 27.3091
#
#
#
# Elastic Compliance Matrix: (Units=1/GPa)
#
#
# Indices 1 2 3 4 5 6 
#
# 1 0.015832 0.000620 -0.003314 -0.002394 -0.001628 0.005483
# 2 0.000620 0.030891 -0.002062 -0.020139 0.001984 0.003555
# 3 -0.003314 -0.002062 0.010061 -0.003574 -0.002552 -0.000806
# 4 -0.002394 -0.020139 -0.003574 0.041590 0.004819 0.004762
# 5 -0.001628 0.001984 -0.002552 0.004819 0.021293 0.001075
# 6 0.005483 0.003555 -0.000806 0.004762 0.001075 0.041509
#
#
# Mechanical properties :
#
#
# Convention : Reuss Voigt Hill
#
# Bulk Modulus (GPa) = 21.15384 42.99662 32.07523
# Shear Modulus (GPa) = 26.81732 37.39406 32.10569
#
# Velocity S-wave (km/s) = 3.30947 3.90798 3.62111
# Velocity P-wave (km/s) = 4.82110 6.15821 5.53021
#
# Compressibility (1/GPa) = 0.04727275
#
# Stress axis : x y z
#
# Youngs Moduli (GPa) = 63.16183 32.37178 99.39110
#
# Poissons Ratio (x) = -0.02008 0.32941
# Poissons Ratio (y) = -0.03917 0.20493
# Poissons Ratio (z) = 0.20934 0.06675
#
# Static dielectric constant tensor:
#      x y z
#    x 2.117780 0.221200 -0.060420 
#    y 0.221200 2.297070 -0.090010 
#    z -0.060420 -0.090010 1.990540 
# 
# From -- ./inp_files/461145.got.cif
#   From: 2010.05.17/outbox.cif.g08.bks.cpg/sg2_231_cif.got.tgz:461145.got - 2010.06.03 11:33:40.
