data_PCOD9079319
_publ_section_title
;
Structure prediction by ZEFSAII (Michael W. Deem and Ramdas Pophale) SiO2 
 PCOD9079319
Probable space group: P -1
;
_chemical_formula_sum "Si O2"
_cell_formula_units_Z 16
_cell_length_a 21.018112
_cell_length_b 8.896350
_cell_length_c 14.318901
_cell_angle_alpha 40.033919
_cell_angle_beta 28.472447
_cell_angle_gamma 39.389012
_cell_volume 776.346771
_symmetry_space_group_name_H-M "P -1"
_symmetry_group_IT_number 2
_symmetry_cell_setting 'triclinic'
loop_
_space_group_symop_operation_xyz
x,y,z
-x,-y,-z
loop_
_atom_site_type_symbol
_atom_site_label
_atom_site_fract_x
_atom_site_fract_y
_atom_site_fract_z
Si Si1 0.801827 0.268421 0.865943
Si Si2 0.842734 0.701879 0.471852
Si Si3 0.160886 0.488196 0.107905
Si Si4 0.850701 0.052844 0.616818
Si Si5 0.303441 0.504812 0.715447
Si Si6 0.903365 0.128469 0.310923
Si Si7 0.561020 0.082023 0.616066
Si Si8 0.392071 0.767089 0.016154
O O1 0.833271 0.469963 0.657493
O O2 0.784083 0.391894 0.932265
O O3 0.675145 0.197106 0.017306
O O4 0.930327 0.012196 0.828283
O O5 0.989754 0.622835 0.262086
O O6 0.856217 0.909036 0.428996
O O7 0.703266 0.850047 0.520486
O O8 0.174955 0.206209 0.243929
O O9 0.244637 0.495096 0.901156
O O10 0.847713 0.181850 0.461558
O O11 0.732227 0.209576 0.763760
O O12 0.000000 0.000000 0.500000
O O13 0.162859 0.621831 0.780394
O O14 0.427002 0.253386 0.646436
O O15 0.380846 0.712009 0.514625
O O16 0.475512 0.949448 0.853165
O O17 0.500000 0.500000 0.000000
#
# Coordination Sequence:
#
# PCOD9079319 Si02
#       8
#     2   2   2   2   2   2   2   2
#     4  11  20  38  64 101 130 158 214 276 322 359
#     4  10  18  36  66  96 131 155 213 276 313 360
#     4  11  21  40  70  97 118 176 223 258 314 385
#     4  12  22  40  69  99 124 163 224 269 316 373
#     4  10  23  43  65  93 130 176 216 257 314 391
#     4  10  20  38  66  95 127 161 215 273 309 368
#     4  10  22  41  61  89 137 172 204 261 326 379
#     4  12  24  41  64  97 133 167 206 274 330 372
#
# _framework density 20.609345999999999
#
# number of rings (size 3 to 8) (size 9 to 14) (size 15 to 20)
#    0.000    1.250    6.250    0.750    0.000    4.500 
#    6.750    6.875    0.000    0.000    0.000    0.000 
#    0.000    0.000    0.000    0.000    0.000    0.000 
#
# Total GULP energy -89072.326597 kJ/mol
# GULP energy per Si atom -5567.020412 kJ/mol
# Density = 2.056244 g / cm^3
# Si number density = 20.609346 Si / 1000 Ang^3
#
#
#
# Elastic Constant Matrix: (Units=GPa)
#
#
# Indices 1 2 3 4 5 6 
#
# 1 74.3464 44.1511 33.7928 15.4416 10.7839 -15.4133
# 2 44.1511 112.1140 16.1952 28.6575 2.0702 -31.6571
# 3 33.7928 16.1952 64.1594 14.4348 -1.7633 0.7025
# 4 15.4416 28.6575 14.4348 28.6018 -2.8855 -3.0176
# 5 10.7839 2.0702 -1.7633 -2.8855 19.6216 6.3904
# 6 -15.4133 -31.6571 0.7025 -3.0176 6.3904 36.2261
#
#
#
# Elastic Compliance Matrix: (Units=1/GPa)
#
#
# Indices 1 2 3 4 5 6 
#
# 1 0.028937 -0.004176 -0.013697 -0.005399 -0.021483 0.012268
# 2 -0.004176 0.018772 0.000736 -0.016075 -0.006690 0.014454
# 3 -0.013697 0.000736 0.024202 -0.005253 0.011497 -0.008120
# 4 -0.005399 -0.016075 -0.005253 0.056843 0.017291 -0.014557
# 5 -0.021483 -0.006690 0.011497 0.017291 0.075898 -0.027159
# 6 0.012268 0.014454 -0.008120 -0.014557 -0.027159 0.049191
#
#
# Mechanical properties :
#
#
# Convention : Reuss Voigt Hill
#
# Bulk Modulus (GPa) = 26.57118 48.76643 37.66881
# Shear Modulus (GPa) = 16.62988 27.32196 21.97592
#
# Velocity S-wave (km/s) = 2.84370 3.64498 3.26898
# Velocity P-wave (km/s) = 4.86856 6.43647 5.70662
#
# Compressibility (1/GPa) = 0.03763476
#
# Stress axis : x y z
#
# Youngs Moduli (GPa) = 34.55732 53.27203 41.31959
#
# Poissons Ratio (x) = 0.22249 0.56597
# Poissons Ratio (y) = 0.14433 -0.03040
# Poissons Ratio (z) = 0.47334 -0.03920
#
# Static dielectric constant tensor:
#      x y z
#    x 1.748370 -0.039180 -0.034510 
#    y -0.039180 1.778990 0.001110 
#    z -0.034510 0.001110 1.739130 
# 
# From -- ./inp_files/187645.got.cif
#   From: 2010.05.17/outbox.cif.g08.bks.cpg/sg2_94_cif.got.tgz:187645.got - 2010.06.03 11:33:40.
