data_PCOD9079438
_publ_section_title
;
Structure prediction by ZEFSAII (Michael W. Deem and Ramdas Pophale) SiO2 
 PCOD9079438
Probable space group: P -1
;
_chemical_formula_sum "Si O2"
_cell_formula_units_Z 16
_cell_length_a 8.910647
_cell_length_b 10.133790
_cell_length_c 9.912586
_cell_angle_alpha 131.306304
_cell_angle_beta 85.237640
_cell_angle_gamma 86.003657
_cell_volume 660.733841
_symmetry_space_group_name_H-M "P -1"
_symmetry_group_IT_number 2
_symmetry_cell_setting 'triclinic'
loop_
_space_group_symop_operation_xyz
x,y,z
-x,-y,-z
loop_
_atom_site_type_symbol
_atom_site_label
_atom_site_fract_x
_atom_site_fract_y
_atom_site_fract_z
Si Si1 0.751221 0.477558 0.717841
Si Si2 0.707732 0.443242 0.996579
Si Si3 0.008293 0.301981 0.028677
Si Si4 0.846668 0.946615 0.538538
Si Si5 0.504514 0.211769 0.024512
Si Si6 0.308791 0.145440 0.757152
Si Si7 0.810329 0.036931 0.901444
Si Si8 0.004775 0.310929 0.441627
O O1 0.826308 0.324007 0.506348
O O2 0.101191 0.250461 0.531484
O O3 0.894781 0.569706 0.816833
O O4 0.625486 0.646291 0.795354
O O5 0.698713 0.399473 0.808837
O O6 0.600173 0.348750 0.034967
O O7 0.882470 0.403779 0.006234
O O8 0.665079 0.656719 0.151972
O O9 0.139046 0.168397 0.850543
O O10 0.906746 0.184246 0.040946
O O11 0.711559 0.958093 0.448367
O O12 0.798845 0.058771 0.752476
O O13 0.000000 0.000000 0.500000
O O14 0.426354 0.103774 0.843382
O O15 0.639284 0.077326 0.997160
O O16 0.907524 0.841139 0.765848
O O17 0.000000 0.500000 0.500000
#
# Coordination Sequence:
#
# PCOD9079438 Si02
#       8
#     2   2   2   2   2   2   2   2
#     4  10  18  30  55  74 105 144 181 214 269 318
#     4   9  16  27  48  80 114 135 175 218 269 316
#     4   9  15  28  50  77 103 137 181 219 257 315
#     4  10  19  32  56  80 106 142 182 217 274 310
#     4   9  19  31  49  84 114 135 173 222 273 320
#     4  10  15  27  47  79 109 141 170 221 265 324
#     4   9  20  33  53  74 116 133 176 219 269 314
#     4  10  22  37  54  79 107 142 184 224 263 316
#
# _framework density 24.215498
#
# number of rings (size 3 to 8) (size 9 to 14) (size 15 to 20)
#    0.750    2.000    1.250    4.500    1.750    0.500 
#    0.000    1.250    5.500    0.000    0.000   28.875 
#    0.000    0.000    0.000    0.000    0.000    0.000 
#
# Total GULP energy -89141.081099 kJ/mol
# GULP energy per Si atom -5571.317569 kJ/mol
# Density = 2.416038 g / cm^3
# Si number density = 24.215498 Si / 1000 Ang^3
#
#
#
# Elastic Constant Matrix: (Units=GPa)
#
#
# Indices 1 2 3 4 5 6 
#
# 1 129.2882 14.8452 40.4385 1.3752 -11.0357 -11.7788
# 2 14.8452 71.6372 17.6801 7.0811 2.4609 -11.8560
# 3 40.4385 17.6801 46.5178 16.9136 -25.8608 -18.6613
# 4 1.3752 7.0811 16.9136 32.1936 -8.2547 -5.4194
# 5 -11.0357 2.4609 -25.8608 -8.2547 36.5506 4.0908
# 6 -11.7788 -11.8560 -18.6613 -5.4194 4.0908 28.8128
#
#
#
# Elastic Compliance Matrix: (Units=1/GPa)
#
#
# Indices 1 2 3 4 5 6 
#
# 1 0.013108 0.001422 -0.022221 0.007393 -0.009553 -0.005702
# 2 0.001422 0.017389 -0.013603 0.000717 -0.010262 0.000518
# 3 -0.022221 -0.013603 0.103862 -0.029534 0.056659 0.038988
# 4 0.007393 0.000717 -0.029534 0.042872 -0.008295 -0.006570
# 5 -0.009553 -0.010262 0.056659 -0.008295 0.061332 0.018300
# 6 -0.005702 0.000518 0.038988 -0.006570 0.018300 0.054006
#
#
# Mechanical properties :
#
#
# Convention : Reuss Voigt Hill
#
# Bulk Modulus (GPa) = 15.25455 43.70787 29.48121
# Shear Modulus (GPa) = 13.04709 31.14336 22.09523
#
# Velocity S-wave (km/s) = 2.32371 3.59010 3.02394
# Velocity P-wave (km/s) = 3.67596 5.93918 4.93895
#
# Compressibility (1/GPa) = 0.06555422
#
# Stress axis : x y z
#
# Youngs Moduli (GPa) = 76.28740 57.50688 9.62817
#
# Poissons Ratio (x) = -0.08175 0.21395
# Poissons Ratio (y) = -0.10845 0.13097
# Poissons Ratio (z) = 1.69522 0.78225
#
# Static dielectric constant tensor:
#      x y z
#    x 1.958640 -0.017160 -0.060700 
#    y -0.017160 2.058030 -0.006860 
#    z -0.060700 -0.006860 2.076090 
# 
# From -- ./inp_files/208177.got.cif
#   From: 2010.05.17/outbox.cif.g08.bks.cpg/sg2_105_cif.got.tgz:208177.got - 2010.06.03 11:33:40.
