data_PCOD9079709
_publ_section_title
;
Structure prediction by ZEFSAII (Michael W. Deem and Ramdas Pophale) SiO2 
 PCOD9079709
Probable space group: P -1
;
_chemical_formula_sum "Si O2"
_cell_formula_units_Z 16
_cell_length_a 11.173151
_cell_length_b 8.701756
_cell_length_c 10.554055
_cell_angle_alpha 109.446417
_cell_angle_beta 53.877675
_cell_angle_gamma 121.107700
_cell_volume 709.076539
_symmetry_space_group_name_H-M "P -1"
_symmetry_group_IT_number 2
_symmetry_cell_setting 'triclinic'
loop_
_space_group_symop_operation_xyz
x,y,z
-x,-y,-z
loop_
_atom_site_type_symbol
_atom_site_label
_atom_site_fract_x
_atom_site_fract_y
_atom_site_fract_z
Si Si1 0.876781 0.981148 0.860351
Si Si2 0.469896 0.321168 0.048273
Si Si3 0.283135 0.690865 0.283055
Si Si4 0.059358 0.847718 0.391918
Si Si5 0.853454 0.674285 0.106352
Si Si6 0.795078 0.483145 0.351828
Si Si7 0.487668 0.582969 0.320616
Si Si8 0.971449 0.670626 0.757266
O O1 0.693319 0.833601 0.948951
O O2 0.973823 0.854470 0.754420
O O3 0.864677 0.090562 0.776536
O O4 0.986675 0.138432 0.928596
O O5 0.457843 0.391275 0.217082
O O6 0.500000 0.500000 0.000000
O O7 0.616706 0.271441 0.901698
O O8 0.192532 0.820632 0.387917
O O9 0.405867 0.683721 0.310708
O O10 0.137662 0.490931 0.310925
O O11 0.905069 0.659941 0.413275
O O12 0.000000 0.000000 0.500000
O O13 0.840287 0.537731 0.191745
O O14 0.682468 0.690749 0.233592
O O15 0.870466 0.618527 0.938483
O O16 0.610587 0.438686 0.493406
O O17 0.858219 0.336526 0.317840
#
# Coordination Sequence:
#
# PCOD9079709 Si02
#       8
#     2   2   2   2   2   2   2   2
#     4  11  22  38  63  90 126 164 204 257 316 360
#     4  10  18  37  63  95 120 156 208 257 301 367
#     4  10  21  37  65  97 117 163 214 252 307 372
#     4  10  23  38  59  92 134 158 200 266 317 358
#     4  11  23  41  62  90 132 160 206 261 316 356
#     4  10  24  38  63  92 120 170 214 251 304 377
#     4  11  20  39  69  91 124 162 212 258 302 372
#     4  11  20  39  65  90 120 164 216 252 302 382
#
# _framework density 22.564558000000002
#
# number of rings (size 3 to 8) (size 9 to 14) (size 15 to 20)
#    0.000    1.500    3.750    2.625    1.750    1.500 
#    0.000    0.625   11.000    0.000    0.000    0.000 
#    0.000    0.000    0.000    0.000    0.000    0.000 
#
# Total GULP energy -89262.633125 kJ/mol
# GULP energy per Si atom -5578.914570 kJ/mol
# Density = 2.251320 g / cm^3
# Si number density = 22.564558 Si / 1000 Ang^3
#
#
#
# Elastic Constant Matrix: (Units=GPa)
#
#
# Indices 1 2 3 4 5 6 
#
# 1 83.9152 21.7536 -7.2677 2.9549 -8.0469 -6.1650
# 2 21.7536 60.6382 4.8337 -1.4339 0.3181 9.2233
# 3 -7.2677 4.8337 83.3114 -9.5440 -10.2932 0.2694
# 4 2.9549 -1.4339 -9.5440 21.1425 -7.3537 -16.3954
# 5 -8.0469 0.3181 -10.2932 -7.3537 28.0794 -3.5246
# 6 -6.1650 9.2233 0.2694 -16.3954 -3.5246 40.0071
#
#
#
# Elastic Compliance Matrix: (Units=1/GPa)
#
#
# Indices 1 2 3 4 5 6 
#
# 1 0.015212 -0.006868 0.003840 0.008781 0.009187 0.008309
# 2 -0.006868 0.020697 -0.003914 -0.010431 -0.007720 -0.010758
# 3 0.003840 -0.003914 0.016465 0.019619 0.013652 0.010626
# 4 0.008781 -0.010431 0.019619 0.111488 0.045720 0.053343
# 5 0.009187 -0.007720 0.013652 0.045720 0.058702 0.027012
# 6 0.008309 -0.010758 0.010626 0.053343 0.027012 0.052925
#
#
# Mechanical properties :
#
#
# Convention : Reuss Voigt Hill
#
# Bulk Modulus (GPa) = 25.98060 29.61157 27.79608
# Shear Modulus (GPa) = 16.54514 31.74883 24.14699
#
# Velocity S-wave (km/s) = 2.71077 3.75510 3.27483
# Velocity P-wave (km/s) = 4.61916 5.65266 5.16184
#
# Compressibility (1/GPa) = 0.03849026
#
# Stress axis : x y z
#
# Youngs Moduli (GPa) = 65.73777 48.31560 60.73444
#
# Poissons Ratio (x) = 0.33182 -0.23320
# Poissons Ratio (y) = 0.45147 0.23771
# Poissons Ratio (z) = -0.25241 0.18910
#
# Static dielectric constant tensor:
#      x y z
#    x 1.919060 0.030380 0.044540 
#    y 0.030380 1.828430 0.007720 
#    z 0.044540 0.007720 1.968900 
# 
# From -- ./inp_files/216529.got.cif
#   From: 2010.05.17/outbox.cif.g08.bks.cpg/sg2_109_cif.got.tgz:216529.got - 2010.06.03 11:33:40.
