data_PCOD9079903
_publ_section_title
;
Structure prediction by ZEFSAII (Michael W. Deem and Ramdas Pophale) SiO2 
 PCOD9079903
Probable space group: P -1
;
_chemical_formula_sum "Si O2"
_cell_formula_units_Z 14
_cell_length_a 8.097356
_cell_length_b 6.909986
_cell_length_c 19.354318
_cell_angle_alpha 53.114587
_cell_angle_beta 134.747917
_cell_angle_gamma 118.778602
_cell_volume 611.845484
_symmetry_space_group_name_H-M "P -1"
_symmetry_group_IT_number 2
_symmetry_cell_setting 'triclinic'
loop_
_space_group_symop_operation_xyz
x,y,z
-x,-y,-z
loop_
_atom_site_type_symbol
_atom_site_label
_atom_site_fract_x
_atom_site_fract_y
_atom_site_fract_z
Si Si1 0.729142 0.865204 0.605044
Si Si2 0.973866 0.242430 0.398313
Si Si3 0.262734 0.129412 0.902564
Si Si4 0.363009 0.550378 0.221403
Si Si5 0.031443 0.264378 0.011449
Si Si6 0.141311 0.256532 0.684079
Si Si7 0.540343 0.360451 0.166822
O O1 0.798137 0.710968 0.592455
O O2 0.701808 0.682151 0.700375
O O3 0.500000 0.000000 0.500000
O O4 0.940697 0.078019 0.629048
O O5 0.939497 0.473991 0.386456
O O6 0.747046 0.214317 0.286824
O O7 0.000000 0.000000 0.500000
O O8 0.173477 0.148084 0.793766
O O9 0.332846 0.407806 0.885845
O O10 0.500000 0.000000 0.000000
O O11 0.078131 0.967107 0.928480
O O12 0.601332 0.707032 0.282524
O O13 0.442101 0.461730 0.188232
O O14 0.138500 0.693564 0.111544
O O15 0.306693 0.252642 0.082404
O O16 0.000000 0.500000 0.000000
#
# Coordination Sequence:
#
# PCOD9079903 Si02
#       7
#     2   2   2   2   2   2   2
#     4  12  25  41  65  92 119 162 214 257 310 368
#     4  10  23  44  64  88 126 161 209 260 309 366
#     4  10  15  29  57  92 119 159 202 236 297 365
#     4   9  19  34  58  92 121 157 206 246 303 366
#     4  10  15  27  55  87 120 157 200 243 293 365
#     4  10  22  41  65  91 126 164 200 254 312 360
#     4   9  19  33  57  87 122 162 200 247 302 359
#
# _framework density 22.881592999999999
#
# number of rings (size 3 to 8) (size 9 to 14) (size 15 to 20)
#    0.000    2.286    4.286    3.429    0.000    2.857 
#    0.000    7.857    0.000    4.286    0.000    0.000 
#    0.000    0.000    0.000    0.000    0.000    0.000 
#
# Total GULP energy -78230.268589 kJ/mol
# GULP energy per Si atom -5587.876328 kJ/mol
# Density = 2.282951 g / cm^3
# Si number density = 22.881593 Si / 1000 Ang^3
#
#
#
# Elastic Constant Matrix: (Units=GPa)
#
#
# Indices 1 2 3 4 5 6 
#
# 1 68.0446 37.6326 35.6479 -3.7114 12.4533 18.4133
# 2 37.6326 140.8896 61.7435 -5.1508 7.7491 32.7659
# 3 35.6479 61.7435 157.2137 -22.7805 20.5138 28.2479
# 4 -3.7114 -5.1508 -22.7805 36.7963 18.5893 1.2192
# 5 12.4533 7.7491 20.5138 18.5893 34.0815 0.0613
# 6 18.4133 32.7659 28.2479 1.2192 0.0613 38.3999
#
#
#
# Elastic Compliance Matrix: (Units=1/GPa)
#
#
# Indices 1 2 3 4 5 6 
#
# 1 0.020854 -0.003007 0.000704 0.008421 -0.011938 -0.008200
# 2 -0.003007 0.010205 -0.002518 -0.000563 0.000611 -0.005397
# 3 0.000704 -0.002518 0.013353 0.016787 -0.016863 -0.008518
# 4 0.008421 -0.000563 0.016787 0.062818 -0.047284 -0.017825
# 5 -0.011938 0.000611 -0.016863 -0.047284 0.069471 0.018999
# 6 -0.008200 -0.005397 -0.008518 -0.017825 0.018999 0.041381
#
#
# Mechanical properties :
#
#
# Convention : Reuss Voigt Hill
#
# Bulk Modulus (GPa) = 28.76036 70.68844 49.72440
# Shear Modulus (GPa) = 20.89299 37.26382 29.07840
#
# Velocity S-wave (km/s) = 3.02502 4.03991 3.56872
# Velocity P-wave (km/s) = 4.97971 7.26095 6.22571
#
# Compressibility (1/GPa) = 0.03477008
#
# Stress axis : x y z
#
# Youngs Moduli (GPa) = 47.95297 97.98811 74.88771
#
# Poissons Ratio (x) = 0.29466 -0.05270
# Poissons Ratio (y) = 0.14420 0.18854
# Poissons Ratio (z) = -0.03374 0.24670
#
# Static dielectric constant tensor:
#      x y z
#    x 1.843420 0.010350 -0.026060 
#    y 0.010350 1.841320 0.095120 
#    z -0.026060 0.095120 1.823280 
# 
# From -- ./inp_files/606139.got.cif
#   From: 2010.05.17/outbox.cif.g08.bks.cpg/sg2_304_cif.got.tgz:606139.got - 2010.06.03 11:33:40.
