data_PCOD9079656
_publ_section_title
;
Structure prediction by ZEFSAII (Michael W. Deem and Ramdas Pophale) SiO2 
 PCOD9079656
Probable space group: P -1
;
_chemical_formula_sum "Si O2"
_cell_formula_units_Z 16
_cell_length_a 9.335533
_cell_length_b 6.706628
_cell_length_c 12.290499
_cell_angle_alpha 78.744107
_cell_angle_beta 53.326011
_cell_angle_gamma 96.808128
_cell_volume 577.636611
_symmetry_space_group_name_H-M "P -1"
_symmetry_group_IT_number 2
_symmetry_cell_setting 'triclinic'
loop_
_space_group_symop_operation_xyz
x,y,z
-x,-y,-z
loop_
_atom_site_type_symbol
_atom_site_label
_atom_site_fract_x
_atom_site_fract_y
_atom_site_fract_z
Si Si1 0.664786 0.586462 0.326565
Si Si2 0.007848 0.757312 0.036001
Si Si3 0.117786 0.931583 0.635341
Si Si4 0.666438 0.634394 0.608015
Si Si5 0.740687 0.194792 0.613509
Si Si6 0.358003 0.931156 0.732251
Si Si7 0.350906 0.623360 0.161602
Si Si8 0.771466 0.668537 0.943476
O O1 0.500000 0.500000 0.500000
O O2 0.555884 0.409771 0.306007
O O3 0.656742 0.823907 0.280597
O O4 0.889469 0.632715 0.206862
O O5 0.880353 0.644935 0.004641
O O6 0.221512 0.800188 0.900192
O O7 0.000000 0.000000 0.000000
O O8 0.095603 0.822152 0.537863
O O9 0.923330 0.859308 0.792690
O O10 0.201344 0.179068 0.542408
O O11 0.270368 0.875567 0.654402
O O12 0.714081 0.420652 0.569439
O O13 0.686327 0.599318 0.730239
O O14 0.574728 0.992945 0.665511
O O15 0.735654 0.223456 0.742858
O O16 0.275181 0.541748 0.087668
O O17 0.576244 0.717638 0.048254
#
# Coordination Sequence:
#
# PCOD9079656 Si02
#       8
#     2   2   2   2   2   2   2   2
#     4  10  15  27  49  79 106 139 176 218 273 320
#     4   9  16  28  49  79 108 137 183 220 266 331
#     4  11  20  32  59  82 107 143 188 226 275 319
#     4   9  19  34  53  79 109 145 175 229 269 318
#     4   9  20  36  54  79 112 145 181 229 272 324
#     4   9  17  29  50  78 106 141 181 223 270 326
#     4   9  19  37  56  75 111 147 185 220 272 323
#     4  10  19  33  59  81 102 153 183 219 275 326
#
# _framework density 27.699076999999999
#
# number of rings (size 3 to 8) (size 9 to 14) (size 15 to 20)
#    0.750    1.750    2.500    1.125    0.000    1.000 
#    0.000    0.000    2.750    2.250    0.000    0.000 
#    0.000    0.000    0.000    0.000    0.000    0.000 
#
# Total GULP energy -89192.153453 kJ/mol
# GULP energy per Si atom -5574.509591 kJ/mol
# Density = 2.763603 g / cm^3
# Si number density = 27.699077 Si / 1000 Ang^3
#
#
#
# Elastic Constant Matrix: (Units=GPa)
#
#
# Indices 1 2 3 4 5 6 
#
# 1 78.8762 13.0512 40.9116 -6.6632 5.8406 10.9489
# 2 13.0512 65.9858 46.4646 -18.2014 16.3806 15.2742
# 3 40.9116 46.4646 255.9558 -32.7380 -6.1032 0.3459
# 4 -6.6632 -18.2014 -32.7380 51.6306 11.8586 11.3598
# 5 5.8406 16.3806 -6.1032 11.8586 38.6722 -0.6728
# 6 10.9489 15.2742 0.3459 11.3598 -0.6728 30.4411
#
#
#
# Elastic Compliance Matrix: (Units=1/GPa)
#
#
# Indices 1 2 3 4 5 6 
#
# 1 0.015697 0.004176 -0.002713 0.005420 -0.006402 -0.009874
# 2 0.004176 0.036578 -0.005020 0.022094 -0.024188 -0.028578
# 3 -0.002713 -0.005020 0.005281 -0.000392 0.003553 0.003659
# 4 0.005420 0.022094 -0.000392 0.038998 -0.022686 -0.028085
# 5 -0.006402 -0.024188 0.003553 -0.022686 0.045003 0.023859
# 6 -0.009874 -0.028578 0.003659 -0.028085 0.023859 0.061707
#
#
# Mechanical properties :
#
#
# Convention : Reuss Voigt Hill
#
# Bulk Modulus (GPa) = 19.82475 66.85250 43.33862
# Shear Modulus (GPa) = 22.00776 44.17481 33.09129
#
# Velocity S-wave (km/s) = 2.82180 3.99784 3.46015
# Velocity P-wave (km/s) = 4.21776 6.74522 5.62528
#
# Compressibility (1/GPa) = 0.05044200
#
# Stress axis : x y z
#
# Youngs Moduli (GPa) = 63.70661 27.33916 189.34216
#
# Poissons Ratio (x) = -0.11416 0.51369
# Poissons Ratio (y) = -0.26602 0.95045
# Poissons Ratio (z) = 0.17284 0.13724
#
# Static dielectric constant tensor:
#      x y z
#    x 2.349270 -0.035380 0.021890 
#    y -0.035380 2.321840 0.134060 
#    z 0.021890 0.134060 2.194430 
# 
# From -- ./inp_files/515637.got.cif
#   From: 2010.05.17/outbox.cif.g08.bks.cpg/sg2_258_cif.got.tgz:515637.got - 2010.06.03 11:33:40.
