data_PCOD9079726
_publ_section_title
;
Structure prediction by ZEFSAII (Michael W. Deem and Ramdas Pophale) SiO2 
 PCOD9079726
Probable space group: P -1
;
_chemical_formula_sum "Si O2"
_cell_formula_units_Z 16
_cell_length_a 19.072283
_cell_length_b 10.514258
_cell_length_c 17.134303
_cell_angle_alpha 32.395823
_cell_angle_beta 28.590574
_cell_angle_gamma 20.605460
_cell_volume 573.491377
_symmetry_space_group_name_H-M "P -1"
_symmetry_group_IT_number 2
_symmetry_cell_setting 'triclinic'
loop_
_space_group_symop_operation_xyz
x,y,z
-x,-y,-z
loop_
_atom_site_type_symbol
_atom_site_label
_atom_site_fract_x
_atom_site_fract_y
_atom_site_fract_z
Si Si1 0.180786 0.280203 0.870882
Si Si2 0.410759 0.850770 0.369966
Si Si3 0.147531 0.233249 0.280989
Si Si4 0.093314 0.817409 0.103221
Si Si5 0.489117 0.374754 0.256032
Si Si6 0.764516 0.590574 0.033343
Si Si7 0.685051 0.563992 0.757534
Si Si8 0.728400 0.561571 0.430922
O O1 0.227843 0.478718 0.683353
O O2 0.412886 0.864971 0.880864
O O3 0.000000 0.500000 0.000000
O O4 0.021037 0.353271 0.925390
O O5 0.500000 0.500000 0.500000
O O6 0.600201 0.761884 0.178732
O O7 0.240147 0.003270 0.387731
O O8 0.308650 0.156903 0.376278
O O9 0.077315 0.577020 0.205673
O O10 0.949031 0.329706 0.387107
O O11 0.301921 0.129743 0.110300
O O12 0.143359 0.739076 0.188077
O O13 0.324406 0.660082 0.928946
O O14 0.847304 0.229954 0.112828
O O15 0.296658 0.584790 0.267699
O O16 0.399454 0.489256 0.372758
O O17 0.591697 0.980523 0.353550
#
# Coordination Sequence:
#
# PCOD9079726 Si02
#       8
#     2   2   2   2   2   2   2   2
#     4  10  18  37  64  84 123 166 208 249 307 373
#     4  11  25  42  59  90 124 168 215 257 317 370
#     4  10  22  42  62  88 128 164 211 260 309 381
#     4  11  21  36  65  98 120 162 217 254 312 378
#     4  10  19  36  61  96 129 153 205 262 313 370
#     4  11  21  38  65  89 122 167 207 258 315 374
#     4  10  21  38  61  92 125 161 206 262 309 366
#     4   9  20  36  61  88 127 166 199 254 322 353
#
# _framework density 27.899286
#
# number of rings (size 3 to 8) (size 9 to 14) (size 15 to 20)
#    0.000    1.750    5.000    1.125    0.000    2.000 
#    4.500    2.500    0.000    4.500    0.000    0.000 
#    0.000    0.000    0.000    0.000    0.000    0.000 
#
# Total GULP energy -89321.090838 kJ/mol
# GULP energy per Si atom -5582.568177 kJ/mol
# Density = 2.783579 g / cm^3
# Si number density = 27.899286 Si / 1000 Ang^3
#
#
#
# Elastic Constant Matrix: (Units=GPa)
#
#
# Indices 1 2 3 4 5 6 
#
# 1 106.9790 6.3696 24.1222 -6.8775 8.5750 -13.1452
# 2 6.3696 40.5825 20.0920 -17.6578 -0.3482 -13.5222
# 3 24.1222 20.0920 128.4475 -14.8484 15.4055 7.1778
# 4 -6.8775 -17.6578 -14.8484 49.4105 -0.5683 5.2230
# 5 8.5750 -0.3482 15.4055 -0.5683 46.2487 1.9334
# 6 -13.1452 -13.5222 7.1778 5.2230 1.9334 50.3071
#
#
#
# Elastic Compliance Matrix: (Units=1/GPa)
#
#
# Indices 1 2 3 4 5 6 
#
# 1 0.010293 0.000721 -0.001970 0.000751 -0.001369 0.003139
# 2 0.000721 0.034386 -0.005059 0.009928 0.001554 0.009062
# 3 -0.001970 -0.005059 0.009582 0.001110 -0.002715 -0.003253
# 4 0.000751 0.009928 0.001110 0.024202 -0.000145 0.000199
# 5 -0.001369 0.001554 -0.002715 -0.000145 0.022808 -0.000414
# 6 0.003139 0.009062 -0.003253 0.000199 -0.000414 0.023593
#
#
# Mechanical properties :
#
#
# Convention : Reuss Voigt Hill
#
# Bulk Modulus (GPa) = 24.01336 41.90851 32.96093
# Shear Modulus (GPa) = 33.03346 44.22160 38.62753
#
# Velocity S-wave (km/s) = 3.44470 3.98558 3.72497
# Velocity P-wave (km/s) = 4.94440 6.01945 5.50822
#
# Compressibility (1/GPa) = 0.04164349
#
# Stress axis : x y z
#
# Youngs Moduli (GPa) = 97.15695 29.08197 104.35867
#
# Poissons Ratio (x) = -0.02096 0.20560
# Poissons Ratio (y) = -0.07002 0.52796
# Poissons Ratio (z) = 0.19141 0.14713
#
# Static dielectric constant tensor:
#      x y z
#    x 2.474230 0.140620 0.009590 
#    y 0.140620 2.264930 -0.079810 
#    z 0.009590 -0.079810 2.344980 
# 
# From -- ./inp_files/577916.got.cif
#   From: 2010.05.17/outbox.cif.g08.bks.cpg/sg2_289_cif.got.tgz:577916.got - 2010.06.03 11:33:40.
