data_PCOD9079834
_publ_section_title
;
Structure prediction by ZEFSAII (Michael W. Deem and Ramdas Pophale) SiO2 
 PCOD9079834
Probable space group: P -1
;
_chemical_formula_sum "Si O2"
_cell_formula_units_Z 14
_cell_length_a 8.448962
_cell_length_b 19.178187
_cell_length_c 9.672795
_cell_angle_alpha 118.724715
_cell_angle_beta 148.506084
_cell_angle_gamma 59.796786
_cell_volume 702.993298
_symmetry_space_group_name_H-M "P -1"
_symmetry_group_IT_number 2
_symmetry_cell_setting 'triclinic'
loop_
_space_group_symop_operation_xyz
x,y,z
-x,-y,-z
loop_
_atom_site_type_symbol
_atom_site_label
_atom_site_fract_x
_atom_site_fract_y
_atom_site_fract_z
Si Si1 0.179967 0.724119 0.311748
Si Si2 0.667448 0.054682 0.773236
Si Si3 0.112797 0.308609 0.212188
Si Si4 0.152603 0.181350 0.608442
Si Si5 0.842230 0.447418 0.727327
Si Si6 0.235446 0.782075 0.930117
Si Si7 0.138414 0.506560 0.758871
O O1 0.527382 0.717318 0.510214
O O2 0.175125 0.639645 0.306661
O O3 0.077226 0.795233 0.413858
O O4 0.955211 0.731504 0.020660
O O5 0.390483 0.093793 0.711445
O O6 0.500000 0.000000 0.500000
O O7 0.760608 0.141359 0.890093
O O8 0.000000 0.000000 0.000000
O O9 0.907423 0.283273 0.157517
O O10 0.011688 0.404935 0.209221
O O11 0.967035 0.190095 0.332725
O O12 0.400694 0.241212 0.857055
O O13 0.500000 0.500000 0.500000
O O14 0.037208 0.442629 0.726531
O O15 0.000000 0.500000 0.000000
O O16 0.000000 0.500000 0.500000
O O17 0.500000 0.500000 0.000000
#
# Coordination Sequence:
#
# PCOD9079834 Si02
#       7
#     2   2   2   2   2   2   2
#     4  12  24  41  63  86 127 164 204 255 301 373
#     4  10  18  37  66  94 123 151 200 248 296 357
#     4  12  25  42  59  89 127 163 198 254 321 352
#     4  10  22  38  63  97 114 162 204 248 293 358
#     4  12  23  44  60  86 118 165 214 246 313 359
#     4  10  22  38  62  94 120 154 207 242 305 354
#     4  12  26  40  61  88 119 159 212 264 303 354
#
# _framework density 19.914840000000002
#
# number of rings (size 3 to 8) (size 9 to 14) (size 15 to 20)
#    0.857    0.000    4.286    3.429    4.000    0.000 
#    0.000    0.000    0.000    5.143    0.000    0.000 
#    0.000    0.000    0.000    0.000    0.000    0.000 
#
# Total GULP energy -78028.392732 kJ/mol
# GULP energy per Si atom -5573.456624 kJ/mol
# Density = 1.986951 g / cm^3
# Si number density = 19.914840 Si / 1000 Ang^3
#
#
#
# Elastic Constant Matrix: (Units=GPa)
#
#
# Indices 1 2 3 4 5 6 
#
# 1 59.1278 -13.5169 16.1732 0.2780 6.3362 -8.1001
# 2 -13.5169 37.3434 2.4397 -2.1872 1.9563 -23.3314
# 3 16.1732 2.4397 135.4528 -2.8462 7.6003 -5.1312
# 4 0.2780 -2.1872 -2.8462 19.4480 -4.6700 0.6198
# 5 6.3362 1.9563 7.6003 -4.6700 40.4788 -1.1353
# 6 -8.1001 -23.3314 -5.1312 0.6198 -1.1353 31.2679
#
#
#
# Elastic Compliance Matrix: (Units=1/GPa)
#
#
# Indices 1 2 3 4 5 6 
#
# 1 0.028200 0.027776 -0.002569 0.000400 -0.004458 0.027439
# 2 0.027776 0.078002 -0.001864 0.004740 -0.005403 0.064803
# 3 -0.002569 -0.001864 0.007758 0.000773 -0.000899 -0.000831
# 4 0.000400 0.004740 0.000773 0.053360 0.005801 0.002920
# 5 -0.004458 -0.005403 -0.000899 0.005801 0.026375 -0.004491
# 6 0.027439 0.064803 -0.000831 0.002920 -0.004491 0.087087
#
#
# Mechanical properties :
#
#
# Convention : Reuss Voigt Hill
#
# Bulk Modulus (GPa) = 6.22490 26.90178 16.56334
# Shear Modulus (GPa) = 17.38252 33.36079 25.37165
#
# Velocity S-wave (km/s) = 2.95760 4.09733 3.57320
# Velocity P-wave (km/s) = 3.84652 5.99348 5.03575
#
# Compressibility (1/GPa) = 0.16064512
#
# Stress axis : x y z
#
# Youngs Moduli (GPa) = 35.46120 12.82017 128.89625
#
# Poissons Ratio (x) = -0.35609 0.33118
# Poissons Ratio (y) = -0.98496 0.24023
# Poissons Ratio (z) = 0.09111 0.02389
#
# Static dielectric constant tensor:
#      x y z
#    x 1.706260 -0.040740 -0.042420 
#    y -0.040740 1.507820 -0.184200 
#    z -0.042420 -0.184200 1.534210 
# 
# From -- ./inp_files/223927.got.cif
#   From: 2010.05.17/outbox.cif.g08.bks.cpg/sg2_112_cif.got.tgz:223927.got - 2010.06.03 11:33:40.
