data_PCOD9079258
_publ_section_title
;
Structure prediction by ZEFSAII (Michael W. Deem and Ramdas Pophale) SiO2 
 PCOD9079258
Probable space group: P -1
;
_chemical_formula_sum "Si O2"
_cell_formula_units_Z 14
_cell_length_a 13.820493
_cell_length_b 25.998157
_cell_length_c 15.532886
_cell_angle_alpha 154.041310
_cell_angle_beta 35.014455
_cell_angle_gamma 161.044214
_cell_volume 774.049192
_symmetry_space_group_name_H-M "P -1"
_symmetry_group_IT_number 2
_symmetry_cell_setting 'triclinic'
loop_
_space_group_symop_operation_xyz
x,y,z
-x,-y,-z
loop_
_atom_site_type_symbol
_atom_site_label
_atom_site_fract_x
_atom_site_fract_y
_atom_site_fract_z
Si Si1 0.795406 0.337943 0.985089
Si Si2 0.712051 0.772607 0.530278
Si Si3 0.632235 0.089697 0.442550
Si Si4 0.856611 0.634274 0.099308
Si Si5 0.345669 0.516130 0.585230
Si Si6 0.435658 0.213321 0.678354
Si Si7 0.286569 0.076943 0.395186
O O1 0.660558 0.371393 0.182356
O O2 0.000000 0.500000 0.000000
O O3 0.000176 0.380991 0.966172
O O4 0.534895 0.102321 0.783713
O O5 0.716390 0.654892 0.293519
O O6 0.523508 0.644180 0.560335
O O7 0.584117 0.803534 0.609709
O O8 0.067854 0.006355 0.644981
O O9 0.551356 0.170540 0.585357
O O10 0.993318 0.282481 0.471517
O O11 0.500000 0.000000 0.500000
O O12 0.610581 0.430342 0.909880
O O13 0.130821 0.858895 0.186106
O O14 0.500000 0.500000 0.500000
O O15 0.486682 0.214756 0.541966
O O16 0.000000 0.000000 0.500000
#
# Coordination Sequence:
#
# PCOD9079258 Si02
#       7
#     2   2   2   2   2   2   2
#     4  12  22  39  64  87 112 157 203 239 291 361
#     4  10  22  38  58  94 127 148 193 256 296 336
#     4  12  22  39  64  87 112 157 203 239 291 361
#     4  10  18  36  65  87 115 161 205 235 284 354
#     4  12  26  40  60  90 126 147 190 256 306 342
#     4  10  18  36  65  87 115 161 205 235 284 354
#     4   8  18  34  58  90 123 151 200 246 285 342
#
# _framework density 18.086706
#
# number of rings (size 3 to 8) (size 9 to 14) (size 15 to 20)
#    0.000    1.714    5.714    1.714    0.000    6.857 
#    0.000    1.429    0.000    0.000    0.000    0.000 
#    0.000    0.000    0.000    0.000    0.000    0.000 
#
# Total GULP energy -78113.902366 kJ/mol
# GULP energy per Si atom -5579.564455 kJ/mol
# Density = 1.804554 g / cm^3
# Si number density = 18.086706 Si / 1000 Ang^3
#
#
#
# Elastic Constant Matrix: (Units=GPa)
#
#
# Indices 1 2 3 4 5 6 
#
# 1 165.1664 62.4734 45.2716 4.5043 -7.1152 -21.9328
# 2 62.4734 89.9842 51.7083 9.0194 12.5118 -17.7870
# 3 45.2716 51.7083 167.6109 22.9844 12.0073 -5.9920
# 4 4.5043 9.0194 22.9844 27.2555 12.3021 6.5780
# 5 -7.1152 12.5118 12.0073 12.3021 30.7858 4.2318
# 6 -21.9328 -17.7870 -5.9920 6.5780 4.2318 35.2415
#
#
#
# Elastic Compliance Matrix: (Units=1/GPa)
#
#
# Indices 1 2 3 4 5 6 
#
# 1 0.009087 -0.006053 -0.000627 -0.001873 0.005249 0.002213
# 2 -0.006053 0.020018 -0.003632 -0.000148 -0.008997 0.006827
# 3 -0.000627 -0.003632 0.008009 -0.005692 0.000462 0.000145
# 4 -0.001873 -0.000148 -0.005692 0.052190 -0.017657 -0.009830
# 5 0.005249 -0.008997 0.000462 -0.017657 0.044677 -0.003265
# 6 0.002213 0.006827 0.000145 -0.009830 -0.003265 0.035450
#
#
# Mechanical properties :
#
#
# Convention : Reuss Voigt Hill
#
# Bulk Modulus (GPa) = 60.64466 82.40758 71.52612
# Shear Modulus (GPa) = 25.56880 36.21044 30.88962
#
# Velocity S-wave (km/s) = 3.76397 4.47928 4.13711
# Velocity P-wave (km/s) = 7.24519 8.50960 7.90272
#
# Compressibility (1/GPa) = 0.01648950
#
# Stress axis : x y z
#
# Youngs Moduli (GPa) = 110.04655 49.95546 124.86660
#
# Poissons Ratio (x) = 0.30239 0.07829
# Poissons Ratio (y) = 0.66614 0.45347
# Poissons Ratio (z) = 0.06900 0.18142
#
# Static dielectric constant tensor:
#      x y z
#    x 1.650960 -0.022180 -0.009820 
#    y -0.022180 1.603080 -0.004920 
#    z -0.009820 -0.004920 1.577850 
# 
# From -- ./inp_files/227416.got.cif
#   From: 2010.05.17/outbox.cif.g08.bks.cpg/sg2_114_cif.got.tgz:227416.got - 2010.06.03 11:33:40.
