data_PCOD9079276
_publ_section_title
;
Structure prediction by ZEFSAII (Michael W. Deem and Ramdas Pophale) SiO2 
 PCOD9079276
Probable space group: P -1
;
_chemical_formula_sum "Si O2"
_cell_formula_units_Z 16
_cell_length_a 20.352787
_cell_length_b 13.981963
_cell_length_c 6.801778
_cell_angle_alpha 74.421919
_cell_angle_beta 81.580871
_cell_angle_gamma 23.366026
_cell_volume 713.622020
_symmetry_space_group_name_H-M "P -1"
_symmetry_group_IT_number 2
_symmetry_cell_setting 'triclinic'
loop_
_space_group_symop_operation_xyz
x,y,z
-x,-y,-z
loop_
_atom_site_type_symbol
_atom_site_label
_atom_site_fract_x
_atom_site_fract_y
_atom_site_fract_z
Si Si1 0.435750 0.205420 0.554286
Si Si2 0.740898 0.783274 0.894027
Si Si3 0.432562 0.890477 0.827191
Si Si4 0.520689 0.621777 0.471775
Si Si5 0.423818 0.515536 0.893687
Si Si6 0.129095 0.915920 0.499066
Si Si7 0.097792 0.580248 0.675849
Si Si8 0.186083 0.152515 0.485901
O O1 0.461144 0.186368 0.322968
O O2 0.441280 0.312127 0.575505
O O3 0.271281 0.377349 0.610797
O O4 0.606615 0.921613 0.724860
O O5 0.822748 0.759931 0.744135
O O6 0.623480 0.987665 0.009926
O O7 0.863623 0.536072 0.081436
O O8 0.253798 0.114546 0.668471
O O9 0.474537 0.638052 0.272310
O O10 0.540193 0.640270 0.935644
O O11 0.710203 0.316910 0.594169
O O12 0.229583 0.786625 0.738616
O O13 0.344612 0.857339 0.538602
O O14 0.500000 0.500000 0.000000
O O15 0.000000 0.000000 0.500000
O O16 0.018028 0.165246 0.368378
O O17 0.989773 0.662040 0.527648
#
# Coordination Sequence:
#
# PCOD9079276 Si02
#       8
#     2   2   2   2   2   2   2   2
#     4  10  21  41  65  91 118 168 209 249 323 379
#     4  10  21  42  65  87 124 168 204 259 317 368
#     4  10  20  41  67  82 125 167 202 258 320 366
#     4   8  18  39  62  80 126 157 202 247 319 357
#     4  10  18  36  65  92 123 161 219 258 309 381
#     4  10  20  37  65  90 130 168 207 259 318 375
#     4  12  22  37  63  94 128 159 211 260 306 381
#     4  10  22  40  65  95 120 162 213 255 316 378
#
# _framework density 22.420832999999998
#
# number of rings (size 3 to 8) (size 9 to 14) (size 15 to 20)
#    0.750    1.500    3.750    1.500    0.000    1.500 
#    2.250    1.875    0.000    0.000    0.000    0.000 
#    0.000    0.000    0.000    0.000    0.000    0.000 
#
# Total GULP energy -89238.946160 kJ/mol
# GULP energy per Si atom -5577.434135 kJ/mol
# Density = 2.236980 g / cm^3
# Si number density = 22.420833 Si / 1000 Ang^3
#
#
#
# Elastic Constant Matrix: (Units=GPa)
#
#
# Indices 1 2 3 4 5 6 
#
# 1 112.2032 45.2850 32.3050 -4.6751 -13.6004 -11.4986
# 2 45.2850 40.3916 23.2382 -23.6837 -0.9518 -12.2541
# 3 32.3050 23.2382 118.7857 -21.1660 -16.3368 3.5321
# 4 -4.6751 -23.6837 -21.1660 37.4268 12.2658 1.5200
# 5 -13.6004 -0.9518 -16.3368 12.2658 10.7114 -1.9072
# 6 -11.4986 -12.2541 3.5321 1.5200 -1.9072 50.3090
#
#
#
# Elastic Compliance Matrix: (Units=1/GPa)
#
#
# Indices 1 2 3 4 5 6 
#
# 1 -0.009500 0.036457 -0.006310 0.038416 -0.061787 0.003649
# 2 0.036457 -0.061716 0.007845 -0.075861 0.139700 0.000337
# 3 -0.006310 0.007845 0.009921 0.011691 -0.005712 -0.000798
# 4 0.038416 -0.075861 0.011691 -0.046445 0.112187 -0.004862
# 5 -0.061787 0.139700 -0.005712 0.112187 -0.107573 0.012839
# 6 0.003649 0.000337 -0.000798 -0.004862 0.012839 0.021483
#
#
# Mechanical properties :
#
#
# Convention : Reuss Voigt Hill
#
# Bulk Modulus (GPa) = 68.07662 52.55964 60.31813
# Shear Modulus (GPa) = -18.87382 31.05960 6.09289
#
# Velocity S-wave (km/s) = -2.90452 3.72600 1.65028
# Velocity P-wave (km/s) = 4.37958 6.48105 5.53103
#
# Compressibility (1/GPa) = 0.01468933
#
# Stress axis : x y z
#
# Youngs Moduli (GPa) = -105.26666 -16.20323 100.79537
#
# Poissons Ratio (x) = 0.59072 0.63597
# Poissons Ratio (y) = 3.83770 -0.79069
# Poissons Ratio (z) = -0.66418 0.12711
#
# Static dielectric constant tensor:
#      x y z
#    x 1.867350 0.028630 -0.022940 
#    y 0.028630 1.822190 -0.010810 
#    z -0.022940 -0.010810 1.886820 
# 
# From -- ./inp_files/354795.got.cif
#   From: 2010.05.17/outbox.cif.g08.bks.cpg/sg2_178_cif.got.tgz:354795.got - 2010.06.03 11:33:40.
