data_PCOD9079992
_publ_section_title
;
Structure prediction by ZEFSAII (Michael W. Deem and Ramdas Pophale) SiO2 
 PCOD9079992
Probable space group: P -1
;
_chemical_formula_sum "Si O2"
_cell_formula_units_Z 12
_cell_length_a 7.647252
_cell_length_b 13.375429
_cell_length_c 11.863427
_cell_angle_alpha 137.127767
_cell_angle_beta 140.726477
_cell_angle_gamma 50.506002
_cell_volume 515.936070
_symmetry_space_group_name_H-M "P -1"
_symmetry_group_IT_number 2
_symmetry_cell_setting 'triclinic'
loop_
_space_group_symop_operation_xyz
x,y,z
-x,-y,-z
loop_
_atom_site_type_symbol
_atom_site_label
_atom_site_fract_x
_atom_site_fract_y
_atom_site_fract_z
Si Si1 0.827328 0.467036 0.042084
Si Si2 0.989199 0.411154 0.536018
Si Si3 0.484558 0.220695 0.908885
Si Si4 0.598193 0.682626 0.815401
Si Si5 0.026009 0.835439 0.059423
Si Si6 0.791338 0.900396 0.533141
O O1 0.600664 0.599822 0.995715
O O2 0.875111 0.508273 0.229686
O O3 0.141235 0.447534 0.132367
O O4 0.779541 0.295951 0.878828
O O5 0.676042 0.389733 0.398497
O O6 0.000000 0.500000 0.500000
O O7 0.145727 0.242224 0.473374
O O8 0.790393 0.162653 0.960726
O O9 0.255527 0.155852 0.663647
O O10 0.461220 0.202482 0.015077
O O11 0.734615 0.770298 0.856425
O O12 0.993778 0.988525 0.238080
O O13 0.500000 0.000000 0.500000
#
# Coordination Sequence:
#
# PCOD9079992 Si02
#       6
#     2   2   2   2   2   2
#     4   9  20  37  58  86 126 156 203 247 292 360
#     4  11  22  40  64  89 121 164 200 250 304 357
#     4  10  18  38  60  87 126 162 199 244 298 362
#     4  10  22  34  62  92 119 153 212 242 304 352
#     4   9  20  35  60  86 122 152 200 248 298 346
#     4   9  21  41  63  87 124 160 202 246 302 360
#
# _framework density 23.258697000000002
#
# number of rings (size 3 to 8) (size 9 to 14) (size 15 to 20)
#    1.000    1.333    0.000    2.500    0.000    4.000 
#    0.000    7.500    3.667    0.000    0.000    0.000 
#    0.000    0.000    0.000    0.000    0.000    0.000 
#
# Total GULP energy -66857.678764 kJ/mol
# GULP energy per Si atom -5571.473230 kJ/mol
# Density = 2.320576 g / cm^3
# Si number density = 23.258697 Si / 1000 Ang^3
#
#
#
# Elastic Constant Matrix: (Units=GPa)
#
#
# Indices 1 2 3 4 5 6 
#
# 1 106.0622 17.7078 23.6182 -0.7008 10.2211 -11.9276
# 2 17.7078 88.7316 36.5027 16.1436 3.4544 -3.0376
# 3 23.6182 36.5027 63.4068 24.3108 14.8711 3.7501
# 4 -0.7008 16.1436 24.3108 35.1019 -7.6178 1.9080
# 5 10.2211 3.4544 14.8711 -7.6178 41.4525 -5.9591
# 6 -11.9276 -3.0376 3.7501 1.9080 -5.9591 19.4325
#
#
#
# Elastic Compliance Matrix: (Units=1/GPa)
#
#
# Indices 1 2 3 4 5 6 
#
# 1 0.011941 -0.000066 -0.007474 0.005400 0.002006 0.008846
# 2 -0.000066 0.015398 -0.009945 0.000191 0.003085 0.005213
# 3 -0.007474 -0.009945 0.039813 -0.026325 -0.018898 -0.017036
# 4 0.005400 0.000191 -0.026325 0.050290 0.018662 0.009210
# 5 0.002006 0.003085 -0.018898 0.018662 0.035661 0.014464
# 6 0.008846 0.005213 -0.017036 0.009210 0.014464 0.064524
#
#
# Mechanical properties :
#
#
# Convention : Reuss Voigt Hill
#
# Bulk Modulus (GPa) = 31.07297 45.98420 38.52859
# Shear Modulus (GPa) = 18.98803 31.22217 25.10510
#
# Velocity S-wave (km/s) = 2.86034 3.66783 3.28896
# Velocity P-wave (km/s) = 4.92925 6.14419 5.56994
#
# Compressibility (1/GPa) = 0.03218231
#
# Stress axis : x y z
#
# Youngs Moduli (GPa) = 83.74566 64.94382 25.11719
#
# Poissons Ratio (x) = 0.00429 0.18772
# Poissons Ratio (y) = 0.00553 0.24979
# Poissons Ratio (z) = 0.62591 0.64587
#
# Static dielectric constant tensor:
#      x y z
#    x 1.946010 -0.009280 0.048640 
#    y -0.009280 1.931680 0.002780 
#    z 0.048640 0.002780 1.968690 
# 
# From -- ./inp_files/312179.got.cif
#   From: 2010.05.17/outbox.cif.g08.bks.cpg/sg2_157_cif.got.tgz:312179.got - 2010.06.03 11:33:40.
