data_PCOD9079617
_publ_section_title
;
Structure prediction by ZEFSAII (Michael W. Deem and Ramdas Pophale) SiO2 
 PCOD9079617
Probable space group: P -1
;
_chemical_formula_sum "Si O2"
_cell_formula_units_Z 16
_cell_length_a 18.626456
_cell_length_b 12.678356
_cell_length_c 9.664844
_cell_angle_alpha 118.275453
_cell_angle_beta 132.575192
_cell_angle_gamma 28.791728
_cell_volume 762.387193
_symmetry_space_group_name_H-M "P -1"
_symmetry_group_IT_number 2
_symmetry_cell_setting 'triclinic'
loop_
_space_group_symop_operation_xyz
x,y,z
-x,-y,-z
loop_
_atom_site_type_symbol
_atom_site_label
_atom_site_fract_x
_atom_site_fract_y
_atom_site_fract_z
Si Si1 0.840069 0.877418 0.980368
Si Si2 0.472242 0.391455 0.728520
Si Si3 0.027699 0.070557 0.196777
Si Si4 0.603246 0.510919 0.986101
Si Si5 0.065054 0.286674 0.284134
Si Si6 0.085322 0.842955 0.379483
Si Si7 0.355281 0.998102 0.932714
Si Si8 0.277496 0.228533 0.709546
O O1 0.962716 0.688351 0.901615
O O2 0.636973 0.120684 0.794146
O O3 0.795419 0.851802 0.046098
O O4 0.936533 0.901403 0.165762
O O5 0.562747 0.422173 0.818928
O O6 0.283227 0.570014 0.505142
O O7 0.403963 0.486141 0.855435
O O8 0.125184 0.089305 0.285094
O O9 0.811843 0.332427 0.111591
O O10 0.115111 0.912300 0.344501
O O11 0.000000 0.000000 0.000000
O O12 0.445934 0.771016 0.897002
O O13 0.212705 0.232890 0.487960
O O14 0.880106 0.517402 0.274466
O O15 0.000000 0.000000 0.500000
O O16 0.526188 0.908871 0.136691
O O17 0.284821 0.117921 0.767871
#
# Coordination Sequence:
#
# PCOD9079617 Si02
#       8
#     2   2   2   2   2   2   2   2
#     4  11  24  44  65  98 137 165 215 278 321 383
#     4  10  20  37  60  99 128 169 211 258 327 392
#     4  12  22  39  62  94 136 168 202 269 330 383
#     4  10  18  37  62  86 135 164 205 271 317 382
#     4  11  24  45  64  94 133 173 211 274 328 379
#     4  12  22  37  65  99 131 176 216 251 326 404
#     4  10  22  42  67  96 118 172 223 272 319 378
#     4  10  24  44  68  91 125 174 227 262 325 386
#
# _framework density 20.986712000000001
#
# number of rings (size 3 to 8) (size 9 to 14) (size 15 to 20)
#    0.000    1.250    5.000    1.500    3.500    1.000 
#    9.000    1.250    0.000    0.000    0.000    0.000 
#    0.000    0.000    0.000    0.000    0.000    0.000 
#
# Total GULP energy -89341.294625 kJ/mol
# GULP energy per Si atom -5583.830914 kJ/mol
# Density = 2.093895 g / cm^3
# Si number density = 20.986712 Si / 1000 Ang^3
#
#
#
# Elastic Constant Matrix: (Units=GPa)
#
#
# Indices 1 2 3 4 5 6 
#
# 1 68.1915 -2.9473 0.7902 9.3647 -2.2137 2.3039
# 2 -2.9473 35.3496 22.1827 3.5459 0.2483 8.4418
# 3 0.7902 22.1827 59.8176 5.6931 -5.4683 -7.6273
# 4 9.3647 3.5459 5.6931 32.8430 -3.6421 -5.7787
# 5 -2.2137 0.2483 -5.4683 -3.6421 18.9064 -7.2398
# 6 2.3039 8.4418 -7.6273 -5.7787 -7.2398 29.3873
#
#
#
# Elastic Compliance Matrix: (Units=1/GPa)
#
#
# Indices 1 2 3 4 5 6 
#
# 1 0.015723 0.004109 -0.001898 -0.005531 -0.001498 -0.004363
# 2 0.004109 0.051024 -0.023368 -0.009664 -0.019428 -0.027731
# 3 -0.001898 -0.023368 0.029034 0.003205 0.016401 0.019068
# 4 -0.005531 -0.009664 0.003205 0.036484 0.012951 0.014406
# 5 -0.001498 -0.019428 0.016401 0.012951 0.071768 0.030183
# 6 -0.004363 -0.027731 0.019068 0.014406 0.030183 0.057554
#
#
# Mechanical properties :
#
#
# Convention : Reuss Voigt Hill
#
# Bulk Modulus (GPa) = 18.70348 22.60109 20.65229
# Shear Modulus (GPa) = 15.54137 25.78289 20.66213
#
# Velocity S-wave (km/s) = 2.72423 3.50885 3.14113
# Velocity P-wave (km/s) = 4.33897 5.21619 4.79767
#
# Compressibility (1/GPa) = 0.05346599
#
# Stress axis : x y z
#
# Youngs Moduli (GPa) = 63.60280 19.59878 34.44244
#
# Poissons Ratio (x) = -0.08054 0.06539
# Poissons Ratio (y) = -0.26137 0.80485
# Poissons Ratio (z) = 0.12074 0.45798
#
# Static dielectric constant tensor:
#      x y z
#    x 1.578100 0.087340 -0.120830 
#    y 0.087340 1.750840 0.048230 
#    z -0.120830 0.048230 1.666020 
# 
# From -- ./inp_files/176634.got.cif
#   From: 2010.05.17/outbox.cif.g08.bks.cpg/sg2_89_cif.got.tgz:176634.got - 2010.06.03 11:33:40.
