data_PCOD9079003
_publ_section_title
;
Structure prediction by ZEFSAII (Michael W. Deem and Ramdas Pophale) SiO2 
 PCOD9079003
Probable space group: P -1
;
_chemical_formula_sum "Si O2"
_cell_formula_units_Z 16
_cell_length_a 9.600618
_cell_length_b 15.510238
_cell_length_c 13.369498
_cell_angle_alpha 142.343943
_cell_angle_beta 48.238685
_cell_angle_gamma 141.680353
_cell_volume 748.808106
_symmetry_space_group_name_H-M "P -1"
_symmetry_group_IT_number 2
_symmetry_cell_setting 'triclinic'
loop_
_space_group_symop_operation_xyz
x,y,z
-x,-y,-z
loop_
_atom_site_type_symbol
_atom_site_label
_atom_site_fract_x
_atom_site_fract_y
_atom_site_fract_z
Si Si1 0.698309 0.988882 0.297639
Si Si2 0.133492 0.998404 0.066972
Si Si3 0.481220 0.368548 0.253819
Si Si4 0.129377 0.276036 0.675240
Si Si5 0.184180 0.004362 0.284890
Si Si6 0.794582 0.247571 0.652695
Si Si7 0.666814 0.163886 0.287186
Si Si8 0.782676 0.478146 0.404057
O O1 0.767796 0.085916 0.459649
O O2 0.662210 0.107310 0.350278
O O3 0.896844 0.976992 0.149460
O O4 0.458618 0.809550 0.259716
O O5 0.342597 0.184377 0.100913
O O6 0.173072 0.999250 0.167167
O O7 0.154598 0.858626 0.875637
O O8 0.653010 0.530511 0.251741
O O9 0.626301 0.377920 0.289511
O O10 0.294799 0.398552 0.413359
O O11 0.182517 0.162720 0.475795
O O12 0.930492 0.276944 0.716055
O O13 0.028888 0.169837 0.726976
O O14 0.417800 0.037445 0.242965
O O15 0.960429 0.410244 0.653857
O O16 0.734858 0.351980 0.401238
#
# Coordination Sequence:
#
# PCOD9079003 Si02
#       8
#     2   2   2   2   2   2   2   2
#     4  11  23  40  59  86 119 164 193 238 293 350
#     4  12  23  41  59  87 123 160 192 237 297 354
#     4  10  18  36  61  88 119 148 192 245 298 334
#     4  10  19  35  64  92 116 143 198 255 288 336
#     4  11  20  36  60  91 116 148 199 245 290 341
#     4  10  20  38  62  85 119 153 196 241 295 344
#     4  12  24  38  60  89 122 157 199 234 289 358
#     4  10  19  37  60  91 114 150 197 248 285 341
#
# _framework density 21.367291000000002
#
# number of rings (size 3 to 8) (size 9 to 14) (size 15 to 20)
#    0.000    1.250    6.250    1.500    0.000    0.500 
#    0.000    2.500    0.000    0.000    0.000    0.000 
#    0.000    0.000    0.000    0.000    0.000    0.000 
#
# Total GULP energy -89443.546099 kJ/mol
# GULP energy per Si atom -5590.221631 kJ/mol
# Density = 2.131866 g / cm^3
# Si number density = 21.367291 Si / 1000 Ang^3
#
#
#
# Elastic Constant Matrix: (Units=GPa)
#
#
# Indices 1 2 3 4 5 6 
#
# 1 60.6607 26.7949 7.9576 -1.7558 -10.4111 0.8044
# 2 26.7949 132.8139 1.1081 -17.0026 -3.6093 -0.0003
# 3 7.9576 1.1081 24.1386 -6.6956 -9.0296 7.7815
# 4 -1.7558 -17.0026 -6.6956 16.1957 2.9026 -5.2853
# 5 -10.4111 -3.6093 -9.0296 2.9026 22.2262 -8.7675
# 6 0.8044 -0.0003 7.7815 -5.2853 -8.7675 30.4193
#
#
#
# Elastic Compliance Matrix: (Units=1/GPa)
#
#
# Indices 1 2 3 4 5 6 
#
# 1 0.020478 -0.004594 -0.005825 -0.005718 0.008134 0.002299
# 2 -0.004594 0.009958 0.004001 0.011997 -0.000011 0.001179
# 3 -0.005825 0.004001 0.057269 0.022434 0.015883 -0.006020
# 4 -0.005718 0.011997 0.022434 0.085964 0.000953 0.009623
# 5 0.008134 -0.000011 0.015883 0.000953 0.060369 0.013287
# 6 0.002299 0.001179 -0.006020 0.009623 0.013287 0.039855
#
#
# Mechanical properties :
#
#
# Convention : Reuss Voigt Hill
#
# Bulk Modulus (GPa) = 13.35651 32.14826 22.75239
# Shear Modulus (GPa) = 16.04177 25.88508 20.96343
#
# Velocity S-wave (km/s) = 2.74298 3.48434 3.13565
# Velocity P-wave (km/s) = 4.03688 5.59158 4.87658
#
# Compressibility (1/GPa) = 0.07486985
#
# Stress axis : x y z
#
# Youngs Moduli (GPa) = 48.83183 100.41824 17.46154
#
# Poissons Ratio (x) = 0.46131 0.10171
# Poissons Ratio (y) = 0.22433 -0.06986
# Poissons Ratio (z) = 0.28444 -0.40176
#
# Static dielectric constant tensor:
#      x y z
#    x 1.778500 0.011970 -0.000120 
#    y 0.011970 1.787250 -0.015400 
#    z -0.000120 -0.015400 1.751090 
# 
# From -- ./inp_files/333652.got.cif
#   From: 2010.05.17/outbox.cif.g08.bks.cpg/sg2_167_cif.got.tgz:333652.got - 2010.06.03 11:33:40.
