data_PCOD9079765
_publ_section_title
;
Structure prediction by ZEFSAII (Michael W. Deem and Ramdas Pophale) SiO2 
 PCOD9079765
Probable space group: P -1
;
_chemical_formula_sum "Si O2"
_cell_formula_units_Z 12
_cell_length_a 6.767983
_cell_length_b 8.952958
_cell_length_c 13.785063
_cell_angle_alpha 120.003829
_cell_angle_beta 96.582597
_cell_angle_gamma 128.161715
_cell_volume 445.279464
_symmetry_space_group_name_H-M "P -1"
_symmetry_group_IT_number 2
_symmetry_cell_setting 'triclinic'
loop_
_space_group_symop_operation_xyz
x,y,z
-x,-y,-z
loop_
_atom_site_type_symbol
_atom_site_label
_atom_site_fract_x
_atom_site_fract_y
_atom_site_fract_z
Si Si1 0.317809 0.801398 0.521258
Si Si2 0.154314 0.011532 0.304241
Si Si3 0.213967 0.433972 0.998760
Si Si4 0.835103 0.698713 0.370393
Si Si5 0.878962 0.740047 0.857134
Si Si6 0.291195 0.974962 0.779137
O O1 0.502749 0.750461 0.544170
O O2 0.348647 0.907560 0.663285
O O3 0.963895 0.622884 0.413321
O O4 0.500000 0.000000 0.500000
O O5 0.961155 0.053848 0.287734
O O6 0.938548 0.748987 0.280733
O O7 0.105647 0.873177 0.157472
O O8 0.204570 0.437517 0.115048
O O9 0.365131 0.716211 0.066757
O O10 0.500000 0.500000 0.000000
O O11 0.456853 0.451131 0.276027
O O12 0.000000 0.000000 0.500000
O O13 0.112515 0.808180 0.815256
O O14 0.000000 0.000000 0.000000
#
# Coordination Sequence:
#
# PCOD9079765 Si02
#       6
#     2   2   2   2   2   2
#     4  10  23  38  62  92 123 171 218 252 318 386
#     4  10  19  38  65  89 126 167 212 258 316 382
#     4  10  18  37  64  94 124 165 213 258 319 380
#     4  11  20  39  65  91 128 168 211 261 317 376
#     4  12  21  36  70  99 121 169 218 259 319 384
#     4  11  21  40  66  92 129 169 208 266 323 367
#
# _framework density 26.949369999999998
#
# number of rings (size 3 to 8) (size 9 to 14) (size 15 to 20)
#    0.000    1.333    8.333    0.000    0.000    1.333 
#    0.000    1.667   14.667    0.000    0.000    0.000 
#    0.000    0.000    0.000    0.000    0.000    0.000 
#
# Total GULP energy -66913.553290 kJ/mol
# GULP energy per Si atom -5576.129441 kJ/mol
# Density = 2.688803 g / cm^3
# Si number density = 26.949370 Si / 1000 Ang^3
#
#
#
# Elastic Constant Matrix: (Units=GPa)
#
#
# Indices 1 2 3 4 5 6 
#
# 1 90.3926 1.9401 49.1463 -4.8049 9.7494 -2.5652
# 2 1.9401 140.5584 31.6967 -14.2688 -4.1970 31.3721
# 3 49.1463 31.6967 131.5678 -0.4907 12.3112 8.0860
# 4 -4.8049 -14.2688 -0.4907 47.6779 4.8691 -5.7400
# 5 9.7494 -4.1970 12.3112 4.8691 57.8101 -16.9514
# 6 -2.5652 31.3721 8.0860 -5.7400 -16.9514 29.4263
#
#
#
# Elastic Compliance Matrix: (Units=1/GPa)
#
#
# Indices 1 2 3 4 5 6 
#
# 1 0.014318 0.000827 -0.005577 0.001933 -0.000797 0.001817
# 2 0.000827 0.010169 -0.001822 0.002001 -0.002501 -0.011319
# 3 -0.005577 -0.001822 0.010502 -0.001126 -0.002186 -0.002909
# 4 0.001933 0.002001 -0.001126 0.022117 -0.001232 0.001949
# 5 -0.000797 -0.002501 -0.002186 -0.001232 0.022485 0.015910
# 6 0.001817 -0.011319 -0.002909 0.001949 0.015910 0.056554
#
#
# Mechanical properties :
#
#
# Convention : Reuss Voigt Hill
#
# Bulk Modulus (GPa) = 45.77848 58.67610 52.22729
# Shear Modulus (GPa) = 31.93469 45.63192 38.78330
#
# Velocity S-wave (km/s) = 3.44610 4.11937 3.79769
# Velocity P-wave (km/s) = 5.73218 6.66675 6.21705
#
# Compressibility (1/GPa) = 0.02184432
#
# Stress axis : x y z
#
# Youngs Moduli (GPa) = 69.84294 98.34265 95.21907
#
# Poissons Ratio (x) = -0.08133 0.53108
# Poissons Ratio (y) = -0.05776 0.17345
# Poissons Ratio (z) = 0.38955 0.17914
#
# Static dielectric constant tensor:
#      x y z
#    x 2.305950 0.031690 0.031930 
#    y 0.031690 2.176720 0.080080 
#    z 0.031930 0.080080 2.201920 
# 
# From -- ./inp_files/498215.got.cif
#   From: 2010.05.17/outbox.cif.g08.bks.cpg/sg2_250_cif.got.tgz:498215.got - 2010.06.03 11:33:40.
