data_PCOD9079485
_publ_section_title
;
Structure prediction by ZEFSAII (Michael W. Deem and Ramdas Pophale) SiO2 
 PCOD9079485
Probable space group: P -1
;
_chemical_formula_sum "Si O2"
_cell_formula_units_Z 14
_cell_length_a 11.575463
_cell_length_b 11.567159
_cell_length_c 9.015212
_cell_angle_alpha 142.865372
_cell_angle_beta 112.236325
_cell_angle_gamma 80.653306
_cell_volume 653.227732
_symmetry_space_group_name_H-M "P -1"
_symmetry_group_IT_number 2
_symmetry_cell_setting 'triclinic'
loop_
_space_group_symop_operation_xyz
x,y,z
-x,-y,-z
loop_
_atom_site_type_symbol
_atom_site_label
_atom_site_fract_x
_atom_site_fract_y
_atom_site_fract_z
Si Si1 0.785663 0.906281 0.910024
Si Si2 0.972163 0.714327 0.208191
Si Si3 0.783514 0.941985 0.274457
Si Si4 0.076956 0.423781 0.645703
Si Si5 0.551150 0.821512 0.268775
Si Si6 0.642001 0.571298 0.319198
Si Si7 0.061683 0.806859 0.925595
O O1 0.673470 0.709271 0.621540
O O2 0.932393 0.878348 0.965236
O O3 0.756160 0.991098 0.140816
O O4 0.809325 0.032895 0.896244
O O5 0.849009 0.754920 0.106534
O O6 0.933585 0.719119 0.367467
O O7 0.101475 0.884939 0.427324
O O8 0.000000 0.500000 0.000000
O O9 0.665723 0.903749 0.291495
O O10 0.216147 0.447066 0.669842
O O11 0.067910 0.648662 0.893051
O O12 0.968527 0.319337 0.370493
O O13 0.594070 0.698362 0.298302
O O14 0.500000 0.000000 0.500000
O O15 0.447978 0.649892 0.953529
#
# Coordination Sequence:
#
# PCOD9079485 Si02
#       7
#     2   2   2   2   2   2   2
#     4  10  20  39  62  98 131 164 204 272 319 384
#     4  11  23  36  64  98 132 168 199 263 331 385
#     4  11  24  42  63  97 135 161 214 267 322 376
#     4  10  18  37  59  95 125 165 207 251 310 389
#     4  11  26  46  65  88 124 179 221 266 308 378
#     4  10  24  42  66  90 121 169 226 258 310 383
#     4   9  19  32  63  94 133 160 198 250 329 382
#
# _framework density 21.432036
#
# number of rings (size 3 to 8) (size 9 to 14) (size 15 to 20)
#    0.000    1.714    2.857    0.857    4.000    0.571 
#    0.000    0.714    0.000    0.000    0.000    0.000 
#    0.000    0.000    0.000    0.000    0.000    0.000 
#
# Total GULP energy -78011.897405 kJ/mol
# GULP energy per Si atom -5572.278386 kJ/mol
# Density = 2.138326 g / cm^3
# Si number density = 21.432036 Si / 1000 Ang^3
#
#
#
# Elastic Constant Matrix: (Units=GPa)
#
#
# Indices 1 2 3 4 5 6 
#
# 1 93.2187 23.0033 43.1817 15.6559 5.1685 22.4265
# 2 23.0033 78.9304 12.2880 16.1510 2.0754 16.1325
# 3 43.1817 12.2880 111.3722 9.7412 10.1881 10.5329
# 4 15.6559 16.1510 9.7412 32.8885 1.0758 -3.6860
# 5 5.1685 2.0754 10.1881 1.0758 27.7371 5.5595
# 6 22.4265 16.1325 10.5329 -3.6860 5.5595 37.5468
#
#
#
# Elastic Compliance Matrix: (Units=1/GPa)
#
#
# Indices 1 2 3 4 5 6 
#
# 1 0.016489 -0.000795 -0.004923 -0.007031 0.000861 -0.008944
# 2 -0.000795 0.016109 -0.000115 -0.008347 0.000782 -0.007349
# 3 -0.004923 -0.000115 0.011243 -0.000798 -0.003220 0.000235
# 4 -0.007031 -0.008347 -0.000798 0.039507 -0.001739 0.012146
# 5 0.000861 0.000782 -0.003220 -0.001739 0.038242 -0.005780
# 6 -0.008944 -0.007349 0.000235 0.012146 -0.005780 0.037116
#
#
# Mechanical properties :
#
#
# Convention : Reuss Voigt Hill
#
# Bulk Modulus (GPa) = 31.08210 48.94080 40.01145
# Shear Modulus (GPa) = 27.60950 33.30436 30.45693
#
# Velocity S-wave (km/s) = 3.59309 3.94630 3.77383
# Velocity P-wave (km/s) = 5.63453 6.60676 6.13992
#
# Compressibility (1/GPa) = 0.03217285
#
# Stress axis : x y z
#
# Youngs Moduli (GPa) = 60.64581 62.07845 88.94683
#
# Poissons Ratio (x) = 0.04935 0.43792
# Poissons Ratio (y) = 0.04821 0.01027
# Poissons Ratio (z) = 0.29859 0.00717
#
# Static dielectric constant tensor:
#      x y z
#    x 1.789550 -0.002270 -0.091130 
#    y -0.002270 1.891060 0.036790 
#    z -0.091130 0.036790 1.930710 
# 
# From -- ./inp_files/261148.got.cif
#   From: 2010.05.17/outbox.cif.g08.bks.cpg/sg2_131_cif.got.tgz:261148.got - 2010.06.03 11:33:40.
