data_PCOD9079376
_publ_section_title
;
Structure prediction by ZEFSAII (Michael W. Deem and Ramdas Pophale) SiO2 
 PCOD9079376
Probable space group: P -1
;
_chemical_formula_sum "Si O2"
_cell_formula_units_Z 16
_cell_length_a 9.238688
_cell_length_b 11.742318
_cell_length_c 12.429340
_cell_angle_alpha 45.954817
_cell_angle_beta 44.717050
_cell_angle_gamma 53.865541
_cell_volume 669.627908
_symmetry_space_group_name_H-M "P -1"
_symmetry_group_IT_number 2
_symmetry_cell_setting 'triclinic'
loop_
_space_group_symop_operation_xyz
x,y,z
-x,-y,-z
loop_
_atom_site_type_symbol
_atom_site_label
_atom_site_fract_x
_atom_site_fract_y
_atom_site_fract_z
Si Si1 0.045360 0.632778 0.970286
Si Si2 0.742385 0.717358 0.275407
Si Si3 0.431414 0.366823 0.988102
Si Si4 0.749371 0.551701 0.580169
Si Si5 0.071769 0.861883 0.139523
Si Si6 0.169596 0.964652 0.662918
Si Si7 0.430811 0.189849 0.321372
Si Si8 0.499950 0.955549 0.903512
O O1 0.259986 0.533872 0.972342
O O2 0.091679 0.800330 0.787146
O O3 0.000000 0.500000 0.000000
O O4 0.863030 0.670502 0.131217
O O5 0.672854 0.581207 0.476892
O O6 0.932307 0.744860 0.237633
O O7 0.559057 0.872821 0.242922
O O8 0.624945 0.423526 0.784863
O O9 0.452829 0.313103 0.136074
O O10 0.335799 0.215002 0.085693
O O11 0.666181 0.713937 0.585412
O O12 0.000000 0.500000 0.500000
O O13 0.006580 0.911602 0.263178
O O14 0.314779 0.869577 0.012435
O O15 0.000000 0.000000 0.000000
O O16 0.347182 0.912554 0.694510
O O17 0.279569 0.063627 0.454162
O O18 0.500000 0.000000 0.000000
#
# Coordination Sequence:
#
# PCOD9079376 Si02
#       8
#     2   2   2   2   2   2   2   2
#     4  12  26  46  70 101 144 193 228 290 364 424
#     4  11  23  45  74 101 135 192 242 286 349 433
#     4  12  27  42  66 102 147 176 233 300 360 413
#     4  12  25  40  68 109 143 175 231 309 367 411
#     4  10  18  36  70  99 124 177 239 282 334 406
#     4  11  22  40  72  95 140 177 240 274 352 428
#     4  11  24  42  68 107 133 179 232 300 355 415
#     4  11  24  42  67  99 139 185 235 285 351 432
#
# _framework density 23.893868999999999
#
# number of rings (size 3 to 8) (size 9 to 14) (size 15 to 20)
#    0.000    0.750    5.000    4.125    3.500    0.000 
#    0.000    4.375    0.000    0.000    0.000    0.000 
#    0.000    0.000    0.000    0.000    0.000    0.000 
#
# Total GULP energy -89072.978324 kJ/mol
# GULP energy per Si atom -5567.061145 kJ/mol
# Density = 2.383949 g / cm^3
# Si number density = 23.893869 Si / 1000 Ang^3
#
#
#
# Elastic Constant Matrix: (Units=GPa)
#
#
# Indices 1 2 3 4 5 6 
#
# 1 62.8420 4.8843 29.3511 -9.0194 7.7321 9.5107
# 2 4.8843 86.3221 22.8836 2.8624 0.9951 17.8885
# 3 29.3511 22.8836 140.7580 -22.9220 5.2700 -7.4240
# 4 -9.0194 2.8624 -22.9220 46.1990 -9.5691 -2.0443
# 5 7.7321 0.9951 5.2700 -9.5691 21.4711 -4.2774
# 6 9.5107 17.8885 -7.4240 -2.0443 -4.2774 37.0731
#
#
#
# Elastic Compliance Matrix: (Units=1/GPa)
#
#
# Indices 1 2 3 4 5 6 
#
# 1 0.020067 0.001863 -0.004694 -0.000530 -0.007978 -0.007937
# 2 0.001863 0.014421 -0.003625 -0.003496 -0.003758 -0.008788
# 3 -0.004694 -0.003625 0.009658 0.004916 0.002770 0.005478
# 4 -0.000530 -0.003496 0.004916 0.027003 0.012320 0.005718
# 5 -0.007978 -0.003758 0.002770 0.012320 0.056751 0.011642
# 6 -0.007937 -0.008788 0.005478 0.005718 0.011642 0.036006
#
#
# Mechanical properties :
#
#
# Convention : Reuss Voigt Hill
#
# Bulk Modulus (GPa) = 32.01551 44.90668 38.46110
# Shear Modulus (GPa) = 26.70539 36.46884 31.58712
#
# Velocity S-wave (km/s) = 3.34678 3.91101 3.63984
# Velocity P-wave (km/s) = 5.32567 6.26336 5.81345
#
# Compressibility (1/GPa) = 0.03123486
#
# Stress axis : x y z
#
# Youngs Moduli (GPa) = 49.83317 69.34560 103.53838
#
# Poissons Ratio (x) = -0.12919 0.48596
# Poissons Ratio (y) = -0.09284 0.37532
# Poissons Ratio (z) = 0.23389 0.25137
#
# Static dielectric constant tensor:
#      x y z
#    x 2.511080 -0.647630 -0.611080 
#    y -0.647630 2.552560 0.728590 
#    z -0.611080 0.728590 2.340640 
# 
# From -- ./inp_files/391945.got.cif
#   From: 2010.05.17/outbox.cif.g08.bks.cpg/sg2_196_cif.got.tgz:391945.got - 2010.06.03 11:33:40.
