data_PCOD9079907
_publ_section_title
;
Structure prediction by ZEFSAII (Michael W. Deem and Ramdas Pophale) SiO2 
 PCOD9079907
Probable space group: P -1
;
_chemical_formula_sum "Si O2"
_cell_formula_units_Z 16
_cell_length_a 7.315629
_cell_length_b 16.926838
_cell_length_c 8.038326
_cell_angle_alpha 74.956651
_cell_angle_beta 71.137271
_cell_angle_gamma 42.433077
_cell_volume 635.207596
_symmetry_space_group_name_H-M "P -1"
_symmetry_group_IT_number 2
_symmetry_cell_setting 'triclinic'
loop_
_space_group_symop_operation_xyz
x,y,z
-x,-y,-z
loop_
_atom_site_type_symbol
_atom_site_label
_atom_site_fract_x
_atom_site_fract_y
_atom_site_fract_z
Si Si1 0.898511 0.194754 0.948137
Si Si2 0.729324 0.107604 0.614754
Si Si3 0.526937 0.989789 0.300406
Si Si4 0.905809 0.745750 0.854302
Si Si5 0.558938 0.723428 0.141258
Si Si6 0.938716 0.612955 0.421364
Si Si7 0.506566 0.540797 0.797617
Si Si8 0.523900 0.260031 0.296740
O O1 0.622630 0.296378 0.862278
O O2 0.171439 0.085278 0.826593
O O3 0.762205 0.172350 0.136913
O O4 0.002873 0.239073 0.005470
O O5 0.541389 0.083681 0.680103
O O6 0.698362 0.143262 0.793176
O O7 0.665500 0.206776 0.465156
O O8 0.000000 0.000000 0.500000
O O9 0.500000 0.000000 0.500000
O O10 0.298976 0.123919 0.230859
O O11 0.203539 0.631784 0.753607
O O12 0.733518 0.715388 0.952770
O O13 0.764549 0.661991 0.272030
O O14 0.231259 0.566332 0.328778
O O15 0.000000 0.500000 0.500000
O O16 0.757311 0.701632 0.582872
O O17 0.555590 0.622523 0.774411
O O18 0.500000 0.500000 0.000000
#
# Coordination Sequence:
#
# PCOD9079907 Si02
#       8
#     2   2   2   2   2   2   2   2
#     4  11  24  43  67 100 137 177 229 276 341 412
#     4  11  22  41  63  96 135 176 223 275 337 398
#     4  12  27  44  67 100 140 180 231 280 340 413
#     4  11  24  44  66 102 136 176 234 283 334 410
#     4  11  23  40  72  97 134 185 223 279 345 403
#     4   9  19  40  67  99 131 178 226 280 343 398
#     4  10  18  37  70  97 130 179 223 277 344 391
#     4   9  22  36  62  97 131 172 220 275 333 401
#
# _framework density 25.188616
#
# number of rings (size 3 to 8) (size 9 to 14) (size 15 to 20)
#    0.000    1.500    2.500    2.625    3.500    3.500 
#    0.000    5.625    0.000    1.500    0.000    0.000 
#    0.000    0.000    0.000    0.000    0.000    0.000 
#
# Total GULP energy -89098.931320 kJ/mol
# GULP energy per Si atom -5568.683207 kJ/mol
# Density = 2.513129 g / cm^3
# Si number density = 25.188616 Si / 1000 Ang^3
#
#
#
# Elastic Constant Matrix: (Units=GPa)
#
#
# Indices 1 2 3 4 5 6 
#
# 1 99.3658 32.6017 27.1680 -0.7941 -19.4781 -31.1956
# 2 32.6017 122.8189 81.1109 23.9440 -26.0060 -40.8242
# 3 27.1680 81.1109 153.5708 34.0602 -32.0743 -21.9028
# 4 -0.7941 23.9440 34.0602 71.0544 -4.3465 -18.0305
# 5 -19.4781 -26.0060 -32.0743 -4.3465 35.2870 6.0254
# 6 -31.1956 -40.8242 -21.9028 -18.0305 6.0254 41.4435
#
#
#
# Elastic Compliance Matrix: (Units=1/GPa)
#
#
# Indices 1 2 3 4 5 6 
#
# 1 0.015438 0.001948 -0.001244 0.003992 0.006995 0.013602
# 2 0.001948 0.018345 -0.006912 0.001489 0.005818 0.015687
# 3 -0.001244 -0.006912 0.011770 -0.004035 0.005108 -0.004023
# 4 0.003992 0.001489 -0.004035 0.018151 0.000124 0.010218
# 5 0.006995 0.005818 0.005108 0.000124 0.039786 0.007966
# 6 0.013602 0.015687 -0.004023 0.010218 0.007966 0.050981
#
#
# Mechanical properties :
#
#
# Convention : Reuss Voigt Hill
#
# Bulk Modulus (GPa) = 30.17762 73.05741 51.61751
# Shear Modulus (GPa) = 28.10006 45.21532 36.65769
#
# Velocity S-wave (km/s) = 3.34366 4.24142 3.81901
# Velocity P-wave (km/s) = 5.18782 7.28377 6.32324
#
# Compressibility (1/GPa) = 0.03313714
#
# Stress axis : x y z
#
# Youngs Moduli (GPa) = 64.77370 54.50964 84.95820
#
# Poissons Ratio (x) = -0.10618 0.10572
# Poissons Ratio (y) = -0.12617 0.58723
# Poissons Ratio (z) = 0.08060 0.37677
#
# Static dielectric constant tensor:
#      x y z
#    x 1.912420 -0.027570 0.150280 
#    y -0.027570 2.189770 0.071700 
#    z 0.150280 0.071700 2.050330 
# 
# From -- ./inp_files/225344.got.cif
#   From: 2010.05.17/outbox.cif.g08.bks.cpg/sg2_113_cif.got.tgz:225344.got - 2010.06.03 11:33:40.
