data_PCOD9079966
_publ_section_title
;
Structure prediction by ZEFSAII (Michael W. Deem and Ramdas Pophale) SiO2 
 PCOD9079966
Probable space group: P -1
;
_chemical_formula_sum "Si O2"
_cell_formula_units_Z 16
_cell_length_a 13.662852
_cell_length_b 12.351173
_cell_length_c 9.749303
_cell_angle_alpha 129.878532
_cell_angle_beta 53.497327
_cell_angle_gamma 139.906416
_cell_volume 794.789944
_symmetry_space_group_name_H-M "P -1"
_symmetry_group_IT_number 2
_symmetry_cell_setting 'triclinic'
loop_
_space_group_symop_operation_xyz
x,y,z
-x,-y,-z
loop_
_atom_site_type_symbol
_atom_site_label
_atom_site_fract_x
_atom_site_fract_y
_atom_site_fract_z
Si Si1 0.117908 0.853747 0.516853
Si Si2 0.143569 0.691080 0.097713
Si Si3 0.710338 0.770160 0.232166
Si Si4 0.743647 0.495899 0.016513
Si Si5 0.111037 0.837777 0.988850
Si Si6 0.167336 0.684278 0.558639
Si Si7 0.377550 0.589510 0.263158
Si Si8 0.837884 0.810649 0.863971
O O1 0.085665 0.744467 0.317187
O O2 0.215735 0.816431 0.498413
O O3 0.969972 0.799741 0.686397
O O4 0.215071 0.066559 0.592431
O O5 0.191964 0.831994 0.051388
O O6 0.263672 0.656975 0.020950
O O7 0.000000 0.500000 0.000000
O O8 0.668697 0.592502 0.195194
O O9 0.559009 0.725575 0.249682
O O10 0.829976 0.831321 0.052665
O O11 0.926118 0.671778 0.015631
O O12 0.680210 0.429496 0.860864
O O13 0.147572 0.028343 0.090085
O O14 0.157855 0.781018 0.772387
O O15 0.283146 0.642001 0.462277
O O16 0.000000 0.500000 0.500000
O O17 0.318731 0.391651 0.192956
#
# Coordination Sequence:
#
# PCOD9079966 Si02
#       8
#     2   2   2   2   2   2   2   2
#     4  12  21  38  66  92 121 159 207 256 300 358
#     4  10  23  39  59  95 125 161 200 255 310 356
#     4  11  23  39  59  98 127 158 199 255 313 361
#     4  10  18  38  59  85 126 159 193 247 302 364
#     4  11  21  37  61  93 126 154 204 262 301 353
#     4  12  19  36  63  93 118 154 209 260 299 349
#     4  11  23  36  64  91 127 161 200 251 314 363
#     4  11  21  37  62  93 124 154 204 257 303 351
#
# _framework density 20.131105000000002
#
# number of rings (size 3 to 8) (size 9 to 14) (size 15 to 20)
#    0.000    1.000    6.250    3.375    0.000    1.000 
#    0.000    0.000    0.000    8.250    0.000    0.000 
#    0.000    0.000    0.000    0.000    0.000    0.000 
#
# Total GULP energy -89173.510668 kJ/mol
# GULP energy per Si atom -5573.344417 kJ/mol
# Density = 2.008529 g / cm^3
# Si number density = 20.131105 Si / 1000 Ang^3
#
#
#
# Elastic Constant Matrix: (Units=GPa)
#
#
# Indices 1 2 3 4 5 6 
#
# 1 115.0904 39.2409 39.4416 4.6571 -9.1352 -21.4558
# 2 39.2409 44.6230 30.7579 13.6993 -1.8476 -18.6422
# 3 39.4416 30.7579 118.3458 23.1523 -7.1335 -11.1043
# 4 4.6571 13.6993 23.1523 20.7102 -8.0632 -3.3804
# 5 -9.1352 -1.8476 -7.1335 -8.0632 25.6960 5.7147
# 6 -21.4558 -18.6422 -11.1043 -3.3804 5.7147 36.8271
#
#
#
# Elastic Compliance Matrix: (Units=1/GPa)
#
#
# Indices 1 2 3 4 5 6 
#
# 1 0.014741 -0.014037 -0.003215 0.012424 0.007115 0.000549
# 2 -0.014037 0.052838 -0.001922 -0.033015 -0.015962 0.017436
# 3 -0.003215 -0.001922 0.012363 -0.012518 -0.001779 0.000009
# 4 0.012424 -0.033015 -0.012518 0.091184 0.029276 -0.009421
# 5 0.007115 -0.015962 -0.001779 0.029276 0.051153 -0.009722
# 6 0.000549 0.017436 0.000009 -0.009421 -0.009722 0.036947
#
#
# Mechanical properties :
#
#
# Convention : Reuss Voigt Hill
#
# Bulk Modulus (GPa) = 24.04160 55.21556 39.62858
# Shear Modulus (GPa) = 16.05455 27.88792 21.97124
#
# Velocity S-wave (km/s) = 2.82707 3.72602 3.30723
# Velocity P-wave (km/s) = 4.75656 6.78222 5.85762
#
# Compressibility (1/GPa) = 0.04159457
#
# Stress axis : x y z
#
# Youngs Moduli (GPa) = 67.83744 18.92593 80.88545
#
# Poissons Ratio (x) = 0.26567 0.26002
# Poissons Ratio (y) = 0.95227 0.15542
# Poissons Ratio (z) = 0.21807 0.03637
#
# Static dielectric constant tensor:
#      x y z
#    x 1.756340 -0.014920 -0.035750 
#    y -0.014920 1.768550 0.015050 
#    z -0.035750 0.015050 1.748700 
# 
# From -- ./inp_files/263389.got.cif
#   From: 2010.05.17/outbox.cif.g08.bks.cpg/sg2_132_cif.got.tgz:263389.got - 2010.06.03 11:33:40.
