data_PCOD9079626
_publ_section_title
;
Structure prediction by ZEFSAII (Michael W. Deem and Ramdas Pophale) SiO2 
 PCOD9079626
Probable space group: P -1
;
_chemical_formula_sum "Si O2"
_cell_formula_units_Z 14
_cell_length_a 5.548809
_cell_length_b 12.985794
_cell_length_c 11.991396
_cell_angle_alpha 112.706854
_cell_angle_beta 55.028454
_cell_angle_gamma 108.451707
_cell_volume 647.948563
_symmetry_space_group_name_H-M "P -1"
_symmetry_group_IT_number 2
_symmetry_cell_setting 'triclinic'
loop_
_space_group_symop_operation_xyz
x,y,z
-x,-y,-z
loop_
_atom_site_type_symbol
_atom_site_label
_atom_site_fract_x
_atom_site_fract_y
_atom_site_fract_z
Si Si1 0.863970 0.946230 0.374846
Si Si2 0.427309 0.916716 0.085184
Si Si3 0.205008 0.459329 0.764054
Si Si4 0.113339 0.668834 0.002579
Si Si5 0.369047 0.197967 0.834680
Si Si6 0.882457 0.414292 0.592048
Si Si7 0.084476 0.820883 0.452371
O O1 0.744328 0.866394 0.273516
O O2 0.206801 0.968727 0.251273
O O3 0.840864 0.874379 0.465326
O O4 0.772284 0.069337 0.471744
O O5 0.292062 0.792006 0.025806
O O6 0.689226 0.887252 0.083139
O O7 0.500000 0.000000 0.000000
O O8 0.521297 0.410448 0.677272
O O9 0.968068 0.395428 0.886889
O O10 0.053715 0.452328 0.678942
O O11 0.257078 0.587873 0.847400
O O12 0.793125 0.695016 0.054109
O O13 0.711090 0.221328 0.718495
O O14 0.971244 0.287822 0.501530
O O15 0.000000 0.500000 0.500000
#
# Coordination Sequence:
#
# PCOD9079626 Si02
#       7
#     2   2   2   2   2   2   2
#     4   9  20  36  60  91 114 168 214 266 318 381
#     4  10  22  38  57  93 132 164 211 269 337 395
#     4  11  25  45  69 100 128 176 232 270 324 400
#     4  10  23  39  69  93 127 171 224 278 326 385
#     4  10  18  37  62  88 119 163 208 268 320 379
#     4  12  26  45  66  98 139 176 218 276 339 393
#     4  10  20  38  61  87 125 161 222 263 317 389
#
# _framework density 21.606656000000001
#
# number of rings (size 3 to 8) (size 9 to 14) (size 15 to 20)
#    0.000    1.714    1.429    3.429    2.000    4.571 
#    2.571    0.000    0.000    0.000    0.000    0.000 
#    0.000    0.000    0.000    0.000    0.000    0.000 
#
# Total GULP energy -77958.497853 kJ/mol
# GULP energy per Si atom -5568.464132 kJ/mol
# Density = 2.155748 g / cm^3
# Si number density = 21.606656 Si / 1000 Ang^3
#
#
#
# Elastic Constant Matrix: (Units=GPa)
#
#
# Indices 1 2 3 4 5 6 
#
# 1 69.4088 23.6592 24.4493 2.1720 20.9556 -7.2519
# 2 23.6592 163.3797 43.9807 3.5120 17.4370 -15.4647
# 3 24.4493 43.9807 44.5708 13.4037 10.7515 -6.8884
# 4 2.1720 3.5120 13.4037 46.7234 -7.8416 8.9988
# 5 20.9556 17.4370 10.7515 -7.8416 26.4995 5.3775
# 6 -7.2519 -15.4647 -6.8884 8.9988 5.3775 35.0751
#
#
#
# Elastic Compliance Matrix: (Units=1/GPa)
#
#
# Indices 1 2 3 4 5 6 
#
# 1 0.023150 0.001439 -0.007102 -0.003892 -0.019140 0.007959
# 2 0.001439 0.008834 -0.008062 0.000252 -0.004254 0.003196
# 3 -0.007102 -0.008062 0.043760 -0.015738 -0.013453 0.009671
# 4 -0.003892 0.000252 -0.015738 0.032805 0.022170 -0.015600
# 5 -0.019140 -0.004254 -0.013453 0.022170 0.072830 -0.025328
# 6 0.007959 0.003196 0.009671 -0.015600 -0.025328 0.041350
#
#
# Mechanical properties :
#
#
# Convention : Reuss Voigt Hill
#
# Bulk Modulus (GPa) = 20.70616 51.28197 35.99406
# Shear Modulus (GPa) = 18.77757 34.01093 26.39425
#
# Velocity S-wave (km/s) = 2.95119 3.97179 3.49890
# Velocity P-wave (km/s) = 4.60616 6.69473 5.74613
#
# Compressibility (1/GPa) = 0.04829482
#
# Stress axis : x y z
#
# Youngs Moduli (GPa) = 43.19587 113.20355 22.85205
#
# Poissons Ratio (x) = -0.16290 0.16229
# Poissons Ratio (y) = -0.06216 0.18423
# Poissons Ratio (z) = 0.30676 0.91263
#
# Static dielectric constant tensor:
#      x y z
#    x 2.020950 -0.001740 -0.065410 
#    y -0.001740 1.825540 -0.014570 
#    z -0.065410 -0.014570 1.777400 
# 
# From -- ./inp_files/65597.got.cif
#   From: 2010.05.17/outbox.cif.g08.bks.cpg/sg2_33_cif.got.tgz:65597.got - 2010.06.03 11:33:40.
