data_PCOD9079525
_publ_section_title
;
Structure prediction by ZEFSAII (Michael W. Deem and Ramdas Pophale) SiO2 
 PCOD9079525
Probable space group: P -1
;
_chemical_formula_sum "Si O2"
_cell_formula_units_Z 16
_cell_length_a 8.600747
_cell_length_b 20.696281
_cell_length_c 10.874499
_cell_angle_alpha 135.908369
_cell_angle_beta 96.935078
_cell_angle_gamma 49.094672
_cell_volume 760.522778
_symmetry_space_group_name_H-M "P -1"
_symmetry_group_IT_number 2
_symmetry_cell_setting 'triclinic'
loop_
_space_group_symop_operation_xyz
x,y,z
-x,-y,-z
loop_
_atom_site_type_symbol
_atom_site_label
_atom_site_fract_x
_atom_site_fract_y
_atom_site_fract_z
Si Si1 0.275576 0.856797 0.412067
Si Si2 0.159017 0.712939 0.574308
Si Si3 0.647423 0.494494 0.910578
Si Si4 0.950880 0.484543 0.276141
Si Si5 0.829343 0.672224 0.168162
Si Si6 0.979676 0.371336 0.360599
Si Si7 0.403826 0.958302 0.009098
Si Si8 0.340116 0.816996 0.640979
O O1 0.507561 0.825701 0.382414
O O2 0.197579 0.883896 0.585838
O O3 0.462078 0.677774 0.143054
O O4 0.000000 0.000000 0.500000
O O5 0.335529 0.561374 0.296350
O O6 0.113434 0.678414 0.650375
O O7 0.274964 0.760149 0.641592
O O8 0.851842 0.879857 0.717493
O O9 0.963312 0.352141 0.792229
O O10 0.500000 0.500000 0.000000
O O11 0.861606 0.455323 0.332593
O O12 0.665550 0.655375 0.420351
O O13 0.070434 0.518595 0.399595
O O14 0.142874 0.348180 0.004431
O O15 0.000000 0.500000 0.000000
O O16 0.307971 0.216757 0.150016
O O17 0.292385 0.933043 0.872776
O O18 0.500000 0.000000 0.000000
#
# Coordination Sequence:
#
# PCOD9079525 Si02
#       8
#     2   2   2   2   2   2   2   2
#     4  11  24  41  64 100 133 174 230 285 331 394
#     4  11  21  38  63  90 130 174 218 265 341 400
#     4  11  21  41  68  95 130 178 223 275 334 412
#     4  10  18  37  60  92 124 165 223 274 320 414
#     4  10  19  36  65  90 121 179 220 262 343 392
#     4   9  20  34  60  93 124 162 219 278 324 385
#     4   9  21  38  62  92 124 170 217 273 332 401
#     4  11  21  39  64  87 134 173 218 274 341 401
#
# _framework density 21.038160000000001
#
# number of rings (size 3 to 8) (size 9 to 14) (size 15 to 20)
#    0.000    1.750    3.750    1.875    3.500    1.500 
#    0.000    9.375    0.000    0.000    0.000    0.000 
#    0.000    0.000    0.000    0.000    0.000    0.000 
#
# Total GULP energy -89120.625519 kJ/mol
# GULP energy per Si atom -5570.039095 kJ/mol
# Density = 2.099028 g / cm^3
# Si number density = 21.038160 Si / 1000 Ang^3
#
#
#
# Elastic Constant Matrix: (Units=GPa)
#
#
# Indices 1 2 3 4 5 6 
#
# 1 125.7332 37.4925 25.7085 0.4520 1.9174 13.0549
# 2 37.4925 113.9759 20.3835 3.8641 -1.8137 3.0649
# 3 25.7085 20.3835 72.2563 6.5103 -0.8327 -1.9451
# 4 0.4520 3.8641 6.5103 20.2576 -5.3746 -12.1720
# 5 1.9174 -1.8137 -0.8327 -5.3746 32.2352 4.8997
# 6 13.0549 3.0649 -1.9451 -12.1720 4.8997 28.8680
#
#
#
# Elastic Compliance Matrix: (Units=1/GPa)
#
#
# Indices 1 2 3 4 5 6 
#
# 1 0.009818 -0.002538 -0.002736 -0.002050 -0.000355 -0.005159
# 2 -0.002538 0.010014 -0.001791 -0.001627 0.000520 -0.000811
# 3 -0.002736 -0.001791 0.015722 -0.004306 -0.000361 0.000732
# 4 -0.002050 -0.001627 -0.004306 0.070679 0.007237 0.029383
# 5 -0.000355 0.000520 -0.000361 0.007237 0.032635 -0.002406
# 6 -0.005159 -0.000811 0.000732 0.029383 -0.002406 0.049906
#
#
# Mechanical properties :
#
#
# Convention : Reuss Voigt Hill
#
# Bulk Modulus (GPa) = 46.67552 53.23716 49.95634
# Shear Modulus (GPa) = 23.80439 31.49755 27.65097
#
# Velocity S-wave (km/s) = 3.36741 3.87352 3.62929
# Velocity P-wave (km/s) = 6.11175 6.73539 6.43114
#
# Compressibility (1/GPa) = 0.02142451
#
# Stress axis : x y z
#
# Youngs Moduli (GPa) = 101.85537 99.85836 63.60629
#
# Poissons Ratio (x) = 0.25342 0.17400
# Poissons Ratio (y) = 0.25849 0.11394
# Poissons Ratio (z) = 0.27863 0.17888
#
# Static dielectric constant tensor:
#      x y z
#    x 1.864500 -0.039060 -0.016770 
#    y -0.039060 1.771780 0.030960 
#    z -0.016770 0.030960 1.799880 
# 
# From -- ./inp_files/404940.got.cif
#   From: 2010.05.17/outbox.cif.g08.bks.cpg/sg2_203_cif.got.tgz:404940.got - 2010.06.03 11:33:40.
