data_PCOD9079897
_publ_section_title
;
Structure prediction by ZEFSAII (Michael W. Deem and Ramdas Pophale) SiO2 
 PCOD9079897
Probable space group: P -1
;
_chemical_formula_sum "Si O2"
_cell_formula_units_Z 16
_cell_length_a 8.506940
_cell_length_b 11.710574
_cell_length_c 14.773455
_cell_angle_alpha 147.694997
_cell_angle_beta 92.455954
_cell_angle_gamma 97.364868
_cell_volume 747.638848
_symmetry_space_group_name_H-M "P -1"
_symmetry_group_IT_number 2
_symmetry_cell_setting 'triclinic'
loop_
_space_group_symop_operation_xyz
x,y,z
-x,-y,-z
loop_
_atom_site_type_symbol
_atom_site_label
_atom_site_fract_x
_atom_site_fract_y
_atom_site_fract_z
Si Si1 0.340739 0.568945 0.070643
Si Si2 0.049948 0.033019 0.255589
Si Si3 0.069288 0.852298 0.473941
Si Si4 0.711837 0.814590 0.057677
Si Si5 0.427139 0.762735 0.888331
Si Si6 0.857134 0.392985 0.077406
Si Si7 0.604144 0.626521 0.503173
Si Si8 0.433308 0.962177 0.633156
O O1 0.413272 0.835521 0.267612
O O2 0.500000 0.500000 0.000000
O O3 0.267223 0.406328 0.042332
O O4 0.221743 0.508557 0.941239
O O5 0.221688 0.207506 0.348364
O O6 0.998653 0.100158 0.397792
O O7 0.889105 0.992470 0.161160
O O8 0.080771 0.793866 0.094478
O O9 0.268492 0.907349 0.529684
O O10 0.988044 0.594943 0.268041
O O11 0.000000 0.000000 0.500000
O O12 0.622409 0.936775 0.208632
O O13 0.588743 0.730683 0.917136
O O14 0.288222 0.737499 0.944332
O O15 0.357180 0.561592 0.682958
O O16 0.500000 0.000000 0.000000
O O17 0.500000 0.500000 0.500000
O O18 0.504669 0.763859 0.534295
#
# Coordination Sequence:
#
# PCOD9079897 Si02
#       8
#     2   2   2   2   2   2   2   2
#     4  10  18  37  69  91 133 181 214 269 331 402
#     4  11  24  44  66 103 133 176 223 282 331 397
#     4  11  25  42  65 103 143 177 223 278 338 406
#     4  10  22  41  68  98 134 174 225 271 339 400
#     4  12  25  45  70  97 129 180 230 281 341 410
#     4  12  22  43  66  96 141 175 226 271 338 401
#     4  12  25  47  69  96 134 179 232 286 340 401
#     4  10  21  42  65  95 134 177 223 275 337 397
#
# _framework density 21.400706
#
# number of rings (size 3 to 8) (size 9 to 14) (size 15 to 20)
#    0.000    1.000    5.000    3.750    1.750    2.000 
#    2.250    4.375    0.000    0.000    0.000    0.000 
#    0.000    0.000    0.000    0.000    0.000    0.000 
#
# Total GULP energy -89364.824070 kJ/mol
# GULP energy per Si atom -5585.301504 kJ/mol
# Density = 2.135200 g / cm^3
# Si number density = 21.400706 Si / 1000 Ang^3
#
#
#
# Elastic Constant Matrix: (Units=GPa)
#
#
# Indices 1 2 3 4 5 6 
#
# 1 77.9305 18.8153 34.7456 7.8418 25.4934 17.8290
# 2 18.8153 79.2395 21.2074 20.4735 8.2375 10.2423
# 3 34.7456 21.2074 121.9998 14.5563 17.1213 0.9411
# 4 7.8418 20.4735 14.5563 31.2951 -1.0080 3.4943
# 5 25.4934 8.2375 17.1213 -1.0080 45.0157 7.0474
# 6 17.8290 10.2423 0.9411 3.4943 7.0474 11.4624
#
#
#
# Elastic Compliance Matrix: (Units=1/GPa)
#
#
# Indices 1 2 3 4 5 6 
#
# 1 0.026037 0.001052 -0.006310 -0.000410 -0.006816 -0.036605
# 2 0.001052 0.017064 -0.001923 -0.009086 -0.001113 -0.013272
# 3 -0.006310 -0.001923 0.011027 -0.003853 -0.002437 0.013302
# 4 -0.000410 -0.009086 -0.003853 0.040701 0.005304 -0.006596
# 5 -0.006816 -0.001113 -0.002437 0.005304 0.028471 -0.007325
# 6 -0.036605 -0.013272 0.013302 -0.006596 -0.007325 0.161460
#
#
# Mechanical properties :
#
#
# Convention : Reuss Voigt Hill
#
# Bulk Modulus (GPa) = 25.14734 47.63406 36.39070
# Shear Modulus (GPa) = 16.00626 31.18140 23.59383
#
# Velocity S-wave (km/s) = 2.73780 3.82124 3.32396
# Velocity P-wave (km/s) = 4.66586 6.46341 5.63675
#
# Compressibility (1/GPa) = 0.03976564
#
# Stress axis : x y z
#
# Youngs Moduli (GPa) = 38.40685 58.60399 90.68257
#
# Poissons Ratio (x) = -0.06168 0.57225
# Poissons Ratio (y) = -0.04042 0.17441
# Poissons Ratio (z) = 0.24236 0.11271
#
# Static dielectric constant tensor:
#      x y z
#    x 1.926650 0.137080 0.038070 
#    y 0.137080 1.978330 0.066650 
#    z 0.038070 0.066650 1.782250 
# 
# From -- ./inp_files/403151.got.cif
#   From: 2010.05.17/outbox.cif.g08.bks.cpg/sg2_202_cif.got.tgz:403151.got - 2010.06.03 11:33:40.
