data_PCOD9079158
_publ_section_title
;
Structure prediction by ZEFSAII (Michael W. Deem and Ramdas Pophale) SiO2 
 PCOD9079158
Probable space group: P -1
;
_chemical_formula_sum "Si O2"
_cell_formula_units_Z 16
_cell_length_a 23.411773
_cell_length_b 17.538581
_cell_length_c 9.013529
_cell_angle_alpha 33.006151
_cell_angle_beta 147.727591
_cell_angle_gamma 159.861230
_cell_volume 659.879144
_symmetry_space_group_name_H-M "P -1"
_symmetry_group_IT_number 2
_symmetry_cell_setting 'triclinic'
loop_
_space_group_symop_operation_xyz
x,y,z
-x,-y,-z
loop_
_atom_site_type_symbol
_atom_site_label
_atom_site_fract_x
_atom_site_fract_y
_atom_site_fract_z
Si Si1 0.408627 0.093983 0.662820
Si Si2 0.588770 0.998434 0.509166
Si Si3 0.460556 0.317895 0.900882
Si Si4 0.881496 0.194240 0.277505
Si Si5 0.324664 0.312703 0.015314
Si Si6 0.954202 0.958452 0.791585
Si Si7 0.208851 0.660562 0.367567
Si Si8 0.340972 0.501636 0.252289
O O1 0.416091 0.017647 0.651565
O O2 0.598022 0.325670 0.770906
O O3 0.271222 0.902449 0.795629
O O4 0.322883 0.155243 0.331817
O O5 0.394535 0.828694 0.420112
O O6 0.729737 0.252532 0.470199
O O7 0.630791 0.892317 0.854901
O O8 0.376541 0.384003 0.591934
O O9 0.519718 0.328942 0.851054
O O10 0.639881 0.539586 0.018670
O O11 0.858278 0.008733 0.483992
O O12 0.063720 0.397968 0.433444
O O13 0.877383 0.286956 0.972529
O O14 0.140292 0.155416 0.795358
O O15 0.500000 0.500000 0.000000
O O16 0.843587 0.715978 0.876850
O O17 0.000000 0.000000 0.000000
#
# Coordination Sequence:
#
# PCOD9079158 Si02
#       8
#     2   2   2   2   2   2   2   2
#     4  11  23  39  66  94 137 165 210 273 322 374
#     4  11  22  41  68  94 119 182 219 268 312 378
#     4  10  18  36  63  88 135 165 210 252 321 390
#     4  11  23  45  64  96 132 169 217 276 310 378
#     4  11  21  36  60  97 128 163 202 255 330 389
#     4  12  21  38  67  97 126 167 212 258 322 395
#     4  10  25  43  68  92 125 177 229 260 319 372
#     4  10  21  35  61 101 127 174 202 258 327 391
#
# _framework density 24.246863000000001
#
# number of rings (size 3 to 8) (size 9 to 14) (size 15 to 20)
#    0.000    1.250    3.750    3.750    0.000    1.000 
#    0.000    5.000    0.000    0.000    0.000    0.000 
#    0.000    0.000    0.000    0.000    0.000    0.000 
#
# Total GULP energy -89415.269445 kJ/mol
# GULP energy per Si atom -5588.454340 kJ/mol
# Density = 2.419168 g / cm^3
# Si number density = 24.246863 Si / 1000 Ang^3
#
#
#
# Elastic Constant Matrix: (Units=GPa)
#
#
# Indices 1 2 3 4 5 6 
#
# 1 105.2089 60.8432 12.6592 18.7463 -16.1527 -25.6960
# 2 60.8432 175.6292 3.6441 33.6269 -13.8058 -30.8329
# 3 12.6592 3.6441 76.2578 -1.7504 -0.8805 -6.4026
# 4 18.7463 33.6269 -1.7504 30.5145 -6.2021 -5.0388
# 5 -16.1527 -13.8058 -0.8805 -6.2021 28.6750 5.8892
# 6 -25.6960 -30.8329 -6.4026 -5.0388 5.8892 48.1600
#
#
#
# Elastic Compliance Matrix: (Units=1/GPa)
#
#
# Indices 1 2 3 4 5 6 
#
# 1 0.013847 -0.002921 -0.001829 -0.003736 0.004643 0.004316
# 2 -0.002921 0.008661 0.000182 -0.007141 0.000323 0.003224
# 3 -0.001829 0.000182 0.013545 0.001819 -0.000375 0.001177
# 4 -0.003736 -0.007141 0.001819 0.043555 0.004407 -0.002306
# 5 0.004643 0.000323 -0.000375 0.004407 0.038928 -0.001665
# 6 0.004316 0.003224 0.001177 -0.002306 -0.001665 0.025250
#
#
# Mechanical properties :
#
#
# Convention : Reuss Voigt Hill
#
# Bulk Modulus (GPa) = 37.15333 56.82099 46.98716
# Shear Modulus (GPa) = 30.88442 40.13319 35.50881
#
# Velocity S-wave (km/s) = 3.57283 4.07282 3.83099
# Velocity P-wave (km/s) = 5.69003 6.75295 6.24415
#
# Compressibility (1/GPa) = 0.02691549
#
# Stress axis : x y z
#
# Youngs Moduli (GPa) = 72.21807 115.46615 73.83017
#
# Poissons Ratio (x) = 0.33727 0.13502
# Poissons Ratio (y) = 0.21095 -0.01340
# Poissons Ratio (z) = 0.13208 -0.02096
#
# Static dielectric constant tensor:
#      x y z
#    x 1.954230 -0.004310 -0.014340 
#    y -0.004310 1.982320 0.013560 
#    z -0.014340 0.013560 1.990630 
# 
# From -- ./inp_files/345261.got.cif
#   From: 2010.05.17/outbox.cif.g08.bks.cpg/sg2_173_cif.got.tgz:345261.got - 2010.06.03 11:33:40.
