data_PCOD9079971
_publ_section_title
;
Structure prediction by ZEFSAII (Michael W. Deem and Ramdas Pophale) SiO2 
 PCOD9079971
Probable space group: P -1
;
_chemical_formula_sum "Si O2"
_cell_formula_units_Z 14
_cell_length_a 10.136325
_cell_length_b 11.455948
_cell_length_c 8.315852
_cell_angle_alpha 41.312272
_cell_angle_beta 107.973250
_cell_angle_gamma 103.673020
_cell_volume 606.358798
_symmetry_space_group_name_H-M "P -1"
_symmetry_group_IT_number 2
_symmetry_cell_setting 'triclinic'
loop_
_space_group_symop_operation_xyz
x,y,z
-x,-y,-z
loop_
_atom_site_type_symbol
_atom_site_label
_atom_site_fract_x
_atom_site_fract_y
_atom_site_fract_z
Si Si1 0.842535 0.445095 0.159866
Si Si2 0.002444 0.105675 0.553998
Si Si3 0.353622 0.636458 0.124359
Si Si4 0.065748 0.324907 0.787042
Si Si5 0.652083 0.651248 0.315309
Si Si6 0.303359 0.003107 0.889092
Si Si7 0.811813 0.162307 0.690089
O O1 0.902991 0.626305 0.066928
O O2 0.773692 0.342449 0.395260
O O3 0.969788 0.313532 0.305023
O O4 0.736576 0.434786 0.984377
O O5 0.876541 0.048891 0.685470
O O6 0.000000 0.000000 0.500000
O O7 0.151946 0.078372 0.712531
O O8 0.518823 0.614034 0.193544
O O9 0.314947 0.518942 0.387652
O O10 0.328334 0.843845 0.938665
O O11 0.212288 0.293224 0.789971
O O12 0.000000 0.500000 0.500000
O O13 0.942881 0.193839 0.825658
O O14 0.609609 0.815488 0.246767
O O15 0.302847 0.918418 0.155336
#
# Coordination Sequence:
#
# PCOD9079971 Si02
#       7
#     2   2   2   2   2   2   2
#     4   9  20  37  60  91 125 162 207 257 313 360
#     4  10  19  35  60  97 124 154 202 256 318 366
#     4  11  24  43  61  89 129 169 213 262 300 364
#     4  10  18  38  59  90 119 156 204 253 313 374
#     4  11  25  41  64  90 122 173 218 247 313 379
#     4  12  20  42  67  89 127 167 205 256 316 379
#     4   9  20  35  64  92 123 160 200 255 316 372
#
# _framework density 23.088642
#
# number of rings (size 3 to 8) (size 9 to 14) (size 15 to 20)
#    0.857    0.857    2.857    2.571    0.000    0.571 
#    2.571    7.857    0.000    0.000    0.000    0.000 
#    0.000    0.000    0.000    0.000    0.000    0.000 
#
# Total GULP energy -78132.319972 kJ/mol
# GULP energy per Si atom -5580.879998 kJ/mol
# Density = 2.303609 g / cm^3
# Si number density = 23.088642 Si / 1000 Ang^3
#
#
#
# Elastic Constant Matrix: (Units=GPa)
#
#
# Indices 1 2 3 4 5 6 
#
# 1 75.4828 23.2876 19.7655 12.5280 15.2901 5.7355
# 2 23.2876 163.6788 32.9300 9.6665 19.2669 -3.4284
# 3 19.7655 32.9300 69.7372 8.0059 17.7256 11.4147
# 4 12.5280 9.6665 8.0059 40.6776 9.6383 7.1037
# 5 15.2901 19.2669 17.7256 9.6383 18.2250 1.7850
# 6 5.7355 -3.4284 11.4147 7.1037 1.7850 24.9878
#
#
#
# Elastic Compliance Matrix: (Units=1/GPa)
#
#
# Indices 1 2 3 4 5 6 
#
# 1 0.016396 -0.000807 -0.000954 -0.001719 -0.010852 -0.002174
# 2 -0.000807 0.007359 -0.002431 -0.000361 -0.004817 0.002752
# 3 -0.000954 -0.002431 0.021596 0.002544 -0.018057 -0.009413
# 4 -0.001719 -0.000361 0.002544 0.029829 -0.015624 -0.008181
# 5 -0.010852 -0.004817 -0.018057 -0.015624 0.094128 0.007796
# 6 -0.002174 0.002752 -0.009413 -0.008181 0.007796 0.046965
#
#
# Mechanical properties :
#
#
# Convention : Reuss Voigt Hill
#
# Bulk Modulus (GPa) = 27.05164 51.20723 39.12944
# Shear Modulus (GPa) = 21.09876 32.30579 26.70228
#
# Velocity S-wave (km/s) = 3.02622 3.74466 3.40444
# Velocity P-wave (km/s) = 4.89413 6.39713 5.69543
#
# Compressibility (1/GPa) = 0.03696633
#
# Stress axis : x y z
#
# Youngs Moduli (GPa) = 60.99161 135.87909 46.30386
#
# Poissons Ratio (x) = 0.10971 0.04419
# Poissons Ratio (y) = 0.04924 0.11256
# Poissons Ratio (z) = 0.05820 0.33032
#
# Static dielectric constant tensor:
#      x y z
#    x 1.900610 -0.018910 -0.040140 
#    y -0.018910 1.952390 -0.078420 
#    z -0.040140 -0.078420 1.937900 
# 
# From -- ./inp_files/246551.got.cif
#   From: 2010.05.17/outbox.cif.g08.bks.cpg/sg2_124_cif.got.tgz:246551.got - 2010.06.03 11:33:40.
