data_PCOD9079839
_publ_section_title
;
Structure prediction by ZEFSAII (Michael W. Deem and Ramdas Pophale) SiO2 
 PCOD9079839
Probable space group: P -1
;
_chemical_formula_sum "Si O2"
_cell_formula_units_Z 12
_cell_length_a 20.039825
_cell_length_b 15.881158
_cell_length_c 5.059215
_cell_angle_alpha 92.575160
_cell_angle_beta 83.830714
_cell_angle_gamma 160.867319
_cell_volume 516.697431
_symmetry_space_group_name_H-M "P -1"
_symmetry_group_IT_number 2
_symmetry_cell_setting 'triclinic'
loop_
_space_group_symop_operation_xyz
x,y,z
-x,-y,-z
loop_
_atom_site_type_symbol
_atom_site_label
_atom_site_fract_x
_atom_site_fract_y
_atom_site_fract_z
Si Si1 0.514289 0.577680 0.254834
Si Si2 0.310389 0.061890 0.542176
Si Si3 0.015874 0.610620 0.254102
Si Si4 0.668280 0.143225 0.687252
Si Si5 0.256382 0.604687 0.994588
Si Si6 0.580668 0.370144 0.930323
O O1 0.500000 0.500000 0.500000
O O2 0.707409 0.867622 0.301121
O O3 0.500000 0.500000 0.000000
O O4 0.358381 0.469555 0.218648
O O5 0.459382 0.245677 0.240831
O O6 0.108415 0.777058 0.477108
O O7 0.423103 0.146069 0.743668
O O8 0.190458 0.747150 0.165239
O O9 0.808698 0.316681 0.393510
O O10 0.950176 0.600013 0.063801
O O11 0.443942 0.834600 0.732388
O O12 0.660152 0.229091 0.804704
O O13 0.251662 0.502665 0.070409
#
# Coordination Sequence:
#
# PCOD9079839 Si02
#       6
#     2   2   2   2   2   2
#     4  10  18  37  66  96 122 166 208 259 334 406
#     4  10  22  38  64  95 131 161 219 265 323 387
#     4  11  23  39  63  90 132 177 224 267 320 366
#     4  10  24  39  58  92 132 180 230 255 316 380
#     4  11  23  39  63  90 132 177 224 267 320 366
#     4  10  22  38  64  95 131 161 219 265 323 387
#
# _framework density 23.224425
#
# number of rings (size 3 to 8) (size 9 to 14) (size 15 to 20)
#    1.000    0.667    3.333    1.000    4.667    5.333 
#    0.000    0.000    0.000    2.000    0.000    0.000 
#    0.000    0.000    0.000    0.000    0.000    0.000 
#
# Total GULP energy -66821.207466 kJ/mol
# GULP energy per Si atom -5568.433956 kJ/mol
# Density = 2.317156 g / cm^3
# Si number density = 23.224425 Si / 1000 Ang^3
#
#
#
# Elastic Constant Matrix: (Units=GPa)
#
#
# Indices 1 2 3 4 5 6 
#
# 1 215.1554 34.2118 56.6102 13.0300 30.7832 0.1932
# 2 34.2118 36.9456 23.8155 2.1064 -1.7862 8.5745
# 3 56.6102 23.8155 150.4131 19.0551 10.3475 -1.5008
# 4 13.0300 2.1064 19.0551 26.0748 -5.9699 2.2761
# 5 30.7832 -1.7862 10.3475 -5.9699 45.1267 20.1891
# 6 0.1932 8.5745 -1.5008 2.2761 20.1891 37.3629
#
#
#
# Elastic Compliance Matrix: (Units=1/GPa)
#
#
# Indices 1 2 3 4 5 6 
#
# 1 0.007978 -0.009454 0.000087 -0.006348 -0.010290 0.008079
# 2 -0.009454 0.046338 -0.007265 0.013490 0.022377 -0.023791
# 3 0.000087 -0.007265 0.009286 -0.008173 -0.006189 0.005882
# 4 -0.006348 0.013490 -0.008173 0.053074 0.022055 -0.018542
# 5 -0.010290 0.022377 -0.006189 0.022055 0.049308 -0.033318
# 6 0.008079 -0.023791 0.005882 -0.018542 -0.033318 0.051552
#
#
# Mechanical properties :
#
#
# Convention : Reuss Voigt Hill
#
# Bulk Modulus (GPa) = 32.96133 70.19878 51.58006
# Shear Modulus (GPa) = 19.16360 40.90465 30.03413
#
# Velocity S-wave (km/s) = 2.87566 4.20131 3.60003
# Velocity P-wave (km/s) = 5.02486 7.33666 6.28792
#
# Compressibility (1/GPa) = 0.03033858
#
# Stress axis : x y z
#
# Youngs Moduli (GPa) = 125.35048 21.58039 107.69365
#
# Poissons Ratio (x) = 0.20402 -0.00938
# Poissons Ratio (y) = 1.18507 0.78234
# Poissons Ratio (z) = -0.01092 0.15677
#
# Static dielectric constant tensor:
#      x y z
#    x 1.927990 0.020470 -0.002400 
#    y 0.020470 1.926760 -0.044910 
#    z -0.002400 -0.044910 2.004490 
# 
# From -- ./inp_files/119579.got.cif
#   From: 2010.05.17/outbox.cif.g08.bks.cpg/sg2_60_cif.got.tgz:119579.got - 2010.06.03 11:33:40.
