data_PCOD9079378
_publ_section_title
;
Structure prediction by ZEFSAII (Michael W. Deem and Ramdas Pophale) SiO2 
 PCOD9079378
Probable space group: P -1
;
_chemical_formula_sum "Si O2"
_cell_formula_units_Z 16
_cell_length_a 8.604534
_cell_length_b 18.088006
_cell_length_c 8.435468
_cell_angle_alpha 135.817537
_cell_angle_beta 98.431003
_cell_angle_gamma 56.543136
_cell_volume 690.018770
_symmetry_space_group_name_H-M "P -1"
_symmetry_group_IT_number 2
_symmetry_cell_setting 'triclinic'
loop_
_space_group_symop_operation_xyz
x,y,z
-x,-y,-z
loop_
_atom_site_type_symbol
_atom_site_label
_atom_site_fract_x
_atom_site_fract_y
_atom_site_fract_z
Si Si1 0.535467 0.314172 0.649668
Si Si2 0.103829 0.840120 0.296990
Si Si3 0.986418 0.391403 0.410629
Si Si4 0.200676 0.446623 0.048997
Si Si5 0.707008 0.930535 0.525536
Si Si6 0.406387 0.460793 0.546538
Si Si7 0.632996 0.847031 0.711686
Si Si8 0.450094 0.771697 0.023361
O O1 0.756926 0.219994 0.617039
O O2 0.514187 0.403413 0.639676
O O3 0.477246 0.217869 0.442743
O O4 0.356547 0.427970 0.918540
O O5 0.283060 0.766333 0.074276
O O6 0.911294 0.845938 0.314569
O O7 0.000000 0.000000 0.500000
O O8 0.874318 0.451484 0.657302
O O9 0.834381 0.404857 0.282538
O O10 0.000000 0.500000 0.500000
O O11 0.198185 0.248219 0.273214
O O12 0.357707 0.295072 0.927980
O O13 0.000000 0.500000 0.000000
O O14 0.721182 0.850551 0.560652
O O15 0.500000 0.000000 0.500000
O O16 0.665694 0.069750 0.791174
O O17 0.500000 0.500000 0.500000
O O18 0.450595 0.327905 0.265864
O O19 0.500000 0.000000 0.000000
#
# Coordination Sequence:
#
# PCOD9079378 Si02
#       8
#     2   2   2   2   2   2   2   2
#     4  11  22  44  67  99 133 176 227 282 334 400
#     4   9  20  42  66  92 132 169 218 274 336 398
#     4  11  23  44  67  95 136 179 223 281 333 395
#     4  10  18  36  71  91 122 175 223 271 327 381
#     4  11  23  42  68  98 131 173 222 277 337 414
#     4  11  24  44  64  94 133 177 228 272 333 400
#     4  12  25  42  64 102 139 174 226 275 341 403
#     4   9  21  42  64  94 136 173 218 280 333 393
#
# _framework density 23.187774999999998
#
# number of rings (size 3 to 8) (size 9 to 14) (size 15 to 20)
#    0.000    1.500    2.500    3.000    3.500    0.000 
#    9.000    5.000    0.000    0.000    0.000    0.000 
#    0.000    0.000    0.000    0.000    0.000    0.000 
#
# Total GULP energy -89273.959716 kJ/mol
# GULP energy per Si atom -5579.622482 kJ/mol
# Density = 2.313500 g / cm^3
# Si number density = 23.187775 Si / 1000 Ang^3
#
#
#
# Elastic Constant Matrix: (Units=GPa)
#
#
# Indices 1 2 3 4 5 6 
#
# 1 130.3624 60.3977 16.7130 10.7089 -18.0956 -5.3011
# 2 60.3977 192.4818 22.9746 8.2526 -17.5893 -4.4934
# 3 16.7130 22.9746 97.8299 9.4407 -13.2851 -2.4265
# 4 10.7089 8.2526 9.4407 32.8719 -1.1103 -11.1791
# 5 -18.0956 -17.5893 -13.2851 -1.1103 33.6097 5.3169
# 6 -5.3011 -4.4934 -2.4265 -11.1791 5.3169 48.4292
#
#
#
# Elastic Compliance Matrix: (Units=1/GPa)
#
#
# Indices 1 2 3 4 5 6 
#
# 1 0.009579 -0.002538 -0.000326 -0.002314 0.003646 -0.000138
# 2 -0.002538 0.006249 -0.000773 -0.000473 0.001586 -0.000020
# 3 -0.000326 -0.000773 0.011261 -0.003030 0.003877 -0.000668
# 4 -0.002314 -0.000473 -0.003030 0.034749 -0.002790 0.007879
# 5 0.003646 0.001586 0.003877 -0.002790 0.034572 -0.003699
# 6 -0.000138 -0.000020 -0.000668 0.007879 -0.003699 0.022823
#
#
# Mechanical properties :
#
#
# Convention : Reuss Voigt Hill
#
# Bulk Modulus (GPa) = 50.46501 68.98273 59.72387
# Shear Modulus (GPa) = 37.56256 44.35473 40.95865
#
# Velocity S-wave (km/s) = 4.02920 4.37836 4.20740
# Velocity P-wave (km/s) = 6.59218 7.44139 7.02962
#
# Compressibility (1/GPa) = 0.01981571
#
# Stress axis : x y z
#
# Youngs Moduli (GPa) = 104.39557 160.03521 88.79892
#
# Poissons Ratio (x) = 0.40612 0.02891
# Poissons Ratio (y) = 0.26493 0.06868
# Poissons Ratio (z) = 0.03398 0.12377
#
# Static dielectric constant tensor:
#      x y z
#    x 1.929660 -0.019110 -0.020540 
#    y -0.019110 1.855430 0.002780 
#    z -0.020540 0.002780 1.868140 
# 
# From -- ./inp_files/218608.got.cif
#   From: 2010.05.17/outbox.cif.g08.bks.cpg/sg2_110_cif.got.tgz:218608.got - 2010.06.03 11:33:40.
