data_PCOD9079283
_publ_section_title
;
Structure prediction by ZEFSAII (Michael W. Deem and Ramdas Pophale) SiO2 
 PCOD9079283
Probable space group: P -1
;
_chemical_formula_sum "Si O2"
_cell_formula_units_Z 16
_cell_length_a 8.876657
_cell_length_b 9.962169
_cell_length_c 19.340080
_cell_angle_alpha 156.650039
_cell_angle_beta 113.355860
_cell_angle_gamma 67.730367
_cell_volume 621.782592
_symmetry_space_group_name_H-M "P -1"
_symmetry_group_IT_number 2
_symmetry_cell_setting 'triclinic'
loop_
_space_group_symop_operation_xyz
x,y,z
-x,-y,-z
loop_
_atom_site_type_symbol
_atom_site_label
_atom_site_fract_x
_atom_site_fract_y
_atom_site_fract_z
Si Si1 0.517960 0.313699 0.560351
Si Si2 0.219970 0.900696 0.283601
Si Si3 0.274244 0.858838 0.599067
Si Si4 0.889292 0.675402 0.319227
Si Si5 0.815332 0.554722 0.812047
Si Si6 0.691589 0.039401 0.120214
Si Si7 0.947880 0.487230 0.391867
Si Si8 0.644840 0.604304 0.025803
O O1 0.571298 0.336698 0.500709
O O2 0.689559 0.332265 0.640787
O O3 0.413280 0.627990 0.720890
O O4 0.400831 0.997132 0.389994
O O5 0.141605 0.655420 0.209657
O O6 0.117812 0.256450 0.439052
O O7 0.239622 0.722164 0.128427
O O8 0.130017 0.594490 0.456217
O O9 0.241824 0.178579 0.690638
O O10 0.288999 0.062042 0.768333
O O11 0.849857 0.579417 0.344686
O O12 0.016927 0.402731 0.178661
O O13 0.000000 0.000000 0.500000
O O14 0.717628 0.895279 0.979785
O O15 0.878604 0.117183 0.215168
O O16 0.606950 0.743303 0.007742
O O17 0.500000 0.500000 0.000000
#
# Coordination Sequence:
#
# PCOD9079283 Si02
#       8
#     2   2   2   2   2   2   2   2
#     4  11  20  38  63  93 123 167 201 251 319 365
#     4  10  20  37  64  90 124 160 210 259 291 367
#     4  11  21  39  69  91 121 171 210 244 314 366
#     4  10  18  36  65  94 124 155 204 254 306 369
#     4  11  19  38  62  96 128 160 203 253 310 370
#     4  10  26  40  60  92 132 162 206 258 305 364
#     4  10  20  42  63  95 126 158 202 258 315 365
#     4  11  24  45  62  89 124 164 216 259 300 366
#
# _framework density 25.732468000000001
#
# number of rings (size 3 to 8) (size 9 to 14) (size 15 to 20)
#    0.000    1.500    6.250    0.750    0.000    3.000 
#    2.250    0.000    0.000    0.000    0.000    0.000 
#    0.000    0.000    0.000    0.000    0.000    0.000 
#
# Total GULP energy -89289.034047 kJ/mol
# GULP energy per Si atom -5580.564628 kJ/mol
# Density = 2.567390 g / cm^3
# Si number density = 25.732468 Si / 1000 Ang^3
#
#
#
# Elastic Constant Matrix: (Units=GPa)
#
#
# Indices 1 2 3 4 5 6 
#
# 1 128.3195 21.5194 50.8803 1.6857 -25.4217 29.5530
# 2 21.5194 42.2292 11.7283 -4.6480 -10.5180 16.2976
# 3 50.8803 11.7283 150.2101 -10.3491 -26.5931 12.1070
# 4 1.6857 -4.6480 -10.3491 32.5491 11.4225 -0.6434
# 5 -25.4217 -10.5180 -26.5931 11.4225 59.7352 -3.9266
# 6 29.5530 16.2976 12.1070 -0.6434 -3.9266 33.3670
#
#
#
# Elastic Compliance Matrix: (Units=1/GPa)
#
#
# Indices 1 2 3 4 5 6 
#
# 1 0.011830 -0.001469 -0.002799 -0.003134 0.003578 -0.008384
# 2 -0.001469 0.030706 -0.000038 0.003023 0.003317 -0.013234
# 3 -0.002799 -0.000038 0.008118 0.002008 0.002021 -0.000171
# 4 -0.003134 0.003023 0.002008 0.034217 -0.006419 0.000475
# 5 0.003578 0.003317 0.002021 -0.006419 0.020764 -0.003202
# 6 -0.008384 -0.013234 -0.000171 0.000475 -0.003202 0.043554
#
#
# Mechanical properties :
#
#
# Convention : Reuss Voigt Hill
#
# Bulk Modulus (GPa) = 23.78553 54.33496 39.06025
# Shear Modulus (GPa) = 29.10085 40.90566 35.00325
#
# Velocity S-wave (km/s) = 3.36653 3.99137 3.69219
# Velocity P-wave (km/s) = 4.93709 6.51172 5.77830
#
# Compressibility (1/GPa) = 0.04204236
#
# Stress axis : x y z
#
# Youngs Moduli (GPa) = 84.52868 32.56710 123.17626
#
# Poissons Ratio (x) = 0.04785 0.34480
# Poissons Ratio (y) = 0.12419 0.00464
# Poissons Ratio (z) = 0.23662 0.00123
#
# Static dielectric constant tensor:
#      x y z
#    x 2.075180 -0.065070 -0.042720 
#    y -0.065070 2.147800 0.015070 
#    z -0.042720 0.015070 2.058690 
# 
# From -- ./inp_files/181477.got.cif
#   From: 2010.05.17/outbox.cif.g08.bks.cpg/sg2_91_cif.got.tgz:181477.got - 2010.06.03 11:33:40.
