data_PCOD9079300
_publ_section_title
;
Structure prediction by ZEFSAII (Michael W. Deem and Ramdas Pophale) SiO2 
 PCOD9079300
Probable space group: P -1
;
_chemical_formula_sum "Si O2"
_cell_formula_units_Z 16
_cell_length_a 14.993173
_cell_length_b 12.971047
_cell_length_c 9.349582
_cell_angle_alpha 40.396868
_cell_angle_beta 111.756786
_cell_angle_gamma 132.798629
_cell_volume 822.426237
_symmetry_space_group_name_H-M "P -1"
_symmetry_group_IT_number 2
_symmetry_cell_setting 'triclinic'
loop_
_space_group_symop_operation_xyz
x,y,z
-x,-y,-z
loop_
_atom_site_type_symbol
_atom_site_label
_atom_site_fract_x
_atom_site_fract_y
_atom_site_fract_z
Si Si1 0.751489 0.464851 0.556096
Si Si2 0.948676 0.558966 0.139187
Si Si3 0.503992 0.336921 0.601364
Si Si4 0.131636 0.518620 0.130610
Si Si5 0.655755 0.005484 0.349169
Si Si6 0.242741 0.903134 0.381648
Si Si7 0.990561 0.179559 0.826350
Si Si8 0.431733 0.007377 0.148428
O O1 0.638347 0.465301 0.462938
O O2 0.797451 0.529985 0.677714
O O3 0.875185 0.612365 0.377127
O O4 0.680396 0.219092 0.752360
O O5 0.823752 0.342027 0.366957
O O6 0.013935 0.747302 0.093885
O O7 0.030041 0.494915 0.199380
O O8 0.918249 0.604316 0.919243
O O9 0.500000 0.500000 0.500000
O O10 0.389537 0.179275 0.590745
O O11 0.492313 0.186874 0.874578
O O12 0.226663 0.764274 0.883929
O O13 0.698642 0.985792 0.548059
O O14 0.537184 0.001780 0.281605
O O15 0.130493 0.886948 0.264125
O O16 0.359129 0.019661 0.217296
O O17 0.000000 0.000000 0.000000
#
# Coordination Sequence:
#
# PCOD9079300 Si02
#       8
#     2   2   2   2   2   2   2   2
#     4  11  20  41  62  87 117 159 209 245 293 363
#     4  10  21  37  62  90 116 158 204 254 299 353
#     4  11  24  39  61  90 125 162 193 244 308 365
#     4  10  18  36  66  89 114 147 216 259 286 343
#     4  10  21  39  60  93 116 154 206 255 295 350
#     4  11  22  38  64  87 119 158 208 253 295 359
#     4  12  26  41  58  91 131 164 196 248 320 369
#     4  11  20  39  66  88 118 157 207 250 294 355
#
# _framework density 19.454633000000001
#
# number of rings (size 3 to 8) (size 9 to 14) (size 15 to 20)
#    0.000    1.250    5.000    2.250    1.750    0.000 
#    2.250    1.250    0.000    0.000    0.000    0.000 
#    0.000    0.000    0.000    0.000    0.000    0.000 
#
# Total GULP energy -89217.162413 kJ/mol
# GULP energy per Si atom -5576.072651 kJ/mol
# Density = 1.941035 g / cm^3
# Si number density = 19.454633 Si / 1000 Ang^3
#
#
#
# Elastic Constant Matrix: (Units=GPa)
#
#
# Indices 1 2 3 4 5 6 
#
# 1 63.0901 46.2106 24.5710 -2.7227 -17.6949 -4.9894
# 2 46.2106 159.8926 44.1747 25.5726 9.6216 -12.4637
# 3 24.5710 44.1747 39.0363 6.5634 -5.8579 -6.6317
# 4 -2.7227 25.5726 6.5634 24.7721 -2.9777 -5.1890
# 5 -17.6949 9.6216 -5.8579 -2.9777 30.4561 -5.5602
# 6 -4.9894 -12.4637 -6.6317 -5.1890 -5.5602 28.4302
#
#
#
# Elastic Compliance Matrix: (Units=1/GPa)
#
#
# Indices 1 2 3 4 5 6 
#
# 1 0.040919 -0.015873 -0.005981 0.028521 0.032317 0.010353
# 2 -0.015873 0.017918 -0.010629 -0.020890 -0.019903 -0.005115
# 3 -0.005981 -0.010629 0.043767 0.001262 0.009632 0.006614
# 4 0.028521 -0.020890 0.001262 0.072054 0.033345 0.015814
# 5 0.032317 -0.019903 0.009632 0.033345 0.066343 0.018254
# 6 0.010353 -0.005115 0.006614 0.015814 0.018254 0.042748
#
#
# Mechanical properties :
#
#
# Convention : Reuss Voigt Hill
#
# Bulk Modulus (GPa) = 26.56863 54.65907 40.61385
# Shear Modulus (GPa) = 13.84038 26.53586 20.18812
#
# Velocity S-wave (km/s) = 2.67014 3.69723 3.22483
# Velocity P-wave (km/s) = 4.81586 6.81048 5.89810
#
# Compressibility (1/GPa) = 0.03763838
#
# Stress axis : x y z
#
# Youngs Moduli (GPa) = 24.43823 55.80904 22.84825
#
# Poissons Ratio (x) = 0.88586 0.13666
# Poissons Ratio (y) = 0.38791 0.24286
# Poissons Ratio (z) = 0.14616 0.59321
#
# Static dielectric constant tensor:
#      x y z
#    x 1.708880 0.013030 -0.007380 
#    y 0.013030 1.725910 0.026360 
#    z -0.007380 0.026360 1.674600 
# 
# From -- ./inp_files/200260.got.cif
#   From: 2010.05.17/outbox.cif.g08.bks.cpg/sg2_101_cif.got.tgz:200260.got - 2010.06.03 11:33:40.
