data_PCOD9079540
_publ_section_title
;
Structure prediction by ZEFSAII (Michael W. Deem and Ramdas Pophale) SiO2 
 PCOD9079540
Probable space group: P -1
;
_chemical_formula_sum "Si O2"
_cell_formula_units_Z 16
_cell_length_a 9.760959
_cell_length_b 13.280651
_cell_length_c 12.729531
_cell_angle_alpha 146.771335
_cell_angle_beta 89.740082
_cell_angle_gamma 108.911010
_cell_volume 733.683508
_symmetry_space_group_name_H-M "P -1"
_symmetry_group_IT_number 2
_symmetry_cell_setting 'triclinic'
loop_
_space_group_symop_operation_xyz
x,y,z
-x,-y,-z
loop_
_atom_site_type_symbol
_atom_site_label
_atom_site_fract_x
_atom_site_fract_y
_atom_site_fract_z
Si Si1 0.683989 0.973027 0.519157
Si Si2 0.584577 0.943305 0.863487
Si Si3 0.904143 0.109054 0.114474
Si Si4 0.670915 0.386801 0.829171
Si Si5 0.120291 0.836603 0.592473
Si Si6 0.909528 0.332989 0.111937
Si Si7 0.590416 0.224884 0.479192
Si Si8 0.974465 0.849994 0.235178
O O1 0.712662 0.203016 0.680313
O O2 0.585073 0.925713 0.588012
O O3 0.860534 0.010459 0.568885
O O4 0.528715 0.754706 0.265429
O O5 0.715062 0.922563 0.909130
O O6 0.708912 0.169647 0.990718
O O7 0.453470 0.749137 0.615178
O O8 0.500000 0.000000 0.000000
O O9 0.909880 0.171133 0.289186
O O10 0.975185 0.312752 0.208348
O O11 0.000000 0.000000 0.000000
O O12 0.684154 0.433016 0.742747
O O13 0.813939 0.619070 0.084212
O O14 0.988050 0.593776 0.326851
O O15 0.302098 0.878624 0.617397
O O16 0.091499 0.011236 0.691998
O O17 0.958108 0.231179 0.930408
#
# Coordination Sequence:
#
# PCOD9079540 Si02
#       8
#     2   2   2   2   2   2   2   2
#     4   9  19  40  65  85 122 157 200 243 307 359
#     4  10  19  33  57  85 114 155 196 238 296 353
#     4  10  20  34  56  82 118 153 198 241 289 352
#     4   9  20  38  66  86 116 163 193 250 307 348
#     4  12  22  36  60  88 119 157 202 245 293 358
#     4  10  20  37  58  81 120 157 189 243 299 340
#     4  10  18  37  61  83 120 156 196 244 297 357
#     4  12  21  38  64  91 117 156 203 243 299 360
#
# _framework density 21.807770000000001
#
# number of rings (size 3 to 8) (size 9 to 14) (size 15 to 20)
#    1.500    0.250    5.000    0.750    0.000    0.000 
#    2.250    1.250    0.000    3.000    0.000    0.000 
#    0.000    0.000    0.000    0.000    0.000    0.000 
#
# Total GULP energy -89074.915386 kJ/mol
# GULP energy per Si atom -5567.182212 kJ/mol
# Density = 2.175813 g / cm^3
# Si number density = 21.807770 Si / 1000 Ang^3
#
#
#
# Elastic Constant Matrix: (Units=GPa)
#
#
# Indices 1 2 3 4 5 6 
#
# 1 126.5623 -1.2689 33.5616 6.9469 22.8538 -13.0180
# 2 -1.2689 29.4944 16.5574 -4.1545 4.0832 3.1771
# 3 33.5616 16.5574 72.6916 2.0758 8.2052 1.3021
# 4 6.9469 -4.1545 2.0758 38.5919 4.0037 -1.6001
# 5 22.8538 4.0832 8.2052 4.0037 30.9576 -5.1466
# 6 -13.0180 3.1771 1.3021 -1.6001 -5.1466 31.6349
#
#
#
# Elastic Compliance Matrix: (Units=1/GPa)
#
#
# Indices 1 2 3 4 5 6 
#
# 1 0.010858 0.003889 -0.005203 -0.000443 -0.006560 0.003202
# 2 0.003889 0.042035 -0.010699 0.004973 -0.006725 -0.003023
# 3 -0.005203 -0.010699 0.018648 -0.001313 0.000168 -0.001873
# 4 -0.000443 0.004973 -0.001313 0.026962 -0.003439 0.000177
# 5 -0.006560 -0.006725 0.000168 -0.003439 0.039124 0.004160
# 6 0.003202 -0.003023 -0.001873 0.000177 0.004160 0.033995
#
#
# Mechanical properties :
#
#
# Convention : Reuss Voigt Hill
#
# Bulk Modulus (GPa) = 21.04576 36.27204 28.65890
# Shear Modulus (GPa) = 23.64205 32.23010 27.93608
#
# Velocity S-wave (km/s) = 3.29616 3.84854 3.58301
# Velocity P-wave (km/s) = 4.91505 6.03466 5.50340
#
# Compressibility (1/GPa) = 0.04751550
#
# Stress axis : x y z
#
# Youngs Moduli (GPa) = 92.09532 23.78944 53.62458
#
# Poissons Ratio (x) = -0.09252 0.27903
# Poissons Ratio (y) = -0.35817 0.57373
# Poissons Ratio (z) = 0.47920 0.25452
#
# Static dielectric constant tensor:
#      x y z
#    x 1.810420 0.013740 0.057960 
#    y 0.013740 1.859820 -0.034230 
#    z 0.057960 -0.034230 1.825630 
# 
# From -- ./inp_files/504710.got.cif
#   From: 2010.05.17/outbox.cif.g08.bks.cpg/sg2_253_cif.got.tgz:504710.got - 2010.06.03 11:33:40.
