data_PCOD9079720
_publ_section_title
;
Structure prediction by ZEFSAII (Michael W. Deem and Ramdas Pophale) SiO2 
 PCOD9079720
Probable space group: P -1
;
_chemical_formula_sum "Si O2"
_cell_formula_units_Z 16
_cell_length_a 19.165267
_cell_length_b 9.261226
_cell_length_c 20.022725
_cell_angle_alpha 43.644866
_cell_angle_beta 21.017806
_cell_angle_gamma 52.518249
_cell_volume 846.922564
_symmetry_space_group_name_H-M "P -1"
_symmetry_group_IT_number 2
_symmetry_cell_setting 'triclinic'
loop_
_space_group_symop_operation_xyz
x,y,z
-x,-y,-z
loop_
_atom_site_type_symbol
_atom_site_label
_atom_site_fract_x
_atom_site_fract_y
_atom_site_fract_z
Si Si1 0.020245 0.826204 0.190577
Si Si2 0.749660 0.010423 0.526035
Si Si3 0.579423 0.889153 0.116700
Si Si4 0.923866 0.737074 0.943313
Si Si5 0.595199 0.572355 0.599321
Si Si6 0.552029 0.124347 0.274585
Si Si7 0.436720 0.618758 0.580825
Si Si8 0.945576 0.256299 0.655425
O O1 0.825133 0.677045 0.379164
O O2 0.033120 0.747345 0.281636
O O3 0.006880 0.076650 0.124542
O O4 0.223836 0.825950 0.970950
O O5 0.603441 0.865890 0.649310
O O6 0.897069 0.873675 0.467460
O O7 0.603646 0.073288 0.688762
O O8 0.896421 0.217175 0.286721
O O9 0.488222 0.680803 0.221954
O O10 0.740769 0.815382 0.044925
O O11 0.719314 0.113135 0.887329
O O12 0.801527 0.496984 0.155008
O O13 0.469008 0.714980 0.701826
O O14 0.561184 0.586748 0.545771
O O15 0.484439 0.873772 0.440986
O O16 0.500000 0.500000 0.500000
O O17 0.000000 0.500000 0.500000
#
# Coordination Sequence:
#
# PCOD9079720 Si02
#       8
#     2   2   2   2   2   2   2   2
#     4  10  20  38  59  84 121 156 196 241 302 346
#     4  10  18  37  64  81 116 159 192 238 302 345
#     4   9  19  38  59  86 119 155 190 236 295 352
#     4   9  18  36  56  82 114 156 201 241 280 344
#     4  11  23  38  57  86 123 161 197 241 294 340
#     4  12  20  37  60  84 122 163 199 244 296 337
#     4  11  22  38  58  85 122 160 210 250 278 342
#     4  10  21  39  67  96 114 143 199 245 291 372
#
# _framework density 18.891926999999999
#
# number of rings (size 3 to 8) (size 9 to 14) (size 15 to 20)
#    0.000    2.000    6.250    1.125    0.000    4.500 
#    0.000    0.625    0.000    1.500    0.000    0.000 
#    0.000    0.000    0.000    0.000    0.000    0.000 
#
# Total GULP energy -89250.501644 kJ/mol
# GULP energy per Si atom -5578.156353 kJ/mol
# Density = 1.884893 g / cm^3
# Si number density = 18.891927 Si / 1000 Ang^3
#
#
#
# Elastic Constant Matrix: (Units=GPa)
#
#
# Indices 1 2 3 4 5 6 
#
# 1 40.8635 21.8602 35.1286 -13.4797 -6.5460 9.7190
# 2 21.8602 97.3023 76.8349 -11.5310 10.9498 15.1888
# 3 35.1286 76.8349 175.3661 -7.2785 -15.8213 3.2516
# 4 -13.4797 -11.5310 -7.2785 42.8314 3.0923 -3.9486
# 5 -6.5460 10.9498 -15.8213 3.0923 26.9085 -5.2350
# 6 9.7190 15.1888 3.2516 -3.9486 -5.2350 23.2990
#
#
#
# Elastic Compliance Matrix: (Units=1/GPa)
#
#
# Indices 1 2 3 4 5 6 
#
# 1 0.036245 -0.000465 -0.006287 0.008968 0.001949 -0.011981
# 2 -0.000465 0.027458 -0.013503 0.004789 -0.023734 -0.020343
# 3 -0.006287 -0.013503 0.013859 -0.003199 0.014872 0.012290
# 4 0.008968 0.004789 -0.003199 0.027021 -0.005345 -0.003038
# 5 0.001949 -0.023734 0.014872 -0.005345 0.061619 0.025523
# 6 -0.011981 -0.020343 0.012290 -0.003038 0.025523 0.064684
#
#
# Mechanical properties :
#
#
# Convention : Reuss Voigt Hill
#
# Bulk Modulus (GPa) = 26.98803 64.57550 45.78176
# Shear Modulus (GPa) = 17.62142 30.58831 24.10486
#
# Velocity S-wave (km/s) = 3.05741 4.02819 3.57590
# Velocity P-wave (km/s) = 5.17495 7.47602 6.42927
#
# Compressibility (1/GPa) = 0.03705347
#
# Stress axis : x y z
#
# Youngs Moduli (GPa) = 27.59017 36.41934 72.15649
#
# Poissons Ratio (x) = 0.01693 0.45361
# Poissons Ratio (y) = 0.01283 0.97430
# Poissons Ratio (z) = 0.17345 0.49175
#
# Static dielectric constant tensor:
#      x y z
#    x 1.672910 -0.030960 0.001500 
#    y -0.030960 1.691130 -0.014860 
#    z 0.001500 -0.014860 1.701240 
# 
# From -- ./inp_files/222372.got.cif
#   From: 2010.05.17/outbox.cif.g08.bks.cpg/sg2_112_cif.got.tgz:222372.got - 2010.06.03 11:33:40.
