data_PCOD9079561
_publ_section_title
;
Structure prediction by ZEFSAII (Michael W. Deem and Ramdas Pophale) SiO2 
 PCOD9079561
Probable space group: P -1
;
_chemical_formula_sum "Si O2"
_cell_formula_units_Z 14
_cell_length_a 17.383936
_cell_length_b 11.043456
_cell_length_c 8.132521
_cell_angle_alpha 140.358069
_cell_angle_beta 138.069570
_cell_angle_gamma 31.286162
_cell_volume 499.589983
_symmetry_space_group_name_H-M "P -1"
_symmetry_group_IT_number 2
_symmetry_cell_setting 'triclinic'
loop_
_space_group_symop_operation_xyz
x,y,z
-x,-y,-z
loop_
_atom_site_type_symbol
_atom_site_label
_atom_site_fract_x
_atom_site_fract_y
_atom_site_fract_z
Si Si1 0.754632 0.405040 0.575163
Si Si2 0.391001 0.409756 0.116993
Si Si3 0.228365 0.038311 0.988801
Si Si4 0.851717 0.715477 0.592542
Si Si5 0.686237 0.078417 0.431449
Si Si6 0.988199 0.711280 0.347777
Si Si7 0.453229 0.326908 0.768319
O O1 0.721169 0.500486 0.810108
O O2 0.920122 0.268452 0.619138
O O3 0.629881 0.630122 0.488161
O O4 0.738686 0.195811 0.296426
O O5 0.557935 0.151888 0.172671
O O6 0.389244 0.641957 0.341561
O O7 0.360403 0.394399 0.861848
O O8 0.137513 0.257105 0.935510
O O9 0.138289 0.106315 0.089724
O O10 0.385214 0.946840 0.218711
O O11 0.883077 0.532940 0.598192
O O12 0.000000 0.500000 0.500000
O O13 0.716923 0.896050 0.435618
O O14 0.862465 0.934174 0.507183
O O15 0.500000 0.500000 0.000000
#
# Coordination Sequence:
#
# PCOD9079561 Si02
#       7
#     2   2   2   2   2   2   2
#     4  11  23  38  65  99 132 156 204 276 324 353
#     4  11  19  37  65  94 125 161 216 256 308 376
#     4  11  19  39  65  89 120 169 218 247 309 380
#     4  10  23  39  61  90 128 170 213 251 311 388
#     4  10  18  37  61  88 118 165 211 255 296 376
#     4  11  22  40  61  95 131 163 200 264 327 365
#     4  10  20  36  63  93 123 165 210 253 311 377
#
# _framework density 28.02298
#
# number of rings (size 3 to 8) (size 9 to 14) (size 15 to 20)
#    0.000    1.429    2.857    6.000    0.000    0.000 
#    5.143    6.429    0.000    1.714    0.000    0.000 
#    0.000    0.000    0.000    0.000    0.000    0.000 
#
# Total GULP energy -78063.423595 kJ/mol
# GULP energy per Si atom -5575.958828 kJ/mol
# Density = 2.795920 g / cm^3
# Si number density = 28.022980 Si / 1000 Ang^3
#
#
#
# Elastic Constant Matrix: (Units=GPa)
#
#
# Indices 1 2 3 4 5 6 
#
# 1 177.7933 44.9351 36.7166 3.4592 -40.0689 -3.2345
# 2 44.9351 215.0410 42.5315 -27.1561 -13.6902 29.6632
# 3 36.7166 42.5315 84.3579 -18.2356 -39.6047 5.7034
# 4 3.4592 -27.1561 -18.2356 42.5062 2.3455 -16.1078
# 5 -40.0689 -13.6902 -39.6047 2.3455 51.7821 -1.8303
# 6 -3.2345 29.6632 5.7034 -16.1078 -1.8303 56.2999
#
#
#
# Elastic Compliance Matrix: (Units=1/GPa)
#
#
# Indices 1 2 3 4 5 6 
#
# 1 0.007259 -0.001431 -0.000546 -0.001666 0.004929 0.000910
# 2 -0.001431 0.005936 -0.002564 0.001977 -0.001675 -0.002439
# 3 -0.000546 -0.002564 0.022303 0.007792 0.015669 0.001799
# 4 -0.001666 0.001977 0.007792 0.030691 0.004050 0.006986
# 5 0.004929 -0.001675 0.015669 0.004050 0.034549 0.001860
# 6 0.000910 -0.002439 0.001799 0.006986 0.001860 0.020976
#
#
# Mechanical properties :
#
#
# Convention : Reuss Voigt Hill
#
# Bulk Modulus (GPa) = 37.85418 80.61762 59.23590
# Shear Modulus (GPa) = 35.81630 53.65157 44.73394
#
# Velocity S-wave (km/s) = 3.57894 4.38031 3.99974
# Velocity P-wave (km/s) = 5.53317 7.37656 6.52034
#
# Compressibility (1/GPa) = 0.02641716
#
# Stress axis : x y z
#
# Youngs Moduli (GPa) = 137.76787 168.46798 44.83603
#
# Poissons Ratio (x) = 0.24108 0.02446
# Poissons Ratio (y) = 0.19714 0.11495
# Poissons Ratio (z) = 0.07516 0.43193
#
# Static dielectric constant tensor:
#      x y z
#    x 3.703210 -0.063700 0.545540 
#    y -0.063700 2.301770 0.131740 
#    z 0.545540 0.131740 2.577770 
# 
# From -- ./inp_files/333807.got.cif
#   From: 2010.05.17/outbox.cif.g08.bks.cpg/sg2_167_cif.got.tgz:333807.got - 2010.06.03 11:33:40.
