data_PCOD9079086
_publ_section_title
;
Structure prediction by ZEFSAII (Michael W. Deem and Ramdas Pophale) SiO2 
 PCOD9079086
Probable space group: P -1
;
_chemical_formula_sum "Si O2"
_cell_formula_units_Z 16
_cell_length_a 16.328480
_cell_length_b 11.149216
_cell_length_c 12.570411
_cell_angle_alpha 134.609081
_cell_angle_beta 26.735574
_cell_angle_gamma 127.947305
_cell_volume 732.386034
_symmetry_space_group_name_H-M "P -1"
_symmetry_group_IT_number 2
_symmetry_cell_setting 'triclinic'
loop_
_space_group_symop_operation_xyz
x,y,z
-x,-y,-z
loop_
_atom_site_type_symbol
_atom_site_label
_atom_site_fract_x
_atom_site_fract_y
_atom_site_fract_z
Si Si1 0.549034 0.265684 0.246242
Si Si2 0.852218 0.727542 0.364635
Si Si3 0.565135 0.273149 0.626267
Si Si4 0.828060 0.347807 0.551793
Si Si5 0.739889 0.899698 0.806875
Si Si6 0.223827 0.655472 0.773232
Si Si7 0.418921 0.648184 0.973415
Si Si8 0.804360 0.747427 0.857976
O O1 0.332562 0.238356 0.468366
O O2 0.624435 0.361121 0.320231
O O3 0.607083 0.348727 0.119969
O O4 0.656690 0.086676 0.014717
O O5 0.859222 0.849945 0.534062
O O6 0.827827 0.535645 0.316888
O O7 0.035362 0.732186 0.086930
O O8 0.696267 0.266353 0.570662
O O9 0.685584 0.239319 0.360374
O O10 0.495268 0.466181 0.807590
O O11 0.378458 0.192299 0.829554
O O12 0.762471 0.313383 0.726129
O O13 0.804844 0.551177 0.693135
O O14 0.030181 0.269552 0.261932
O O15 0.824557 0.857013 0.796816
O O16 0.567040 0.780818 0.917409
#
# Coordination Sequence:
#
# PCOD9079086 Si02
#       8
#     2   2   2   2   2   2   2   2
#     4  11  24  39  60  94 126 161 193 246 313 362
#     4  10  22  40  62  89 123 157 205 245 296 357
#     4  11  19  38  60  85 123 152 200 253 292 350
#     4  10  19  34  60  90 115 152 209 259 293 334
#     4  11  20  41  62  90 129 154 198 253 305 359
#     4  11  23  39  62  91 124 163 199 246 297 364
#     4  10  18  36  62  87 121 156 198 252 303 344
#     4  10  20  34  59  92 113 156 203 255 297 343
#
# _framework density 21.846404
#
# number of rings (size 3 to 8) (size 9 to 14) (size 15 to 20)
#    0.000    1.500    5.000    2.625    1.750    1.500 
#    6.750    0.625    0.000    1.500    0.000    0.000 
#    0.000    0.000    0.000    0.000    0.000    0.000 
#
# Total GULP energy -89363.874415 kJ/mol
# GULP energy per Si atom -5585.242151 kJ/mol
# Density = 2.179668 g / cm^3
# Si number density = 21.846404 Si / 1000 Ang^3
#
#
#
# Elastic Constant Matrix: (Units=GPa)
#
#
# Indices 1 2 3 4 5 6 
#
# 1 90.0144 27.0933 55.9137 -24.7513 -0.7299 -26.4714
# 2 27.0933 27.9001 32.5440 7.5035 0.5486 4.8420
# 3 55.9137 32.5440 137.4956 -27.9779 -9.1429 -23.9375
# 4 -24.7513 7.5035 -27.9779 26.5968 0.2747 0.1187
# 5 -0.7299 0.5486 -9.1429 0.2747 24.7272 0.9382
# 6 -26.4714 4.8420 -23.9375 0.1187 0.9382 7.9975
#
#
#
# Elastic Compliance Matrix: (Units=1/GPa)
#
#
# Indices 1 2 3 4 5 6 
#
# 1 0.006056 0.012246 -0.010647 -0.008902 -0.003220 -0.018727
# 2 0.012246 0.008397 0.003586 0.012598 -0.000386 0.046041
# 3 -0.010647 0.003586 0.008214 -0.002253 0.003168 -0.013165
# 4 -0.008902 0.012598 -0.002253 0.023587 0.000039 -0.044191
# 5 -0.003220 -0.000386 0.003168 0.000039 0.041747 -0.005842
# 6 -0.018727 0.046041 -0.013165 -0.044191 -0.005842 -0.002882
#
#
# Mechanical properties :
#
#
# Convention : Reuss Voigt Hill
#
# Bulk Modulus (GPa) = 30.26944 54.05689 42.16317
# Shear Modulus (GPa) = 58.30134 21.18824 39.74479
#
# Velocity S-wave (km/s) = 5.17154 3.11766 4.26993
# Velocity P-wave (km/s) = 7.03885 6.14471 6.60693
#
# Compressibility (1/GPa) = 0.03303662
#
# Stress axis : x y z
#
# Youngs Moduli (GPa) = 165.12662 119.09118 121.74177
#
# Poissons Ratio (x) = -1.45835 1.29618
# Poissons Ratio (y) = -2.02209 -0.43657
# Poissons Ratio (z) = 1.75810 -0.42707
#
# Static dielectric constant tensor:
#      x y z
#    x 1.770360 0.020560 0.021890 
#    y 0.020560 1.828390 -0.024260 
#    z 0.021890 -0.024260 1.842990 
# 
# From -- ./inp_files/451719.got.cif
#   From: 2010.05.17/outbox.cif.g08.bks.cpg/sg2_226_cif.got.tgz:451719.got - 2010.06.03 11:33:40.
