data_PCOD9079571
_publ_section_title
;
Structure prediction by ZEFSAII (Michael W. Deem and Ramdas Pophale) SiO2 
 PCOD9079571
Probable space group: P -1
;
_chemical_formula_sum "Si O2"
_cell_formula_units_Z 14
_cell_length_a 9.862631
_cell_length_b 8.254725
_cell_length_c 11.780307
_cell_angle_alpha 128.778739
_cell_angle_beta 105.261029
_cell_angle_gamma 91.054945
_cell_volume 699.557034
_symmetry_space_group_name_H-M "P -1"
_symmetry_group_IT_number 2
_symmetry_cell_setting 'triclinic'
loop_
_space_group_symop_operation_xyz
x,y,z
-x,-y,-z
loop_
_atom_site_type_symbol
_atom_site_label
_atom_site_fract_x
_atom_site_fract_y
_atom_site_fract_z
Si Si1 0.119267 0.013557 0.355801
Si Si2 0.900793 0.810169 0.036123
Si Si3 0.376820 0.627463 0.525219
Si Si4 0.862318 0.517073 0.401239
Si Si5 0.814309 0.168226 0.043648
Si Si6 0.613512 0.044959 0.742894
Si Si7 0.748242 0.358326 0.735909
O O1 0.122727 0.233489 0.515449
O O2 0.257702 0.064545 0.321214
O O3 0.149296 0.805915 0.333089
O O4 0.971129 0.931440 0.217618
O O5 0.708196 0.430870 0.637041
O O6 0.802908 0.949399 0.015729
O O7 0.820520 0.561971 0.917681
O O8 0.500000 0.500000 0.500000
O O9 0.273928 0.569044 0.584148
O O10 0.462129 0.876818 0.648544
O O11 0.842700 0.366334 0.221907
O O12 0.000000 0.500000 0.500000
O O13 0.959485 0.190513 0.011160
O O14 0.679423 0.150210 0.921628
O O15 0.615906 0.217172 0.718976
#
# Coordination Sequence:
#
# PCOD9079571 Si02
#       7
#     2   2   2   2   2   2   2
#     4   9  20  37  60  91 123 151 206 246 304 357
#     4  10  18  37  61  90 122 163 200 247 303 366
#     4  12  22  40  66  88 121 165 208 250 303 365
#     4  12  23  40  61  97 125 157 204 259 301 354
#     4  10  21  35  62  89 127 156 207 249 299 361
#     4   9  21  38  59  90 113 163 207 242 296 365
#     4  10  21  36  65  91 117 161 212 249 296 368
#
# _framework density 20.012664000000001
#
# number of rings (size 3 to 8) (size 9 to 14) (size 15 to 20)
#    0.857    0.857    2.857    2.571    2.000    0.571 
#    0.000    4.286    0.000    2.571    0.000    0.000 
#    0.000    0.000    0.000    0.000    0.000    0.000 
#
# Total GULP energy -78085.402626 kJ/mol
# GULP energy per Si atom -5577.528759 kJ/mol
# Density = 1.996711 g / cm^3
# Si number density = 20.012664 Si / 1000 Ang^3
#
#
#
# Elastic Constant Matrix: (Units=GPa)
#
#
# Indices 1 2 3 4 5 6 
#
# 1 20.4248 -7.5856 6.5226 3.1735 -3.6543 2.9825
# 2 -7.5856 50.5021 -1.4065 20.6824 -9.0545 -7.1237
# 3 6.5226 -1.4065 85.9485 20.9368 -10.5361 -2.6222
# 4 3.1735 20.6824 20.9368 40.4463 -2.9798 8.6765
# 5 -3.6543 -9.0545 -10.5361 -2.9798 16.1158 7.9196
# 6 2.9825 -7.1237 -2.6222 8.6765 7.9196 22.4961
#
#
#
# Elastic Compliance Matrix: (Units=1/GPa)
#
#
# Indices 1 2 3 4 5 6 
#
# 1 0.062736 0.017632 0.001232 -0.010936 0.026742 -0.007787
# 2 0.017632 0.040067 0.009130 -0.028479 0.019596 0.015500
# 3 0.001232 0.009130 0.016569 -0.013916 0.010570 0.006305
# 4 -0.010936 -0.028479 -0.013916 0.053147 -0.003824 -0.028343
# 5 0.026742 0.019596 0.010570 -0.003824 0.099989 -0.029834
# 6 -0.007787 0.015500 0.006305 -0.028343 -0.029834 0.072562
#
#
# Mechanical properties :
#
#
# Convention : Reuss Voigt Hill
#
# Bulk Modulus (GPa) = 5.70253 16.88184 11.29219
# Shear Modulus (GPa) = 14.38706 26.43463 20.41084
#
# Velocity S-wave (km/s) = 2.68414 3.63835 3.19705
# Velocity P-wave (km/s) = 3.53012 5.10921 4.39123
#
# Compressibility (1/GPa) = 0.17536068
#
# Stress axis : x y z
#
# Youngs Moduli (GPa) = 15.93982 24.95825 60.35463
#
# Poissons Ratio (x) = -0.44007 -0.07437
# Poissons Ratio (y) = -0.28106 -0.55104
# Poissons Ratio (z) = -0.01964 -0.22787
#
# Static dielectric constant tensor:
#      x y z
#    x 1.701120 -0.000910 0.005340 
#    y -0.000910 1.749830 0.012800 
#    z 0.005340 0.012800 1.701150 
# 
# From -- ./inp_files/380620.got.cif
#   From: 2010.05.17/outbox.cif.g08.bks.cpg/sg2_191_cif.got.tgz:380620.got - 2010.06.03 11:33:40.
