data_PCOD9079052
_publ_section_title
;
Structure prediction by ZEFSAII (Michael W. Deem and Ramdas Pophale) SiO2 
 PCOD9079052
Probable space group: P -1
;
_chemical_formula_sum "Si O2"
_cell_formula_units_Z 14
_cell_length_a 12.010792
_cell_length_b 12.539735
_cell_length_c 11.435470
_cell_angle_alpha 92.453967
_cell_angle_beta 47.504125
_cell_angle_gamma 129.821578
_cell_volume 707.518792
_symmetry_space_group_name_H-M "P -1"
_symmetry_group_IT_number 2
_symmetry_cell_setting 'triclinic'
loop_
_space_group_symop_operation_xyz
x,y,z
-x,-y,-z
loop_
_atom_site_type_symbol
_atom_site_label
_atom_site_fract_x
_atom_site_fract_y
_atom_site_fract_z
Si Si1 0.296294 0.397230 0.396848
Si Si2 0.014865 0.815436 0.625653
Si Si3 0.464832 0.809484 0.864714
Si Si4 0.785217 0.222648 0.326554
Si Si5 0.912119 0.984548 0.693456
Si Si6 0.741394 0.509780 0.157857
Si Si7 0.142123 0.489891 0.671675
O O1 0.213561 0.340957 0.317084
O O2 0.594438 0.529624 0.218501
O O3 0.232018 0.474678 0.496597
O O4 0.104120 0.197535 0.592194
O O5 0.958722 0.900997 0.722695
O O6 0.040906 0.742128 0.701821
O O7 0.301906 0.987448 0.358765
O O8 0.608630 0.847516 0.881522
O O9 0.396453 0.670115 0.821352
O O10 0.184216 0.701205 0.089735
O O11 0.768024 0.334355 0.385214
O O12 0.500000 0.000000 0.500000
O O13 0.948648 0.315691 0.093805
O O14 0.000000 0.000000 0.500000
O O15 0.727019 0.485592 0.304623
#
# Coordination Sequence:
#
# PCOD9079052 Si02
#       7
#     2   2   2   2   2   2   2
#     4  10  20  36  59  86 110 143 183 228 278 316
#     4  10  18  36  62  82 116 138 182 228 269 337
#     4   9  16  35  58  84 103 144 193 218 263 322
#     4  11  24  38  58  81 109 150 184 229 276 323
#     4   8  15  31  59  81 105 138 183 223 259 323
#     4  11  19  38  58  79 110 149 191 220 262 336
#     4  11  23  34  57  85 113 144 185 229 271 323
#
# _framework density 19.787459999999999
#
# number of rings (size 3 to 8) (size 9 to 14) (size 15 to 20)
#    0.000    2.286    4.286    3.857    0.000    3.429 
#    0.000    0.714    3.143    0.000    0.000    0.000 
#    0.000    0.000    0.000    0.000    0.000    0.000 
#
# Total GULP energy -78095.455637 kJ/mol
# GULP energy per Si atom -5578.246831 kJ/mol
# Density = 1.974242 g / cm^3
# Si number density = 19.787460 Si / 1000 Ang^3
#
#
#
# Elastic Constant Matrix: (Units=GPa)
#
#
# Indices 1 2 3 4 5 6 
#
# 1 86.0710 19.0153 -2.0756 0.8069 -2.4627 -8.7370
# 2 19.0153 56.3171 18.0259 -1.2773 -5.6156 -9.9376
# 3 -2.0756 18.0259 24.1679 -5.6787 -14.4327 -3.4193
# 4 0.8069 -1.2773 -5.6787 21.5642 -2.2183 -6.1461
# 5 -2.4627 -5.6156 -14.4327 -2.2183 31.5376 -1.2331
# 6 -8.7370 -9.9376 -3.4193 -6.1461 -1.2331 15.0264
#
#
#
# Elastic Compliance Matrix: (Units=1/GPa)
#
#
# Indices 1 2 3 4 5 6 
#
# 1 0.014520 -0.006441 0.012934 0.006070 0.006730 0.010161
# 2 -0.006441 0.028797 -0.026285 -0.003680 -0.007381 0.007208
# 3 0.012934 -0.026285 0.105944 0.040878 0.049057 0.034991
# 4 0.006070 -0.003680 0.040878 0.071123 0.025153 0.041552
# 5 0.006730 -0.007381 0.049057 0.025153 0.056120 0.025088
# 6 0.010161 0.007208 0.034991 0.041552 0.025088 0.104241
#
#
# Mechanical properties :
#
#
# Convention : Reuss Voigt Hill
#
# Bulk Modulus (GPa) = 9.11753 26.27636 17.69694
# Shear Modulus (GPa) = 10.94360 22.39834 16.67097
#
# Velocity S-wave (km/s) = 2.35427 3.36809 2.90574
# Velocity P-wave (km/s) = 3.46523 5.33231 4.49674
#
# Compressibility (1/GPa) = 0.10967884
#
# Stress axis : x y z
#
# Youngs Moduli (GPa) = 68.86895 34.72602 9.43893
#
# Poissons Ratio (x) = 0.22367 -0.12208
# Poissons Ratio (y) = 0.44358 0.24810
# Poissons Ratio (z) = -0.89076 0.91276
#
# Static dielectric constant tensor:
#      x y z
#    x 1.755570 -0.017770 -0.017290 
#    y -0.017770 1.679250 -0.028690 
#    z -0.017290 -0.028690 1.730780 
# 
# From -- ./inp_files/278030.got.cif
#   From: 2010.05.17/outbox.cif.g08.bks.cpg/sg2_140_cif.got.tgz:278030.got - 2010.06.03 11:33:40.
