data_PCOD9079092
_publ_section_title
;
Structure prediction by ZEFSAII (Michael W. Deem and Ramdas Pophale) SiO2 
 PCOD9079092
Probable space group: P -1
;
_chemical_formula_sum "Si O2"
_cell_formula_units_Z 16
_cell_length_a 11.554803
_cell_length_b 17.365052
_cell_length_c 9.130499
_cell_angle_alpha 136.912465
_cell_angle_beta 137.121513
_cell_angle_gamma 40.692983
_cell_volume 747.127186
_symmetry_space_group_name_H-M "P -1"
_symmetry_group_IT_number 2
_symmetry_cell_setting 'triclinic'
loop_
_space_group_symop_operation_xyz
x,y,z
-x,-y,-z
loop_
_atom_site_type_symbol
_atom_site_label
_atom_site_fract_x
_atom_site_fract_y
_atom_site_fract_z
Si Si1 0.654440 0.213908 0.113091
Si Si2 0.507298 0.110685 0.253742
Si Si3 0.676846 0.689253 0.826766
Si Si4 0.494178 0.125175 0.595286
Si Si5 0.256933 0.565655 0.512159
Si Si6 0.109410 0.411650 0.623830
Si Si7 0.857584 0.137539 0.490718
Si Si8 0.898404 0.385450 0.882680
O O1 0.464038 0.242462 0.072436
O O2 0.653053 0.343820 0.243255
O O3 0.830003 0.143978 0.296528
O O4 0.646457 0.144552 0.862943
O O5 0.309073 0.232807 0.192647
O O6 0.550297 0.082399 0.421361
O O7 0.655389 0.154403 0.386904
O O8 0.500000 0.000000 0.000000
O O9 0.623255 0.585690 0.564926
O O10 0.894677 0.632779 0.006688
O O11 0.297438 0.266707 0.593393
O O12 0.500000 0.000000 0.500000
O O13 0.233693 0.571382 0.323211
O O14 0.056871 0.606029 0.468300
O O15 0.000000 0.500000 0.500000
O O16 0.164103 0.505868 0.900500
O O17 0.905954 0.249633 0.739403
O O18 0.000000 0.000000 0.500000
#
# Coordination Sequence:
#
# PCOD9079092 Si02
#       8
#     2   2   2   2   2   2   2   2
#     4  10  22  37  60  94 124 157 204 259 310 365
#     4  11  24  41  61  86 117 162 209 256 314 379
#     4  10  18  36  62  88 120 160 202 247 304 372
#     4  12  25  42  63  90 124 165 208 262 318 372
#     4  10  20  37  61  90 122 159 202 250 304 372
#     4  11  24  41  62  92 128 166 209 259 315 368
#     4  10  22  40  63  91 124 166 212 255 304 375
#     4  10  20  36  62  91 120 163 206 252 304 369
#
# _framework density 21.415364
#
# number of rings (size 3 to 8) (size 9 to 14) (size 15 to 20)
#    0.000    1.500    0.000    7.125    0.000    6.000 
#    0.000    3.125    0.000    0.000    0.000    0.000 
#    0.000    0.000    0.000    0.000    0.000    0.000 
#
# Total GULP energy -89098.985642 kJ/mol
# GULP energy per Si atom -5568.686603 kJ/mol
# Density = 2.136662 g / cm^3
# Si number density = 21.415364 Si / 1000 Ang^3
#
#
#
# Elastic Constant Matrix: (Units=GPa)
#
#
# Indices 1 2 3 4 5 6 
#
# 1 69.5515 18.9098 47.0486 9.2094 -1.1883 27.5239
# 2 18.9098 119.1294 49.4025 16.1809 1.4461 33.8172
# 3 47.0486 49.4025 175.2231 23.5531 -5.0432 28.7200
# 4 9.2094 16.1809 23.5531 32.0514 8.8303 8.9044
# 5 -1.1883 1.4461 -5.0432 8.8303 34.5893 -2.2143
# 6 27.5239 33.8172 28.7200 8.9044 -2.2143 34.5158
#
#
#
# Elastic Compliance Matrix: (Units=1/GPa)
#
#
# Indices 1 2 3 4 5 6 
#
# 1 0.023759 0.003324 -0.004305 0.000198 -0.001201 -0.018749
# 2 0.003324 0.012677 -0.002129 -0.001923 -0.001059 -0.012872
# 3 -0.004305 -0.002129 0.008095 -0.004251 0.002208 0.000022
# 4 0.000198 -0.001923 -0.004251 0.039884 -0.011082 -0.005738
# 5 -0.001201 -0.001059 0.002208 -0.011082 0.032391 0.005096
# 6 -0.018749 -0.012872 0.000022 -0.005738 0.005096 0.058323
#
#
# Mechanical properties :
#
#
# Convention : Reuss Voigt Hill
#
# Bulk Modulus (GPa) = 26.10242 66.06956 46.08599
# Shear Modulus (GPa) = 25.75730 36.80085 31.27908
#
# Velocity S-wave (km/s) = 3.47183 4.14989 3.82591
# Velocity P-wave (km/s) = 5.31851 7.34034 6.40965
#
# Compressibility (1/GPa) = 0.03831063
#
# Stress axis : x y z
#
# Youngs Moduli (GPa) = 42.08955 78.88029 123.54060
#
# Poissons Ratio (x) = -0.26217 0.53181
# Poissons Ratio (y) = -0.13989 0.26302
# Poissons Ratio (z) = 0.18118 0.16794
#
# Static dielectric constant tensor:
#      x y z
#    x 1.820560 -0.013590 0.005890 
#    y -0.013590 2.200830 -0.119080 
#    z 0.005890 -0.119080 1.846650 
# 
# From -- ./inp_files/280192.got.cif
#   From: 2010.05.17/outbox.cif.g08.bks.cpg/sg2_141_cif.got.tgz:280192.got - 2010.06.03 11:33:40.
