data_PCOD9079544
_publ_section_title
;
Structure prediction by ZEFSAII (Michael W. Deem and Ramdas Pophale) SiO2 
 PCOD9079544
Probable space group: P -1
;
_chemical_formula_sum "Si O2"
_cell_formula_units_Z 16
_cell_length_a 8.643096
_cell_length_b 22.345848
_cell_length_c 13.553569
_cell_angle_alpha 145.488227
_cell_angle_beta 146.443476
_cell_angle_gamma 57.912974
_cell_volume 711.655377
_symmetry_space_group_name_H-M "P -1"
_symmetry_group_IT_number 2
_symmetry_cell_setting 'triclinic'
loop_
_space_group_symop_operation_xyz
x,y,z
-x,-y,-z
loop_
_atom_site_type_symbol
_atom_site_label
_atom_site_fract_x
_atom_site_fract_y
_atom_site_fract_z
Si Si1 0.495493 0.904260 0.530233
Si Si2 0.916635 0.306549 0.848090
Si Si3 0.309736 0.420781 0.699073
Si Si4 0.093423 0.449878 0.334768
Si Si5 0.148655 0.134435 0.807819
Si Si6 0.739758 0.169103 0.079257
Si Si7 0.528742 0.233647 0.850575
Si Si8 0.294905 0.418402 0.035992
O O1 0.622273 0.872210 0.455704
O O2 0.415890 0.802821 0.434462
O O3 0.130879 0.885419 0.288734
O O4 0.702112 0.037148 0.866385
O O5 0.130162 0.238269 0.874667
O O6 0.034521 0.409335 0.134857
O O7 0.953296 0.354379 0.821767
O O8 0.576181 0.473304 0.826926
O O9 0.045126 0.461496 0.591371
O O10 0.100632 0.280090 0.421996
O O11 0.500000 0.500000 0.000000
O O12 0.457439 0.516960 0.654037
O O13 0.877776 0.328285 0.118021
O O14 0.526623 0.174369 0.065190
O O15 0.000000 0.000000 0.500000
O O16 0.577085 0.186432 0.916494
O O17 0.352155 0.313212 0.876124
#
# Coordination Sequence:
#
# PCOD9079544 Si02
#       8
#     2   2   2   2   2   2   2   2
#     4   8  18  26  46  81 104 127 156 213 265 295
#     4   9  17  29  51  78 101 125 168 210 259 302
#     4  11  23  35  50  73 104 142 173 202 253 304
#     4  10  18  32  52  75 100 133 170 215 252 294
#     4   8  15  27  45  77 104 126 152 204 261 299
#     4  11  16  31  49  70 112 132 162 207 258 302
#     4  10  15  27  48  77 103 126 161 207 257 301
#     4  11  18  32  55  74 103 133 166 215 255 297
#
# _framework density 22.482790999999999
#
# number of rings (size 3 to 8) (size 9 to 14) (size 15 to 20)
#    0.750    1.500    3.750    1.500    0.000    0.000 
#    0.000    0.625    0.000    7.500    0.000    0.000 
#    0.000    0.000    0.000    0.000    0.000    0.000 
#
# Total GULP energy -89101.123495 kJ/mol
# GULP energy per Si atom -5568.820218 kJ/mol
# Density = 2.243162 g / cm^3
# Si number density = 22.482791 Si / 1000 Ang^3
#
#
#
# Elastic Constant Matrix: (Units=GPa)
#
#
# Indices 1 2 3 4 5 6 
#
# 1 113.6606 45.3887 39.1351 18.7107 -23.5380 0.0639
# 2 45.3887 15.5690 35.5664 9.8910 19.5323 -4.4625
# 3 39.1351 35.5664 99.4487 30.1391 -9.5320 5.2618
# 4 18.7107 9.8910 30.1391 17.9024 -2.3921 -5.9972
# 5 -23.5380 19.5323 -9.5320 -2.3921 8.9729 10.3357
# 6 0.0639 -4.4625 5.2618 -5.9972 10.3357 39.9418
#
#
#
# Elastic Compliance Matrix: (Units=1/GPa)
#
#
# Indices 1 2 3 4 5 6 
#
# 1 0.006385 0.006824 -0.005771 -0.000659 -0.008603 0.003640
# 2 0.006824 0.000749 0.005560 -0.016528 0.030470 -0.011026
# 3 -0.005771 0.005560 0.019321 -0.032340 -0.010739 -0.003992
# 4 -0.000659 -0.016528 -0.032340 0.127978 0.012961 0.018277
# 5 -0.008603 0.030470 -0.010739 0.012961 0.009672 0.004276
# 6 0.003640 -0.011026 -0.003992 0.018277 0.004276 0.025962
#
#
# Mechanical properties :
#
#
# Convention : Reuss Voigt Hill
#
# Bulk Modulus (GPa) = 25.20140 52.09541 38.64840
# Shear Modulus (GPa) = 26.30638 20.60261 23.45449
#
# Velocity S-wave (km/s) = 3.42434 3.03045 3.23340
# Velocity P-wave (km/s) = 5.18346 5.95536 5.58277
#
# Compressibility (1/GPa) = 0.03968034
#
# Stress axis : x y z
#
# Youngs Moduli (GPa) = 156.62244 1335.03558 51.75783
#
# Poissons Ratio (x) = -9.10985 0.29867
# Poissons Ratio (y) = -1.06874 -0.28776
# Poissons Ratio (z) = 0.90379 -7.42242
#
# Static dielectric constant tensor:
#      x y z
#    x 1.887560 0.009840 0.029360 
#    y 0.009840 1.873320 -0.000360 
#    z 0.029360 -0.000360 1.848090 
# 
# From -- ./inp_files/406715.got.cif
#   From: 2010.05.17/outbox.cif.g08.bks.cpg/sg2_204_cif.got.tgz:406715.got - 2010.06.03 11:33:40.
