data_PCOD9079596
_publ_section_title
;
Structure prediction by ZEFSAII (Michael W. Deem and Ramdas Pophale) SiO2 
 PCOD9079596
Probable space group: P -1
;
_chemical_formula_sum "Si O2"
_cell_formula_units_Z 14
_cell_length_a 10.897572
_cell_length_b 7.194391
_cell_length_c 8.324852
_cell_angle_alpha 63.237638
_cell_angle_beta 76.599335
_cell_angle_gamma 69.325806
_cell_volume 543.164489
_symmetry_space_group_name_H-M "P -1"
_symmetry_group_IT_number 2
_symmetry_cell_setting 'triclinic'
loop_
_space_group_symop_operation_xyz
x,y,z
-x,-y,-z
loop_
_atom_site_type_symbol
_atom_site_label
_atom_site_fract_x
_atom_site_fract_y
_atom_site_fract_z
Si Si1 0.842507 0.581107 0.853998
Si Si2 0.019459 0.689408 0.543792
Si Si3 0.039645 0.169745 0.813437
Si Si4 0.552602 0.299557 0.725324
Si Si5 0.638163 0.317913 0.016092
Si Si6 0.241187 0.355985 0.781404
Si Si7 0.561677 0.200688 0.420289
O O1 0.974169 0.388846 0.851081
O O2 0.739132 0.451992 0.887370
O O3 0.887168 0.755803 0.665696
O O4 0.802450 0.646213 0.020166
O O5 0.011687 0.860079 0.337696
O O6 0.157086 0.586066 0.634460
O O7 0.000000 0.500000 0.500000
O O8 0.189839 0.178090 0.769543
O O9 0.000000 0.000000 0.000000
O O10 0.619076 0.188008 0.912960
O O11 0.398063 0.309276 0.756562
O O12 0.619985 0.185942 0.587727
O O13 0.545153 0.556816 0.632287
O O14 0.500000 0.500000 0.000000
O O15 0.649124 0.220605 0.230607
O O16 0.500000 0.000000 0.500000
#
# Coordination Sequence:
#
# PCOD9079596 Si02
#       7
#     2   2   2   2   2   2   2
#     4  10  18  37  62  81 119 161 205 251 295 380
#     4   8  18  33  58  84 108 159 198 243 306 368
#     4  10  22  37  57  90 120 150 201 259 309 365
#     4  10  22  40  65  89 129 170 208 256 309 380
#     4  10  20  38  61  92 124 165 214 250 315 367
#     4  10  18  38  60  85 116 162 207 240 312 374
#     4  10  22  38  58  91 125 164 213 256 303 368
#
# _framework density 25.77488
#
# number of rings (size 3 to 8) (size 9 to 14) (size 15 to 20)
#    0.000    2.571    2.857    1.714    0.000   12.000 
#    0.000    4.286    0.000    0.000    0.000    0.000 
#    0.000    0.000    0.000    0.000    0.000    0.000 
#
# Total GULP energy -77976.865260 kJ/mol
# GULP energy per Si atom -5569.776090 kJ/mol
# Density = 2.571622 g / cm^3
# Si number density = 25.774880 Si / 1000 Ang^3
#
#
#
# Elastic Constant Matrix: (Units=GPa)
#
#
# Indices 1 2 3 4 5 6 
#
# 1 127.5695 15.4487 49.5091 7.1080 -8.0938 23.1456
# 2 15.4487 86.4841 22.2832 8.6419 -0.1881 6.2583
# 3 49.5091 22.2832 205.0731 21.9094 22.9912 12.6464
# 4 7.1080 8.6419 21.9094 34.7345 19.4680 -6.6784
# 5 -8.0938 -0.1881 22.9912 19.4680 33.3570 4.4558
# 6 23.1456 6.2583 12.6464 -6.6784 4.4558 35.5615
#
#
#
# Elastic Compliance Matrix: (Units=1/GPa)
#
#
# Indices 1 2 3 4 5 6 
#
# 1 0.011832 0.000197 -0.002557 -0.009082 0.011263 -0.009943
# 2 0.000197 0.012680 -0.001108 -0.005905 0.004821 -0.003679
# 3 -0.002557 -0.001108 0.006174 -0.000472 -0.004627 0.000155
# 4 -0.009082 -0.005905 -0.000472 0.058946 -0.039403 0.023125
# 5 0.011263 0.004821 -0.004627 -0.039403 0.061821 -0.021680
# 6 -0.009943 -0.003679 0.000155 0.023125 -0.021680 0.042244
#
#
# Mechanical properties :
#
#
# Convention : Reuss Voigt Hill
#
# Bulk Modulus (GPa) = 42.10706 65.95652 54.03179
# Shear Modulus (GPa) = 23.97510 42.85631 33.41570
#
# Velocity S-wave (km/s) = 3.05318 4.08207 3.60452
# Velocity P-wave (km/s) = 5.36667 6.91829 6.19128
#
# Compressibility (1/GPa) = 0.02374899
#
# Stress axis : x y z
#
# Youngs Moduli (GPa) = 84.51534 78.86469 161.97733
#
# Poissons Ratio (x) = -0.01552 0.41421
# Poissons Ratio (y) = -0.01664 0.17948
# Poissons Ratio (z) = 0.21612 0.08738
#
# Static dielectric constant tensor:
#      x y z
#    x 3.291990 0.874830 -1.300170 
#    y 0.874830 2.858270 -1.321000 
#    z -1.300170 -1.321000 4.114870 
# 
# From -- ./inp_files/237567.got.cif
#   From: 2010.05.17/outbox.cif.g08.bks.cpg/sg2_119_cif.got.tgz:237567.got - 2010.06.03 11:33:40.
