data_PCOD9079264
_publ_section_title
;
Structure prediction by ZEFSAII (Michael W. Deem and Ramdas Pophale) SiO2 
 PCOD9079264
Probable space group: P -1
;
_chemical_formula_sum "Si O2"
_cell_formula_units_Z 16
_cell_length_a 11.790299
_cell_length_b 11.508744
_cell_length_c 9.003630
_cell_angle_alpha 47.579409
_cell_angle_beta 72.893377
_cell_angle_gamma 54.966759
_cell_volume 729.673016
_symmetry_space_group_name_H-M "P -1"
_symmetry_group_IT_number 2
_symmetry_cell_setting 'triclinic'
loop_
_space_group_symop_operation_xyz
x,y,z
-x,-y,-z
loop_
_atom_site_type_symbol
_atom_site_label
_atom_site_fract_x
_atom_site_fract_y
_atom_site_fract_z
Si Si1 0.414390 0.455486 0.186410
Si Si2 0.278161 0.199810 0.708220
Si Si3 0.137759 0.591012 0.990543
Si Si4 0.165874 0.246902 0.375354
Si Si5 0.450338 0.953210 0.407826
Si Si6 0.968796 0.846696 0.084296
Si Si7 0.927220 0.188003 0.460755
Si Si8 0.784487 0.401890 0.598021
O O1 0.515638 0.252887 0.393671
O O2 0.330076 0.580871 0.254163
O O3 0.500000 0.500000 0.000000
O O4 0.288846 0.480485 0.108365
O O5 0.227901 0.241819 0.518043
O O6 0.446135 0.059048 0.750297
O O7 0.184062 0.125518 0.874450
O O8 0.254533 0.392705 0.615134
O O9 0.144731 0.645962 0.774530
O O10 0.086156 0.451561 0.160640
O O11 0.034247 0.781831 0.952375
O O12 0.058854 0.181553 0.489982
O O13 0.287238 0.108184 0.333311
O O14 0.500000 0.000000 0.500000
O O15 0.074221 0.670917 0.297770
O O16 0.000000 0.000000 0.000000
O O17 0.816830 0.255994 0.579931
O O18 0.000000 0.000000 0.500000
#
# Coordination Sequence:
#
# PCOD9079264 Si02
#       8
#     2   2   2   2   2   2   2   2
#     4  10  21  38  68  95 121 154 207 271 304 360
#     4  10  18  36  65  89 115 155 208 261 305 357
#     4  11  23  39  57  94 118 160 213 242 317 370
#     4  11  20  39  63  87 123 164 209 255 303 380
#     4   9  18  34  61  93 115 153 203 251 313 358
#     4  11  20  33  59  90 120 149 207 268 299 348
#     4  12  26  39  60  88 130 169 196 258 320 372
#     4  10  20  40  60  88 120 161 211 242 319 366
#
# _framework density 21.927631999999999
#
# number of rings (size 3 to 8) (size 9 to 14) (size 15 to 20)
#    0.000    1.500    6.250    2.250    1.750    3.000 
#    0.000    0.625    0.000    3.750    0.000    0.000 
#    0.000    0.000    0.000    0.000    0.000    0.000 
#
# Total GULP energy -89164.070721 kJ/mol
# GULP energy per Si atom -5572.754420 kJ/mol
# Density = 2.187772 g / cm^3
# Si number density = 21.927632 Si / 1000 Ang^3
#
#
#
# Elastic Constant Matrix: (Units=GPa)
#
#
# Indices 1 2 3 4 5 6 
#
# 1 35.7306 30.5614 11.4757 7.1998 -27.8935 -7.4615
# 2 30.5614 144.6203 31.7175 12.8452 -16.9709 0.3182
# 3 11.4757 31.7175 47.0547 19.2751 -12.0630 1.1326
# 4 7.1998 12.8452 19.2751 32.4853 -3.0406 -3.6969
# 5 -27.8935 -16.9709 -12.0630 -3.0406 34.7222 8.5823
# 6 -7.4615 0.3182 1.1326 -3.6969 8.5823 19.7545
#
#
#
# Elastic Compliance Matrix: (Units=1/GPa)
#
#
# Indices 1 2 3 4 5 6 
#
# 1 0.094994 -0.012446 0.009799 -0.015047 0.071959 0.001440
# 2 -0.012446 0.009930 -0.006038 0.001636 -0.006788 -0.001260
# 3 0.009799 -0.006038 0.036373 -0.020809 0.018232 -0.010102
# 4 -0.015047 0.001636 -0.020809 0.045506 -0.017389 0.011554
# 5 0.071959 -0.006788 0.018232 -0.017389 0.092333 -0.017125
# 6 0.001440 -0.001260 -0.010102 0.011554 -0.017125 0.061367
#
#
# Mechanical properties :
#
#
# Convention : Reuss Voigt Hill
#
# Bulk Modulus (GPa) = 8.06926 41.65717 24.86321
# Shear Modulus (GPa) = 12.52562 27.63580 20.08071
#
# Velocity S-wave (km/s) = 2.39262 3.55395 3.02946
# Velocity P-wave (km/s) = 3.36464 5.98995 4.85800
#
# Compressibility (1/GPa) = 0.12392713
#
# Stress axis : x y z
#
# Youngs Moduli (GPa) = 10.52702 100.70650 27.49262
#
# Poissons Ratio (x) = 1.25335 -0.26939
# Poissons Ratio (y) = 0.13102 0.16600
# Poissons Ratio (z) = -0.10315 0.60806
#
# Static dielectric constant tensor:
#      x y z
#    x 1.841160 -0.006040 -0.057100 
#    y -0.006040 1.892710 -0.013690 
#    z -0.057100 -0.013690 1.876440 
# 
# From -- ./inp_files/261567.got.cif
#   From: 2010.05.17/outbox.cif.g08.bks.cpg/sg2_131_cif.got.tgz:261567.got - 2010.06.03 11:33:40.
