data_PCOD9079191
_publ_section_title
;
Structure prediction by ZEFSAII (Michael W. Deem and Ramdas Pophale) SiO2 
 PCOD9079191
Probable space group: P -1
;
_chemical_formula_sum "Si O2"
_cell_formula_units_Z 13
_cell_length_a 5.224900
_cell_length_b 10.912180
_cell_length_c 9.336991
_cell_angle_alpha 80.555387
_cell_angle_beta 74.172628
_cell_angle_gamma 98.937075
_cell_volume 493.865885
_symmetry_space_group_name_H-M "P -1"
_symmetry_group_IT_number 2
_symmetry_cell_setting 'triclinic'
loop_
_space_group_symop_operation_xyz
x,y,z
-x,-y,-z
loop_
_atom_site_type_symbol
_atom_site_label
_atom_site_fract_x
_atom_site_fract_y
_atom_site_fract_z
Si Si1 0.015020 0.667024 0.042221
Si Si2 0.723683 0.819747 0.585891
Si Si3 0.000000 0.500000 0.500000
Si Si4 0.775341 0.869627 0.231596
Si Si5 0.383870 0.538536 0.713047
Si Si6 0.831936 0.133841 0.254690
Si Si7 0.705953 0.321130 0.737084
O O1 0.917222 0.772396 0.140466
O O2 0.789365 0.537643 0.115750
O O3 0.269958 0.652032 0.103460
O O4 0.076695 0.733405 0.869749
O O5 0.763675 0.847810 0.407339
O O6 0.578310 0.673954 0.672065
O O7 0.488143 0.891222 0.661809
O O8 0.993133 0.859749 0.630364
O O9 0.161914 0.545775 0.624034
O O10 0.030404 0.647663 0.408251
O O11 0.466928 0.816611 0.236571
O O12 0.885168 0.018696 0.169869
O O13 0.593938 0.443819 0.664031
#
# Coordination Sequence:
#
# PCOD9079191 Si02
#       7
#     2   2   1   2   2   2   2
#     4  10  26  45  74 103 140 188 242 301 349 425
#     4  12  29  46  74 105 150 188 233 297 364 431
#     4  10  18  36  64 104 138 168 238 294 350 398
#     4  11  25  47  75 103 136 191 250 299 340 423
#     4  10  23  40  68 106 141 182 236 294 364 418
#     4  12  30  49  69 105 151 195 233 288 367 430
#     4  10  22  37  73 102 138 176 245 299 353 402
#
# _framework density 26.322937
#
# number of rings (size 3 to 8) (size 9 to 14) (size 15 to 20)
#    0.000    1.231    1.538    1.846   17.231    1.846 
#    0.000    0.000    0.000    0.000    0.000    0.000 
#    0.000    0.000    0.000    0.000    0.000    0.000 
#
# Total GULP energy -72527.045160 kJ/mol
# GULP energy per Si atom -5579.003474 kJ/mol
# Density = 2.626303 g / cm^3
# Si number density = 26.322937 Si / 1000 Ang^3
#
#
#
# Elastic Constant Matrix: (Units=GPa)
#
#
# Indices 1 2 3 4 5 6 
#
# 1 55.5605 16.7849 25.5921 8.0742 21.0169 -4.1802
# 2 16.7849 110.8255 -9.0293 -11.1749 7.5451 19.6072
# 3 25.5921 -9.0293 107.3375 0.5614 1.5955 -2.2340
# 4 8.0742 -11.1749 0.5614 37.6076 -0.4176 -1.3386
# 5 21.0169 7.5451 1.5955 -0.4176 30.0589 12.1391
# 6 -4.1802 19.6072 -2.2340 -1.3386 12.1391 37.8839
#
#
#
# Elastic Compliance Matrix: (Units=1/GPa)
#
#
# Indices 1 2 3 4 5 6 
#
# 1 0.041012 -0.009201 -0.009594 -0.011089 -0.033741 0.019141
# 2 -0.009201 0.012361 0.002908 0.005352 0.007005 -0.009297
# 3 -0.009594 0.002908 0.011646 0.002685 0.007026 -0.004033
# 4 -0.011089 0.005352 0.002685 0.030420 0.008965 -0.005633
# 5 -0.033741 0.007005 0.007026 0.008965 0.066075 -0.027790
# 6 0.019141 -0.009297 -0.004033 -0.005633 -0.027790 0.041788
#
#
# Mechanical properties :
#
#
# Convention : Reuss Voigt Hill
#
# Bulk Modulus (GPa) = 30.07967 37.82432 33.95200
# Shear Modulus (GPa) = 20.31214 37.13513 28.72364
#
# Velocity S-wave (km/s) = 2.78088 3.76007 3.30692
# Velocity P-wave (km/s) = 4.66508 5.76640 5.24473
#
# Compressibility (1/GPa) = 0.03324504
#
# Stress axis : x y z
#
# Youngs Moduli (GPa) = 24.38319 80.89908 85.86545
#
# Poissons Ratio (x) = 0.74432 0.82382
# Poissons Ratio (y) = 0.22434 -0.24969
# Poissons Ratio (z) = 0.23394 -0.23524
#
# Static dielectric constant tensor:
#      x y z
#    x 2.099130 0.044870 0.256790 
#    y 0.044870 2.124030 0.001370 
#    z 0.256790 0.001370 1.775980 
# 
# From -- ./inp_files/25105.got.cif
#   From: 2010.05.17/outbox.cif.g08.bks.cpg/sg2_13_cif.got.tgz:25105.got - 2010.06.03 11:33:40.
