data_PCOD9079701
_publ_section_title
;
Structure prediction by ZEFSAII (Michael W. Deem and Ramdas Pophale) SiO2 
 PCOD9079701
Probable space group: P -1
;
_chemical_formula_sum "Si O2"
_cell_formula_units_Z 14
_cell_length_a 12.869632
_cell_length_b 15.511295
_cell_length_c 13.110673
_cell_angle_alpha 32.573455
_cell_angle_beta 148.147111
_cell_angle_gamma 126.052679
_cell_volume 664.844643
_symmetry_space_group_name_H-M "P -1"
_symmetry_group_IT_number 2
_symmetry_cell_setting 'triclinic'
loop_
_space_group_symop_operation_xyz
x,y,z
-x,-y,-z
loop_
_atom_site_type_symbol
_atom_site_label
_atom_site_fract_x
_atom_site_fract_y
_atom_site_fract_z
Si Si1 0.359186 0.303811 0.271359
Si Si2 0.759850 0.958651 0.442935
Si Si3 0.353107 0.305341 0.487688
Si Si4 0.847726 0.989491 0.193399
Si Si5 0.011093 0.553111 0.339522
Si Si6 0.126305 0.874405 0.138465
Si Si7 0.314797 0.300782 0.677932
O O1 0.311069 0.133371 0.430156
O O2 0.323988 0.399593 0.258873
O O3 0.610763 0.231847 0.520403
O O4 0.196794 0.417359 0.934067
O O5 0.784438 0.810367 0.526405
O O6 0.972209 0.986427 0.613171
O O7 0.558692 0.146446 0.057905
O O8 0.305112 0.400109 0.462863
O O9 0.606479 0.152271 0.852833
O O10 0.903892 0.013999 0.099958
O O11 0.825814 0.807511 0.353387
O O12 0.028444 0.736425 0.176272
O O13 0.218826 0.419682 0.578697
O O14 0.000000 0.500000 0.500000
O O15 0.000000 0.000000 0.000000
#
# Coordination Sequence:
#
# PCOD9079701 Si02
#       7
#     2   2   2   2   2   2   2
#     4   9  22  42  63  89 120 159 203 244 297 364
#     4   9  18  36  64  90 118 160 200 238 292 358
#     4   8  19  36  61  92 126 154 203 245 290 361
#     4  10  18  37  63  92 119 162 205 240 293 362
#     4  12  27  42  59  91 126 154 200 261 304 348
#     4  11  22  41  67  85 114 165 208 243 296 367
#     4  11  22  37  60  97 128 151 198 256 298 347
#
# _framework density 21.057552000000001
#
# number of rings (size 3 to 8) (size 9 to 14) (size 15 to 20)
#    0.857    1.143    2.857    2.571    0.000    6.286 
#    0.000    2.857    0.000    0.000    0.000    0.000 
#    0.000    0.000    0.000    0.000    0.000    0.000 
#
# Total GULP energy -78067.921717 kJ/mol
# GULP energy per Si atom -5576.280123 kJ/mol
# Density = 2.100962 g / cm^3
# Si number density = 21.057552 Si / 1000 Ang^3
#
#
#
# Elastic Constant Matrix: (Units=GPa)
#
#
# Indices 1 2 3 4 5 6 
#
# 1 120.4355 26.3830 20.0451 7.4171 -16.2776 -44.1005
# 2 26.3830 27.2157 7.7055 21.9316 12.2508 -22.8942
# 3 20.0451 7.7055 45.2049 33.2897 -17.5510 -18.7240
# 4 7.4171 21.9316 33.2897 31.4823 0.3150 5.5217
# 5 -16.2776 12.2508 -17.5510 0.3150 10.8115 16.0977
# 6 -44.1005 -22.8942 -18.7240 5.5217 16.0977 38.8995
#
#
#
# Elastic Compliance Matrix: (Units=1/GPa)
#
#
# Indices 1 2 3 4 5 6 
#
# 1 0.012859 -0.003175 -0.009402 0.007358 -0.008209 0.010537
# 2 -0.003175 -0.006538 -0.001616 0.011055 0.037168 -0.025175
# 3 -0.009402 -0.001616 -0.045580 0.054467 -0.068879 -0.012777
# 4 0.007358 0.011055 0.054467 -0.040467 0.048077 0.026914
# 5 -0.008209 0.037168 -0.068879 0.048077 -0.089582 0.009661
# 6 0.010537 -0.025175 -0.012777 0.026914 0.009661 0.008867
#
#
# Mechanical properties :
#
#
# Convention : Reuss Voigt Hill
#
# Bulk Modulus (GPa) = -14.78313 33.45813 9.33750
# Shear Modulus (GPa) = -32.34115 25.48684 -3.42715
#
# Velocity S-wave (km/s) = -3.92324 3.48277 -1.27713
# Velocity P-wave (km/s) = 5.24957 5.66536 1.50638
#
# Compressibility (1/GPa) = -0.06764467
#
# Stress axis : x y z
#
# Youngs Moduli (GPa) = 77.76468 -152.94925 -21.93965
#
# Poissons Ratio (x) = -0.48557 -0.20629
# Poissons Ratio (y) = 0.24688 -0.03545
# Poissons Ratio (z) = 0.73118 -0.24716
#
# Static dielectric constant tensor:
#      x y z
#    x 1.720950 -0.015780 -0.023550 
#    y -0.015780 1.749920 0.018900 
#    z -0.023550 0.018900 1.761530 
# 
# From -- ./inp_files/432504.got.cif
#   From: 2010.05.17/outbox.cif.g08.bks.cpg/sg2_217_cif.got.tgz:432504.got - 2010.06.03 11:33:40.
