data_PCOD9079175
_publ_section_title
;
Structure prediction by ZEFSAII (Michael W. Deem and Ramdas Pophale) SiO2 
 PCOD9079175
Probable space group: P -1
;
_chemical_formula_sum "Si O2"
_cell_formula_units_Z 14
_cell_length_a 14.350549
_cell_length_b 8.205654
_cell_length_c 7.892878
_cell_angle_alpha 98.271015
_cell_angle_beta 80.842909
_cell_angle_gamma 144.015110
_cell_volume 538.965445
_symmetry_space_group_name_H-M "P -1"
_symmetry_group_IT_number 2
_symmetry_cell_setting 'triclinic'
loop_
_space_group_symop_operation_xyz
x,y,z
-x,-y,-z
loop_
_atom_site_type_symbol
_atom_site_label
_atom_site_fract_x
_atom_site_fract_y
_atom_site_fract_z
Si Si1 0.181842 0.709823 0.148101
Si Si2 0.255929 0.686365 0.450542
Si Si3 0.644355 0.653590 0.253955
Si Si4 0.346211 0.431620 0.370366
Si Si5 0.848784 0.684894 0.057214
Si Si6 0.988568 0.159525 0.617756
Si Si7 0.190021 0.801930 0.788811
O O1 0.278967 0.846462 0.314720
O O2 0.998733 0.509346 0.197288
O O3 0.173523 0.503686 0.079807
O O4 0.243151 0.872288 0.980099
O O5 0.323832 0.598362 0.385329
O O6 0.293213 0.831110 0.637962
O O7 0.066539 0.389478 0.491761
O O8 0.493221 0.555725 0.251116
O O9 0.631943 0.565539 0.433849
O O10 0.692032 0.575349 0.102052
O O11 0.790603 0.986698 0.252718
O O12 0.194243 0.104108 0.314411
O O13 0.896399 0.690895 0.231667
O O14 0.000000 0.000000 0.000000
O O15 0.000000 0.000000 0.500000
#
# Coordination Sequence:
#
# PCOD9079175 Si02
#       7
#     2   2   2   2   2   2   2
#     4  11  23  39  63  98 125 170 216 266 321 374
#     4  11  21  42  66  95 127 170 215 265 319 384
#     4  11  22  40  63  98 131 169 210 270 324 381
#     4  10  22  39  65  96 127 168 222 258 324 382
#     4  12  20  38  65  92 130 164 216 268 312 371
#     4  10  18  36  63  93 120 159 216 262 303 373
#     4  11  23  40  62  96 133 165 213 267 320 389
#
# _framework density 25.975691999999999
#
# number of rings (size 3 to 8) (size 9 to 14) (size 15 to 20)
#    0.000    1.143    5.714    3.000    0.000    0.571 
#    0.000    3.571    0.000    0.000    0.000    0.000 
#    0.000    0.000    0.000    0.000    0.000    0.000 
#
# Total GULP energy -78314.477447 kJ/mol
# GULP energy per Si atom -5593.891246 kJ/mol
# Density = 2.591657 g / cm^3
# Si number density = 25.975692 Si / 1000 Ang^3
#
#
#
# Elastic Constant Matrix: (Units=GPa)
#
#
# Indices 1 2 3 4 5 6 
#
# 1 153.3797 13.0615 72.5253 -8.4830 -24.1374 -4.5981
# 2 13.0615 30.4000 2.8445 -5.1354 -5.8061 12.6569
# 3 72.5253 2.8445 128.1786 -8.6138 1.1110 5.8865
# 4 -8.4830 -5.1354 -8.6138 20.1863 -1.5291 -3.2796
# 5 -24.1374 -5.8061 1.1110 -1.5291 59.2690 -8.1483
# 6 -4.5981 12.6569 5.8865 -3.2796 -8.1483 37.3683
#
#
#
# Elastic Compliance Matrix: (Units=1/GPa)
#
#
# Indices 1 2 3 4 5 6 
#
# 1 0.010913 -0.005055 -0.006221 0.001866 0.004836 0.005253
# 2 -0.005055 0.042212 0.003106 0.007565 0.000192 -0.014703
# 3 -0.006221 0.003106 0.011617 0.002244 -0.002952 -0.004094
# 4 0.001866 0.007565 0.002244 0.053896 0.003227 0.002747
# 5 0.004836 0.000192 -0.002952 0.003227 0.019768 0.005589
# 6 0.005253 -0.014703 -0.004094 0.002747 0.005589 0.034492
#
#
# Mechanical properties :
#
#
# Convention : Reuss Voigt Hill
#
# Bulk Modulus (GPa) = 20.66032 54.31343 37.48688
# Shear Modulus (GPa) = 24.34604 38.26652 31.30628
#
# Velocity S-wave (km/s) = 3.06480 3.84235 3.47539
# Velocity P-wave (km/s) = 4.52713 6.37492 5.52877
#
# Compressibility (1/GPa) = 0.04840195
#
# Stress axis : x y z
#
# Youngs Moduli (GPa) = 91.63039 23.68972 86.08216
#
# Poissons Ratio (x) = 0.11976 0.53548
# Poissons Ratio (y) = 0.46322 -0.26733
# Poissons Ratio (z) = 0.56999 -0.07357
#
# Static dielectric constant tensor:
#      x y z
#    x 2.094670 -0.006840 -0.002920 
#    y -0.006840 2.228570 0.025320 
#    z -0.002920 0.025320 2.045460 
# 
# From -- ./inp_files/298788.got.cif
#   From: 2010.05.17/outbox.cif.g08.bks.cpg/sg2_150_cif.got.tgz:298788.got - 2010.06.03 11:33:40.
