data_PCOD9079916
_publ_section_title
;
Structure prediction by ZEFSAII (Michael W. Deem and Ramdas Pophale) SiO2 
 PCOD9079916
Probable space group: P -1
;
_chemical_formula_sum "Si O2"
_cell_formula_units_Z 14
_cell_length_a 18.644139
_cell_length_b 7.342488
_cell_length_c 11.679280
_cell_angle_alpha 143.380623
_cell_angle_beta 32.146937
_cell_angle_gamma 132.892871
_cell_volume 507.450888
_symmetry_space_group_name_H-M "P -1"
_symmetry_group_IT_number 2
_symmetry_cell_setting 'triclinic'
loop_
_space_group_symop_operation_xyz
x,y,z
-x,-y,-z
loop_
_atom_site_type_symbol
_atom_site_label
_atom_site_fract_x
_atom_site_fract_y
_atom_site_fract_z
Si Si1 0.530232 0.735492 0.678528
Si Si2 0.210501 0.649378 0.848196
Si Si3 0.157995 0.051631 0.338469
Si Si4 0.431887 0.581287 0.974602
Si Si5 0.284689 0.714780 0.534005
Si Si6 0.852006 0.420103 0.708862
Si Si7 0.876591 0.790649 0.093691
O O1 0.500000 0.500000 0.500000
O O2 0.903147 0.577393 0.059707
O O3 0.434675 0.654890 0.872994
O O4 0.525632 0.100789 0.862378
O O5 0.325954 0.397249 0.547064
O O6 0.220459 0.811908 0.793948
O O7 0.230952 0.877856 0.044488
O O8 0.166517 0.924975 0.393797
O O9 0.210713 0.396996 0.444468
O O10 0.000000 0.000000 0.500000
O O11 0.554098 0.344664 0.709224
O O12 0.247716 0.975288 0.624252
O O13 0.725359 0.502550 0.840962
O O14 0.000000 0.500000 0.500000
O O15 0.848709 0.580129 0.917002
O O16 0.000000 0.000000 0.000000
#
# Coordination Sequence:
#
# PCOD9079916 Si02
#       7
#     2   2   2   2   2   2   2
#     4  10  18  37  71  98 137 180 232 290 354 417
#     4  10  23  42  68 100 139 185 230 285 366 409
#     4  11  24  43  68 105 140 181 247 290 346 441
#     4  10  22  41  68 104 135 184 240 287 357 426
#     4  11  24  46  76 101 142 184 238 304 353 412
#     4  11  25  44  69  98 147 189 228 297 362 419
#     4  11  26  44  68 106 142 184 243 287 352 440
#
# _framework density 27.588875999999999
#
# number of rings (size 3 to 8) (size 9 to 14) (size 15 to 20)
#    0.000    1.429    0.000    6.857    6.000    1.714 
#    0.000    0.714    6.286    0.000    0.000    0.000 
#    0.000    0.000    0.000    0.000    0.000    0.000 
#
# Total GULP energy -78289.729498 kJ/mol
# GULP energy per Si atom -5592.123536 kJ/mol
# Density = 2.752608 g / cm^3
# Si number density = 27.588876 Si / 1000 Ang^3
#
#
#
# Elastic Constant Matrix: (Units=GPa)
#
#
# Indices 1 2 3 4 5 6 
#
# 1 118.0067 53.6653 41.4262 -9.5595 -5.5664 7.3530
# 2 53.6653 96.5104 43.7818 -12.0973 19.4561 -14.6727
# 3 41.4262 43.7818 148.0476 -9.6148 23.4924 6.8768
# 4 -9.5595 -12.0973 -9.6148 45.2158 12.4157 3.0994
# 5 -5.5664 19.4561 23.4924 12.4157 64.5372 -6.0860
# 6 7.3530 -14.6727 6.8768 3.0994 -6.0860 66.9177
#
#
#
# Elastic Compliance Matrix: (Units=1/GPa)
#
#
# Indices 1 2 3 4 5 6 
#
# 1 0.012870 -0.007538 -0.001928 -0.000626 0.003971 -0.002479
# 2 -0.007538 0.017828 -0.002222 0.003940 -0.005571 0.004276
# 3 -0.001928 -0.002222 0.008636 0.001799 -0.003130 -0.001531
# 4 -0.000626 0.003940 0.001799 0.025382 -0.006879 -0.001053
# 5 0.003971 -0.005571 -0.003130 -0.006879 0.020056 0.000807
# 6 -0.002479 0.004276 -0.001531 -0.001053 0.000807 0.016433
#
#
# Mechanical properties :
#
#
# Convention : Reuss Voigt Hill
#
# Bulk Modulus (GPa) = 62.66044 71.14571 66.90307
# Shear Modulus (GPa) = 38.49181 50.24692 44.36936
#
# Velocity S-wave (km/s) = 3.73928 4.27227 4.01463
# Velocity P-wave (km/s) = 6.43463 7.08380 6.76700
#
# Compressibility (1/GPa) = 0.01595903
#
# Stress axis : x y z
#
# Youngs Moduli (GPa) = 77.70199 56.09174 115.79826
#
# Poissons Ratio (x) = 0.42280 0.22322
# Poissons Ratio (y) = 0.58569 0.25729
# Poissons Ratio (z) = 0.14979 0.12463
#
# Static dielectric constant tensor:
#      x y z
#    x 2.641920 -0.080580 -0.769540 
#    y -0.080580 2.251740 -0.053530 
#    z -0.769540 -0.053530 3.730130 
# 
# From -- ./inp_files/138187.got.cif
#   From: 2010.05.17/outbox.cif.g08.bks.cpg/sg2_70_cif.got.tgz:138187.got - 2010.06.03 11:33:40.
