data_PCOD9079223
_publ_section_title
;
Structure prediction by ZEFSAII (Michael W. Deem and Ramdas Pophale) SiO2 
 PCOD9079223
Probable space group: P -1
;
_chemical_formula_sum "Si O2"
_cell_formula_units_Z 16
_cell_length_a 9.774204
_cell_length_b 11.630988
_cell_length_c 8.177184
_cell_angle_alpha 43.291952
_cell_angle_beta 86.338289
_cell_angle_gamma 84.399890
_cell_volume 634.372650
_symmetry_space_group_name_H-M "P -1"
_symmetry_group_IT_number 2
_symmetry_cell_setting 'triclinic'
loop_
_space_group_symop_operation_xyz
x,y,z
-x,-y,-z
loop_
_atom_site_type_symbol
_atom_site_label
_atom_site_fract_x
_atom_site_fract_y
_atom_site_fract_z
Si Si1 0.148570 0.502699 0.069456
Si Si2 0.287095 0.658731 0.587335
Si Si3 0.776060 0.813845 0.103278
Si Si4 0.653084 0.815241 0.614149
Si Si5 0.846386 0.470134 0.595799
Si Si6 0.466159 0.347075 0.915773
Si Si7 0.861262 0.995293 0.626117
Si Si8 0.609744 0.044592 0.082247
O O1 0.221604 0.321150 0.290373
O O2 0.152108 0.592179 0.152603
O O3 0.237312 0.567225 0.848456
O O4 0.000000 0.500000 0.000000
O O5 0.219509 0.620639 0.457906
O O6 0.216382 0.842949 0.445672
O O7 0.438536 0.547585 0.678427
O O8 0.784593 0.661772 0.385991
O O9 0.747996 0.975759 0.053545
O O10 0.657144 0.747297 0.063277
O O11 0.886737 0.858935 0.912243
O O12 0.544780 0.716180 0.831084
O O13 0.584515 0.921788 0.362144
O O14 0.736528 0.946209 0.572856
O O15 0.000000 0.500000 0.500000
O O16 0.593905 0.238245 0.937325
O O17 0.000000 0.000000 0.500000
O O18 0.500000 0.000000 0.000000
#
# Coordination Sequence:
#
# PCOD9079223 Si02
#       8
#     2   2   2   2   2   2   2   2
#     4  11  20  36  62  88 118 158 208 260 304 354
#     4  10  22  39  55  89 123 160 207 247 301 379
#     4   9  20  38  57  90 120 153 204 254 295 368
#     4  10  20  37  61  91 120 158 203 251 303 368
#     4  11  21  35  62  85 117 157 211 262 305 343
#     4   8  18  35  64  87 111 148 204 260 307 347
#     4  11  24  40  59  82 132 174 200 238 304 381
#     4  10  18  36  64  92 117 147 204 270 311 346
#
# _framework density 25.221768999999998
#
# number of rings (size 3 to 8) (size 9 to 14) (size 15 to 20)
#    0.000    2.000    2.500    1.875    1.750    0.000 
#    2.250    2.500    0.000    0.000    0.000    0.000 
#    0.000    0.000    0.000    0.000    0.000    0.000 
#
# Total GULP energy -89096.910910 kJ/mol
# GULP energy per Si atom -5568.556932 kJ/mol
# Density = 2.516436 g / cm^3
# Si number density = 25.221769 Si / 1000 Ang^3
#
#
#
# Elastic Constant Matrix: (Units=GPa)
#
#
# Indices 1 2 3 4 5 6 
#
# 1 41.8102 34.7490 23.6461 8.5454 2.7458 0.6742
# 2 34.7490 171.0460 56.3057 5.6079 13.9730 -5.1064
# 3 23.6461 56.3057 112.4593 34.5838 15.7854 18.3022
# 4 8.5454 5.6079 34.5838 56.1475 -5.0391 9.6434
# 5 2.7458 13.9730 15.7854 -5.0391 31.8386 6.2633
# 6 0.6742 -5.1064 18.3022 9.6434 6.2633 19.2217
#
#
#
# Elastic Compliance Matrix: (Units=1/GPa)
#
#
# Indices 1 2 3 4 5 6 
#
# 1 0.030441 -0.004879 -0.003716 -0.002155 0.000613 0.002056
# 2 -0.004879 0.008671 -0.004498 0.001258 -0.002309 0.006878
# 3 -0.003716 -0.004498 0.016951 -0.007891 -0.005079 -0.011591
# 4 -0.002155 0.001258 -0.007891 0.024973 0.008980 -0.007531
# 5 0.000613 -0.002309 -0.005079 0.008980 0.038859 -0.012966
# 6 0.002056 0.006878 -0.011591 -0.007531 -0.012966 0.072819
#
#
# Mechanical properties :
#
#
# Convention : Reuss Voigt Hill
#
# Bulk Modulus (GPa) = 33.46886 61.63523 47.55205
# Shear Modulus (GPa) = 21.84755 35.48253 28.66504
#
# Velocity S-wave (km/s) = 2.94635 3.75483 3.37489
# Velocity P-wave (km/s) = 4.98731 6.57942 5.83789
#
# Compressibility (1/GPa) = 0.02987852
#
# Stress axis : x y z
#
# Youngs Moduli (GPa) = 32.85014 115.32870 58.99255
#
# Poissons Ratio (x) = 0.56272 0.21919
# Poissons Ratio (y) = 0.16028 0.26533
# Poissons Ratio (z) = 0.12205 0.51871
#
# Static dielectric constant tensor:
#      x y z
#    x 1.951300 0.152410 -0.212330 
#    y 0.152410 1.399580 0.704290 
#    z -0.212330 0.704290 1.200230 
# 
# From -- ./inp_files/256375.got.cif
#   From: 2010.05.17/outbox.cif.g08.bks.cpg/sg2_129_cif.got.tgz:256375.got - 2010.06.03 11:33:40.
