data_PCOD9079178
_publ_section_title
;
Structure prediction by ZEFSAII (Michael W. Deem and Ramdas Pophale) SiO2 
 PCOD9079178
Probable space group: P -1
;
_chemical_formula_sum "Si O2"
_cell_formula_units_Z 16
_cell_length_a 17.859272
_cell_length_b 8.751097
_cell_length_c 12.208862
_cell_angle_alpha 127.124159
_cell_angle_beta 30.149151
_cell_angle_gamma 117.599103
_cell_volume 755.890459
_symmetry_space_group_name_H-M "P -1"
_symmetry_group_IT_number 2
_symmetry_cell_setting 'triclinic'
loop_
_space_group_symop_operation_xyz
x,y,z
-x,-y,-z
loop_
_atom_site_type_symbol
_atom_site_label
_atom_site_fract_x
_atom_site_fract_y
_atom_site_fract_z
Si Si1 0.524474 0.584556 0.662335
Si Si2 0.159281 0.370396 0.765492
Si Si3 0.405519 0.615908 0.072412
Si Si4 0.465679 0.034929 0.881646
Si Si5 0.035708 0.728711 0.413047
Si Si6 0.753432 0.635399 0.106493
Si Si7 0.248102 0.262938 0.079229
Si Si8 0.190468 0.078503 0.403937
O O1 0.700724 0.512739 0.387762
O O2 0.399403 0.459857 0.721964
O O3 0.500708 0.803465 0.738556
O O4 0.491247 0.592187 0.837549
O O5 0.184852 0.303604 0.829847
O O6 0.172019 0.191767 0.588842
O O7 0.000000 0.500000 0.000000
O O8 0.399229 0.839458 0.214225
O O9 0.273075 0.485752 0.168748
O O10 0.500000 0.500000 0.000000
O O11 0.369672 0.119988 0.934195
O O12 0.350824 0.087870 0.150758
O O13 0.917920 0.744636 0.668291
O O14 0.936081 0.818973 0.475292
O O15 0.162892 0.857381 0.340737
O O16 0.117934 0.526745 0.176818
O O17 0.726766 0.779720 0.099661
#
# Coordination Sequence:
#
# PCOD9079178 Si02
#       8
#     2   2   2   2   2   2   2   2
#     4  11  22  38  64  93 121 168 211 253 310 372
#     4  12  25  39  60  91 132 164 206 256 314 379
#     4   9  18  32  56  94 128 150 196 263 312 351
#     4  10  18  36  63  94 121 156 215 267 301 357
#     4  10  19  37  63  90 123 159 210 255 309 362
#     4  11  22  41  60  94 126 168 206 255 314 376
#     4   9  21  34  59  92 128 162 203 260 315 362
#     4  10  20  36  63  94 118 160 206 264 304 360
#
# _framework density 21.167086999999999
#
# number of rings (size 3 to 8) (size 9 to 14) (size 15 to 20)
#    0.000    1.750    3.750    1.125    0.000    0.000 
#    0.000    1.250    0.000    3.000    0.000    0.000 
#    0.000    0.000    0.000    0.000    0.000    0.000 
#
# Total GULP energy -89326.356805 kJ/mol
# GULP energy per Si atom -5582.897300 kJ/mol
# Density = 2.111891 g / cm^3
# Si number density = 21.167087 Si / 1000 Ang^3
#
#
#
# Elastic Constant Matrix: (Units=GPa)
#
#
# Indices 1 2 3 4 5 6 
#
# 1 147.5763 46.7227 51.1741 -3.7601 22.1043 -1.9215
# 2 46.7227 67.3608 7.8505 -9.0993 6.7214 -13.7508
# 3 51.1741 7.8505 69.6490 -0.9212 -2.1094 -8.9287
# 4 -3.7601 -9.0993 -0.9212 25.1852 2.9122 -4.0957
# 5 22.1043 6.7214 -2.1094 2.9122 39.3724 -0.5964
# 6 -1.9215 -13.7508 -8.9287 -4.0957 -0.5964 31.4761
#
#
#
# Elastic Compliance Matrix: (Units=1/GPa)
#
#
# Indices 1 2 3 4 5 6 
#
# 1 0.014454 -0.009756 -0.010629 -0.002055 -0.006970 -0.006794
# 2 -0.009756 0.024818 0.006238 0.009781 0.001052 0.013309
# 3 -0.010629 0.006238 0.022828 0.002254 0.006095 0.008960
# 4 -0.002055 0.009781 0.002254 0.045152 -0.003575 0.010594
# 5 -0.006970 0.001052 0.006095 -0.003575 0.029751 0.001862
# 6 -0.006794 0.013309 0.008960 0.010594 0.001862 0.041125
#
#
# Mechanical properties :
#
#
# Convention : Reuss Voigt Hill
#
# Bulk Modulus (GPa) = 29.58130 55.12006 42.35068
# Shear Modulus (GPa) = 22.96844 31.12934 27.04889
#
# Velocity S-wave (km/s) = 3.29766 3.83906 3.57862
# Velocity P-wave (km/s) = 5.33900 6.76374 6.09316
#
# Compressibility (1/GPa) = 0.03380514
#
# Stress axis : x y z
#
# Youngs Moduli (GPa) = 69.18589 40.29303 43.80664
#
# Poissons Ratio (x) = 0.39308 0.46564
# Poissons Ratio (y) = 0.67495 -0.27326
# Poissons Ratio (z) = 0.73541 -0.25134
#
# Static dielectric constant tensor:
#      x y z
#    x 1.837000 -0.027230 -0.022000 
#    y -0.027230 1.790500 0.001290 
#    z -0.022000 0.001290 1.737690 
# 
# From -- ./inp_files/298633.got.cif
#   From: 2010.05.17/outbox.cif.g08.bks.cpg/sg2_150_cif.got.tgz:298633.got - 2010.06.03 11:33:40.
