data_PCOD9079188
_publ_section_title
;
Structure prediction by ZEFSAII (Michael W. Deem and Ramdas Pophale) SiO2 
 PCOD9079188
Probable space group: P -1
;
_chemical_formula_sum "Si O2"
_cell_formula_units_Z 14
_cell_length_a 11.466430
_cell_length_b 7.250403
_cell_length_c 19.990659
_cell_angle_alpha 138.847296
_cell_angle_beta 29.616533
_cell_angle_gamma 138.656329
_cell_volume 516.311415
_symmetry_space_group_name_H-M "P -1"
_symmetry_group_IT_number 2
_symmetry_cell_setting 'triclinic'
loop_
_space_group_symop_operation_xyz
x,y,z
-x,-y,-z
loop_
_atom_site_type_symbol
_atom_site_label
_atom_site_fract_x
_atom_site_fract_y
_atom_site_fract_z
Si Si1 0.928661 0.244560 0.556937
Si Si2 0.081553 0.932971 0.282700
Si Si3 0.175260 0.257455 0.856436
Si Si4 0.192611 0.606894 0.634893
Si Si5 0.378824 0.264439 0.626160
Si Si6 0.535695 0.639356 0.131167
Si Si7 0.630507 0.950714 0.026017
O O1 0.644890 0.220229 0.699435
O O2 0.068714 0.541694 0.605386
O O3 0.000000 0.000000 0.500000
O O4 0.009682 0.187843 0.427865
O O5 0.374290 0.015587 0.154312
O O6 0.983673 0.638209 0.296528
O O7 0.905418 0.847762 0.284170
O O8 0.367894 0.412667 0.743629
O O9 0.251110 0.358673 0.921860
O O10 0.196822 0.920875 0.747182
O O11 0.887977 0.205866 0.966892
O O12 0.458258 0.563650 0.469970
O O13 0.500000 0.000000 0.500000
O O14 0.618554 0.825497 0.073419
O O15 0.388102 0.318789 0.089016
#
# Coordination Sequence:
#
# PCOD9079188 Si02
#       7
#     2   2   2   2   2   2   2
#     4  10  18  36  63  98 122 156 219 269 310 362
#     4  11  22  41  68  97 129 166 219 275 314 373
#     4  11  23  42  65  96 134 174 208 258 333 388
#     4  10  19  40  67  95 129 163 220 271 306 375
#     4  10  23  41  61  96 133 170 213 263 326 388
#     4  11  21  41  66  95 130 170 217 265 320 381
#     4  11  22  41  66  95 130 167 219 266 318 385
#
# _framework density 27.115418999999999
#
# number of rings (size 3 to 8) (size 9 to 14) (size 15 to 20)
#    0.000    1.429    4.286    3.429    0.000    1.714 
#    5.143    2.857    0.000    0.000    0.000    0.000 
#    0.000    0.000    0.000    0.000    0.000    0.000 
#
# Total GULP energy -78392.450689 kJ/mol
# GULP energy per Si atom -5599.460763 kJ/mol
# Density = 2.705370 g / cm^3
# Si number density = 27.115419 Si / 1000 Ang^3
#
#
#
# Elastic Constant Matrix: (Units=GPa)
#
#
# Indices 1 2 3 4 5 6 
#
# 1 150.6335 23.1714 42.5534 -14.0759 -1.5049 24.5189
# 2 23.1714 87.8082 11.0437 -20.6401 -9.4320 10.0974
# 3 42.5534 11.0437 160.3439 -14.1250 -14.6371 9.3957
# 4 -14.0759 -20.6401 -14.1250 41.7180 10.0652 -2.1419
# 5 -1.5049 -9.4320 -14.6371 10.0652 39.6902 -5.7677
# 6 24.5189 10.0974 9.3957 -2.1419 -5.7677 46.0840
#
#
#
# Elastic Compliance Matrix: (Units=1/GPa)
#
#
# Indices 1 2 3 4 5 6 
#
# 1 0.008112 -0.001251 -0.001846 0.001697 -0.001652 -0.003793
# 2 -0.001251 0.013440 0.000162 0.005836 0.001456 -0.001859
# 3 -0.001846 0.000162 0.007041 0.001300 0.002213 -0.000152
# 4 0.001697 0.005836 0.001300 0.029159 -0.005727 -0.001808
# 5 -0.001652 0.001456 0.002213 -0.005727 0.028238 0.003376
# 6 -0.003793 -0.001859 -0.000152 -0.001808 0.003376 0.024495
#
#
# Mechanical properties :
#
#
# Convention : Reuss Voigt Hill
#
# Bulk Modulus (GPa) = 44.00624 61.36919 52.68772
# Shear Modulus (GPa) = 40.34615 46.96624 43.65619
#
# Velocity S-wave (km/s) = 3.86157 4.16635 4.01685
# Velocity P-wave (km/s) = 6.01222 6.76951 6.40207
#
# Compressibility (1/GPa) = 0.02272405
#
# Stress axis : x y z
#
# Youngs Moduli (GPa) = 123.27443 74.40459 142.03199
#
# Poissons Ratio (x) = 0.09307 0.26215
# Poissons Ratio (y) = 0.15419 -0.02304
# Poissons Ratio (z) = 0.22753 -0.01207
#
# Static dielectric constant tensor:
#      x y z
#    x 2.103900 -0.042130 -0.057930 
#    y -0.042130 2.209720 -0.038370 
#    z -0.057930 -0.038370 2.181140 
# 
# From -- ./inp_files/593808.got.cif
#   From: 2010.05.17/outbox.cif.g08.bks.cpg/sg2_297_cif.got.tgz:593808.got - 2010.06.03 11:33:40.
