data_PCOD9079018
_publ_section_title
;
Structure prediction by ZEFSAII (Michael W. Deem and Ramdas Pophale) SiO2 
 PCOD9079018
Probable space group: P -1
;
_chemical_formula_sum "Si O2"
_cell_formula_units_Z 14
_cell_length_a 12.282457
_cell_length_b 19.788562
_cell_length_c 9.114066
_cell_angle_alpha 23.876914
_cell_angle_beta 137.468289
_cell_angle_gamma 143.421307
_cell_volume 534.307015
_symmetry_space_group_name_H-M "P -1"
_symmetry_group_IT_number 2
_symmetry_cell_setting 'triclinic'
loop_
_space_group_symop_operation_xyz
x,y,z
-x,-y,-z
loop_
_atom_site_type_symbol
_atom_site_label
_atom_site_fract_x
_atom_site_fract_y
_atom_site_fract_z
Si Si1 0.482581 0.160537 0.251420
Si Si2 0.935664 0.689885 0.649535
Si Si3 0.727107 0.395091 0.801421
Si Si4 0.890373 0.965101 0.705487
Si Si5 0.118191 0.862437 0.951147
Si Si6 0.507168 0.813464 0.304201
Si Si7 0.276381 0.619776 0.703341
O O1 0.301290 0.122885 0.228611
O O2 0.631883 0.211932 0.423341
O O3 0.500000 0.000000 0.500000
O O4 0.555386 0.327041 0.875907
O O5 0.852469 0.607108 0.571360
O O6 0.816119 0.557210 0.929906
O O7 0.965651 0.895893 0.309974
O O8 0.131841 0.689198 0.856352
O O9 0.628241 0.300501 0.737510
O O10 0.943317 0.826932 0.943085
O O11 0.892606 0.100672 0.304207
O O12 0.278793 0.070348 0.751884
O O13 0.147257 0.680709 0.364250
O O14 0.439055 0.657759 0.676375
O O15 0.500000 0.000000 0.000000
#
# Coordination Sequence:
#
# PCOD9079018 Si02
#       7
#     2   2   2   2   2   2   2
#     4  11  19  35  64  89 112 164 204 238 281 372
#     4  10  21  38  59  92 119 158 192 251 301 356
#     4  10  21  35  60  85 124 152 205 240 297 350
#     4  11  22  39  63  89 125 154 199 249 307 347
#     4  10  22  38  62  94 118 153 202 259 291 345
#     4  10  18  36  61  90 113 159 208 250 278 356
#     4  10  21  36  65  89 116 151 212 243 292 346
#
# _framework density 26.202165000000001
#
# number of rings (size 3 to 8) (size 9 to 14) (size 15 to 20)
#    0.000    1.714    2.857    3.429    0.000    2.286 
#    0.000    4.286    6.286    0.000    0.000    0.000 
#    0.000    0.000    0.000    0.000    0.000    0.000 
#
# Total GULP energy -78085.348540 kJ/mol
# GULP energy per Si atom -5577.524896 kJ/mol
# Density = 2.614253 g / cm^3
# Si number density = 26.202165 Si / 1000 Ang^3
#
#
#
# Elastic Constant Matrix: (Units=GPa)
#
#
# Indices 1 2 3 4 5 6 
#
# 1 165.8885 33.4404 22.0888 -2.3503 -31.7790 -4.0865
# 2 33.4404 183.3125 11.1867 -12.5769 -18.2360 -36.7979
# 3 22.0888 11.1867 46.7689 13.5798 -23.1041 -8.4588
# 4 -2.3503 -12.5769 13.5798 17.3483 -11.0771 -8.7769
# 5 -31.7790 -18.2360 -23.1041 -11.0771 46.5204 0.6345
# 6 -4.0865 -36.7979 -8.4588 -8.7769 0.6345 38.3125
#
#
#
# Elastic Compliance Matrix: (Units=1/GPa)
#
#
# Indices 1 2 3 4 5 6 
#
# 1 0.007658 0.000510 -0.002817 0.008823 0.006097 0.002605
# 2 0.000510 0.011108 -0.002605 0.023583 0.008814 0.015405
# 3 -0.002817 -0.002605 0.034341 -0.024296 0.008337 -0.000924
# 4 0.008823 0.023583 -0.024296 0.144075 0.036821 0.050624
# 5 0.006097 0.008814 0.008337 0.036821 0.041769 0.018700
# 6 0.002605 0.015405 -0.000924 0.050624 0.018700 0.052258
#
#
# Mechanical properties :
#
#
# Convention : Reuss Voigt Hill
#
# Bulk Modulus (GPa) = 23.10401 58.82240 40.96320
# Shear Modulus (GPa) = 15.84972 42.38650 29.11811
#
# Velocity S-wave (km/s) = 2.46214 4.02639 3.33721
# Velocity P-wave (km/s) = 4.11334 6.64183 5.52420
#
# Compressibility (1/GPa) = 0.04328254
#
# Stress axis : x y z
#
# Youngs Moduli (GPa) = 130.58717 90.02199 29.11941
#
# Poissons Ratio (x) = -0.04589 0.08204
# Poissons Ratio (y) = -0.06656 0.07585
# Poissons Ratio (z) = 0.36792 0.23448
#
# Static dielectric constant tensor:
#      x y z
#    x 2.114470 0.089530 -0.007120 
#    y 0.089530 2.131450 -0.040050 
#    z -0.007120 -0.040050 2.257960 
# 
# From -- ./inp_files/203643.got.cif
#   From: 2010.05.17/outbox.cif.g08.bks.cpg/sg2_102_cif.got.tgz:203643.got - 2010.06.03 11:33:40.
