data_PCOD9079262
_publ_section_title
;
Structure prediction by ZEFSAII (Michael W. Deem and Ramdas Pophale) SiO2 
 PCOD9079262
Probable space group: P -1
;
_chemical_formula_sum "Si O2"
_cell_formula_units_Z 16
_cell_length_a 10.965585
_cell_length_b 8.529230
_cell_length_c 12.144010
_cell_angle_alpha 72.918764
_cell_angle_beta 128.236829
_cell_angle_gamma 123.519150
_cell_volume 741.763968
_symmetry_space_group_name_H-M "P -1"
_symmetry_group_IT_number 2
_symmetry_cell_setting 'triclinic'
loop_
_space_group_symop_operation_xyz
x,y,z
-x,-y,-z
loop_
_atom_site_type_symbol
_atom_site_label
_atom_site_fract_x
_atom_site_fract_y
_atom_site_fract_z
Si Si1 0.632109 0.618076 0.386889
Si Si2 0.793945 0.049641 0.952326
Si Si3 0.982805 0.121475 0.819222
Si Si4 0.981288 0.599201 0.861381
Si Si5 0.272628 0.727694 0.837206
Si Si6 0.292989 0.286408 0.347237
Si Si7 0.872643 0.567599 0.355702
Si Si8 0.487321 0.120941 0.844318
O O1 0.491642 0.401904 0.385871
O O2 0.705169 0.731820 0.517376
O O3 0.781160 0.626491 0.387548
O O4 0.529078 0.712127 0.252128
O O5 0.607436 0.048007 0.861097
O O6 0.890450 0.148598 0.871561
O O7 0.898414 0.182194 0.085480
O O8 0.839042 0.880954 0.033560
O O9 0.032232 0.263482 0.715511
O O10 0.830894 0.912836 0.738036
O O11 0.082365 0.585049 0.815057
O O12 0.788918 0.573396 0.742684
O O13 0.000000 0.500000 0.000000
O O14 0.278983 0.611480 0.760983
O O15 0.296001 0.930832 0.778172
O O16 0.423139 0.795538 0.003204
O O17 0.000000 0.500000 0.500000
#
# Coordination Sequence:
#
# PCOD9079262 Si02
#       8
#     2   2   2   2   2   2   2   2
#     4  11  26  43  66  96 132 173 219 271 337 387
#     4   9  20  39  65  97 126 166 225 259 330 381
#     4  10  23  41  68  96 133 175 216 276 326 391
#     4  10  18  36  65  88 126 173 217 264 316 387
#     4  10  23  40  64  98 133 167 222 265 327 392
#     4  10  23  42  63  95 128 174 223 265 324 403
#     4  12  28  44  64 100 134 177 220 274 330 396
#     4  10  23  41  68  98 132 174 212 275 331 389
#
# _framework density 21.570202999999999
#
# number of rings (size 3 to 8) (size 9 to 14) (size 15 to 20)
#    0.000    1.750    0.000    3.000   10.500    5.000 
#    0.000    1.250    0.000    0.000    0.000    0.000 
#    0.000    0.000    0.000    0.000    0.000    0.000 
#
# Total GULP energy -89148.709416 kJ/mol
# GULP energy per Si atom -5571.794338 kJ/mol
# Density = 2.152111 g / cm^3
# Si number density = 21.570203 Si / 1000 Ang^3
#
#
#
# Elastic Constant Matrix: (Units=GPa)
#
#
# Indices 1 2 3 4 5 6 
#
# 1 132.4405 29.9956 38.4292 -16.4785 -18.8399 4.0147
# 2 29.9956 67.1555 18.7319 -1.8414 -10.0419 2.5697
# 3 38.4292 18.7319 78.4546 -16.1090 -9.0960 -5.9764
# 4 -16.4785 -1.8414 -16.1090 35.2278 -0.3100 -7.1376
# 5 -18.8399 -10.0419 -9.0960 -0.3100 29.9987 -0.1018
# 6 4.0147 2.5697 -5.9764 -7.1376 -0.1018 21.3895
#
#
#
# Elastic Compliance Matrix: (Units=1/GPa)
#
#
# Indices 1 2 3 4 5 6 
#
# 1 0.010191 -0.002815 -0.003341 0.002818 0.004469 -0.001546
# 2 -0.002815 0.017569 -0.003225 -0.002517 0.003098 -0.003308
# 3 -0.003341 -0.003225 0.017766 0.008180 0.002323 0.008719
# 4 0.002818 -0.002517 0.008180 0.036217 0.003830 0.014163
# 5 0.004469 0.003098 0.002323 0.003830 0.037925 0.000897
# 6 -0.001546 -0.003308 0.008719 0.014163 0.000897 0.054606
#
#
# Mechanical properties :
#
#
# Convention : Reuss Voigt Hill
#
# Bulk Modulus (GPa) = 37.36530 50.26266 43.81398
# Shear Modulus (GPa) = 24.75780 30.04945 27.40363
#
# Velocity S-wave (km/s) = 3.39156 3.73647 3.56819
# Velocity P-wave (km/s) = 5.71814 6.47823 6.11002
#
# Compressibility (1/GPa) = 0.02676280
#
# Stress axis : x y z
#
# Youngs Moduli (GPa) = 98.12914 56.91918 56.28845
#
# Poissons Ratio (x) = 0.16025 0.18803
# Poissons Ratio (y) = 0.27627 0.18155
# Poissons Ratio (z) = 0.32780 0.18358
#
# Static dielectric constant tensor:
#      x y z
#    x 1.893720 0.022100 0.016400 
#    y 0.022100 1.832190 -0.037050 
#    z 0.016400 -0.037050 1.806910 
# 
# From -- ./inp_files/419311.got.cif
#   From: 2010.05.17/outbox.cif.g08.bks.cpg/sg2_210_cif.got.tgz:419311.got - 2010.06.03 11:33:40.
