data_PCOD9079736
_publ_section_title
;
Structure prediction by ZEFSAII (Michael W. Deem and Ramdas Pophale) SiO2 
 PCOD9079736
Probable space group: P -1
;
_chemical_formula_sum "Si O2"
_cell_formula_units_Z 14
_cell_length_a 12.178598
_cell_length_b 9.179512
_cell_length_c 7.678485
_cell_angle_alpha 88.083913
_cell_angle_beta 91.701585
_cell_angle_gamma 50.139999
_cell_volume 657.090693
_symmetry_space_group_name_H-M "P -1"
_symmetry_group_IT_number 2
_symmetry_cell_setting 'triclinic'
loop_
_space_group_symop_operation_xyz
x,y,z
-x,-y,-z
loop_
_atom_site_type_symbol
_atom_site_label
_atom_site_fract_x
_atom_site_fract_y
_atom_site_fract_z
Si Si1 0.266539 0.455748 0.352076
Si Si2 0.685114 0.083520 0.927623
Si Si3 0.094006 0.736330 0.832794
Si Si4 0.474026 0.626638 0.825228
Si Si5 0.604090 0.595634 0.286241
Si Si6 0.107265 0.338379 0.151939
Si Si7 0.098662 0.853306 0.212362
O O1 0.387400 0.401716 0.221253
O O2 0.347934 0.363767 0.539971
O O3 0.176778 0.397891 0.277956
O O4 0.163492 0.684453 0.357014
O O5 0.531442 0.212462 0.818097
O O6 0.782503 0.126984 0.840345
O O7 0.767139 0.862115 0.925221
O O8 0.650898 0.162371 0.119974
O O9 0.254199 0.546459 0.818430
O O10 0.989777 0.700690 0.757639
O O11 0.069574 0.784661 0.037262
O O12 0.040881 0.936668 0.747837
O O13 0.437823 0.538953 0.680586
O O14 0.500000 0.500000 0.000000
O O15 0.000000 0.500000 0.000000
#
# Coordination Sequence:
#
# PCOD9079736 Si02
#       7
#     2   2   2   2   2   2   2
#     4  12  23  37  61  94 125 154 197 248 297 359
#     4  10  21  40  65  87 116 160 198 248 302 344
#     4  10  21  39  62  87 120 160 198 245 299 348
#     4  10  19  37  64  92 113 152 204 251 288 339
#     4  11  22  37  65  91 122 153 199 248 303 354
#     4  11  25  40  62  88 121 158 205 244 290 362
#     4  10  18  37  64  88 116 157 203 244 291 345
#
# _framework density 21.306039999999999
#
# number of rings (size 3 to 8) (size 9 to 14) (size 15 to 20)
#    0.000    1.429    5.714    1.286    0.000    2.286 
#    0.000    0.000    0.000    0.000    0.000    0.000 
#    0.000    0.000    0.000    0.000    0.000    0.000 
#
# Total GULP energy -78137.173810 kJ/mol
# GULP energy per Si atom -5581.226701 kJ/mol
# Density = 2.125755 g / cm^3
# Si number density = 21.306040 Si / 1000 Ang^3
#
#
#
# Elastic Constant Matrix: (Units=GPa)
#
#
# Indices 1 2 3 4 5 6 
#
# 1 117.9050 42.3935 34.5237 8.4743 36.2958 -1.9660
# 2 42.3935 158.7333 34.4678 -4.3246 15.3187 -16.2991
# 3 34.5237 34.4678 62.7789 10.1364 26.3020 -0.3722
# 4 8.4743 -4.3246 10.1364 17.3316 -0.7281 6.0344
# 5 36.2958 15.3187 26.3020 -0.7281 31.7603 3.6309
# 6 -1.9660 -16.2991 -0.3722 6.0344 3.6309 34.8501
#
#
#
# Elastic Compliance Matrix: (Units=1/GPa)
#
#
# Indices 1 2 3 4 5 6 
#
# 1 0.015686 -0.002956 0.003482 -0.012619 -0.020110 0.003820
# 2 -0.002956 0.008312 -0.005523 0.006145 0.003833 0.002198
# 3 0.003482 -0.005523 0.034369 -0.026507 -0.031050 0.005805
# 4 -0.012619 0.006145 -0.026507 0.088516 0.037421 -0.017346
# 5 -0.020110 0.003833 -0.031050 0.037421 0.080857 -0.014577
# 6 0.003820 0.002198 0.005805 -0.017346 -0.014577 0.034522
#
#
# Mechanical properties :
#
#
# Convention : Reuss Voigt Hill
#
# Bulk Modulus (GPa) = 20.67234 62.46525 41.56880
# Shear Modulus (GPa) = 17.33825 31.99054 24.66439
#
# Velocity S-wave (km/s) = 2.85576 3.87909 3.40608
# Velocity P-wave (km/s) = 4.53844 7.03171 5.91787
#
# Compressibility (1/GPa) = 0.04837381
#
# Stress axis : x y z
#
# Youngs Moduli (GPa) = 63.75111 120.30918 29.09604
#
# Poissons Ratio (x) = 0.35568 -0.10133
# Poissons Ratio (y) = 0.18847 0.16069
# Poissons Ratio (z) = -0.22201 0.66442
#
# Static dielectric constant tensor:
#      x y z
#    x 1.816570 -0.013140 0.009900 
#    y -0.013140 1.819940 -0.011030 
#    z 0.009900 -0.011030 1.834700 
# 
# From -- ./inp_files/180438.got.cif
#   From: 2010.05.17/outbox.cif.g08.bks.cpg/sg2_91_cif.got.tgz:180438.got - 2010.06.03 11:33:40.
