data_PCOD9079858
_publ_section_title
;
Structure prediction by ZEFSAII (Michael W. Deem and Ramdas Pophale) SiO2 
 PCOD9079858
Probable space group: P -1
;
_chemical_formula_sum "Si O2"
_cell_formula_units_Z 14
_cell_length_a 9.768945
_cell_length_b 13.004274
_cell_length_c 7.303361
_cell_angle_alpha 136.277586
_cell_angle_beta 115.965523
_cell_angle_gamma 71.948152
_cell_volume 576.503414
_symmetry_space_group_name_H-M "P -1"
_symmetry_group_IT_number 2
_symmetry_cell_setting 'triclinic'
loop_
_space_group_symop_operation_xyz
x,y,z
-x,-y,-z
loop_
_atom_site_type_symbol
_atom_site_label
_atom_site_fract_x
_atom_site_fract_y
_atom_site_fract_z
Si Si1 0.172753 0.658930 0.128642
Si Si2 0.124337 0.907909 0.680627
Si Si3 0.030790 0.216864 0.123976
Si Si4 0.282927 0.176695 0.946757
Si Si5 0.201857 0.320648 0.703430
Si Si6 0.597427 0.113516 0.941660
Si Si7 0.509304 0.216888 0.618137
O O1 0.082955 0.765522 0.353168
O O2 0.349678 0.706480 0.301764
O O3 0.156821 0.486643 0.940273
O O4 0.103641 0.692930 0.931469
O O5 0.233147 0.005907 0.732435
O O6 0.234849 0.863239 0.852851
O O7 0.011293 0.039411 0.844658
O O8 0.078223 0.249955 0.401404
O O9 0.181865 0.258497 0.144179
O O10 0.236693 0.223574 0.777038
O O11 0.464512 0.191296 0.080771
O O12 0.365638 0.323124 0.699688
O O13 0.575258 0.167569 0.791681
O O14 0.561140 0.936746 0.700379
#
# Coordination Sequence:
#
# PCOD9079858 Si02
#       7
#     2   2   2   2   2   2   2
#     4  12  24  39  60  96 127 150 205 265 298 349
#     4  10  21  38  64  90 118 158 206 254 294 355
#     4  10  23  42  65  84 126 168 202 239 312 369
#     4   9  21  39  67  87 116 163 212 237 296 379
#     4  11  23  43  64  87 125 168 198 248 310 363
#     4  10  18  37  67  89 116 163 204 248 305 356
#     4  10  20  38  62  93 118 156 212 248 294 370
#
# _framework density 24.284331999999999
#
# number of rings (size 3 to 8) (size 9 to 14) (size 15 to 20)
#    0.857    0.857    2.857    1.714    2.000    0.571 
#    5.143    2.857    0.000    0.000    0.000    0.000 
#    0.000    0.000    0.000    0.000    0.000    0.000 
#
# Total GULP energy -78332.897255 kJ/mol
# GULP energy per Si atom -5595.206947 kJ/mol
# Density = 2.422906 g / cm^3
# Si number density = 24.284332 Si / 1000 Ang^3
#
#
#
# Elastic Constant Matrix: (Units=GPa)
#
#
# Indices 1 2 3 4 5 6 
#
# 1 79.4103 -7.7383 2.9891 2.3617 7.8881 -11.1236
# 2 -7.7383 85.3745 49.0764 -19.4847 -1.7563 -11.3478
# 3 2.9891 49.0764 86.1392 -8.0288 0.4785 5.3994
# 4 2.3617 -19.4847 -8.0288 43.8858 0.5611 -3.7914
# 5 7.8881 -1.7563 0.4785 0.5611 27.3897 -12.2741
# 6 -11.1236 -11.3478 5.3994 -3.7914 -12.2741 31.0364
#
#
#
# Elastic Compliance Matrix: (Units=1/GPa)
#
#
# Indices 1 2 3 4 5 6 
#
# 1 0.014183 0.004452 -0.003365 0.001230 -0.000521 0.007241
# 2 0.004452 0.025555 -0.014982 0.009822 0.008538 0.018122
# 3 -0.003365 -0.014982 0.020776 -0.003731 -0.006195 -0.013204
# 4 0.001230 0.009822 -0.003731 0.027177 0.004095 0.009621
# 5 -0.000521 0.008538 -0.006195 0.004095 0.047710 0.023381
# 6 0.007241 0.018122 -0.013204 0.009621 0.023381 0.054161
#
#
# Mechanical properties :
#
#
# Convention : Reuss Voigt Hill
#
# Bulk Modulus (GPa) = 30.55830 37.73093 34.14462
# Shear Modulus (GPa) = 21.90502 34.23549 28.07025
#
# Velocity S-wave (km/s) = 3.00663 3.75877 3.40354
# Velocity P-wave (km/s) = 4.96628 5.86589 5.43473
#
# Compressibility (1/GPa) = 0.03272433
#
# Stress axis : x y z
#
# Youngs Moduli (GPa) = 70.50796 39.13153 48.13278
#
# Poissons Ratio (x) = -0.17423 0.16198
# Poissons Ratio (y) = -0.31393 0.72112
# Poissons Ratio (z) = 0.23727 0.58626
#
# Static dielectric constant tensor:
#      x y z
#    x 2.008310 0.030520 -0.014300 
#    y 0.030520 1.876110 -0.004100 
#    z -0.014300 -0.004100 1.909380 
# 
# From -- ./inp_files/269347.got.cif
#   From: 2010.05.17/outbox.cif.g08.bks.cpg/sg2_135_cif.got.tgz:269347.got - 2010.06.03 11:33:40.
