data_PCOD9079852
_publ_section_title
;
Structure prediction by ZEFSAII (Michael W. Deem and Ramdas Pophale) SiO2 
 PCOD9079852
Probable space group: P -1
;
_chemical_formula_sum "Si O2"
_cell_formula_units_Z 12
_cell_length_a 21.389444
_cell_length_b 15.457672
_cell_length_c 8.565646
_cell_angle_alpha 147.285985
_cell_angle_beta 138.846850
_cell_angle_gamma 20.381871
_cell_volume 523.361046
_symmetry_space_group_name_H-M "P -1"
_symmetry_group_IT_number 2
_symmetry_cell_setting 'triclinic'
loop_
_space_group_symop_operation_xyz
x,y,z
-x,-y,-z
loop_
_atom_site_type_symbol
_atom_site_label
_atom_site_fract_x
_atom_site_fract_y
_atom_site_fract_z
Si Si1 0.625349 0.642810 0.354611
Si Si2 0.711453 0.449942 0.752909
Si Si3 0.032892 0.344181 0.172150
Si Si4 0.612865 0.040266 0.916005
Si Si5 0.644749 0.876456 0.198869
Si Si6 0.908733 0.099970 0.272731
O O1 0.537239 0.734708 0.163045
O O2 0.803461 0.291036 0.207330
O O3 0.660642 0.784072 0.647483
O O4 0.465046 0.836006 0.472669
O O5 0.785259 0.346479 0.557065
O O6 0.500452 0.707049 0.774512
O O7 0.696109 0.660088 0.088555
O O8 0.884908 0.126871 0.677818
O O9 0.000000 0.500000 0.500000
O O10 0.847130 0.629934 0.152771
O O11 0.205045 0.142139 0.083342
O O12 0.072884 0.110705 0.962553
O O13 0.500000 0.000000 0.000000
#
# Coordination Sequence:
#
# PCOD9079852 Si02
#       6
#     2   2   2   2   2   2
#     4  10  20  38  64  91 119 172 202 247 307 381
#     4   9  20  38  61  91 121 166 204 253 303 376
#     4  11  23  41  60  93 128 163 201 265 314 359
#     4  10  22  39  60  92 133 153 204 262 313 354
#     4  10  18  37  67  83 120 166 209 236 311 383
#     4  10  21  38  66  87 122 168 213 240 309 380
#
# _framework density 22.928722
#
# number of rings (size 3 to 8) (size 9 to 14) (size 15 to 20)
#    0.000    2.000    3.333    0.000    2.333    2.000 
#    0.000    3.333    0.000    0.000    0.000    0.000 
#    0.000    0.000    0.000    0.000    0.000    0.000 
#
# Total GULP energy -66813.948303 kJ/mol
# GULP energy per Si atom -5567.829025 kJ/mol
# Density = 2.287654 g / cm^3
# Si number density = 22.928722 Si / 1000 Ang^3
#
#
#
# Elastic Constant Matrix: (Units=GPa)
#
#
# Indices 1 2 3 4 5 6 
#
# 1 70.0836 54.2082 8.0287 18.4798 -11.3891 -25.6539
# 2 54.2082 159.1874 14.1908 32.5239 -8.3333 -14.5287
# 3 8.0287 14.1908 58.1590 17.2098 -7.4642 -16.7209
# 4 18.4798 32.5239 17.2098 34.2030 -0.5352 -7.6528
# 5 -11.3891 -8.3333 -7.4642 -0.5352 34.1235 13.8173
# 6 -25.6539 -14.5287 -16.7209 -7.6528 13.8173 35.2571
#
#
#
# Elastic Compliance Matrix: (Units=1/GPa)
#
#
# Indices 1 2 3 4 5 6 
#
# 1 0.027323 -0.006641 0.005165 -0.007111 0.001435 0.017488
# 2 -0.006641 0.009599 -0.000305 -0.005983 0.001077 -0.002742
# 3 0.005165 -0.000305 0.023597 -0.011771 0.001971 0.011496
# 4 -0.007111 -0.005983 -0.011771 0.044246 -0.005052 -0.001638
# 5 0.001435 0.001077 0.001971 -0.005052 0.035495 -0.012584
# 6 0.017488 -0.002742 0.011496 -0.001638 -0.012584 0.049986
#
#
# Mechanical properties :
#
#
# Convention : Reuss Voigt Hill
#
# Bulk Modulus (GPa) = 17.55706 48.92061 33.23884
# Shear Modulus (GPa) = 23.49699 34.78353 29.14026
#
# Velocity S-wave (km/s) = 3.20470 3.89913 3.56885
# Velocity P-wave (km/s) = 4.62248 6.45393 5.61340
#
# Compressibility (1/GPa) = 0.05695714
#
# Stress axis : x y z
#
# Youngs Moduli (GPa) = 36.59894 104.17765 42.37866
#
# Poissons Ratio (x) = 0.69181 -0.21888
# Poissons Ratio (y) = 0.24304 0.01293
# Poissons Ratio (z) = -0.18903 0.03178
#
# Static dielectric constant tensor:
#      x y z
#    x 2.035920 -0.093490 -0.082170 
#    y -0.093490 1.959870 0.009640 
#    z -0.082170 0.009640 1.972820 
# 
# From -- ./inp_files/149485.got.cif
#   From: 2010.05.17/outbox.cif.g08.bks.cpg/sg2_75_cif.got.tgz:149485.got - 2010.06.03 11:33:40.
