data_PCOD9079507
_publ_section_title
;
Structure prediction by ZEFSAII (Michael W. Deem and Ramdas Pophale) SiO2 
 PCOD9079507
Probable space group: P -1
;
_chemical_formula_sum "Si O2"
_cell_formula_units_Z 16
_cell_length_a 5.613977
_cell_length_b 19.304699
_cell_length_c 7.211377
_cell_angle_alpha 54.135883
_cell_angle_beta 74.770487
_cell_angle_gamma 85.144616
_cell_volume 608.722955
_symmetry_space_group_name_H-M "P -1"
_symmetry_group_IT_number 2
_symmetry_cell_setting 'triclinic'
loop_
_space_group_symop_operation_xyz
x,y,z
-x,-y,-z
loop_
_atom_site_type_symbol
_atom_site_label
_atom_site_fract_x
_atom_site_fract_y
_atom_site_fract_z
Si Si1 0.708149 0.742367 0.718327
Si Si2 0.476175 0.603209 0.502833
Si Si3 0.978429 0.677291 0.085746
Si Si4 0.357108 0.819298 0.932349
Si Si5 0.284571 0.002338 0.760114
Si Si6 0.522023 0.221695 0.641433
Si Si7 0.215924 0.940853 0.282769
Si Si8 0.626035 0.431224 0.839747
O O1 0.709605 0.769384 0.461950
O O2 0.928354 0.735227 0.827090
O O3 0.526427 0.807390 0.740927
O O4 0.563702 0.646875 0.926251
O O5 0.738282 0.644529 0.302167
O O6 0.360478 0.680278 0.511564
O O7 0.528053 0.523195 0.745259
O O8 0.343916 0.572438 0.387137
O O9 0.158433 0.737633 0.084722
O O10 0.107739 0.595014 0.112055
O O11 0.531365 0.810380 0.089507
O O12 0.231741 0.905949 0.848020
O O13 0.583473 0.024126 0.659049
O O14 0.076769 0.056782 0.626897
O O15 0.250068 0.999741 0.996455
O O16 0.701686 0.152582 0.640720
#
# Coordination Sequence:
#
# PCOD9079507 Si02
#       8
#     2   2   2   2   2   2   2   2
#     4  10  22  39  57  89 125 151 204 254 298 373
#     4  10  19  35  62  86 115 157 203 245 305 366
#     4  10  18  37  60  87 118 153 203 254 297 365
#     4  10  21  40  64  86 116 167 199 246 312 364
#     4   9  19  37  63  87 124 163 206 260 312 368
#     4  11  21  40  61  88 119 163 199 249 315 366
#     4   9  20  36  58  94 123 157 211 261 305 376
#     4   9  19  38  57  87 118 154 201 251 299 362
#
# _framework density 26.284538999999999
#
# number of rings (size 3 to 8) (size 9 to 14) (size 15 to 20)
#    0.000    2.250    3.750    0.375    1.750    3.500 
#    9.000    1.875    0.000    0.000    0.000    0.000 
#    0.000    0.000    0.000    0.000    0.000    0.000 
#
# Total GULP energy -89401.719363 kJ/mol
# GULP energy per Si atom -5587.607460 kJ/mol
# Density = 2.622471 g / cm^3
# Si number density = 26.284539 Si / 1000 Ang^3
#
#
#
# Elastic Constant Matrix: (Units=GPa)
#
#
# Indices 1 2 3 4 5 6 
#
# 1 106.6593 11.9705 35.1826 -12.5990 26.0630 0.5611
# 2 11.9705 92.0001 13.3271 -32.0808 26.0218 -7.4652
# 3 35.1826 13.3271 107.8977 3.3186 24.1666 5.6959
# 4 -12.5990 -32.0808 3.3186 49.2529 -4.9353 19.4018
# 5 26.0630 26.0218 24.1666 -4.9353 52.2052 -6.0153
# 6 0.5611 -7.4652 5.6959 19.4018 -6.0153 27.0097
#
#
#
# Elastic Compliance Matrix: (Units=1/GPa)
#
#
# Indices 1 2 3 4 5 6 
#
# 1 0.012243 0.002191 -0.002896 0.006001 -0.005832 -0.004647
# 2 0.002191 0.017505 -0.000950 0.013875 -0.008868 -0.006949
# 3 -0.002896 -0.000950 0.011337 -0.001602 -0.003743 -0.002276
# 4 0.006001 0.013875 -0.001602 0.040840 -0.008440 -0.027168
# 5 -0.005832 -0.008868 -0.003743 -0.008440 0.028679 0.010909
# 6 -0.004647 -0.006949 -0.002276 -0.027168 0.010909 0.057625
#
#
# Mechanical properties :
#
#
# Convention : Reuss Voigt Hill
#
# Bulk Modulus (GPa) = 26.47162 47.50195 36.98679
# Shear Modulus (GPa) = 27.15458 42.09870 34.62664
#
# Velocity S-wave (km/s) = 3.21768 4.00641 3.63351
# Velocity P-wave (km/s) = 4.88852 6.28595 5.63075
#
# Compressibility (1/GPa) = 0.03777630
#
# Stress axis : x y z
#
# Youngs Moduli (GPa) = 81.67694 57.12677 88.20410
#
# Poissons Ratio (x) = -0.12519 0.25542
# Poissons Ratio (y) = -0.17899 0.08382
# Poissons Ratio (z) = 0.23652 0.05429
#
# Static dielectric constant tensor:
#      x y z
#    x 2.093870 0.010170 0.006610 
#    y 0.010170 2.087400 -0.019670 
#    z 0.006610 -0.019670 2.069090 
# 
# From -- ./inp_files/117454.got.cif
#   From: 2010.05.17/outbox.cif.g08.bks.cpg/sg2_59_cif.got.tgz:117454.got - 2010.06.03 11:33:40.
