data_PCOD9079615
_publ_section_title
;
Structure prediction by ZEFSAII (Michael W. Deem and Ramdas Pophale) SiO2 
 PCOD9079615
Probable space group: P -1
;
_chemical_formula_sum "Si O2"
_cell_formula_units_Z 14
_cell_length_a 8.142743
_cell_length_b 15.218042
_cell_length_c 8.559847
_cell_angle_alpha 70.330096
_cell_angle_beta 83.135301
_cell_angle_gamma 131.026847
_cell_volume 661.322063
_symmetry_space_group_name_H-M "P -1"
_symmetry_group_IT_number 2
_symmetry_cell_setting 'triclinic'
loop_
_space_group_symop_operation_xyz
x,y,z
-x,-y,-z
loop_
_atom_site_type_symbol
_atom_site_label
_atom_site_fract_x
_atom_site_fract_y
_atom_site_fract_z
Si Si1 0.230961 0.115586 0.291034
Si Si2 0.720236 0.547542 0.344977
Si Si3 0.356249 0.842747 0.635142
Si Si4 0.840791 0.171245 0.028569
Si Si5 0.698631 0.990921 0.910297
Si Si6 0.955671 0.278395 0.535910
Si Si7 0.393041 0.381465 0.206901
O O1 0.459513 0.154523 0.315739
O O2 0.295783 0.250724 0.205508
O O3 0.201797 0.058504 0.157228
O O4 0.000000 0.000000 0.500000
O O5 0.500000 0.500000 0.500000
O O6 0.597413 0.438870 0.282678
O O7 0.920285 0.601360 0.422000
O O8 0.889906 0.694739 0.149736
O O9 0.158216 0.792586 0.816981
O O10 0.241809 0.761059 0.535255
O O11 0.500000 0.000000 0.500000
O O12 0.599049 0.125557 0.011757
O O13 0.767195 0.037292 0.055700
O O14 0.826514 0.132827 0.718067
O O15 0.172467 0.331902 0.365963
O O16 0.500000 0.500000 0.000000
#
# Coordination Sequence:
#
# PCOD9079615 Si02
#       7
#     2   2   2   2   2   2   2
#     4  11  21  37  63  94 127 159 210 261 310 366
#     4   9  20  35  59  86 119 171 201 245 312 372
#     4  11  19  34  62  97 119 161 205 257 314 366
#     4   9  17  31  57  89 121 152 205 249 305 361
#     4   9  17  33  59  90 118 159 198 259 311 350
#     4  10  18  37  62  86 121 162 211 246 309 372
#     4  11  22  39  62  87 126 167 208 251 308 371
#
# _framework density 21.169716000000001
#
# number of rings (size 3 to 8) (size 9 to 14) (size 15 to 20)
#    0.000    2.000    4.286    0.857    0.000    0.000 
#    0.000    7.143    9.429    3.429    0.000    0.000 
#    0.000    0.000    0.000    0.000    0.000    0.000 
#
# Total GULP energy -77949.394054 kJ/mol
# GULP energy per Si atom -5567.813861 kJ/mol
# Density = 2.112153 g / cm^3
# Si number density = 21.169716 Si / 1000 Ang^3
#
#
#
# Elastic Constant Matrix: (Units=GPa)
#
#
# Indices 1 2 3 4 5 6 
#
# 1 48.1025 19.9393 27.2975 0.9968 -5.0952 -1.6015
# 2 19.9393 92.9748 24.7097 17.9868 -11.4574 -1.9162
# 3 27.2975 24.7097 107.3155 -9.4275 -24.5363 -8.2008
# 4 0.9968 17.9868 -9.4275 39.3976 5.1452 2.2899
# 5 -5.0952 -11.4574 -24.5363 5.1452 26.1894 3.5988
# 6 -1.6015 -1.9162 -8.2008 2.2899 3.5988 38.4614
#
#
#
# Elastic Compliance Matrix: (Units=1/GPa)
#
#
# Indices 1 2 3 4 5 6 
#
# 1 0.025766 -0.004244 -0.006182 0.000163 -0.002638 -0.000220
# 2 -0.004244 0.014198 -0.001620 -0.007464 0.005317 0.000132
# 3 -0.006182 -0.001620 0.014017 0.002796 0.010465 0.001505
# 4 0.000163 -0.007464 0.002796 0.030353 -0.006444 -0.000973
# 5 -0.002638 0.005317 0.010465 -0.006444 0.051346 -0.002034
# 6 -0.000220 0.000132 0.001505 -0.000973 -0.002034 0.026567
#
#
# Mechanical properties :
#
#
# Convention : Reuss Voigt Hill
#
# Bulk Modulus (GPa) = 33.45659 43.58730 38.52194
# Shear Modulus (GPa) = 25.47083 32.57278 29.02181
#
# Velocity S-wave (km/s) = 3.47244 3.92682 3.70660
# Velocity P-wave (km/s) = 5.64937 6.41826 6.04605
#
# Compressibility (1/GPa) = 0.02988948
#
# Stress axis : x y z
#
# Youngs Moduli (GPa) = 38.81012 70.43168 71.34110
#
# Poissons Ratio (x) = 0.29891 0.44107
# Poissons Ratio (y) = 0.16471 0.11555
# Poissons Ratio (z) = 0.23994 0.11408
#
# Static dielectric constant tensor:
#      x y z
#    x 1.774020 0.019540 -0.032290 
#    y 0.019540 1.600700 -0.165280 
#    z -0.032290 -0.165280 1.582700 
# 
# From -- ./inp_files/204142.got.cif
#   From: 2010.05.17/outbox.cif.g08.bks.cpg/sg2_103_cif.got.tgz:204142.got - 2010.06.03 11:33:40.
