data_PCOD9079039
_publ_section_title
;
Structure prediction by ZEFSAII (Michael W. Deem and Ramdas Pophale) SiO2 
 PCOD9079039
Probable space group: P -1
;
_chemical_formula_sum "Si O2"
_cell_formula_units_Z 14
_cell_length_a 12.256280
_cell_length_b 14.724055
_cell_length_c 7.446177
_cell_angle_alpha 121.163556
_cell_angle_beta 60.334965
_cell_angle_gamma 145.841127
_cell_volume 639.368331
_symmetry_space_group_name_H-M "P -1"
_symmetry_group_IT_number 2
_symmetry_cell_setting 'triclinic'
loop_
_space_group_symop_operation_xyz
x,y,z
-x,-y,-z
loop_
_atom_site_type_symbol
_atom_site_label
_atom_site_fract_x
_atom_site_fract_y
_atom_site_fract_z
Si Si1 0.814580 0.261129 0.443565
Si Si2 0.393608 0.087852 0.641765
Si Si3 0.846473 0.847861 0.603084
Si Si4 0.532172 0.769597 0.626109
Si Si5 0.096427 0.553590 0.781156
Si Si6 0.726601 0.761537 0.969460
Si Si7 0.628529 0.609118 0.247361
O O1 0.628513 0.218174 0.596021
O O2 0.893124 0.340927 0.261636
O O3 0.981528 0.392528 0.588921
O O4 0.723730 0.086087 0.358391
O O5 0.365851 0.082719 0.443309
O O6 0.324279 0.152149 0.849428
O O7 0.676308 0.827410 0.724344
O O8 0.892630 0.856959 0.780024
O O9 0.754249 0.687388 0.407620
O O10 0.000000 0.000000 0.500000
O O11 0.321954 0.671338 0.752676
O O12 0.513434 0.646373 0.405010
O O13 0.000000 0.500000 0.000000
O O14 0.528935 0.581693 0.860817
O O15 0.763205 0.717927 0.075631
#
# Coordination Sequence:
#
# PCOD9079039 Si02
#       7
#     2   2   2   2   2   2   2
#     4   9  20  38  59  83 119 142 187 238 281 329
#     4   9  18  39  59  83 114 153 181 237 284 325
#     4  10  21  37  55  82 117 149 186 237 279 329
#     4   8  19  38  55  82 120 143 184 234 280 321
#     4  10  20  38  61  88 110 149 189 228 281 346
#     4  10  18  36  62  77 112 152 190 227 280 343
#     4   8  19  37  56  83 108 153 188 233 279 326
#
# _framework density 21.896611
#
# number of rings (size 3 to 8) (size 9 to 14) (size 15 to 20)
#    0.857    2.000    0.000    0.429    2.000    0.571 
#    5.143    7.857    0.000    0.000    0.000    0.000 
#    0.000    0.000    0.000    0.000    0.000    0.000 
#
# Total GULP energy -78026.182395 kJ/mol
# GULP energy per Si atom -5573.298743 kJ/mol
# Density = 2.184677 g / cm^3
# Si number density = 21.896611 Si / 1000 Ang^3
#
#
#
# Elastic Constant Matrix: (Units=GPa)
#
#
# Indices 1 2 3 4 5 6 
#
# 1 44.5213 18.6206 24.3667 -14.0215 10.8112 -4.8023
# 2 18.6206 113.0923 49.7466 -26.5475 3.4302 -21.8227
# 3 24.3667 49.7466 88.2328 -35.4298 23.3288 -15.7108
# 4 -14.0215 -26.5475 -35.4298 38.5845 -15.3168 9.8091
# 5 10.8112 3.4302 23.3288 -15.3168 18.2703 -2.7271
# 6 -4.8023 -21.8227 -15.7108 9.8091 -2.7271 18.8110
#
#
#
# Elastic Compliance Matrix: (Units=1/GPa)
#
#
# Indices 1 2 3 4 5 6 
#
# 1 0.028366 -0.003016 -0.002601 0.001335 -0.011906 -0.000852
# 2 -0.003016 0.015683 -0.007908 0.006071 0.015505 0.009901
# 3 -0.002601 -0.007908 0.026770 0.007202 -0.024339 0.005236
# 4 0.001335 0.006071 0.007202 0.051790 0.030930 -0.009123
# 5 -0.011906 0.015505 -0.024339 0.030930 0.115158 -0.004813
# 6 -0.000852 0.009901 0.005236 -0.009123 -0.004813 0.072862
#
#
# Mechanical properties :
#
#
# Convention : Reuss Voigt Hill
#
# Bulk Modulus (GPa) = 22.84737 47.92379 35.38558
# Shear Modulus (GPa) = 14.19371 25.34066 19.76719
#
# Velocity S-wave (km/s) = 2.54877 3.40558 3.00784
# Velocity P-wave (km/s) = 4.37247 6.11538 5.31584
#
# Compressibility (1/GPa) = 0.04376871
#
# Stress axis : x y z
#
# Youngs Moduli (GPa) = 35.25381 63.76361 37.35498
#
# Poissons Ratio (x) = 0.19234 0.09714
# Poissons Ratio (y) = 0.10634 0.29541
# Poissons Ratio (z) = 0.09168 0.50425
#
# Static dielectric constant tensor:
#      x y z
#    x 1.834320 -0.007700 0.033420 
#    y -0.007700 1.858600 -0.039850 
#    z 0.033420 -0.039850 1.798960 
# 
# From -- ./inp_files/315803.got.cif
#   From: 2010.05.17/outbox.cif.g08.bks.cpg/sg2_158_cif.got.tgz:315803.got - 2010.06.03 11:33:40.
