data_PCOD9079338
_publ_section_title
;
Structure prediction by ZEFSAII (Michael W. Deem and Ramdas Pophale) SiO2 
 PCOD9079338
Probable space group: P -1
;
_chemical_formula_sum "Si O2"
_cell_formula_units_Z 16
_cell_length_a 22.120486
_cell_length_b 10.683334
_cell_length_c 8.874596
_cell_angle_alpha 126.562005
_cell_angle_beta 107.095793
_cell_angle_gamma 30.590800
_cell_volume 724.089585
_symmetry_space_group_name_H-M "P -1"
_symmetry_group_IT_number 2
_symmetry_cell_setting 'triclinic'
loop_
_space_group_symop_operation_xyz
x,y,z
-x,-y,-z
loop_
_atom_site_type_symbol
_atom_site_label
_atom_site_fract_x
_atom_site_fract_y
_atom_site_fract_z
Si Si1 0.646198 0.626237 0.769838
Si Si2 0.331315 0.094118 0.093002
Si Si3 0.194157 0.990983 0.387110
Si Si4 0.023425 0.086576 0.780930
Si Si5 0.227755 0.130098 0.792541
Si Si6 0.282810 0.707266 0.708047
Si Si7 0.414507 0.529135 0.974266
Si Si8 0.956827 0.312708 0.550332
O O1 0.726277 0.610709 0.784600
O O2 0.729603 0.334339 0.734681
O O3 0.634452 0.554733 0.556475
O O4 0.500000 0.000000 0.000000
O O5 0.207964 0.296463 0.252900
O O6 0.474534 0.807375 0.081566
O O7 0.348164 0.953847 0.853043
O O8 0.239965 0.025531 0.562848
O O9 0.265761 0.869897 0.194523
O O10 0.032868 0.289447 0.505425
O O11 0.023211 0.139391 0.641594
O O12 0.166501 0.842119 0.776226
O O13 0.023378 0.900223 0.665788
O O14 0.892824 0.474059 0.024168
O O15 0.202803 0.034584 0.814232
O O16 0.385116 0.527889 0.787908
O O17 0.500000 0.500000 0.000000
#
# Coordination Sequence:
#
# PCOD9079338 Si02
#       8
#     2   2   2   2   2   2   2   2
#     4  11  21  40  67  98 120 161 221 273 303 365
#     4  11  22  40  67  96 130 168 212 267 328 367
#     4  11  23  41  66  99 125 165 224 268 312 372
#     4  10  18  36  67  97 127 157 216 270 328 358
#     4  10  21  35  69  95 122 166 221 269 306 369
#     4  11  22  40  63  94 131 173 211 251 329 391
#     4  12  27  44  60  92 141 177 202 254 331 397
#     4  10  19  38  67  98 120 157 217 282 309 363
#
# _framework density 22.096713000000001
#
# number of rings (size 3 to 8) (size 9 to 14) (size 15 to 20)
#    0.000    1.250    6.250    1.875    1.750    2.000 
#    0.000    3.125    0.000    0.000    0.000    0.000 
#    0.000    0.000    0.000    0.000    0.000    0.000 
#
# Total GULP energy -89300.601235 kJ/mol
# GULP energy per Si atom -5581.287577 kJ/mol
# Density = 2.204642 g / cm^3
# Si number density = 22.096713 Si / 1000 Ang^3
#
#
#
# Elastic Constant Matrix: (Units=GPa)
#
#
# Indices 1 2 3 4 5 6 
#
# 1 88.4309 19.9542 37.5748 -18.7120 0.2568 -5.4809
# 2 19.9542 58.8953 17.4265 2.4475 4.9847 -25.2680
# 3 37.5748 17.4265 78.6496 3.3861 4.5211 -5.0238
# 4 -18.7120 2.4475 3.3861 27.9897 -9.6071 6.0455
# 5 0.2568 4.9847 4.5211 -9.6071 42.1375 3.1744
# 6 -5.4809 -25.2680 -5.0238 6.0455 3.1744 31.7442
#
#
#
# Elastic Compliance Matrix: (Units=1/GPa)
#
#
# Indices 1 2 3 4 5 6 
#
# 1 0.022229 -0.011176 -0.010345 0.022495 0.008315 -0.011811
# 2 -0.011176 0.036294 0.000984 -0.021803 -0.011746 0.032442
# 3 -0.010345 0.000984 0.018556 -0.012037 -0.005146 0.004741
# 4 0.022495 -0.021803 -0.012037 0.068118 0.021562 -0.030505
# 5 0.008315 -0.011746 -0.005146 0.021562 0.031745 -0.016009
# 6 -0.011811 0.032442 0.004741 -0.030505 -0.016009 0.063447
#
#
# Mechanical properties :
#
#
# Convention : Reuss Voigt Hill
#
# Bulk Modulus (GPa) = 27.77412 41.76520 34.76966
# Shear Modulus (GPa) = 17.03786 30.44231 23.74008
#
# Velocity S-wave (km/s) = 2.77981 3.71574 3.28132
# Velocity P-wave (km/s) = 4.78537 6.11156 5.48866
#
# Compressibility (1/GPa) = 0.03600474
#
# Stress axis : x y z
#
# Youngs Moduli (GPa) = 44.98542 27.55298 53.89232
#
# Poissons Ratio (x) = 0.30794 0.55749
# Poissons Ratio (y) = 0.50278 -0.05303
# Poissons Ratio (z) = 0.46536 -0.02711
#
# Static dielectric constant tensor:
#      x y z
#    x 1.905850 -0.020250 -0.046580 
#    y -0.020250 1.895870 0.060110 
#    z -0.046580 0.060110 1.860370 
# 
# From -- ./inp_files/271524.got.cif
#   From: 2010.05.17/outbox.cif.g08.bks.cpg/sg2_136_cif.got.tgz:271524.got - 2010.06.03 11:33:40.
