data_PCOD9079559
_publ_section_title
;
Structure prediction by ZEFSAII (Michael W. Deem and Ramdas Pophale) SiO2 
 PCOD9079559
Probable space group: P -1
;
_chemical_formula_sum "Si O2"
_cell_formula_units_Z 16
_cell_length_a 16.134001
_cell_length_b 11.191952
_cell_length_c 11.329451
_cell_angle_alpha 41.557501
_cell_angle_beta 61.363911
_cell_angle_gamma 92.833677
_cell_volume 849.633844
_symmetry_space_group_name_H-M "P -1"
_symmetry_group_IT_number 2
_symmetry_cell_setting 'triclinic'
loop_
_space_group_symop_operation_xyz
x,y,z
-x,-y,-z
loop_
_atom_site_type_symbol
_atom_site_label
_atom_site_fract_x
_atom_site_fract_y
_atom_site_fract_z
Si Si1 0.521618 0.832621 0.014230
Si Si2 0.619437 0.312562 0.300543
Si Si3 0.923009 0.740160 0.174600
Si Si4 0.379178 0.329605 0.113701
Si Si5 0.185835 0.044264 0.654124
Si Si6 0.309914 0.865911 0.798032
Si Si7 0.244641 0.544413 0.295681
Si Si8 0.346555 0.617753 0.500015
O O1 0.392826 0.743247 0.101130
O O2 0.465370 0.695677 0.281169
O O3 0.576977 0.746920 0.961433
O O4 0.628400 0.135044 0.723158
O O5 0.694150 0.240250 0.247498
O O6 0.651016 0.403680 0.345941
O O7 0.463035 0.065658 0.583322
O O8 0.643425 0.507323 0.049841
O O9 0.859522 0.535715 0.473520
O O10 0.793227 0.631117 0.273612
O O11 0.000000 0.000000 0.000000
O O12 0.031262 0.807255 0.961248
O O13 0.247936 0.093868 0.446703
O O14 0.500000 0.500000 0.000000
O O15 0.219180 0.298624 0.467946
O O16 0.261902 0.005949 0.715166
O O17 0.234996 0.651552 0.106934
#
# Coordination Sequence:
#
# PCOD9079559 Si02
#       8
#     2   2   2   2   2   2   2   2
#     4  10  19  35  59  88 119 155 190 252 313 346
#     4  11  21  34  56  95 124 151 197 252 305 352
#     4   9  22  41  63  81 118 168 202 241 300 365
#     4  12  20  35  60  89 125 158 198 246 299 360
#     4  11  21  36  59  89 116 162 202 238 296 358
#     4  11  20  33  61  93 122 152 198 251 299 364
#     4  10  18  37  61  88 118 153 201 246 297 354
#     4  10  21  37  61  86 121 156 199 252 302 353
#
# _framework density 18.831641000000001
#
# number of rings (size 3 to 8) (size 9 to 14) (size 15 to 20)
#    0.000    1.500    5.000    0.750    0.000    1.000 
#    0.000    3.125    5.500    0.000    0.000    0.000 
#    0.000    0.000    0.000    0.000    0.000    0.000 
#
# Total GULP energy -89192.542391 kJ/mol
# GULP energy per Si atom -5574.533899 kJ/mol
# Density = 1.878878 g / cm^3
# Si number density = 18.831641 Si / 1000 Ang^3
#
#
#
# Elastic Constant Matrix: (Units=GPa)
#
#
# Indices 1 2 3 4 5 6 
#
# 1 46.6954 19.0024 41.0867 6.8613 21.1340 10.7156
# 2 19.0024 83.7641 32.2246 14.8421 2.9555 10.4674
# 3 41.0867 32.2246 111.6373 26.4154 8.3780 -0.8384
# 4 6.8613 14.8421 26.4154 38.9227 4.8874 2.5609
# 5 21.1340 2.9555 8.3780 4.8874 31.4256 1.8839
# 6 10.7156 10.4674 -0.8384 2.5609 1.8839 26.8349
#
#
#
# Elastic Compliance Matrix: (Units=1/GPa)
#
#
# Indices 1 2 3 4 5 6 
#
# 1 0.061856 -0.003522 -0.021900 0.011286 -0.035831 -0.022572
# 2 -0.003522 0.014690 -0.002349 -0.003409 0.002398 -0.004240
# 3 -0.021900 -0.002349 0.019448 -0.010486 0.010764 0.010514
# 4 0.011286 -0.003409 -0.010486 0.033691 -0.009350 -0.006064
# 5 -0.035831 0.002398 0.010764 -0.009350 0.053627 0.010836
# 6 -0.022572 -0.004240 0.010514 -0.006064 0.010836 0.048079
#
#
# Mechanical properties :
#
#
# Convention : Reuss Voigt Hill
#
# Bulk Modulus (GPa) = 24.72072 47.41380 36.06726
# Shear Modulus (GPa) = 16.64344 29.42218 23.03281
#
# Velocity S-wave (km/s) = 2.97611 3.95698 3.50107
# Velocity P-wave (km/s) = 4.99653 6.79039 5.96132
#
# Compressibility (1/GPa) = 0.04045189
#
# Stress axis : x y z
#
# Youngs Moduli (GPa) = 16.16648 68.07179 51.41959
#
# Poissons Ratio (x) = 0.23977 1.12607
# Poissons Ratio (y) = 0.05694 0.12080
# Poissons Ratio (z) = 0.35404 0.15993
#
# Static dielectric constant tensor:
#      x y z
#    x 1.639630 -0.003780 0.009820 
#    y -0.003780 1.710840 0.020920 
#    z 0.009820 0.020920 1.698630 
# 
# From -- ./inp_files/266743.got.cif
#   From: 2010.05.17/outbox.cif.g08.bks.cpg/sg2_134_cif.got.tgz:266743.got - 2010.06.03 11:33:40.
