data_PCOD9079339
_publ_section_title
;
Structure prediction by ZEFSAII (Michael W. Deem and Ramdas Pophale) SiO2 
 PCOD9079339
Probable space group: P -1
;
_chemical_formula_sum "Si O2"
_cell_formula_units_Z 16
_cell_length_a 17.469521
_cell_length_b 5.451997
_cell_length_c 19.401346
_cell_angle_alpha 106.250778
_cell_angle_beta 22.894635
_cell_angle_gamma 96.328728
_cell_volume 634.013671
_symmetry_space_group_name_H-M "P -1"
_symmetry_group_IT_number 2
_symmetry_cell_setting 'triclinic'
loop_
_space_group_symop_operation_xyz
x,y,z
-x,-y,-z
loop_
_atom_site_type_symbol
_atom_site_label
_atom_site_fract_x
_atom_site_fract_y
_atom_site_fract_z
Si Si1 0.197490 0.186642 0.626239
Si Si2 0.022056 0.135928 0.298776
Si Si3 0.630738 0.403495 0.812326
Si Si4 0.352784 0.362066 0.796201
Si Si5 0.648182 0.746918 0.061716
Si Si6 0.367462 0.353119 0.372022
Si Si7 0.642558 0.670520 0.365054
Si Si8 0.255169 0.105868 0.239963
O O1 0.243039 0.383410 0.549356
O O2 0.181770 0.328563 0.724607
O O3 0.419521 0.907064 0.421188
O O4 0.024747 0.088914 0.726988
O O5 0.119998 0.052473 0.286031
O O6 0.795689 0.395455 0.516078
O O7 0.184508 0.231518 0.129718
O O8 0.456570 0.453579 0.899807
O O9 0.776772 0.576121 0.695131
O O10 0.753906 0.077324 0.701940
O O11 0.500000 0.500000 0.000000
O O12 0.257583 0.305870 0.942762
O O13 0.416946 0.611329 0.785316
O O14 0.267114 0.422788 0.794172
O O15 0.446069 0.042768 0.256373
O O16 0.500000 0.500000 0.500000
O O17 0.500000 0.000000 0.500000
O O18 0.500000 0.000000 0.000000
#
# Coordination Sequence:
#
# PCOD9079339 Si02
#       8
#     2   2   2   2   2   2   2   2
#     4   9  20  37  62  97 130 174 226 272 329 408
#     4  11  23  40  66  95 133 175 222 289 339 401
#     4  10  21  39  64  93 125 174 228 269 337 411
#     4   9  20  37  62  97 130 174 226 272 329 408
#     4  11  23  40  66  95 133 175 222 289 339 401
#     4  10  22  39  62  94 130 172 230 270 338 399
#     4  10  18  36  67  97 135 184 222 269 333 400
#     4  10  21  39  64  93 125 174 228 269 337 411
#
# _framework density 25.236049000000001
#
# number of rings (size 3 to 8) (size 9 to 14) (size 15 to 20)
#    0.000    2.000    3.750    0.000    3.500    1.000 
#    0.000    1.875    0.000    1.500    0.000    0.000 
#    0.000    0.000    0.000    0.000    0.000    0.000 
#
# Total GULP energy -89363.981469 kJ/mol
# GULP energy per Si atom -5585.248842 kJ/mol
# Density = 2.517861 g / cm^3
# Si number density = 25.236049 Si / 1000 Ang^3
#
#
#
# Elastic Constant Matrix: (Units=GPa)
#
#
# Indices 1 2 3 4 5 6 
#
# 1 197.5768 48.7049 39.1053 1.5335 -2.9197 30.2856
# 2 48.7049 125.5659 4.2630 -11.9349 -0.2265 -10.0453
# 3 39.1053 4.2630 64.7843 -11.8457 18.4197 -3.2442
# 4 1.5335 -11.9349 -11.8457 28.6555 -1.8903 -0.4223
# 5 -2.9197 -0.2265 18.4197 -1.8903 36.4565 2.0754
# 6 30.2856 -10.0453 -3.2442 -0.4223 2.0754 24.9620
#
#
#
# Elastic Compliance Matrix: (Units=1/GPa)
#
#
# Indices 1 2 3 4 5 6 
#
# 1 0.012141 -0.006633 -0.011436 -0.007940 0.007415 -0.019637
# 2 -0.006633 0.012220 0.006585 0.008102 -0.004177 0.014306
# 3 -0.011436 0.006585 0.030571 0.015211 -0.016793 0.022152
# 4 -0.007940 0.008102 0.015211 0.044770 -0.006872 0.016200
# 5 0.007415 -0.004177 -0.016793 -0.006872 0.037040 -0.016056
# 6 -0.019637 0.014306 0.022152 0.016200 -0.016056 0.074131
#
#
# Mechanical properties :
#
#
# Convention : Reuss Voigt Hill
#
# Bulk Modulus (GPa) = 31.28439 63.56373 47.42406
# Shear Modulus (GPa) = 20.45018 37.73838 29.09428
#
# Velocity S-wave (km/s) = 2.84976 3.87126 3.39910
# Velocity P-wave (km/s) = 4.82201 6.72492 5.85134
#
# Compressibility (1/GPa) = 0.03196482
#
# Stress axis : x y z
#
# Youngs Moduli (GPa) = 82.36367 81.83006 32.71109
#
# Poissons Ratio (x) = 0.54282 0.37408
# Poissons Ratio (y) = 0.54636 -0.21542
# Poissons Ratio (z) = 0.94190 -0.53889
#
# Static dielectric constant tensor:
#      x y z
#    x 1.971170 0.010860 -0.026990 
#    y 0.010860 2.124970 0.146070 
#    z -0.026990 0.146070 2.131870 
# 
# From -- ./inp_files/571748.got.cif
#   From: 2010.05.17/outbox.cif.g08.bks.cpg/sg2_286_cif.got.tgz:571748.got - 2010.06.03 11:33:40.
