data_PCOD9079827
_publ_section_title
;
Structure prediction by ZEFSAII (Michael W. Deem and Ramdas Pophale) SiO2 
 PCOD9079827
Probable space group: P -1
;
_chemical_formula_sum "Si O2"
_cell_formula_units_Z 16
_cell_length_a 21.111113
_cell_length_b 8.869229
_cell_length_c 8.545059
_cell_angle_alpha 51.845130
_cell_angle_beta 33.485537
_cell_angle_gamma 49.782245
_cell_volume 662.023865
_symmetry_space_group_name_H-M "P -1"
_symmetry_group_IT_number 2
_symmetry_cell_setting 'triclinic'
loop_
_space_group_symop_operation_xyz
x,y,z
-x,-y,-z
loop_
_atom_site_type_symbol
_atom_site_label
_atom_site_fract_x
_atom_site_fract_y
_atom_site_fract_z
Si Si1 0.895190 0.446311 0.148661
Si Si2 0.212304 0.120477 0.852228
Si Si3 0.544585 0.616655 0.105618
Si Si4 0.115556 0.966982 0.427838
Si Si5 0.234633 0.243833 0.398026
Si Si6 0.468288 0.792430 0.499707
Si Si7 0.995756 0.786103 0.223835
Si Si8 0.372586 0.951782 0.051586
O O1 0.791205 0.658996 0.221775
O O2 0.883556 0.257220 0.391395
O O3 0.000000 0.500000 0.000000
O O4 0.914490 0.370884 0.976801
O O5 0.179145 0.163521 0.712049
O O6 0.340831 0.956283 0.682426
O O7 0.121541 0.039155 0.192643
O O8 0.490625 0.714866 0.322349
O O9 0.528704 0.397841 0.279968
O O10 0.473225 0.748782 0.024921
O O11 0.685211 0.612021 0.818920
O O12 0.250738 0.951265 0.221106
O O13 0.017133 0.139806 0.617254
O O14 0.118703 0.304907 0.489015
O O15 0.329253 0.057978 0.239357
O O16 0.568098 0.901891 0.255506
O O17 0.000000 0.000000 0.000000
#
# Coordination Sequence:
#
# PCOD9079827 Si02
#       8
#     2   2   2   2   2   2   2   2
#     4  11  24  44  68  91 121 163 214 261 316 372
#     4  12  23  38  62  96 129 155 215 259 308 367
#     4  10  19  36  64  94 125 172 216 244 311 371
#     4  10  26  41  64  96 128 165 202 261 321 370
#     4  10  18  37  66  91 124 167 207 261 300 372
#     4  10  21  35  61  97 126 166 215 256 296 378
#     4   9  20  44  67  89 124 164 206 258 321 375
#     4  10  19  41  62  88 131 167 209 248 313 368
#
# _framework density 24.168310999999999
#
# number of rings (size 3 to 8) (size 9 to 14) (size 15 to 20)
#    0.000    1.750    3.750    0.750    1.750    2.500 
#    0.000    1.250    2.750    0.000    0.000    0.000 
#    0.000    0.000    0.000    0.000    0.000    0.000 
#
# Total GULP energy -89238.309882 kJ/mol
# GULP energy per Si atom -5577.394368 kJ/mol
# Density = 2.411330 g / cm^3
# Si number density = 24.168311 Si / 1000 Ang^3
#
#
#
# Elastic Constant Matrix: (Units=GPa)
#
#
# Indices 1 2 3 4 5 6 
#
# 1 65.1531 33.4205 32.5117 -16.1274 5.0554 12.2946
# 2 33.4205 144.6907 56.4476 -8.2249 -4.9187 7.3379
# 3 32.5117 56.4476 136.1131 -15.6064 22.4444 16.7019
# 4 -16.1274 -8.2249 -15.6064 47.0521 9.8875 5.5537
# 5 5.0554 -4.9187 22.4444 9.8875 31.6369 3.0042
# 6 12.2946 7.3379 16.7019 5.5537 3.0042 22.7893
#
#
#
# Elastic Compliance Matrix: (Units=1/GPa)
#
#
# Indices 1 2 3 4 5 6 
#
# 1 0.022834 -0.004299 0.000027 0.009873 -0.006232 -0.012539
# 2 -0.004299 0.009620 -0.004613 -0.002905 0.006125 0.002503
# 3 0.000027 -0.004613 0.012880 0.006792 -0.011208 -0.008146
# 4 0.009873 -0.002905 0.006792 0.031352 -0.015221 -0.015003
# 5 -0.006232 0.006125 -0.011208 -0.015221 0.045572 0.007306
# 6 -0.012539 0.002503 -0.008146 -0.015003 0.007306 0.058502
#
#
# Mechanical properties :
#
#
# Convention : Reuss Voigt Hill
#
# Bulk Modulus (GPa) = 36.27955 65.63518 50.95736
# Shear Modulus (GPa) = 24.07110 35.20079 29.63595
#
# Velocity S-wave (km/s) = 3.15934 3.82053 3.50556
# Velocity P-wave (km/s) = 5.32469 6.83216 6.12498
#
# Compressibility (1/GPa) = 0.02756374
#
# Stress axis : x y z
#
# Youngs Moduli (GPa) = 43.79443 103.94848 77.64066
#
# Poissons Ratio (x) = 0.44692 -0.00211
# Poissons Ratio (y) = 0.18829 0.35814
# Poissons Ratio (z) = -0.00119 0.47950
#
# Static dielectric constant tensor:
#      x y z
#    x 2.044380 0.001040 -0.003550 
#    y 0.001040 1.919420 0.032300 
#    z -0.003550 0.032300 1.948990 
# 
# From -- ./inp_files/352010.got.cif
#   From: 2010.05.17/outbox.cif.g08.bks.cpg/sg2_177_cif.got.tgz:352010.got - 2010.06.03 11:33:40.
