data_PCOD9079465
_publ_section_title
;
Structure prediction by ZEFSAII (Michael W. Deem and Ramdas Pophale) SiO2 
 PCOD9079465
Probable space group: P -1
;
_chemical_formula_sum "Si O2"
_cell_formula_units_Z 14
_cell_length_a 16.948400
_cell_length_b 9.102153
_cell_length_c 11.024904
_cell_angle_alpha 55.663069
_cell_angle_beta 147.896211
_cell_angle_gamma 123.200496
_cell_volume 736.878778
_symmetry_space_group_name_H-M "P -1"
_symmetry_group_IT_number 2
_symmetry_cell_setting 'triclinic'
loop_
_space_group_symop_operation_xyz
x,y,z
-x,-y,-z
loop_
_atom_site_type_symbol
_atom_site_label
_atom_site_fract_x
_atom_site_fract_y
_atom_site_fract_z
Si Si1 0.233084 0.161841 0.392158
Si Si2 0.440557 0.345602 0.396198
Si Si3 0.105877 0.841488 0.107499
Si Si4 0.321468 0.465922 0.793051
Si Si5 0.188839 0.239987 0.932590
Si Si6 0.736677 0.469863 0.589519
Si Si7 0.841835 0.220233 0.515910
O O1 0.372973 0.181074 0.472617
O O2 0.247362 0.343822 0.403616
O O3 0.216959 0.973562 0.530174
O O4 0.072256 0.157667 0.118339
O O5 0.500000 0.500000 0.500000
O O6 0.296253 0.356768 0.117309
O O7 0.579198 0.349545 0.483160
O O8 0.141939 0.663043 0.170306
O O9 0.166607 0.824272 0.330156
O O10 0.177030 0.028811 0.050174
O O11 0.261747 0.288141 0.874365
O O12 0.262220 0.473069 0.575944
O O13 0.500000 0.500000 0.000000
O O14 0.257757 0.626306 0.706823
O O15 0.018033 0.279250 0.691099
#
# Coordination Sequence:
#
# PCOD9079465 Si02
#       7
#     2   2   2   2   2   2   2
#     4  10  18  37  59  82 110 137 187 229 269 322
#     4  10  19  32  56  83 111 139 178 227 274 311
#     4  10  19  34  60  86 103 143 184 232 268 314
#     4  11  23  37  54  81 114 147 180 222 275 329
#     4  11  19  37  58  81 112 143 188 220 265 334
#     4  10  22  35  55  83 115 142 177 226 280 316
#     4  10  20  36  60  82 103 150 187 222 267 324
#
# _framework density 18.999054999999998
#
# number of rings (size 3 to 8) (size 9 to 14) (size 15 to 20)
#    0.000    1.714    4.286    1.714    0.000    1.714 
#    0.000    3.571    6.286    0.000    0.000    0.000 
#    0.000    0.000    0.000    0.000    0.000    0.000 
#
# Total GULP energy -77949.100253 kJ/mol
# GULP energy per Si atom -5567.792875 kJ/mol
# Density = 1.895581 g / cm^3
# Si number density = 18.999055 Si / 1000 Ang^3
#
#
#
# Elastic Constant Matrix: (Units=GPa)
#
#
# Indices 1 2 3 4 5 6 
#
# 1 74.8016 32.4326 13.8745 -9.0337 -5.3778 19.5886
# 2 32.4326 92.3709 22.0134 1.3709 -0.6311 10.8998
# 3 13.8745 22.0134 44.7150 -7.3613 -2.2453 5.5963
# 4 -9.0337 1.3709 -7.3613 18.6098 4.0509 1.4060
# 5 -5.3778 -0.6311 -2.2453 4.0509 26.7605 -5.3523
# 6 19.5886 10.8998 5.5963 1.4060 -5.3523 38.1158
#
#
#
# Elastic Compliance Matrix: (Units=1/GPa)
#
#
# Indices 1 2 3 4 5 6 
#
# 1 0.019531 -0.005908 -0.000350 0.010326 0.000471 -0.008611
# 2 -0.005908 0.014513 -0.006381 -0.006371 -0.000416 0.000000
# 3 -0.000350 -0.006381 0.027820 0.011525 -0.000136 -0.002524
# 4 0.010326 -0.006371 0.011525 0.066391 -0.008934 -0.008881
# 5 0.000471 -0.000416 -0.000136 -0.008934 0.039962 0.005838
# 6 -0.008611 0.000000 -0.002524 -0.008881 0.005838 0.032180
#
#
# Mechanical properties :
#
#
# Convention : Reuss Voigt Hill
#
# Bulk Modulus (GPa) = 27.33336 38.72539 33.02937
# Shear Modulus (GPa) = 21.01971 26.26835 23.64403
#
# Velocity S-wave (km/s) = 3.32980 3.72239 3.53155
# Velocity P-wave (km/s) = 5.40383 6.23714 5.83538
#
# Compressibility (1/GPa) = 0.03658533
#
# Stress axis : x y z
#
# Youngs Moduli (GPa) = 51.19984 68.90472 35.94476
#
# Poissons Ratio (x) = 0.40709 0.01260
# Poissons Ratio (y) = 0.30249 0.22937
# Poissons Ratio (z) = 0.01794 0.43969
#
# Static dielectric constant tensor:
#      x y z
#    x 1.701160 -0.026430 -0.003630 
#    y -0.026430 1.716260 -0.009160 
#    z -0.003630 -0.009160 1.659720 
# 
# From -- ./inp_files/461818.got.cif
#   From: 2010.05.17/outbox.cif.g08.bks.cpg/sg2_231_cif.got.tgz:461818.got - 2010.06.03 11:33:40.
