data_PCOD9079415
_publ_section_title
;
Structure prediction by ZEFSAII (Michael W. Deem and Ramdas Pophale) SiO2 
 PCOD9079415
Probable space group: P -1
;
_chemical_formula_sum "Si O2"
_cell_formula_units_Z 14
_cell_length_a 9.764684
_cell_length_b 21.772341
_cell_length_c 12.277858
_cell_angle_alpha 22.392519
_cell_angle_beta 47.925195
_cell_angle_gamma 44.345517
_cell_volume 694.669936
_symmetry_space_group_name_H-M "P -1"
_symmetry_group_IT_number 2
_symmetry_cell_setting 'triclinic'
loop_
_space_group_symop_operation_xyz
x,y,z
-x,-y,-z
loop_
_atom_site_type_symbol
_atom_site_label
_atom_site_fract_x
_atom_site_fract_y
_atom_site_fract_z
Si Si1 0.673768 0.795075 0.513659
Si Si2 0.655158 0.329409 0.344076
Si Si3 0.229872 0.016341 0.041900
Si Si4 0.958064 0.805450 0.531772
Si Si5 0.066486 0.200732 0.030243
Si Si6 0.737984 0.467912 0.861375
Si Si7 0.247525 0.999053 0.474384
O O1 0.848443 0.760713 0.563041
O O2 0.706566 0.627425 0.697262
O O3 0.468041 0.868765 0.565440
O O4 0.681554 0.937925 0.188369
O O5 0.638599 0.150876 0.686811
O O6 0.444707 0.475242 0.217305
O O7 0.840290 0.340385 0.296265
O O8 0.722174 0.322875 0.193072
O O9 0.041621 0.959883 0.205709
O O10 0.169846 0.169800 0.909362
O O11 0.811623 0.872332 0.602126
O O12 0.206458 0.108440 0.205709
O O13 0.906196 0.103216 0.268508
O O14 0.942814 0.392653 0.815723
#
# Coordination Sequence:
#
# PCOD9079415 Si02
#       7
#     2   2   2   2   2   2   2
#     4  12  23  33  60  90 116 135 196 229 281 322
#     4   9  19  38  58  80 110 149 193 213 291 321
#     4   9  21  39  58  79 115 156 177 230 278 339
#     4   9  20  40  59  79 113 155 182 226 278 339
#     4  10  18  37  57  79 119 145 187 221 294 319
#     4  11  20  33  58  92 105 146 186 243 264 333
#     4  10  19  35  60  84 106 151 191 236 256 338
#
# _framework density 20.153455000000001
#
# number of rings (size 3 to 8) (size 9 to 14) (size 15 to 20)
#    0.857    1.143    1.429    4.286    0.000    3.429 
#    0.000    0.000    0.000    0.857    0.000    0.000 
#    0.000    0.000    0.000    0.000    0.000    0.000 
#
# Total GULP energy -78061.951058 kJ/mol
# GULP energy per Si atom -5575.853647 kJ/mol
# Density = 2.010758 g / cm^3
# Si number density = 20.153455 Si / 1000 Ang^3
#
#
#
# Elastic Constant Matrix: (Units=GPa)
#
#
# Indices 1 2 3 4 5 6 
#
# 1 110.8106 49.7220 33.3390 -8.4342 22.7856 -6.6450
# 2 49.7220 68.2059 14.8173 -5.8062 7.8868 -7.0854
# 3 33.3390 14.8173 62.1705 -1.5121 15.3656 3.6621
# 4 -8.4342 -5.8062 -1.5121 27.9451 -4.7344 7.2830
# 5 22.7856 7.8868 15.3656 -4.7344 22.6354 -3.4580
# 6 -6.6450 -7.0854 3.6621 7.2830 -3.4580 19.9357
#
#
#
# Elastic Compliance Matrix: (Units=1/GPa)
#
#
# Indices 1 2 3 4 5 6 
#
# 1 0.017151 -0.010229 -0.004162 0.000850 -0.010591 0.000698
# 2 -0.010229 0.022509 -0.001220 0.000883 0.004267 0.005232
# 3 -0.004162 -0.001220 0.021896 -0.000253 -0.011485 -0.007743
# 4 0.000850 0.000883 -0.000253 0.040587 0.005476 -0.013234
# 5 -0.010591 0.004267 -0.011485 0.005476 0.063691 0.009143
# 6 0.000698 0.005232 -0.007743 -0.013234 0.009143 0.060097
#
#
# Mechanical properties :
#
#
# Convention : Reuss Voigt Hill
#
# Bulk Modulus (GPa) = 32.96829 48.54930 40.75879
# Shear Modulus (GPa) = 18.70791 23.65714 21.18253
#
# Velocity S-wave (km/s) = 3.05006 3.42987 3.24553
# Velocity P-wave (km/s) = 5.36638 6.31090 5.85770
#
# Compressibility (1/GPa) = 0.03033218
#
# Stress axis : x y z
#
# Youngs Moduli (GPa) = 58.30570 44.42646 45.67033
#
# Poissons Ratio (x) = 0.45445 0.19009
# Poissons Ratio (y) = 0.59643 0.05574
# Poissons Ratio (z) = 0.24268 0.05422
#
# Static dielectric constant tensor:
#      x y z
#    x 1.722380 -0.022510 -0.029760 
#    y -0.022510 1.723300 -0.029270 
#    z -0.029760 -0.029270 1.761870 
# 
# From -- ./inp_files/438772.got.cif
#   From: 2010.05.17/outbox.cif.g08.bks.cpg/sg2_220_cif.got.tgz:438772.got - 2010.06.03 11:33:40.
