data_PCOD9079171
_publ_section_title
;
Structure prediction by ZEFSAII (Michael W. Deem and Ramdas Pophale) SiO2 
 PCOD9079171
Probable space group: P -1
;
_chemical_formula_sum "Si O2"
_cell_formula_units_Z 16
_cell_length_a 13.612009
_cell_length_b 9.374335
_cell_length_c 8.783526
_cell_angle_alpha 80.666328
_cell_angle_beta 100.930557
_cell_angle_gamma 51.336635
_cell_volume 799.641143
_symmetry_space_group_name_H-M "P -1"
_symmetry_group_IT_number 2
_symmetry_cell_setting 'triclinic'
loop_
_space_group_symop_operation_xyz
x,y,z
-x,-y,-z
loop_
_atom_site_type_symbol
_atom_site_label
_atom_site_fract_x
_atom_site_fract_y
_atom_site_fract_z
Si Si1 0.717548 0.221550 0.492397
Si Si2 0.246223 0.059617 0.209013
Si Si3 0.177259 0.612295 0.337501
Si Si4 0.095277 0.984548 0.698116
Si Si5 0.651017 0.193762 0.001687
Si Si6 0.536805 0.596829 0.814995
Si Si7 0.038426 0.813711 0.956424
Si Si8 0.366296 0.214300 0.365210
O O1 0.730893 0.341321 0.592070
O O2 0.848732 0.088838 0.442905
O O3 0.586118 0.356249 0.323931
O O4 0.712001 0.082034 0.612708
O O5 0.277884 0.191025 0.242304
O O6 0.091552 0.162428 0.109244
O O7 0.335730 0.926044 0.113700
O O8 0.264425 0.383052 0.432057
O O9 0.136695 0.647566 0.140005
O O10 0.037332 0.786590 0.354163
O O11 0.080972 0.841053 0.801681
O O12 0.216028 0.946814 0.830985
O O13 0.645496 0.363706 0.909246
O O14 0.521772 0.304340 0.053577
O O15 0.582153 0.696011 0.726609
O O16 0.000000 0.000000 0.000000
O O17 0.500000 0.000000 0.500000
#
# Coordination Sequence:
#
# PCOD9079171 Si02
#       8
#     2   2   2   2   2   2   2   2
#     4  11  21  36  68  93 120 157 209 255 310 355
#     4  12  22  38  63  88 123 171 197 249 311 367
#     4  11  22  39  63  91 120 162 206 255 305 358
#     4  10  19  37  65  96 121 146 203 277 302 347
#     4  10  21  41  69  93 116 155 217 262 300 353
#     4  10  23  41  64  94 123 159 207 263 300 356
#     4  10  18  36  63  92 117 149 205 264 301 348
#     4  12  27  41  58  88 137 166 203 242 307 378
#
# _framework density 20.008975
#
# number of rings (size 3 to 8) (size 9 to 14) (size 15 to 20)
#    0.000    1.250    6.250    1.875    1.750    2.000 
#    0.000    0.625    2.750    0.000    0.000    0.000 
#    0.000    0.000    0.000    0.000    0.000    0.000 
#
# Total GULP energy -89266.812512 kJ/mol
# GULP energy per Si atom -5579.175782 kJ/mol
# Density = 1.996343 g / cm^3
# Si number density = 20.008975 Si / 1000 Ang^3
#
#
#
# Elastic Constant Matrix: (Units=GPa)
#
#
# Indices 1 2 3 4 5 6 
#
# 1 64.8745 38.5948 10.2436 10.7488 20.6122 14.9811
# 2 38.5948 126.2327 32.8717 0.2363 9.1232 4.5379
# 3 10.2436 32.8717 78.2837 7.0491 5.7790 -2.7364
# 4 10.7488 0.2363 7.0491 34.0481 -6.6577 2.4579
# 5 20.6122 9.1232 5.7790 -6.6577 19.4539 -1.5963
# 6 14.9811 4.5379 -2.7364 2.4579 -1.5963 27.0080
#
#
#
# Elastic Compliance Matrix: (Units=1/GPa)
#
#
# Indices 1 2 3 4 5 6 
#
# 1 0.053354 -0.011690 0.004212 -0.028148 -0.064267 -0.028441
# 2 -0.011690 0.011766 -0.004637 0.006378 0.010764 0.004093
# 3 0.004212 -0.004637 0.015398 -0.006248 -0.008997 0.000040
# 4 -0.028148 0.006378 -0.006248 0.047611 0.045991 0.012294
# 5 -0.064267 0.010764 -0.008997 0.045991 0.135879 0.036774
# 6 -0.028441 0.004093 0.000040 0.012294 0.036774 0.053173
#
#
# Mechanical properties :
#
#
# Convention : Reuss Voigt Hill
#
# Bulk Modulus (GPa) = 17.76538 48.09014 32.92776
# Shear Modulus (GPa) = 13.88213 28.61404 21.24808
#
# Velocity S-wave (km/s) = 2.63686 3.78572 3.26226
# Velocity P-wave (km/s) = 4.26247 6.57232 5.53913
#
# Compressibility (1/GPa) = 0.05628924
#
# Stress axis : x y z
#
# Youngs Moduli (GPa) = 18.74258 84.98772 64.94284
#
# Poissons Ratio (x) = 0.99348 -0.27352
# Poissons Ratio (y) = 0.21909 0.30114
# Poissons Ratio (z) = -0.07894 0.39409
#
# Static dielectric constant tensor:
#      x y z
#    x 1.746530 -0.064420 0.012330 
#    y -0.064420 1.705690 -0.016560 
#    z 0.012330 -0.016560 1.766680 
# 
# From -- ./inp_files/298278.got.cif
#   From: 2010.05.17/outbox.cif.g08.bks.cpg/sg2_150_cif.got.tgz:298278.got - 2010.06.03 11:33:40.
