data_PCOD9079542
_publ_section_title
;
Structure prediction by ZEFSAII (Michael W. Deem and Ramdas Pophale) SiO2 
 PCOD9079542
Probable space group: P -1
;
_chemical_formula_sum "Si O2"
_cell_formula_units_Z 16
_cell_length_a 16.557200
_cell_length_b 8.583483
_cell_length_c 14.451737
_cell_angle_alpha 83.151387
_cell_angle_beta 151.717754
_cell_angle_gamma 114.114114
_cell_volume 738.160459
_symmetry_space_group_name_H-M "P -1"
_symmetry_group_IT_number 2
_symmetry_cell_setting 'triclinic'
loop_
_space_group_symop_operation_xyz
x,y,z
-x,-y,-z
loop_
_atom_site_type_symbol
_atom_site_label
_atom_site_fract_x
_atom_site_fract_y
_atom_site_fract_z
Si Si1 0.341724 0.998699 0.912009
Si Si2 0.675125 0.149080 0.389921
Si Si3 0.991591 0.921824 0.100496
Si Si4 0.588021 0.464407 0.683719
Si Si5 0.523568 0.940806 0.428958
Si Si6 0.901219 0.448191 0.298538
Si Si7 0.223969 0.163393 0.484107
Si Si8 0.423249 0.328346 0.859412
O O1 0.156557 0.764901 0.771179
O O2 0.278565 0.116199 0.786386
O O3 0.500000 0.000000 0.000000
O O4 0.511197 0.136027 0.154587
O O5 0.918255 0.367531 0.601317
O O6 0.535153 0.072793 0.349382
O O7 0.706180 0.978776 0.413927
O O8 0.227248 0.976136 0.334430
O O9 0.005468 0.024465 0.205666
O O10 0.793852 0.681461 0.915704
O O11 0.000000 0.000000 0.000000
O O12 0.500000 0.500000 0.500000
O O13 0.632354 0.305163 0.721411
O O14 0.397658 0.347201 0.576748
O O15 0.500000 0.000000 0.500000
O O16 0.000000 0.500000 0.500000
O O17 0.662989 0.398131 0.061846
O O18 0.269557 0.275536 0.619581
O O19 0.500000 0.500000 0.000000
#
# Coordination Sequence:
#
# PCOD9079542 Si02
#       8
#     2   2   2   2   2   2   2   2
#     4  10  18  37  61  83 123 156 206 242 299 373
#     4  10  19  37  64  90 112 163 218 238 298 382
#     4  10  19  38  66  88 116 165 217 248 305 386
#     4  10  19  39  65  89 115 166 211 254 307 378
#     4  10  24  39  61  96 132 154 203 274 319 355
#     4  11  19  36  69  84 111 169 210 243 293 379
#     4  10  21  35  62  91 123 161 216 250 306 376
#     4  11  23  40  59  93 136 159 196 269 323 350
#
# _framework density 21.675504
#
# number of rings (size 3 to 8) (size 9 to 14) (size 15 to 20)
#    0.000    2.000    7.500    0.000    3.500    0.500 
#    2.250    2.500    2.750    0.000    0.000    0.000 
#    0.000    0.000    0.000    0.000    0.000    0.000 
#
# Total GULP energy -89067.638746 kJ/mol
# GULP energy per Si atom -5566.727422 kJ/mol
# Density = 2.162617 g / cm^3
# Si number density = 21.675504 Si / 1000 Ang^3
#
#
#
# Elastic Constant Matrix: (Units=GPa)
#
#
# Indices 1 2 3 4 5 6 
#
# 1 88.8146 46.4317 36.5614 7.7308 -30.6006 14.8100
# 2 46.4317 105.7952 40.5873 37.9082 -6.5319 31.3423
# 3 36.5614 40.5873 120.8570 27.1726 -24.8303 4.4148
# 4 7.7308 37.9082 27.1726 52.3248 6.1279 -5.0544
# 5 -30.6006 -6.5319 -24.8303 6.1279 39.5114 -1.7191
# 6 14.8100 31.3423 4.4148 -5.0544 -1.7191 29.3387
#
#
#
# Elastic Compliance Matrix: (Units=1/GPa)
#
#
# Indices 1 2 3 4 5 6 
#
# 1 0.020695 -0.008665 -0.001054 0.002188 0.013600 0.000143
# 2 -0.008665 0.033814 -0.001503 -0.025958 0.000395 -0.035972
# 3 -0.001054 -0.001503 0.011920 -0.005825 0.007319 -0.000231
# 4 0.002188 -0.025958 -0.005825 0.045344 -0.011783 0.034624
# 5 0.013600 0.000395 0.007319 -0.011783 0.041988 -0.007958
# 6 0.000143 -0.035972 -0.000231 0.034624 -0.007958 0.077975
#
#
# Mechanical properties :
#
#
# Convention : Reuss Voigt Hill
#
# Bulk Modulus (GPa) = 22.73495 62.51418 42.62456
# Shear Modulus (GPa) = 18.59840 37.02741 27.81291
#
# Velocity S-wave (km/s) = 2.93241 4.13760 3.58599
# Velocity P-wave (km/s) = 4.68795 7.19234 6.07070
#
# Compressibility (1/GPa) = 0.04398515
#
# Stress axis : x y z
#
# Youngs Moduli (GPa) = 48.32194 29.57320 83.89548
#
# Poissons Ratio (x) = 0.25625 0.08840
# Poissons Ratio (y) = 0.41871 0.12610
# Poissons Ratio (z) = 0.05092 0.04445
#
# Static dielectric constant tensor:
#      x y z
#    x 1.907210 -0.023310 -0.053070 
#    y -0.023310 1.816580 -0.015770 
#    z -0.053070 -0.015770 1.835380 
# 
# From -- ./inp_files/537350.got.cif
#   From: 2010.05.17/outbox.cif.g08.bks.cpg/sg2_269_cif.got.tgz:537350.got - 2010.06.03 11:33:40.
