data_PCOD9079325
_publ_section_title
;
Structure prediction by ZEFSAII (Michael W. Deem and Ramdas Pophale) SiO2 
 PCOD9079325
Probable space group: P -1
;
_chemical_formula_sum "Si O2"
_cell_formula_units_Z 16
_cell_length_a 16.244435
_cell_length_b 10.939375
_cell_length_c 9.258285
_cell_angle_alpha 89.766012
_cell_angle_beta 41.008691
_cell_angle_gamma 58.994049
_cell_volume 675.079419
_symmetry_space_group_name_H-M "P -1"
_symmetry_group_IT_number 2
_symmetry_cell_setting 'triclinic'
loop_
_space_group_symop_operation_xyz
x,y,z
-x,-y,-z
loop_
_atom_site_type_symbol
_atom_site_label
_atom_site_fract_x
_atom_site_fract_y
_atom_site_fract_z
Si Si1 0.506839 0.674836 0.957853
Si Si2 0.092361 0.738378 0.473691
Si Si3 0.840049 0.692420 0.880260
Si Si4 0.721966 0.164321 0.032390
Si Si5 0.481161 0.199826 0.564053
Si Si6 0.184384 0.653455 0.012389
Si Si7 0.254931 0.259712 0.326333
Si Si8 0.256523 0.013636 0.500445
O O1 0.684428 0.445902 0.760020
O O2 0.380613 0.735786 0.985732
O O3 0.625458 0.713519 0.775952
O O4 0.355302 0.823614 0.287055
O O5 0.108546 0.709867 0.279784
O O6 0.959623 0.726789 0.709264
O O7 0.955358 0.955586 0.699663
O O8 0.738814 0.747978 0.856878
O O9 0.018590 0.459825 0.667410
O O10 0.673978 0.794942 0.220452
O O11 0.600080 0.145356 0.264128
O O12 0.710603 0.294542 0.141840
O O13 0.643661 0.059954 0.475556
O O14 0.337195 0.426622 0.786429
O O15 0.984390 0.805173 0.179479
O O16 0.311490 0.091989 0.331606
#
# Coordination Sequence:
#
# PCOD9079325 Si02
#       8
#     2   2   2   2   2   2   2   2
#     4  11  23  40  67 100 132 172 217 273 328 392
#     4  11  23  43  68 104 129 168 224 278 324 382
#     4  10  18  39  69  97 136 161 215 285 320 385
#     4  12  29  44  64  97 142 180 210 268 340 392
#     4  12  26  44  66 102 132 176 219 272 333 389
#     4  12  24  47  70  94 133 174 233 271 310 395
#     4  10  18  36  67 104 127 163 227 271 319 384
#     4  12  22  38  74  99 124 177 227 268 324 388
#
# _framework density 23.700915999999999
#
# number of rings (size 3 to 8) (size 9 to 14) (size 15 to 20)
#    0.000    0.750    6.250    1.875    1.750    3.500 
#    0.000    1.250    0.000    0.000    0.000    0.000 
#    0.000    0.000    0.000    0.000    0.000    0.000 
#
# Total GULP energy -89584.278715 kJ/mol
# GULP energy per Si atom -5599.017420 kJ/mol
# Density = 2.364697 g / cm^3
# Si number density = 23.700916 Si / 1000 Ang^3
#
#
#
# Elastic Constant Matrix: (Units=GPa)
#
#
# Indices 1 2 3 4 5 6 
#
# 1 63.1352 27.2875 14.6092 22.1364 -30.7647 -14.4269
# 2 27.2875 115.6721 52.5892 24.5405 -13.7899 -16.2792
# 3 14.6092 52.5892 107.2297 13.1089 -3.9203 -6.9059
# 4 22.1364 24.5405 13.1089 54.7392 1.4261 -13.4982
# 5 -30.7647 -13.7899 -3.9203 1.4261 32.3785 2.5760
# 6 -14.4269 -16.2792 -6.9059 -13.4982 2.5760 35.8632
#
#
#
# Elastic Compliance Matrix: (Units=1/GPa)
#
#
# Indices 1 2 3 4 5 6 
#
# 1 0.044555 0.000146 -0.002028 -0.016651 0.042223 0.008299
# 2 0.000146 0.012973 -0.005525 -0.003927 0.004925 0.003051
# 3 -0.002028 -0.005525 0.012131 0.000297 -0.002771 -0.000677
# 4 -0.016651 -0.003927 0.000297 0.028048 -0.018971 0.003496
# 5 0.042223 0.004925 -0.002771 -0.018971 0.073100 0.006296
# 6 0.008299 0.003051 -0.000677 0.003496 0.006296 0.033340
#
#
# Mechanical properties :
#
#
# Convention : Reuss Voigt Hill
#
# Bulk Modulus (GPa) = 18.23402 52.77875 35.50638
# Shear Modulus (GPa) = 21.07552 37.36625 29.22088
#
# Velocity S-wave (km/s) = 2.98523 3.97492 3.51508
# Velocity P-wave (km/s) = 4.42631 6.58662 5.61141
#
# Compressibility (1/GPa) = 0.05484255
#
# Stress axis : x y z
#
# Youngs Moduli (GPa) = 22.44435 77.08585 82.43594
#
# Poissons Ratio (x) = -0.01122 0.16717
# Poissons Ratio (y) = -0.00327 0.45549
# Poissons Ratio (z) = 0.04551 0.42593
#
# Static dielectric constant tensor:
#      x y z
#    x 1.847680 0.064830 -0.034090 
#    y 0.064830 1.910200 0.001790 
#    z -0.034090 0.001790 1.920330 
# 
# From -- ./inp_files/333206.got.cif
#   From: 2010.05.17/outbox.cif.g08.bks.cpg/sg2_167_cif.got.tgz:333206.got - 2010.06.03 11:33:40.
