data_PCOD9079995
_publ_section_title
;
Structure prediction by ZEFSAII (Michael W. Deem and Ramdas Pophale) SiO2 
 PCOD9079995
Probable space group: P -1
;
_chemical_formula_sum "Si O2"
_cell_formula_units_Z 16
_cell_length_a 9.239555
_cell_length_b 18.007459
_cell_length_c 11.989941
_cell_angle_alpha 55.505214
_cell_angle_beta 108.156845
_cell_angle_gamma 57.451330
_cell_volume 639.623584
_symmetry_space_group_name_H-M "P -1"
_symmetry_group_IT_number 2
_symmetry_cell_setting 'triclinic'
loop_
_space_group_symop_operation_xyz
x,y,z
-x,-y,-z
loop_
_atom_site_type_symbol
_atom_site_label
_atom_site_fract_x
_atom_site_fract_y
_atom_site_fract_z
Si Si1 0.396821 0.671910 0.626237
Si Si2 0.740807 0.228079 0.250418
Si Si3 0.592726 0.526898 0.258543
Si Si4 0.749857 0.645465 0.049696
Si Si5 0.453584 0.110467 0.811312
Si Si6 0.561382 0.719138 0.187191
Si Si7 0.537755 0.175680 0.575349
Si Si8 0.282043 0.209407 0.266270
O O1 0.222545 0.744221 0.645279
O O2 0.361724 0.603216 0.598475
O O3 0.249964 0.847101 0.393499
O O4 0.838208 0.442872 0.950232
O O5 0.343207 0.391561 0.014918
O O6 0.697331 0.306287 0.057515
O O7 0.000000 0.000000 0.500000
O O8 0.473408 0.659580 0.216539
O O9 0.006158 0.341544 0.485118
O O10 0.600222 0.809173 0.805592
O O11 0.536341 0.756293 0.019493
O O12 0.194514 0.406330 0.366288
O O13 0.595516 0.119705 0.908657
O O14 0.638457 0.036166 0.798600
O O15 0.500000 0.000000 0.000000
O O16 0.000000 0.500000 0.500000
O O17 0.407156 0.203902 0.403456
O O18 0.500000 0.000000 0.500000
#
# Coordination Sequence:
#
# PCOD9079995 Si02
#       8
#     2   2   2   2   2   2   2   2
#     4  11  22  40  62  93 135 167 204 267 327 383
#     4  11  21  36  63  93 133 170 201 256 328 386
#     4  10  22  39  60  94 127 162 215 266 319 374
#     4  10  18  38  60  90 121 169 208 258 306 383
#     4  11  23  41  68  90 120 174 224 269 313 379
#     4   9  18  38  62  83 122 159 223 257 308 362
#     4  11  20  42  64  89 130 170 210 262 320 378
#     4  11  23  36  63  93 132 169 212 249 328 392
#
# _framework density 25.014709
#
# number of rings (size 3 to 8) (size 9 to 14) (size 15 to 20)
#    0.000    1.500    6.250    1.125    3.500    2.000 
#    0.000    1.250    0.000    0.000    0.000    0.000 
#    0.000    0.000    0.000    0.000    0.000    0.000 
#
# Total GULP energy -89147.315557 kJ/mol
# GULP energy per Si atom -5571.707222 kJ/mol
# Density = 2.495777 g / cm^3
# Si number density = 25.014709 Si / 1000 Ang^3
#
#
#
# Elastic Constant Matrix: (Units=GPa)
#
#
# Indices 1 2 3 4 5 6 
#
# 1 107.2519 41.8105 28.4780 13.2674 -15.9398 28.2811
# 2 41.8105 78.3164 16.6021 12.5931 -0.0602 21.4396
# 3 28.4780 16.6021 102.9563 2.4892 -23.7383 3.8792
# 4 13.2674 12.5931 2.4892 27.0013 0.4158 -3.2289
# 5 -15.9398 -0.0602 -23.7383 0.4158 40.7541 -3.0137
# 6 28.2811 21.4396 3.8792 -3.2289 -3.0137 46.4342
#
#
#
# Elastic Compliance Matrix: (Units=1/GPa)
#
#
# Indices 1 2 3 4 5 6 
#
# 1 0.014815 -0.004687 -0.001979 -0.005792 0.004189 -0.006825
# 2 -0.004687 0.018506 -0.002073 -0.006828 -0.003403 -0.006213
# 3 -0.001979 -0.002073 0.011964 0.000935 0.006303 0.001637
# 4 -0.005792 -0.006828 0.000935 0.044147 -0.001473 0.009576
# 5 0.004189 -0.003403 0.006303 -0.001473 0.029882 0.000330
# 6 -0.006825 -0.006213 0.001637 0.009576 0.000330 0.029112
#
#
# Mechanical properties :
#
#
# Convention : Reuss Voigt Hill
#
# Bulk Modulus (GPa) = 35.96286 51.36733 43.66510
# Shear Modulus (GPa) = 28.54323 36.28019 32.41171
#
# Velocity S-wave (km/s) = 3.38162 3.81248 3.60350
# Velocity P-wave (km/s) = 5.44564 6.32135 5.89977
#
# Compressibility (1/GPa) = 0.02780647
#
# Stress axis : x y z
#
# Youngs Moduli (GPa) = 67.49849 54.03530 83.58730
#
# Poissons Ratio (x) = 0.25326 0.16542
# Poissons Ratio (y) = 0.31636 0.17331
# Poissons Ratio (z) = 0.13358 0.11203
#
# Static dielectric constant tensor:
#      x y z
#    x 2.071080 -0.035150 0.009050 
#    y -0.035150 2.033750 -0.010050 
#    z 0.009050 -0.010050 2.143690 
# 
# From -- ./inp_files/403002.got.cif
#   From: 2010.05.17/outbox.cif.g08.bks.cpg/sg2_202_cif.got.tgz:403002.got - 2010.06.03 11:33:40.
