data_PCOD9079693
_publ_section_title
;
Structure prediction by ZEFSAII (Michael W. Deem and Ramdas Pophale) SiO2 
 PCOD9079693
Probable space group: P -1
;
_chemical_formula_sum "Si O2"
_cell_formula_units_Z 16
_cell_length_a 15.403943
_cell_length_b 8.146872
_cell_length_c 9.584558
_cell_angle_alpha 111.079606
_cell_angle_beta 37.911740
_cell_angle_gamma 90.900607
_cell_volume 609.596768
_symmetry_space_group_name_H-M "P -1"
_symmetry_group_IT_number 2
_symmetry_cell_setting 'triclinic'
loop_
_space_group_symop_operation_xyz
x,y,z
-x,-y,-z
loop_
_atom_site_type_symbol
_atom_site_label
_atom_site_fract_x
_atom_site_fract_y
_atom_site_fract_z
Si Si1 0.387700 0.188533 0.800507
Si Si2 0.077089 0.223075 0.259940
Si Si3 0.894766 0.386344 0.284139
Si Si4 0.006947 0.291545 0.686002
Si Si5 0.288478 0.763626 0.911311
Si Si6 0.509429 0.904730 0.807944
Si Si7 0.818908 0.921777 0.353306
Si Si8 0.621522 0.330874 0.548183
O O1 0.446395 0.352626 0.796280
O O2 0.500000 0.000000 0.500000
O O3 0.402970 0.092807 0.902839
O O4 0.204529 0.262736 0.020720
O O5 0.044511 0.304092 0.481094
O O6 0.926026 0.305725 0.377540
O O7 0.159003 0.989188 0.108671
O O8 0.950350 0.552371 0.245731
O O9 0.708253 0.461295 0.516329
O O10 0.013131 0.209381 0.978566
O O11 0.125769 0.087462 0.557080
O O12 0.825748 0.330889 0.934948
O O13 0.419874 0.770232 0.852107
O O14 0.366441 0.687014 0.639364
O O15 0.687269 0.839830 0.501171
O O16 0.500000 0.000000 0.000000
O O17 0.728627 0.126225 0.440158
#
# Coordination Sequence:
#
# PCOD9079693 Si02
#       8
#     2   2   2   2   2   2   2   2
#     4  10  18  37  63  91 115 149 204 255 296 349
#     4  11  22  41  64  88 120 162 203 248 306 355
#     4  12  24  40  60  90 126 165 204 241 296 362
#     4  12  26  40  58  91 133 161 194 252 303 355
#     4  11  21  40  65  92 120 154 204 253 302 354
#     4  10  21  36  60  95 122 147 194 262 309 347
#     4  11  21  39  64  89 117 162 208 246 295 355
#     4  11  21  38  67  94 114 155 210 255 290 356
#
# _framework density 26.246856999999999
#
# number of rings (size 3 to 8) (size 9 to 14) (size 15 to 20)
#    0.000    1.000    5.000    4.500    0.000    2.000 
#    0.000    2.500    0.000    0.000    0.000    0.000 
#    0.000    0.000    0.000    0.000    0.000    0.000 
#
# Total GULP energy -89431.383251 kJ/mol
# GULP energy per Si atom -5589.461453 kJ/mol
# Density = 2.618712 g / cm^3
# Si number density = 26.246857 Si / 1000 Ang^3
#
#
#
# Elastic Constant Matrix: (Units=GPa)
#
#
# Indices 1 2 3 4 5 6 
#
# 1 197.1967 42.9828 37.8363 -18.3072 -14.6903 -0.1934
# 2 42.9828 89.3191 27.6183 -25.9911 -21.3458 12.9948
# 3 37.8363 27.6183 47.1553 -24.5758 2.0200 2.2656
# 4 -18.3072 -25.9911 -24.5758 31.6795 11.1118 -22.7198
# 5 -14.6903 -21.3458 2.0200 11.1118 61.2709 -12.5440
# 6 -0.1934 12.9948 2.2656 -22.7198 -12.5440 53.3009
#
#
#
# Elastic Compliance Matrix: (Units=1/GPa)
#
#
# Indices 1 2 3 4 5 6 
#
# 1 0.006386 -0.001742 -0.005547 -0.002647 0.001572 -0.000075
# 2 -0.001742 0.016678 -0.004136 0.008530 0.004128 0.000711
# 3 -0.005547 -0.004136 0.055879 0.054253 -0.010508 0.019266
# 4 -0.002647 0.008530 0.054253 0.112430 -0.011483 0.040826
# 5 0.001572 0.004128 -0.010508 -0.011483 0.020434 -0.000640
# 6 -0.000075 0.000711 0.019266 0.040826 -0.000640 0.035021
#
#
# Mechanical properties :
#
#
# Convention : Reuss Voigt Hill
#
# Bulk Modulus (GPa) = 17.82727 61.17177 39.49952
# Shear Modulus (GPa) = 17.33850 44.26583 30.80217
#
# Velocity S-wave (km/s) = 2.57299 4.11118 3.42944
# Velocity P-wave (km/s) = 3.95398 6.77441 5.54647
#
# Compressibility (1/GPa) = 0.05609384
#
# Stress axis : x y z
#
# Youngs Moduli (GPa) = 156.58260 59.95891 17.89581
#
# Poissons Ratio (x) = 0.10443 0.09927
# Poissons Ratio (y) = 0.27271 0.07402
# Poissons Ratio (z) = 0.86861 0.24798
#
# Static dielectric constant tensor:
#      x y z
#    x 2.089290 0.019410 0.061690 
#    y 0.019410 2.104730 0.092100 
#    z 0.061690 0.092100 2.089830 
# 
# From -- ./inp_files/298653.got.cif
#   From: 2010.05.17/outbox.cif.g08.bks.cpg/sg2_150_cif.got.tgz:298653.got - 2010.06.03 11:33:40.
