data_PCOD9079076
_publ_section_title
;
Structure prediction by ZEFSAII (Michael W. Deem and Ramdas Pophale) SiO2 
 PCOD9079076
Probable space group: P -1
;
_chemical_formula_sum "Si O2"
_cell_formula_units_Z 16
_cell_length_a 17.530281
_cell_length_b 8.506198
_cell_length_c 6.496747
_cell_angle_alpha 59.762111
_cell_angle_beta 112.050327
_cell_angle_gamma 122.769495
_cell_volume 696.673663
_symmetry_space_group_name_H-M "P -1"
_symmetry_group_IT_number 2
_symmetry_cell_setting 'triclinic'
loop_
_space_group_symop_operation_xyz
x,y,z
-x,-y,-z
loop_
_atom_site_type_symbol
_atom_site_label
_atom_site_fract_x
_atom_site_fract_y
_atom_site_fract_z
Si Si1 0.372899 0.839987 0.040853
Si Si2 0.470269 0.237973 0.625444
Si Si3 0.195849 0.509641 0.250294
Si Si4 0.676968 0.688781 0.339878
Si Si5 0.385861 0.147848 0.200174
Si Si6 0.896153 0.461625 0.462127
Si Si7 0.902193 0.815633 0.970411
Si Si8 0.220543 0.982724 0.452222
O O1 0.434438 0.719910 0.198693
O O2 0.266934 0.684845 0.058750
O O3 0.396559 0.989926 0.162260
O O4 0.409928 0.998375 0.787455
O O5 0.413659 0.350612 0.590597
O O6 0.471510 0.255213 0.368540
O O7 0.268368 0.445004 0.484176
O O8 0.140726 0.574158 0.317717
O O9 0.119713 0.325929 0.162898
O O10 0.747738 0.902596 0.373678
O O11 0.645779 0.713215 0.063990
O O12 0.304603 0.031493 0.352979
O O13 0.837010 0.253464 0.424527
O O14 0.000000 0.500000 0.500000
O O15 0.882440 0.652634 0.238782
O O16 0.836652 0.921583 0.793324
O O17 0.000000 0.000000 0.000000
#
# Coordination Sequence:
#
# PCOD9079076 Si02
#       8
#     2   2   2   2   2   2   2   2
#     4  10  20  36  60  96 130 164 219 256 313 384
#     4   9  20  36  61  94 130 173 203 264 313 374
#     4  11  25  42  66  95 125 173 215 268 323 388
#     4   9  21  39  61  91 130 167 211 259 324 377
#     4  10  18  36  62  86 127 170 209 256 319 379
#     4  12  25  43  67  96 124 168 224 270 328 392
#     4  11  25  45  63  94 132 166 215 278 329 385
#     4  10  21  41  61  91 128 168 211 267 324 379
#
# _framework density 22.966275
#
# number of rings (size 3 to 8) (size 9 to 14) (size 15 to 20)
#    0.000    1.750    2.500    1.125    5.250    1.500 
#    2.250    0.625    0.000    0.000    0.000    0.000 
#    0.000    0.000    0.000    0.000    0.000    0.000 
#
# Total GULP energy -89308.450555 kJ/mol
# GULP energy per Si atom -5581.778160 kJ/mol
# Density = 2.291400 g / cm^3
# Si number density = 22.966275 Si / 1000 Ang^3
#
#
#
# Elastic Constant Matrix: (Units=GPa)
#
#
# Indices 1 2 3 4 5 6 
#
# 1 107.1881 25.7573 35.0764 7.1300 8.8891 8.5232
# 2 25.7573 88.3899 24.2134 -8.9369 -2.7150 6.0807
# 3 35.0764 24.2134 121.3264 2.2882 13.4365 7.7841
# 4 7.1300 -8.9369 2.2882 38.9899 0.1501 -1.5532
# 5 8.8891 -2.7150 13.4365 0.1501 25.4063 -6.1766
# 6 8.5232 6.0807 7.7841 -1.5532 -6.1766 19.8038
#
#
#
# Elastic Compliance Matrix: (Units=1/GPa)
#
#
# Indices 1 2 3 4 5 6 
#
# 1 0.011628 -0.002958 -0.001888 -0.002876 -0.004587 -0.005010
# 2 -0.002958 0.013301 -0.002216 0.003684 0.003468 -0.000569
# 3 -0.001888 -0.002216 0.010206 -0.000917 -0.006058 -0.004480
# 4 -0.002876 0.003684 -0.000917 0.027197 0.002549 0.003395
# 5 -0.004587 0.003468 -0.006058 0.002549 0.049096 0.018803
# 6 -0.005010 -0.000569 -0.004480 0.003395 0.018803 0.060718
#
#
# Mechanical properties :
#
#
# Convention : Reuss Voigt Hill
#
# Bulk Modulus (GPa) = 47.59585 54.11097 50.85341
# Shear Modulus (GPa) = 25.87005 32.29716 29.08360
#
# Velocity S-wave (km/s) = 3.35988 3.75412 3.56246
# Velocity P-wave (km/s) = 5.98506 6.51179 6.25397
#
# Compressibility (1/GPa) = 0.02101023
#
# Stress axis : x y z
#
# Youngs Moduli (GPa) = 85.99832 75.18311 97.98310
#
# Poissons Ratio (x) = 0.22242 0.18496
# Poissons Ratio (y) = 0.25442 0.21716
# Poissons Ratio (z) = 0.16233 0.16663
#
# Static dielectric constant tensor:
#      x y z
#    x 1.871140 0.040450 0.027740 
#    y 0.040450 1.944200 -0.016720 
#    z 0.027740 -0.016720 1.906860 
# 
# From -- ./inp_files/106349.got.cif
#   From: 2010.05.17/outbox.cif.g08.bks.cpg/sg2_54_cif.got.tgz:106349.got - 2010.06.03 11:33:40.
