data_PCOD9079089
_publ_section_title
;
Structure prediction by ZEFSAII (Michael W. Deem and Ramdas Pophale) SiO2 
 PCOD9079089
Probable space group: P -1
;
_chemical_formula_sum "Si O2"
_cell_formula_units_Z 16
_cell_length_a 8.876968
_cell_length_b 15.925382
_cell_length_c 8.858344
_cell_angle_alpha 143.036472
_cell_angle_beta 117.832990
_cell_angle_gamma 59.860756
_cell_volume 645.992828
_symmetry_space_group_name_H-M "P -1"
_symmetry_group_IT_number 2
_symmetry_cell_setting 'triclinic'
loop_
_space_group_symop_operation_xyz
x,y,z
-x,-y,-z
loop_
_atom_site_type_symbol
_atom_site_label
_atom_site_fract_x
_atom_site_fract_y
_atom_site_fract_z
Si Si1 0.215644 0.258031 0.487518
Si Si2 0.013619 0.304907 0.765301
Si Si3 0.241966 0.498299 0.263799
Si Si4 0.528129 0.222419 0.912609
Si Si5 0.883130 0.874645 0.158507
Si Si6 0.917829 0.137048 0.056254
Si Si7 0.561041 0.054309 0.389570
Si Si8 0.195711 0.411340 0.429238
O O1 0.275393 0.378723 0.588493
O O2 0.165439 0.268475 0.654963
O O3 0.028963 0.247967 0.319284
O O4 0.366353 0.114795 0.321386
O O5 0.827974 0.360900 0.671403
O O6 0.033427 0.179935 0.718493
O O7 0.068123 0.432387 0.069285
O O8 0.274640 0.492650 0.451237
O O9 0.406528 0.381051 0.105211
O O10 0.434931 0.099612 0.753036
O O11 0.571671 0.174868 0.691631
O O12 0.710811 0.194534 0.047945
O O13 0.724333 0.014937 0.298976
O O14 0.803903 0.744609 0.867509
O O15 0.027134 0.896589 0.139247
O O16 0.000000 0.000000 0.000000
O O17 0.000000 0.500000 0.500000
#
# Coordination Sequence:
#
# PCOD9079089 Si02
#       8
#     2   2   2   2   2   2   2   2
#     4  11  21  36  63  90 121 160 196 250 301 355
#     4  10  18  36  62  88 112 154 210 248 288 346
#     4  10  19  34  63  89 116 155 203 252 294 343
#     4  11  21  39  60  92 119 158 199 252 298 356
#     4  10  23  38  60  91 120 160 199 250 297 360
#     4  11  25  40  57  85 134 161 187 239 323 363
#     4  11  20  37  64  90 117 149 214 254 282 349
#     4  10  19  34  57  90 120 151 200 250 291 346
#
# _framework density 24.768077999999999
#
# number of rings (size 3 to 8) (size 9 to 14) (size 15 to 20)
#    0.000    1.500    6.250    0.750    0.000    3.500 
#    0.000    1.250    0.000    0.000    0.000    0.000 
#    0.000    0.000    0.000    0.000    0.000    0.000 
#
# Total GULP energy -89301.289136 kJ/mol
# GULP energy per Si atom -5581.330571 kJ/mol
# Density = 2.471170 g / cm^3
# Si number density = 24.768078 Si / 1000 Ang^3
#
#
#
# Elastic Constant Matrix: (Units=GPa)
#
#
# Indices 1 2 3 4 5 6 
#
# 1 63.8323 55.6646 33.6014 -3.9073 -23.2307 -9.3484
# 2 55.6646 182.4558 29.9473 -1.8602 -30.8201 -3.5687
# 3 33.6014 29.9473 73.0047 -1.7473 -23.9073 2.7294
# 4 -3.9073 -1.8602 -1.7473 41.8668 -4.4944 -16.8155
# 5 -23.2307 -30.8201 -23.9073 -4.4944 46.5366 -3.7761
# 6 -9.3484 -3.5687 2.7294 -16.8155 -3.7761 47.0349
#
#
#
# Elastic Compliance Matrix: (Units=1/GPa)
#
#
# Indices 1 2 3 4 5 6 
#
# 1 0.030484 -0.006243 -0.009098 0.006692 0.007796 0.009131
# 2 -0.006243 0.007655 0.000440 -0.000240 0.002107 -0.000602
# 3 -0.009098 0.000440 0.019615 -0.000471 0.005568 -0.002635
# 4 0.006692 -0.000240 -0.000471 0.030337 0.006903 0.012739
# 5 0.007796 0.002107 0.005568 0.006903 0.030816 0.006328
# 6 0.009131 -0.000602 -0.002635 0.012739 0.006328 0.028246
#
#
# Mechanical properties :
#
#
# Convention : Reuss Voigt Hill
#
# Bulk Modulus (GPa) = 35.77526 61.96881 48.87204
# Shear Modulus (GPa) = 26.84257 40.42629 33.63443
#
# Velocity S-wave (km/s) = 3.29562 4.04442 3.68907
# Velocity P-wave (km/s) = 5.38116 6.84717 6.15795
#
# Compressibility (1/GPa) = 0.02795228
#
# Stress axis : x y z
#
# Youngs Moduli (GPa) = 32.80452 130.63433 50.98141
#
# Poissons Ratio (x) = 0.81557 0.46381
# Poissons Ratio (y) = 0.20480 -0.02244
# Poissons Ratio (z) = 0.29845 -0.05751
#
# Static dielectric constant tensor:
#      x y z
#    x 2.020160 0.089420 0.010270 
#    y 0.089420 2.069060 -0.044510 
#    z 0.010270 -0.044510 2.090520 
# 
# From -- ./inp_files/218706.got.cif
#   From: 2010.05.17/outbox.cif.g08.bks.cpg/sg2_110_cif.got.tgz:218706.got - 2010.06.03 11:33:40.
