data_PCOD9079036
_publ_section_title
;
Structure prediction by ZEFSAII (Michael W. Deem and Ramdas Pophale) SiO2 
 PCOD9079036
Probable space group: P -1
;
_chemical_formula_sum "Si O2"
_cell_formula_units_Z 16
_cell_length_a 10.139578
_cell_length_b 20.620903
_cell_length_c 11.950082
_cell_angle_alpha 151.994119
_cell_angle_beta 78.300768
_cell_angle_gamma 82.345792
_cell_volume 843.403279
_symmetry_space_group_name_H-M "P -1"
_symmetry_group_IT_number 2
_symmetry_cell_setting 'triclinic'
loop_
_space_group_symop_operation_xyz
x,y,z
-x,-y,-z
loop_
_atom_site_type_symbol
_atom_site_label
_atom_site_fract_x
_atom_site_fract_y
_atom_site_fract_z
Si Si1 0.401892 0.314093 0.271596
Si Si2 0.183480 0.164719 0.782210
Si Si3 0.495798 0.031734 0.181078
Si Si4 0.571321 0.263693 0.942404
Si Si5 0.808319 0.359295 0.017045
Si Si6 0.788934 0.531724 0.809961
Si Si7 0.823413 0.527826 0.052156
Si Si8 0.149428 0.244416 0.168684
O O1 0.333270 0.449416 0.594225
O O2 0.223360 0.352312 0.316464
O O3 0.490177 0.338990 0.195360
O O4 0.538296 0.095181 0.950914
O O5 0.350987 0.945557 0.396013
O O6 0.223142 0.293055 0.931580
O O7 0.149859 0.189383 0.959104
O O8 0.004452 0.237716 0.858038
O O9 0.350018 0.249502 0.566181
O O10 0.500000 0.000000 0.000000
O O11 0.693444 0.932652 0.049474
O O12 0.731624 0.258505 0.879764
O O13 0.402077 0.396621 0.089806
O O14 0.817452 0.416343 0.978782
O O15 0.956565 0.371587 0.457526
O O16 0.828952 0.468161 0.834471
O O17 0.000000 0.500000 0.000000
#
# Coordination Sequence:
#
# PCOD9079036 Si02
#       8
#     2   2   2   2   2   2   2   2
#     4  10  20  39  62  91 118 156 203 251 302 353
#     4  12  21  42  63  89 124 158 210 256 295 358
#     4  10  18  36  61  96 119 149 207 257 298 345
#     4  12  26  38  61  94 125 163 201 253 311 364
#     4  12  25  41  59  91 131 163 195 250 317 364
#     4  12  21  40  66  90 120 159 213 253 298 357
#     4  12  22  38  65  92 122 161 206 251 300 368
#     4  10  21  37  68  94 113 156 209 262 296 347
#
# _framework density 18.970758
#
# number of rings (size 3 to 8) (size 9 to 14) (size 15 to 20)
#    0.750    0.000    5.000    4.500    0.000    0.500 
#    0.000    0.000    0.000    1.500    0.000    0.000 
#    0.000    0.000    0.000    0.000    0.000    0.000 
#
# Total GULP energy -89374.966994 kJ/mol
# GULP energy per Si atom -5585.935437 kJ/mol
# Density = 1.892758 g / cm^3
# Si number density = 18.970758 Si / 1000 Ang^3
#
#
#
# Elastic Constant Matrix: (Units=GPa)
#
#
# Indices 1 2 3 4 5 6 
#
# 1 61.5743 28.7863 -5.4904 -0.8303 -10.6709 -11.7718
# 2 28.7863 127.3789 18.8169 -28.8996 -3.5630 -29.5752
# 3 -5.4904 18.8169 61.1901 -7.2039 -5.5135 -12.0373
# 4 -0.8303 -28.8996 -7.2039 35.6050 -7.5991 -3.1557
# 5 -10.6709 -3.5630 -5.5135 -7.5991 17.2852 1.1742
# 6 -11.7718 -29.5752 -12.0373 -3.1557 1.1742 25.5031
#
#
#
# Elastic Compliance Matrix: (Units=1/GPa)
#
#
# Indices 1 2 3 4 5 6 
#
# 1 0.023143 -0.001862 0.007184 0.005308 0.017730 0.011754
# 2 -0.001862 0.017791 0.001917 0.018898 0.009905 0.022559
# 3 0.007184 0.001917 0.022421 0.011102 0.015723 0.016771
# 4 0.005308 0.018898 0.011102 0.055924 0.032921 0.035010
# 5 0.017730 0.009905 0.015723 0.032921 0.088488 0.027091
# 6 0.011754 0.022559 0.016771 0.035010 0.027091 0.081798
#
#
# Mechanical properties :
#
#
# Convention : Reuss Voigt Hill
#
# Bulk Modulus (GPa) = 12.84819 37.15212 25.00016
# Shear Modulus (GPa) = 16.60961 29.54735 23.07848
#
# Velocity S-wave (km/s) = 2.96216 3.95083 3.49166
# Velocity P-wave (km/s) = 4.29959 6.35912 5.42793
#
# Compressibility (1/GPa) = 0.07783195
#
# Stress axis : x y z
#
# Youngs Moduli (GPa) = 43.20972 56.20939 44.60183
#
# Poissons Ratio (x) = 0.10467 -0.32041
# Poissons Ratio (y) = 0.08046 -0.08551
# Poissons Ratio (z) = -0.31041 -0.10776
#
# Static dielectric constant tensor:
#      x y z
#    x 1.644330 -0.011730 -0.001480 
#    y -0.011730 1.661510 0.010070 
#    z -0.001480 0.010070 1.657030 
# 
# From -- ./inp_files/405071.got.cif
#   From: 2010.05.17/outbox.cif.g08.bks.cpg/sg2_203_cif.got.tgz:405071.got - 2010.06.03 11:33:40.
