data_PCOD9079250
_publ_section_title
;
Structure prediction by ZEFSAII (Michael W. Deem and Ramdas Pophale) SiO2 
 PCOD9079250
Probable space group: P -1
;
_chemical_formula_sum "Si O2"
_cell_formula_units_Z 16
_cell_length_a 12.418438
_cell_length_b 7.159531
_cell_length_c 11.710031
_cell_angle_alpha 85.768686
_cell_angle_beta 104.431890
_cell_angle_gamma 41.470323
_cell_volume 610.143001
_symmetry_space_group_name_H-M "P -1"
_symmetry_group_IT_number 2
_symmetry_cell_setting 'triclinic'
loop_
_space_group_symop_operation_xyz
x,y,z
-x,-y,-z
loop_
_atom_site_type_symbol
_atom_site_label
_atom_site_fract_x
_atom_site_fract_y
_atom_site_fract_z
Si Si1 0.217018 0.242614 0.094303
Si Si2 0.085845 0.768825 0.929827
Si Si3 0.400454 0.644793 0.735494
Si Si4 0.245035 0.488514 0.755249
Si Si5 0.862378 0.879776 0.531590
Si Si6 0.705999 0.984722 0.109818
Si Si7 0.134915 0.469361 0.301677
Si Si8 0.261009 0.728345 0.315383
O O1 0.227686 0.440638 0.041252
O O2 0.317920 0.986053 0.035121
O O3 0.247195 0.223539 0.237492
O O4 0.000000 0.500000 0.000000
O O5 0.186833 0.689028 0.842927
O O6 0.897582 0.949405 0.812675
O O7 0.000000 0.000000 0.000000
O O8 0.376118 0.454126 0.726377
O O9 0.561901 0.500247 0.704875
O O10 0.210410 0.984854 0.619101
O O11 0.416216 0.714695 0.861124
O O12 0.315679 0.196547 0.835830
O O13 0.065952 0.680068 0.624026
O O14 0.844721 0.688798 0.575303
O O15 0.732864 0.175542 0.567466
O O16 0.921992 0.744447 0.194888
O O17 0.196916 0.600311 0.322613
#
# Coordination Sequence:
#
# PCOD9079250 Si02
#       8
#     2   2   2   2   2   2   2   2
#     4   9  17  33  63  88 109 146 198 259 282 336
#     4  10  18  36  65  83 111 150 205 243 280 357
#     4  12  24  38  58  87 134 158 187 250 309 354
#     4   9  21  38  60  89 116 154 207 244 292 347
#     4  10  23  41  61  88 113 165 215 240 280 356
#     4   9  20  37  59  89 115 153 201 246 300 350
#     4  10  20  39  65  87 112 154 214 246 287 347
#     4  11  23  38  59  93 119 158 200 241 312 355
#
# _framework density 26.223357
#
# number of rings (size 3 to 8) (size 9 to 14) (size 15 to 20)
#    0.000    2.000    1.250    4.500    1.750    4.500 
#    0.000    1.250    0.000    0.000    0.000    0.000 
#    0.000    0.000    0.000    0.000    0.000    0.000 
#
# Total GULP energy -89497.903430 kJ/mol
# GULP energy per Si atom -5593.618964 kJ/mol
# Density = 2.616367 g / cm^3
# Si number density = 26.223357 Si / 1000 Ang^3
#
#
#
# Elastic Constant Matrix: (Units=GPa)
#
#
# Indices 1 2 3 4 5 6 
#
# 1 169.6664 43.0149 6.0697 -4.5514 -18.6489 12.2197
# 2 43.0149 95.0687 22.9240 23.9665 11.2180 6.2917
# 3 6.0697 22.9240 94.0929 8.6631 0.6901 -3.9184
# 4 -4.5514 23.9665 8.6631 45.7487 12.0722 13.3845
# 5 -18.6489 11.2180 0.6901 12.0722 10.9257 1.3360
# 6 12.2197 6.2917 -3.9184 13.3845 1.3360 25.5346
#
#
#
# Elastic Compliance Matrix: (Units=1/GPa)
#
#
# Indices 1 2 3 4 5 6 
#
# 1 0.011636 -0.008491 0.001055 -0.001465 0.030638 -0.004149
# 2 -0.008491 0.019508 -0.003676 -0.002469 -0.031764 0.001648
# 3 0.001055 -0.003676 0.011860 -0.003419 0.008166 0.003585
# 4 -0.001465 -0.002469 -0.003419 0.039890 -0.041631 -0.017946
# 5 0.030638 -0.031764 0.008166 -0.041631 0.221351 0.004658
# 6 -0.004149 0.001648 0.003585 -0.017946 0.004658 0.050455
#
#
# Mechanical properties :
#
#
# Convention : Reuss Voigt Hill
#
# Bulk Modulus (GPa) = 48.12146 55.87168 51.99657
# Shear Modulus (GPa) = 13.02594 35.56310 24.29452
#
# Velocity S-wave (km/s) = 2.23116 3.68660 3.04706
# Velocity P-wave (km/s) = 5.00279 6.28281 5.67898
#
# Compressibility (1/GPa) = 0.02078075
#
# Stress axis : x y z
#
# Youngs Moduli (GPa) = 85.94073 51.26059 84.32040
#
# Poissons Ratio (x) = 0.43523 -0.08899
# Poissons Ratio (y) = 0.72969 0.30998
# Poissons Ratio (z) = -0.09070 0.18844
#
# Static dielectric constant tensor:
#      x y z
#    x 2.207810 0.025760 -0.107680 
#    y 0.025760 2.109580 0.011880 
#    z -0.107680 0.011880 2.077120 
# 
# From -- ./inp_files/417374.got.cif
#   From: 2010.05.17/outbox.cif.g08.bks.cpg/sg2_209_cif.got.tgz:417374.got - 2010.06.03 11:33:40.
