data_PCOD9079213
_publ_section_title
;
Structure prediction by ZEFSAII (Michael W. Deem and Ramdas Pophale) SiO2 
 PCOD9079213
Probable space group: P -1
;
_chemical_formula_sum "Si O2"
_cell_formula_units_Z 15
_cell_length_a 10.583615
_cell_length_b 9.004465
_cell_length_c 15.105139
_cell_angle_alpha 47.812607
_cell_angle_beta 124.973123
_cell_angle_gamma 138.415714
_cell_volume 700.542150
_symmetry_space_group_name_H-M "P -1"
_symmetry_group_IT_number 2
_symmetry_cell_setting 'triclinic'
loop_
_space_group_symop_operation_xyz
x,y,z
-x,-y,-z
loop_
_atom_site_type_symbol
_atom_site_label
_atom_site_fract_x
_atom_site_fract_y
_atom_site_fract_z
Si Si1 0.959701 0.668139 0.285543
Si Si2 0.092874 0.389707 0.351750
Si Si3 0.420663 0.427037 0.758079
Si Si4 0.535017 0.083381 0.724745
Si Si5 0.226589 0.127037 0.626578
Si Si6 0.643523 0.978417 0.624372
Si Si7 0.000000 0.000000 0.000000
Si Si8 0.570216 0.750507 0.981939
O O1 0.967643 0.461227 0.322445
O O2 0.754103 0.563208 0.285079
O O3 0.128438 0.803209 0.373111
O O4 0.003519 0.866710 0.147526
O O5 0.274558 0.644826 0.281276
O O6 0.172464 0.296120 0.494139
O O7 0.963022 0.156404 0.328121
O O8 0.341494 0.248171 0.714143
O O9 0.596787 0.710830 0.694503
O O10 0.466226 0.321245 0.901576
O O11 0.369878 0.114807 0.625674
O O12 0.588860 0.995503 0.696039
O O13 0.471652 0.874572 0.856685
O O14 0.500000 0.000000 0.500000
O O15 0.204569 0.059263 0.025977
O O16 0.500000 0.500000 0.000000
#
# Coordination Sequence:
#
# PCOD9079213 Si02
#       8
#     2   2   2   2   2   2   1   2
#     4  10  21  38  65  90 116 158 207 256 301 359
#     4  10  22  42  60  85 119 168 207 244 306 369
#     4  11  23  38  60  96 121 158 205 257 304 360
#     4  11  22  41  63  89 119 169 200 247 315 367
#     4  11  25  39  59  87 129 165 201 247 307 373
#     4  11  22  38  63  93 122 153 208 260 303 355
#     4  10  18  36  64  90 114 150 204 256 298 358
#     4  11  21  38  66  91 122 154 206 259 310 363
#
# _framework density 21.411985999999999
#
# number of rings (size 3 to 8) (size 9 to 14) (size 15 to 20)
#    0.000    1.333    4.000    2.800    1.867    5.867 
#    0.000    0.667    0.000    0.000    0.000    0.000 
#    0.000    0.000    0.000    0.000    0.000    0.000 
#
# Total GULP energy -83589.016849 kJ/mol
# GULP energy per Si atom -5572.601123 kJ/mol
# Density = 2.136325 g / cm^3
# Si number density = 21.411986 Si / 1000 Ang^3
#
#
#
# Elastic Constant Matrix: (Units=GPa)
#
#
# Indices 1 2 3 4 5 6 
#
# 1 22.3387 -4.6341 -0.2845 -1.3763 16.6672 3.2412
# 2 -4.6341 102.4489 32.4091 -6.9508 -15.5616 -13.8140
# 3 -0.2845 32.4091 81.0385 1.4270 11.3266 -14.0634
# 4 -1.3763 -6.9508 1.4270 25.3212 -1.8792 -3.9224
# 5 16.6672 -15.5616 11.3266 -1.8792 26.7618 1.6844
# 6 3.2412 -13.8140 -14.0634 -3.9224 1.6844 18.0344
#
#
#
# Elastic Compliance Matrix: (Units=1/GPa)
#
#
# Indices 1 2 3 4 5 6 
#
# 1 0.100366 -0.013677 0.014639 -0.006558 -0.076400 -0.011389
# 2 -0.013677 0.016744 -0.008505 0.007221 0.021846 0.008182
# 3 0.014639 -0.008505 0.020601 -0.003140 -0.023533 0.008434
# 4 -0.006558 0.007221 -0.003140 0.044155 0.011910 0.012752
# 5 -0.076400 0.021846 -0.023533 0.011910 0.108159 0.004602
# 6 -0.011389 0.008182 0.008434 0.012752 0.004602 0.072684
#
#
# Mechanical properties :
#
#
# Convention : Reuss Voigt Hill
#
# Bulk Modulus (GPa) = 8.15488 28.97856 18.56672
# Shear Modulus (GPa) = 11.94260 25.91251 18.92755
#
# Velocity S-wave (km/s) = 2.36424 3.48255 2.97639
# Velocity P-wave (km/s) = 3.35703 5.45289 4.52790
#
# Compressibility (1/GPa) = 0.12262599
#
# Stress axis : x y z
#
# Youngs Moduli (GPa) = 9.96353 59.72148 48.54186
#
# Poissons Ratio (x) = 0.81680 -0.71062
# Poissons Ratio (y) = 0.13627 0.41286
# Poissons Ratio (z) = -0.14586 0.50794
#
# Static dielectric constant tensor:
#      x y z
#    x 1.781930 0.016930 0.015160 
#    y 0.016930 1.802740 0.008710 
#    z 0.015160 0.008710 1.790920 
# 
# From -- ./inp_files/255861.got.cif
#   From: 2010.05.17/outbox.cif.g08.bks.cpg/sg2_128_cif.got.tgz:255861.got - 2010.06.03 11:33:40.
