data_PCOD9079768
_publ_section_title
;
Structure prediction by ZEFSAII (Michael W. Deem and Ramdas Pophale) SiO2 
 PCOD9079768
Probable space group: P -1
;
_chemical_formula_sum "Si O2"
_cell_formula_units_Z 12
_cell_length_a 12.743991
_cell_length_b 8.264257
_cell_length_c 22.245659
_cell_angle_alpha 40.176177
_cell_angle_beta 157.923556
_cell_angle_gamma 147.174368
_cell_volume 476.104683
_symmetry_space_group_name_H-M "P -1"
_symmetry_group_IT_number 2
_symmetry_cell_setting 'triclinic'
loop_
_space_group_symop_operation_xyz
x,y,z
-x,-y,-z
loop_
_atom_site_type_symbol
_atom_site_label
_atom_site_fract_x
_atom_site_fract_y
_atom_site_fract_z
Si Si1 0.639793 0.362642 0.524320
Si Si2 0.682933 0.884915 0.907343
Si Si3 0.431639 0.630387 0.239374
Si Si4 0.715907 0.291364 0.360112
Si Si5 0.090542 0.016365 0.192103
Si Si6 0.059732 0.113750 0.375567
O O1 0.650743 0.540037 0.420937
O O2 0.771749 0.144739 0.649217
O O3 0.258704 0.198636 0.394256
O O4 0.863258 0.594528 0.630453
O O5 0.364655 0.642707 0.767647
O O6 0.649955 0.163690 0.824764
O O7 0.769254 0.811461 0.038928
O O8 0.000000 0.000000 0.000000
O O9 0.105196 0.302174 0.146365
O O10 0.673416 0.847143 0.252243
O O11 0.000000 0.500000 0.500000
O O12 0.388793 0.187076 0.254112
O O13 0.746471 0.007553 0.450458
#
# Coordination Sequence:
#
# PCOD9079768 Si02
#       6
#     2   2   2   2   2   2
#     4  10  22  38  65 100 136 164 218 275 322 379
#     4  10  23  39  63  94 134 178 207 271 340 378
#     4  12  21  40  71  95 125 179 225 257 320 404
#     4  10  18  37  64  96 124 168 224 263 311 394
#     4  10  22  39  63  98 136 165 214 273 331 384
#     4  10  21  37  65  99 125 167 224 269 315 379
#
# _framework density 25.204543000000001
#
# number of rings (size 3 to 8) (size 9 to 14) (size 15 to 20)
#    0.000    1.667    3.333    1.500    2.333    0.000 
#    0.000    0.833    0.000    7.000    0.000    0.000 
#    0.000    0.000    0.000    0.000    0.000    0.000 
#
# Total GULP energy -66932.441145 kJ/mol
# GULP energy per Si atom -5577.703429 kJ/mol
# Density = 2.514718 g / cm^3
# Si number density = 25.204543 Si / 1000 Ang^3
#
#
#
# Elastic Constant Matrix: (Units=GPa)
#
#
# Indices 1 2 3 4 5 6 
#
# 1 82.7865 51.1325 38.6689 13.5317 -1.4237 4.0001
# 2 51.1325 111.5908 44.3821 8.6769 14.0487 -5.2479
# 3 38.6689 44.3821 111.9752 11.7165 -36.3213 -10.9303
# 4 13.5317 8.6769 11.7165 41.4457 -6.7772 9.4145
# 5 -1.4237 14.0487 -36.3213 -6.7772 45.1218 -1.0317
# 6 4.0001 -5.2479 -10.9303 9.4145 -1.0317 36.9712
#
#
#
# Elastic Compliance Matrix: (Units=1/GPa)
#
#
# Indices 1 2 3 4 5 6 
#
# 1 0.018868 -0.006691 -0.004336 -0.002943 -0.001335 -0.003561
# 2 -0.006691 0.016951 -0.008188 -0.001205 -0.012245 0.000674
# 3 -0.004336 -0.008188 0.020511 -0.000971 0.018918 0.006146
# 4 -0.002943 -0.001205 -0.000971 0.027808 0.003515 -0.007123
# 5 -0.001335 -0.012245 0.018918 0.003515 0.041786 0.004270
# 6 -0.003561 0.000674 0.006146 -0.007123 0.004270 0.031279
#
#
# Mechanical properties :
#
#
# Convention : Reuss Voigt Hill
#
# Bulk Modulus (GPa) = 55.86982 63.85771 59.86377
# Shear Modulus (GPa) = 24.80142 36.18567 30.49355
#
# Velocity S-wave (km/s) = 3.14029 3.79315 3.48205
# Velocity P-wave (km/s) = 5.94670 6.67643 6.32210
#
# Compressibility (1/GPa) = 0.01789875
#
# Stress axis : x y z
#
# Youngs Moduli (GPa) = 53.00059 58.99389 48.75344
#
# Poissons Ratio (x) = 0.39475 0.21141
# Poissons Ratio (y) = 0.35464 0.39919
# Poissons Ratio (z) = 0.22983 0.48304
#
# Static dielectric constant tensor:
#      x y z
#    x 2.111950 -0.079030 -0.045950 
#    y -0.079030 2.076200 0.118310 
#    z -0.045950 0.118310 2.075650 
# 
# From -- ./inp_files/173214.got.cif
#   From: 2010.05.17/outbox.cif.g08.bks.cpg/sg2_87_cif.got.tgz:173214.got - 2010.06.03 11:33:40.
