data_PCOD9079800
_publ_section_title
;
Structure prediction by ZEFSAII (Michael W. Deem and Ramdas Pophale) SiO2 
 PCOD9079800
Probable space group: P -1
;
_chemical_formula_sum "Si O2"
_cell_formula_units_Z 14
_cell_length_a 14.297036
_cell_length_b 9.700494
_cell_length_c 9.271984
_cell_angle_alpha 79.011736
_cell_angle_beta 74.405669
_cell_angle_gamma 32.657163
_cell_volume 666.771317
_symmetry_space_group_name_H-M "P -1"
_symmetry_group_IT_number 2
_symmetry_cell_setting 'triclinic'
loop_
_space_group_symop_operation_xyz
x,y,z
-x,-y,-z
loop_
_atom_site_type_symbol
_atom_site_label
_atom_site_fract_x
_atom_site_fract_y
_atom_site_fract_z
Si Si1 0.927484 0.956166 0.846520
Si Si2 0.427034 0.215265 0.080224
Si Si3 0.529125 0.813933 0.597835
Si Si4 0.462829 0.629990 0.134017
Si Si5 0.319403 0.799242 0.627270
Si Si6 0.960217 0.242421 0.848088
Si Si7 0.176575 0.719135 0.546359
O O1 0.750081 0.117363 0.809295
O O2 0.902619 0.150459 0.859266
O O3 0.104035 0.736237 0.719938
O O4 0.959975 0.842248 0.007611
O O5 0.505992 0.138534 0.224787
O O6 0.217082 0.453991 0.146457
O O7 0.466117 0.302361 0.945944
O O8 0.500000 0.000000 0.000000
O O9 0.409227 0.841214 0.563118
O O10 0.724581 0.512501 0.547715
O O11 0.500000 0.000000 0.500000
O O12 0.575657 0.412545 0.249916
O O13 0.500000 0.500000 0.000000
O O14 0.299686 0.704899 0.531643
O O15 0.119841 0.074482 0.706520
O O16 0.000000 0.000000 0.500000
#
# Coordination Sequence:
#
# PCOD9079800 Si02
#       7
#     2   2   2   2   2   2   2
#     4  10  19  34  66 100 122 162 220 290 323 379
#     4  12  26  43  66  95 137 180 225 277 341 397
#     4  12  27  46  63 101 147 177 219 284 350 407
#     4  12  19  40  73 100 126 166 237 287 323 387
#     4  11  22  42  75  98 126 182 230 280 333 403
#     4  10  18  37  65  95 125 161 227 280 325 381
#     4  11  24  42  68  97 136 179 233 273 335 418
#
# _framework density 20.996704000000001
#
# number of rings (size 3 to 8) (size 9 to 14) (size 15 to 20)
#    0.000    0.857    4.286    4.714    4.000    0.000 
#    2.571    2.857    0.000    0.000    0.000    0.000 
#    0.000    0.000    0.000    0.000    0.000    0.000 
#
# Total GULP energy -78233.351335 kJ/mol
# GULP energy per Si atom -5588.096524 kJ/mol
# Density = 2.094891 g / cm^3
# Si number density = 20.996704 Si / 1000 Ang^3
#
#
#
# Elastic Constant Matrix: (Units=GPa)
#
#
# Indices 1 2 3 4 5 6 
#
# 1 101.6631 58.5927 25.1619 -3.5855 -8.0380 8.6776
# 2 58.5927 111.4394 27.1960 14.6538 0.0433 10.5516
# 3 25.1619 27.1960 66.5517 10.1353 3.7242 13.8607
# 4 -3.5855 14.6538 10.1353 42.9029 -0.0127 4.2647
# 5 -8.0380 0.0433 3.7242 -0.0127 35.1964 0.2064
# 6 8.6776 10.5516 13.8607 4.2647 0.2064 40.1495
#
#
#
# Elastic Compliance Matrix: (Units=1/GPa)
#
#
# Indices 1 2 3 4 5 6 
#
# 1 0.015946 -0.008113 -0.003570 0.005012 0.004035 -0.000635
# 2 -0.008113 0.014427 -0.001775 -0.005100 -0.001680 -0.000875
# 3 -0.003570 -0.001775 0.018825 -0.003657 -0.002778 -0.004858
# 4 0.005012 -0.005100 -0.003657 0.026463 0.001555 -0.001299
# 5 0.004035 -0.001680 -0.002778 0.001555 0.029629 0.000211
# 6 -0.000635 -0.000875 -0.004858 -0.001299 0.000211 0.027088
#
#
# Mechanical properties :
#
#
# Convention : Reuss Voigt Hill
#
# Bulk Modulus (GPa) = 44.88171 55.72837 50.30504
# Shear Modulus (GPa) = 29.99012 34.89667 32.44339
#
# Velocity S-wave (km/s) = 3.78342 4.08119 3.93512
# Velocity P-wave (km/s) = 6.36456 6.98622 6.68263
#
# Compressibility (1/GPa) = 0.02228079
#
# Stress axis : x y z
#
# Youngs Moduli (GPa) = 62.71154 69.31663 53.11989
#
# Poissons Ratio (x) = 0.56239 0.18965
# Poissons Ratio (y) = 0.50880 0.09429
# Poissons Ratio (z) = 0.22390 0.12304
#
# Static dielectric constant tensor:
#      x y z
#    x 1.690530 -0.231100 0.133610 
#    y -0.231100 1.439110 0.272420 
#    z 0.133610 0.272420 1.634940 
# 
# From -- ./inp_files/243452.got.cif
#   From: 2010.05.17/outbox.cif.g08.bks.cpg/sg2_122_cif.got.tgz:243452.got - 2010.06.03 11:33:40.
