data_PCOD9079174
_publ_section_title
;
Structure prediction by ZEFSAII (Michael W. Deem and Ramdas Pophale) SiO2 
 PCOD9079174
Probable space group: P -1
;
_chemical_formula_sum "Si O2"
_cell_formula_units_Z 14
_cell_length_a 11.338790
_cell_length_b 11.618721
_cell_length_c 11.657171
_cell_angle_alpha 38.486287
_cell_angle_beta 38.514584
_cell_angle_gamma 48.555294
_cell_volume 590.287873
_symmetry_space_group_name_H-M "P -1"
_symmetry_group_IT_number 2
_symmetry_cell_setting 'triclinic'
loop_
_space_group_symop_operation_xyz
x,y,z
-x,-y,-z
loop_
_atom_site_type_symbol
_atom_site_label
_atom_site_fract_x
_atom_site_fract_y
_atom_site_fract_z
Si Si1 0.045781 0.421560 0.339764
Si Si2 0.580943 0.264325 0.674063
Si Si3 0.447479 0.641588 0.611934
Si Si4 0.985111 0.779778 0.685430
Si Si5 0.649935 0.459508 0.817258
Si Si6 0.764368 0.132376 0.853413
Si Si7 0.012598 0.750474 0.939558
O O1 0.165461 0.481520 0.306871
O O2 0.141423 0.287434 0.268120
O O3 0.889307 0.300683 0.599234
O O4 0.974559 0.604956 0.178276
O O5 0.466803 0.441209 0.687228
O O6 0.498275 0.228589 0.638009
O O7 0.795005 0.304854 0.440334
O O8 0.635119 0.117097 0.850458
O O9 0.584704 0.590947 0.655318
O O10 0.240666 0.721171 0.760455
O O11 0.926350 0.722065 0.900841
O O12 0.000000 0.000000 0.500000
O O13 0.650894 0.238880 0.960000
O O14 0.500000 0.500000 0.000000
O O15 0.915538 0.952297 0.894923
#
# Coordination Sequence:
#
# PCOD9079174 Si02
#       7
#     2   2   2   2   2   2   2
#     4  11  22  38  64  94 123 166 209 251 314 372
#     4   8  16  33  61  85 117 163 198 249 315 349
#     4   9  18  33  59  89 122 165 196 246 313 363
#     4  10  18  36  63  93 119 156 212 265 305 355
#     4  11  22  42  62  89 134 174 196 250 316 377
#     4  10  22  40  68  92 123 161 215 259 303 365
#     4  11  20  37  66  95 120 158 213 265 305 362
#
# _framework density 23.717241000000001
#
# number of rings (size 3 to 8) (size 9 to 14) (size 15 to 20)
#    0.000    2.000    4.286    0.857    0.000    0.571 
#    0.000    0.714    9.429    3.429    0.000    0.000 
#    0.000    0.000    0.000    0.000    0.000    0.000 
#
# Total GULP energy -78041.695259 kJ/mol
# GULP energy per Si atom -5574.406804 kJ/mol
# Density = 2.366326 g / cm^3
# Si number density = 23.717241 Si / 1000 Ang^3
#
#
#
# Elastic Constant Matrix: (Units=GPa)
#
#
# Indices 1 2 3 4 5 6 
#
# 1 153.1152 57.6665 39.4735 -12.1972 26.1714 20.6126
# 2 57.6665 184.4117 48.2906 -8.5837 12.9699 -9.1250
# 3 39.4735 48.2906 79.8098 -9.3622 19.6404 -2.9084
# 4 -12.1972 -8.5837 -9.3622 35.7299 -3.8833 12.7835
# 5 26.1714 12.9699 19.6404 -3.8833 33.5537 5.4711
# 6 20.6126 -9.1250 -2.9084 12.7835 5.4711 32.1102
#
#
#
# Elastic Compliance Matrix: (Units=1/GPa)
#
#
# Indices 1 2 3 4 5 6 
#
# 1 0.010357 -0.002561 -0.002411 0.005122 -0.003614 -0.009018
# 2 -0.002561 0.007158 -0.003151 -0.001335 0.000289 0.003875
# 3 -0.002411 -0.003151 0.017764 0.001123 -0.007679 0.003123
# 4 0.005122 -0.001335 0.001123 0.036760 0.003174 -0.018742
# 5 -0.003614 0.000289 -0.007679 0.003174 0.038366 -0.006094
# 6 -0.009018 0.003875 0.003123 -0.018742 -0.006094 0.046816
#
#
# Mechanical properties :
#
#
# Convention : Reuss Voigt Hill
#
# Bulk Modulus (GPa) = 52.54180 78.68867 65.61523
# Shear Modulus (GPa) = 27.80702 38.40582 33.10642
#
# Velocity S-wave (km/s) = 3.42780 4.02844 3.74020
# Velocity P-wave (km/s) = 6.15370 7.40862 6.81013
#
# Compressibility (1/GPa) = 0.01903247
#
# Stress axis : x y z
#
# Youngs Moduli (GPa) = 96.55376 139.70722 56.29332
#
# Poissons Ratio (x) = 0.35777 0.13575
# Poissons Ratio (y) = 0.24726 0.17737
# Poissons Ratio (z) = 0.23284 0.44020
#
# Static dielectric constant tensor:
#      x y z
#    x 0.802610 0.451830 0.565790 
#    y 0.451830 1.936610 -0.113240 
#    z 0.565790 -0.113240 1.743360 
# 
# From -- ./inp_files/422705.got.cif
#   From: 2010.05.17/outbox.cif.g08.bks.cpg/sg2_212_cif.got.tgz:422705.got - 2010.06.03 11:33:40.
