data_PCOD9079164
_publ_section_title
;
Structure prediction by ZEFSAII (Michael W. Deem and Ramdas Pophale) SiO2 
 PCOD9079164
Probable space group: P -1
;
_chemical_formula_sum "Si O2"
_cell_formula_units_Z 16
_cell_length_a 8.991073
_cell_length_b 9.334641
_cell_length_c 13.862183
_cell_angle_alpha 114.121949
_cell_angle_beta 127.855373
_cell_angle_gamma 58.559152
_cell_volume 776.926637
_symmetry_space_group_name_H-M "P -1"
_symmetry_group_IT_number 2
_symmetry_cell_setting 'triclinic'
loop_
_space_group_symop_operation_xyz
x,y,z
-x,-y,-z
loop_
_atom_site_type_symbol
_atom_site_label
_atom_site_fract_x
_atom_site_fract_y
_atom_site_fract_z
Si Si1 0.057976 0.009315 0.415530
Si Si2 0.039076 0.149877 0.110273
Si Si3 0.095202 0.489864 0.799383
Si Si4 0.510287 0.255269 0.502752
Si Si5 0.768768 0.854643 0.158447
Si Si6 0.639536 0.819969 0.892198
Si Si7 0.064977 0.264677 0.354554
Si Si8 0.639950 0.541890 0.696186
O O1 0.949202 0.905481 0.283747
O O2 0.300006 0.920867 0.473255
O O3 0.000000 0.000000 0.500000
O O4 0.990597 0.200323 0.401823
O O5 0.246936 0.149162 0.147769
O O6 0.058037 0.136654 0.229799
O O7 0.884834 0.348039 0.092809
O O8 0.000000 0.000000 0.000000
O O9 0.247519 0.303185 0.832329
O O10 0.066959 0.553115 0.694548
O O11 0.877080 0.487812 0.746513
O O12 0.572583 0.384273 0.627839
O O13 0.481263 0.334633 0.404996
O O14 0.704150 0.748336 0.551674
O O15 0.568144 0.022409 0.134688
O O16 0.780097 0.804411 0.036784
O O17 0.603907 0.648972 0.808964
#
# Coordination Sequence:
#
# PCOD9079164 Si02
#       8
#     2   2   2   2   2   2   2   2
#     4  12  24  37  64  91 125 166 203 249 322 371
#     4   9  18  37  63  86 118 160 205 248 302 353
#     4   8  18  37  60  86 121 158 201 256 294 360
#     4  10  18  36  63  89 129 151 212 253 294 363
#     4  11  22  39  59  91 128 158 208 248 313 365
#     4  10  21  37  63  88 125 166 199 254 305 371
#     4   9  21  39  60  89 125 160 205 260 295 359
#     4   9  17  35  62  90 117 164 203 251 300 350
#
# _framework density 20.593966999999999
#
# number of rings (size 3 to 8) (size 9 to 14) (size 15 to 20)
#    0.750    1.500    2.500    1.875    0.000    2.000 
#    2.250    1.250    0.000    0.000    0.000    0.000 
#    0.000    0.000    0.000    0.000    0.000    0.000 
#
# Total GULP energy -89157.349224 kJ/mol
# GULP energy per Si atom -5572.334327 kJ/mol
# Density = 2.054709 g / cm^3
# Si number density = 20.593967 Si / 1000 Ang^3
#
#
#
# Elastic Constant Matrix: (Units=GPa)
#
#
# Indices 1 2 3 4 5 6 
#
# 1 23.5503 10.4529 13.4130 -4.1134 -14.5905 16.1150
# 2 10.4529 78.1975 26.8831 3.3854 -2.6581 20.2832
# 3 13.4130 26.8831 85.8622 14.0130 -1.2790 5.8130
# 4 -4.1134 3.3854 14.0130 32.9452 9.4485 2.0478
# 5 -14.5905 -2.6581 -1.2790 9.4485 22.1909 -2.8231
# 6 16.1150 20.2832 5.8130 2.0478 -2.8231 23.4266
#
#
#
# Elastic Compliance Matrix: (Units=1/GPa)
#
#
# Indices 1 2 3 4 5 6 
#
# 1 0.292349 0.032362 -0.042724 0.017790 0.160522 -0.200734
# 2 0.032362 0.021814 -0.009658 0.003259 0.017245 -0.036959
# 3 -0.042724 -0.009658 0.020438 -0.009166 -0.020218 0.031046
# 4 0.017790 0.003259 -0.009166 0.039312 -0.007356 -0.017107
# 5 0.160522 0.017245 -0.020218 -0.007356 0.141582 -0.102631
# 6 -0.200734 -0.036959 0.031046 -0.017107 -0.102631 0.194194
#
#
# Mechanical properties :
#
#
# Convention : Reuss Voigt Hill
#
# Bulk Modulus (GPa) = 3.39489 32.12312 17.75901
# Shear Modulus (GPa) = 5.89681 24.83661 15.36671
#
# Velocity S-wave (km/s) = 1.69398 3.47654 2.73458
# Velocity P-wave (km/s) = 2.34055 5.63447 4.31425
#
# Compressibility (1/GPa) = 0.29456027
#
# Stress axis : x y z
#
# Youngs Moduli (GPa) = 3.42057 45.84157 48.92903
#
# Poissons Ratio (x) = -1.48354 2.09046
# Poissons Ratio (y) = -0.11070 0.47257
# Poissons Ratio (z) = 0.14614 0.44275
#
# Static dielectric constant tensor:
#      x y z
#    x 1.713580 -0.001990 -0.004100 
#    y -0.001990 1.796810 0.013320 
#    z -0.004100 0.013320 1.769210 
# 
# From -- ./inp_files/513476.got.cif
#   From: 2010.05.17/outbox.cif.g08.bks.cpg/sg2_257_cif.got.tgz:513476.got - 2010.06.03 11:33:40.
