data_PCOD9079492
_publ_section_title
;
Structure prediction by ZEFSAII (Michael W. Deem and Ramdas Pophale) SiO2 
 PCOD9079492
Probable space group: P -1
;
_chemical_formula_sum "Si O2"
_cell_formula_units_Z 16
_cell_length_a 13.772332
_cell_length_b 22.471733
_cell_length_c 10.610757
_cell_angle_alpha 29.561437
_cell_angle_beta 28.337081
_cell_angle_gamma 26.488681
_cell_volume 640.883226
_symmetry_space_group_name_H-M "P -1"
_symmetry_group_IT_number 2
_symmetry_cell_setting 'triclinic'
loop_
_space_group_symop_operation_xyz
x,y,z
-x,-y,-z
loop_
_atom_site_type_symbol
_atom_site_label
_atom_site_fract_x
_atom_site_fract_y
_atom_site_fract_z
Si Si1 0.310412 0.542755 0.814295
Si Si2 0.893420 0.656723 0.276451
Si Si3 0.451532 0.763676 0.204588
Si Si4 0.972341 0.699291 0.719444
Si Si5 0.242828 0.044757 0.069346
Si Si6 0.205373 0.020573 0.447887
Si Si7 0.633599 0.827214 0.652535
Si Si8 0.479836 0.739745 0.753592
O O1 0.404747 0.646914 0.522336
O O2 0.222204 0.553718 0.748288
O O3 0.486670 0.397454 0.960819
O O4 0.045286 0.619846 0.043595
O O5 0.608268 0.713505 0.517369
O O6 0.000000 0.500000 0.500000
O O7 0.921715 0.780780 0.077942
O O8 0.259531 0.924367 0.181632
O O9 0.730419 0.707344 0.027823
O O10 0.468441 0.785235 0.996725
O O11 0.896250 0.741676 0.581831
O O12 0.964273 0.831989 0.552391
O O13 0.182502 0.021390 0.322513
O O14 0.522986 0.003307 0.812881
O O15 0.224679 0.888687 0.744854
O O16 0.631599 0.776940 0.607915
O O17 0.500000 0.000000 0.500000
#
# Coordination Sequence:
#
# PCOD9079492 Si02
#       8
#     2   2   2   2   2   2   2   2
#     4  11  21  38  56  86 116 146 185 237 287 328
#     4   9  18  31  54  85 112 146 183 231 287 330
#     4   9  22  35  58  85 113 148 191 233 274 334
#     4   9  19  36  61  80 109 150 189 230 277 332
#     4   9  15  30  55  80 108 143 190 225 273 339
#     4   9  15  30  57  80 103 149 185 225 278 330
#     4  10  18  37  60  83 110 148 196 229 272 338
#     4  10  20  32  60  80 115 153 183 232 288 328
#
# _framework density 24.965546
#
# number of rings (size 3 to 8) (size 9 to 14) (size 15 to 20)
#    0.750    1.750    2.500    0.750    1.750    1.500 
#    0.000    1.250    0.000    0.000    0.000    0.000 
#    0.000    0.000    0.000    0.000    0.000    0.000 
#
# Total GULP energy -89077.126841 kJ/mol
# GULP energy per Si atom -5567.320428 kJ/mol
# Density = 2.490872 g / cm^3
# Si number density = 24.965546 Si / 1000 Ang^3
#
#
#
# Elastic Constant Matrix: (Units=GPa)
#
#
# Indices 1 2 3 4 5 6 
#
# 1 66.6413 19.5362 48.8999 -6.5848 13.7068 6.4746
# 2 19.5362 71.2019 41.8685 -22.7273 7.9875 -7.2708
# 3 48.8999 41.8685 141.7346 -45.4107 27.8944 -16.8591
# 4 -6.5848 -22.7273 -45.4107 44.5566 -0.0221 3.7652
# 5 13.7068 7.9875 27.8944 -0.0221 27.9412 0.9079
# 6 6.4746 -7.2708 -16.8591 3.7652 0.9079 31.0279
#
#
#
# Elastic Compliance Matrix: (Units=1/GPa)
#
#
# Indices 1 2 3 4 5 6 
#
# 1 0.025130 -0.004213 -0.012348 -0.010024 0.001578 -0.011770
# 2 -0.004213 0.018819 -0.000352 0.008262 -0.003091 0.004185
# 3 -0.012348 -0.000352 0.022697 0.020030 -0.016904 0.012891
# 4 -0.010024 0.008262 0.020030 0.044736 -0.017731 0.010001
# 5 0.001578 -0.003091 -0.016904 -0.017731 0.053074 -0.009640
# 6 -0.011770 0.004185 0.012891 0.010001 -0.009640 0.041738
#
#
# Mechanical properties :
#
#
# Convention : Reuss Voigt Hill
#
# Bulk Modulus (GPa) = 30.46938 55.57633 43.02286
# Shear Modulus (GPa) = 19.92338 31.99003 25.95671
#
# Velocity S-wave (km/s) = 2.82802 3.58350 3.22794
# Velocity P-wave (km/s) = 4.78483 6.27945 5.58239
#
# Compressibility (1/GPa) = 0.03281983
#
# Stress axis : x y z
#
# Youngs Moduli (GPa) = 39.79344 53.13754 44.05778
#
# Poissons Ratio (x) = 0.22386 0.54402
# Poissons Ratio (y) = 0.16764 0.01553
# Poissons Ratio (z) = 0.49137 0.01873
#
# Static dielectric constant tensor:
#      x y z
#    x 2.052920 0.018070 0.013520 
#    y 0.018070 2.113030 0.003910 
#    z 0.013520 0.003910 2.015720 
# 
# From -- ./inp_files/467632.got.cif
#   From: 2010.05.17/outbox.cif.g08.bks.cpg/sg2_234_cif.got.tgz:467632.got - 2010.06.03 11:33:40.
