data_PCOD9079703
_publ_section_title
;
Structure prediction by ZEFSAII (Michael W. Deem and Ramdas Pophale) SiO2 
 PCOD9079703
Probable space group: P -1
;
_chemical_formula_sum "Si O2"
_cell_formula_units_Z 16
_cell_length_a 8.968943
_cell_length_b 18.049624
_cell_length_c 14.665987
_cell_angle_alpha 140.956751
_cell_angle_beta 42.823950
_cell_angle_gamma 148.872232
_cell_volume 755.762938
_symmetry_space_group_name_H-M "P -1"
_symmetry_group_IT_number 2
_symmetry_cell_setting 'triclinic'
loop_
_space_group_symop_operation_xyz
x,y,z
-x,-y,-z
loop_
_atom_site_type_symbol
_atom_site_label
_atom_site_fract_x
_atom_site_fract_y
_atom_site_fract_z
Si Si1 0.385006 0.710967 0.683689
Si Si2 0.515735 0.021363 0.221976
Si Si3 0.655317 0.763122 0.206977
Si Si4 0.642518 0.002031 0.530099
Si Si5 0.992442 0.497722 0.803774
Si Si6 0.903272 0.675224 0.137910
Si Si7 0.271499 0.016464 0.076728
Si Si8 0.252602 0.359803 0.622886
O O1 0.409989 0.825226 0.708692
O O2 0.611344 0.824923 0.773980
O O3 0.474711 0.621476 0.511543
O O4 0.076575 0.590407 0.759648
O O5 0.543684 0.034002 0.330331
O O6 0.173476 0.864394 0.207145
O O7 0.694062 0.989130 0.052022
O O8 0.668781 0.872004 0.379641
O O9 0.346994 0.663019 0.198062
O O10 0.682795 0.650338 0.139339
O O11 0.939671 0.875842 0.122819
O O12 0.500000 0.000000 0.500000
O O13 0.964478 0.174082 0.561138
O O14 0.197677 0.457904 0.684571
O O15 0.032588 0.602545 0.968614
O O16 0.750540 0.606516 0.237578
O O17 0.500000 0.000000 0.000000
#
# Coordination Sequence:
#
# PCOD9079703 Si02
#       8
#     2   2   2   2   2   2   2   2
#     4  11  20  40  66  94 123 162 215 258 300 376
#     4  10  20  39  68  95 116 163 221 258 296 369
#     4  12  22  40  66  94 126 164 208 262 317 357
#     4  11  22  41  66  91 128 163 207 265 312 367
#     4  12  25  39  62  93 137 162 198 264 325 362
#     4  11  21  39  64  94 120 164 220 254 297 383
#     4  10  18  37  63  93 121 153 209 258 298 365
#     4  11  23  40  65  89 125 172 213 247 311 381
#
# _framework density 21.170659000000001
#
# number of rings (size 3 to 8) (size 9 to 14) (size 15 to 20)
#    0.000    1.000    6.250    2.625    0.000    2.000 
#    0.000    4.375    2.750    0.000    0.000    0.000 
#    0.000    0.000    0.000    0.000    0.000    0.000 
#
# Total GULP energy -89384.369330 kJ/mol
# GULP energy per Si atom -5586.523083 kJ/mol
# Density = 2.112247 g / cm^3
# Si number density = 21.170659 Si / 1000 Ang^3
#
#
#
# Elastic Constant Matrix: (Units=GPa)
#
#
# Indices 1 2 3 4 5 6 
#
# 1 35.1900 12.6581 18.4698 -8.3328 17.2087 -9.3773
# 2 12.6581 72.9286 25.7565 -16.4883 7.4784 -5.1511
# 3 18.4698 25.7565 106.5166 -11.1505 23.6189 -16.7583
# 4 -8.3328 -16.4883 -11.1505 37.8807 -17.9276 0.2355
# 5 17.2087 7.4784 23.6189 -17.9276 30.2334 -6.9077
# 6 -9.3773 -5.1511 -16.7583 0.2355 -6.9077 21.2351
#
#
#
# Elastic Compliance Matrix: (Units=1/GPa)
#
#
# Indices 1 2 3 4 5 6 
#
# 1 0.043655 -0.005371 0.000205 -0.003907 -0.023596 0.010504
# 2 -0.005371 0.017249 -0.003735 0.008539 0.007012 0.001051
# 3 0.000205 -0.003735 0.013103 -0.002109 -0.009181 0.006562
# 4 -0.003907 0.008539 -0.002109 0.042018 0.028377 0.007446
# 5 -0.023596 0.007012 -0.009181 0.028377 0.070275 0.006581
# 6 0.010504 0.001051 0.006562 0.007446 0.006581 0.059222
#
#
# Mechanical properties :
#
#
# Convention : Reuss Voigt Hill
#
# Bulk Modulus (GPa) = 17.79233 36.48933 27.14083
# Shear Modulus (GPa) = 17.72672 28.38658 23.05665
#
# Velocity S-wave (km/s) = 2.89680 3.66573 3.30371
# Velocity P-wave (km/s) = 4.42844 5.93211 5.23455
#
# Compressibility (1/GPa) = 0.05620399
#
# Stress axis : x y z
#
# Youngs Moduli (GPa) = 22.90706 57.97345 76.31729
#
# Poissons Ratio (x) = 0.31139 -0.01564
# Poissons Ratio (y) = 0.12304 0.28507
# Poissons Ratio (z) = -0.00470 0.21655
#
# Static dielectric constant tensor:
#      x y z
#    x 1.777940 -0.014080 -0.010560 
#    y -0.014080 1.764030 0.009580 
#    z -0.010560 0.009580 1.791640 
# 
# From -- ./inp_files/205197.got.cif
#   From: 2010.05.17/outbox.cif.g08.bks.cpg/sg2_103_cif.got.tgz:205197.got - 2010.06.03 11:33:40.
