data_PCOD9079999
_publ_section_title
;
Structure prediction by ZEFSAII (Michael W. Deem and Ramdas Pophale) SiO2 
 PCOD9079999
Probable space group: P -1
;
_chemical_formula_sum "Si O2"
_cell_formula_units_Z 14
_cell_length_a 9.369948
_cell_length_b 11.545606
_cell_length_c 8.954766
_cell_angle_alpha 126.893460
_cell_angle_beta 51.231186
_cell_angle_gamma 128.320412
_cell_volume 555.832371
_symmetry_space_group_name_H-M "P -1"
_symmetry_group_IT_number 2
_symmetry_cell_setting 'triclinic'
loop_
_space_group_symop_operation_xyz
x,y,z
-x,-y,-z
loop_
_atom_site_type_symbol
_atom_site_label
_atom_site_fract_x
_atom_site_fract_y
_atom_site_fract_z
Si Si1 0.326127 0.083269 0.105106
Si Si2 0.598104 0.675101 0.511483
Si Si3 0.920283 0.733908 0.740603
Si Si4 0.142062 0.718565 0.005726
Si Si5 0.669012 0.997012 0.276286
Si Si6 0.267007 0.293887 0.869866
Si Si7 0.060514 0.405275 0.679171
O O1 0.435342 0.199248 0.259285
O O2 0.164058 0.148451 0.197455
O O3 0.248101 0.905996 0.078165
O O4 0.428584 0.073098 0.872954
O O5 0.500000 0.500000 0.500000
O O6 0.575918 0.668231 0.340949
O O7 0.827823 0.704453 0.420401
O O8 0.960739 0.626219 0.505727
O O9 0.137152 0.841255 0.749747
O O10 0.748686 0.639932 0.901831
O O11 0.923285 0.691798 0.067545
O O12 0.129605 0.651864 0.131181
O O13 0.182116 0.589525 0.776991
O O14 0.500000 0.000000 0.500000
O O15 0.757310 0.880154 0.202844
#
# Coordination Sequence:
#
# PCOD9079999 Si02
#       7
#     2   2   2   2   2   2   2
#     4  10  20  40  67  85 121 167 206 245 303 372
#     4  10  23  42  61  91 126 160 205 255 313 356
#     4  10  19  40  63  92 120 160 213 243 301 368
#     4  10  18  38  60  94 115 158 214 244 292 360
#     4  11  22  39  58  99 126 155 202 259 306 361
#     4  10  20  39  67  84 120 167 203 246 301 369
#     4   9  22  35  63  92 126 155 205 255 293 362
#
# _framework density 25.187449999999998
#
# number of rings (size 3 to 8) (size 9 to 14) (size 15 to 20)
#    0.000    2.000    2.857    0.857    2.000    3.429 
#    7.714    7.857    0.000    0.000    0.000    0.000 
#    0.000    0.000    0.000    0.000    0.000    0.000 
#
# Total GULP energy -77965.366207 kJ/mol
# GULP energy per Si atom -5568.954729 kJ/mol
# Density = 2.513012 g / cm^3
# Si number density = 25.187450 Si / 1000 Ang^3
#
#
#
# Elastic Constant Matrix: (Units=GPa)
#
#
# Indices 1 2 3 4 5 6 
#
# 1 57.7703 14.9289 30.1027 8.6856 5.3781 -9.2396
# 2 14.9289 134.3947 86.7549 -0.3667 39.1491 -16.4706
# 3 30.1027 86.7549 240.2282 4.2325 49.8325 -3.8281
# 4 8.6856 -0.3667 4.2325 39.7041 -11.2160 7.8830
# 5 5.3781 39.1491 49.8325 -11.2160 37.5927 0.3254
# 6 -9.2396 -16.4706 -3.8281 7.8830 0.3254 26.3023
#
#
#
# Elastic Compliance Matrix: (Units=1/GPa)
#
#
# Indices 1 2 3 4 5 6 
#
# 1 0.021191 0.001423 -0.001983 -0.007682 -0.004266 0.010402
# 2 0.001423 0.014011 -0.002055 -0.006091 -0.013982 0.010973
# 3 -0.001983 -0.002055 0.006654 -0.002238 -0.007061 -0.000257
# 4 -0.007682 -0.006091 -0.002238 0.036725 0.021523 -0.018111
# 5 -0.004266 -0.013982 -0.007061 0.021523 0.057713 -0.018447
# 6 0.010402 0.010973 -0.000257 -0.018111 -0.018447 0.054164
#
#
# Mechanical properties :
#
#
# Convention : Reuss Voigt Hill
#
# Bulk Modulus (GPa) = 27.30460 77.32958 52.31709
# Shear Modulus (GPa) = 24.05039 40.76029 32.40534
#
# Velocity S-wave (km/s) = 3.09343 4.02715 3.59077
# Velocity P-wave (km/s) = 4.86036 7.23824 6.16503
#
# Compressibility (1/GPa) = 0.03662387
#
# Stress axis : x y z
#
# Youngs Moduli (GPa) = 47.18911 71.37459 150.29423
#
# Poissons Ratio (x) = -0.10155 0.29806
# Poissons Ratio (y) = -0.06714 0.30893
# Poissons Ratio (z) = 0.09358 0.14671
#
# Static dielectric constant tensor:
#      x y z
#    x 2.098030 0.029160 -0.086920 
#    y 0.029160 1.969580 -0.072430 
#    z -0.086920 -0.072430 2.199420 
# 
# From -- ./inp_files/203072.got.cif
#   From: 2010.05.17/outbox.cif.g08.bks.cpg/sg2_102_cif.got.tgz:203072.got - 2010.06.03 11:33:40.
