data_PCOD9079625
_publ_section_title
;
Structure prediction by ZEFSAII (Michael W. Deem and Ramdas Pophale) SiO2 
 PCOD9079625
Probable space group: P -1
;
_chemical_formula_sum "Si O2"
_cell_formula_units_Z 14
_cell_length_a 10.960376
_cell_length_b 15.714793
_cell_length_c 21.737702
_cell_angle_alpha 148.281152
_cell_angle_beta 148.703649
_cell_angle_gamma 24.819135
_cell_volume 766.485759
_symmetry_space_group_name_H-M "P -1"
_symmetry_group_IT_number 2
_symmetry_cell_setting 'triclinic'
loop_
_space_group_symop_operation_xyz
x,y,z
-x,-y,-z
loop_
_atom_site_type_symbol
_atom_site_label
_atom_site_fract_x
_atom_site_fract_y
_atom_site_fract_z
Si Si1 0.820453 0.045589 0.175743
Si Si2 0.356106 0.505609 0.191189
Si Si3 0.697810 0.575598 0.130900
Si Si4 0.316349 0.305218 0.551878
Si Si5 0.322576 0.296600 0.935589
Si Si6 0.512270 0.858800 0.345022
Si Si7 0.667547 0.871903 0.896902
O O1 0.611428 0.278394 0.196147
O O2 0.642870 0.075784 0.179908
O O3 0.169513 0.949812 0.273103
O O4 0.809851 0.895699 0.033405
O O5 0.455852 0.644832 0.323768
O O6 0.065434 0.363982 0.159471
O O7 0.022321 0.616651 0.145605
O O8 0.630748 0.690489 0.107510
O O9 0.608710 0.725743 0.242628
O O10 0.500000 0.500000 0.000000
O O11 0.347220 0.446471 0.080497
O O12 0.265880 0.286210 0.590831
O O13 0.000000 0.500000 0.500000
O O14 0.471001 0.069928 0.448302
O O15 0.568788 0.055976 0.920402
#
# Coordination Sequence:
#
# PCOD9079625 Si02
#       7
#     2   2   2   2   2   2   2
#     4  10  18  37  62  88 117 158 206 242 291 360
#     4  10  19  38  65  91 117 156 211 251 289 353
#     4  12  23  38  58  92 131 156 188 256 315 358
#     4  11  23  40  63  87 119 165 206 248 291 365
#     4  10  22  37  63  93 120 156 199 251 306 355
#     4  11  24  39  60  91 123 158 202 248 307 355
#     4  10  21  35  60  89 122 159 194 244 302 355
#
# _framework density 18.265177999999999
#
# number of rings (size 3 to 8) (size 9 to 14) (size 15 to 20)
#    0.000    1.429    4.286    1.714    2.000    1.714 
#    0.000    0.714    0.000    8.571    0.000    0.000 
#    0.000    0.000    0.000    0.000    0.000    0.000 
#
# Total GULP energy -78224.110978 kJ/mol
# GULP energy per Si atom -5587.436498 kJ/mol
# Density = 1.822361 g / cm^3
# Si number density = 18.265178 Si / 1000 Ang^3
#
#
#
# Elastic Constant Matrix: (Units=GPa)
#
#
# Indices 1 2 3 4 5 6 
#
# 1 116.3484 56.5556 63.9608 10.6327 -18.4908 8.0074
# 2 56.5556 107.5233 44.4694 -1.9522 -7.2794 16.9705
# 3 63.9608 44.4694 132.6440 19.1245 -2.6651 -0.7314
# 4 10.6327 -1.9522 19.1245 27.6774 -1.8360 0.4625
# 5 -18.4908 -7.2794 -2.6651 -1.8360 27.9979 -5.3279
# 6 8.0074 16.9705 -0.7314 0.4625 -5.3279 26.1235
#
#
#
# Elastic Compliance Matrix: (Units=1/GPa)
#
#
# Indices 1 2 3 4 5 6 
#
# 1 0.015694 -0.005672 -0.005162 -0.002317 0.008336 0.000471
# 2 -0.005672 0.014905 -0.003120 0.005433 -0.001413 -0.008416
# 3 -0.005162 -0.003120 0.012014 -0.006787 -0.002859 0.003483
# 4 -0.002317 0.005433 -0.006787 0.042241 0.001343 -0.003483
# 5 0.008336 -0.001413 -0.002859 0.001343 0.041969 0.006818
# 6 0.000471 -0.008416 0.003483 -0.003483 0.006818 0.045152
#
#
# Mechanical properties :
#
#
# Convention : Reuss Voigt Hill
#
# Bulk Modulus (GPa) = 68.00135 76.27636 72.13885
# Shear Modulus (GPa) = 24.41584 29.12842 26.77213
#
# Velocity S-wave (km/s) = 3.66012 3.99777 3.83266
# Velocity P-wave (km/s) = 7.42784 7.94737 7.69199
#
# Compressibility (1/GPa) = 0.01470559
#
# Stress axis : x y z
#
# Youngs Moduli (GPa) = 63.71960 67.08970 83.23383
#
# Poissons Ratio (x) = 0.38052 0.42964
# Poissons Ratio (y) = 0.36141 0.25971
# Poissons Ratio (z) = 0.32891 0.20934
#
# Static dielectric constant tensor:
#      x y z
#    x 1.603960 0.016190 0.008430 
#    y 0.016190 1.656310 -0.005000 
#    z 0.008430 -0.005000 1.628490 
# 
# From -- ./inp_files/589150.got.cif
#   From: 2010.05.17/outbox.cif.g08.bks.cpg/sg2_295_cif.got.tgz:589150.got - 2010.06.03 11:33:40.
