data_PCOD9079220
_publ_section_title
;
Structure prediction by ZEFSAII (Michael W. Deem and Ramdas Pophale) SiO2 
 PCOD9079220
Probable space group: P -1
;
_chemical_formula_sum "Si O2"
_cell_formula_units_Z 12
_cell_length_a 16.557891
_cell_length_b 6.729203
_cell_length_c 5.475699
_cell_angle_alpha 102.010735
_cell_angle_beta 104.845063
_cell_angle_gamma 116.092712
_cell_volume 492.155158
_symmetry_space_group_name_H-M "P -1"
_symmetry_group_IT_number 2
_symmetry_cell_setting 'triclinic'
loop_
_space_group_symop_operation_xyz
x,y,z
-x,-y,-z
loop_
_atom_site_type_symbol
_atom_site_label
_atom_site_fract_x
_atom_site_fract_y
_atom_site_fract_z
Si Si1 0.491354 0.236963 0.583878
Si Si2 0.224253 0.616487 0.578046
Si Si3 0.192685 0.965481 0.889301
Si Si4 0.434698 0.712343 0.847785
Si Si5 0.731728 0.941057 0.530061
Si Si6 0.985152 0.855653 0.700858
O O1 0.517120 0.341004 0.357141
O O2 0.500000 0.000000 0.500000
O O3 0.382721 0.160656 0.562995
O O4 0.560312 0.377997 0.902932
O O5 0.324304 0.619829 0.658899
O O6 0.220955 0.773976 0.393204
O O7 0.122628 0.373177 0.444877
O O8 0.766572 0.211661 0.146625
O O9 0.233803 0.118313 0.711317
O O10 0.075644 0.813008 0.756654
O O11 0.229581 0.107634 0.204782
O O12 0.500000 0.000000 0.000000
O O13 0.000000 0.000000 0.500000
O O14 0.000000 0.000000 0.000000
#
# Coordination Sequence:
#
# PCOD9079220 Si02
#       6
#     2   2   2   2   2   2
#     4  10  15  27  45  89 127 137 171 235 302 337
#     4  10  23  36  65  89 119 153 201 240 293 342
#     4  10  21  39  61  86 114 153 201 248 289 343
#     4  10  17  28  52  88 125 140 178 242 299 332
#     4  10  19  31  62  91 118 148 188 241 298 338
#     4  12  28  44  59  84 121 161 199 242 295 352
#
# _framework density 24.382556999999998
#
# number of rings (size 3 to 8) (size 9 to 14) (size 15 to 20)
#    1.000    0.667    3.333    4.500    2.333    0.667 
#    0.000    0.000    0.000    0.000    0.000   39.667 
#    0.000    0.000    0.000    0.000    0.000    0.000 
#
# Total GULP energy -67054.296571 kJ/mol
# GULP energy per Si atom -5587.858048 kJ/mol
# Density = 2.432706 g / cm^3
# Si number density = 24.382557 Si / 1000 Ang^3
#
#
#
# Elastic Constant Matrix: (Units=GPa)
#
#
# Indices 1 2 3 4 5 6 
#
# 1 101.1611 23.6681 34.6509 1.9874 -2.7098 39.5414
# 2 23.6681 116.3836 46.0581 6.8960 -14.0451 24.5958
# 3 34.6509 46.0581 160.5073 -36.6002 -25.4664 18.3486
# 4 1.9874 6.8960 -36.6002 50.4805 13.3904 0.6965
# 5 -2.7098 -14.0451 -25.4664 13.3904 41.6885 0.4550
# 6 39.5414 24.5958 18.3486 0.6965 0.4550 37.4017
#
#
#
# Elastic Compliance Matrix: (Units=1/GPa)
#
#
# Indices 1 2 3 4 5 6 
#
# 1 0.017727 0.001683 -0.002669 -0.002935 0.001234 -0.018500
# 2 0.001683 0.012074 -0.003490 -0.005140 0.003783 -0.007958
# 3 -0.002669 -0.003490 0.009767 0.007036 0.002355 0.000165
# 4 -0.002935 -0.005140 0.007036 0.027405 -0.006455 0.002599
# 5 0.001234 0.003783 0.002355 -0.006455 0.028911 -0.005179
# 6 -0.018500 -0.007958 0.000165 0.002599 -0.005179 0.051461
#
#
# Mechanical properties :
#
#
# Convention : Reuss Voigt Hill
#
# Bulk Modulus (GPa) = 32.66118 65.20068 48.93093
# Shear Modulus (GPa) = 30.02955 44.15915 37.09435
#
# Velocity S-wave (km/s) = 3.51322 4.26031 3.90468
# Velocity P-wave (km/s) = 5.46638 7.14137 6.35926
#
# Compressibility (1/GPa) = 0.03061739
#
# Stress axis : x y z
#
# Youngs Moduli (GPa) = 56.41039 82.82279 102.38350
#
# Poissons Ratio (x) = -0.13943 0.27324
# Poissons Ratio (y) = -0.09496 0.35734
# Poissons Ratio (z) = 0.15055 0.28907
#
# Static dielectric constant tensor:
#      x y z
#    x 1.957230 -0.094030 -0.029770 
#    y -0.094030 2.157050 -0.133130 
#    z -0.029770 -0.133130 1.969310 
# 
# From -- ./inp_files/89120.got.cif
#   From: 2010.05.17/outbox.cif.g08.bks.cpg/sg2_45_cif.got.tgz:89120.got - 2010.06.03 11:33:40.
