data_PCOD9079551
_publ_section_title
;
Structure prediction by ZEFSAII (Michael W. Deem and Ramdas Pophale) SiO2 
 PCOD9079551
Probable space group: P -1
;
_chemical_formula_sum "Si O2"
_cell_formula_units_Z 16
_cell_length_a 10.937834
_cell_length_b 16.843549
_cell_length_c 9.388288
_cell_angle_alpha 77.368859
_cell_angle_beta 113.013684
_cell_angle_gamma 46.309511
_cell_volume 781.358839
_symmetry_space_group_name_H-M "P -1"
_symmetry_group_IT_number 2
_symmetry_cell_setting 'triclinic'
loop_
_space_group_symop_operation_xyz
x,y,z
-x,-y,-z
loop_
_atom_site_type_symbol
_atom_site_label
_atom_site_fract_x
_atom_site_fract_y
_atom_site_fract_z
Si Si1 0.387657 0.174043 0.199512
Si Si2 0.927543 0.131545 0.779027
Si Si3 0.224199 0.813546 0.623291
Si Si4 0.823655 0.719497 0.626113
Si Si5 0.736278 0.212158 0.945314
Si Si6 0.983504 0.817578 0.702844
Si Si7 0.326082 0.360411 0.923885
Si Si8 0.612774 0.982571 0.910944
O O1 0.267022 0.261125 0.264597
O O2 0.295802 0.135721 0.111886
O O3 0.347291 0.254274 0.013683
O O4 0.695204 0.001162 0.449683
O O5 0.790719 0.199173 0.540564
O O6 0.709285 0.252765 0.754939
O O7 0.084594 0.962996 0.914598
O O8 0.148633 0.084139 0.913193
O O9 0.176689 0.753165 0.700818
O O10 0.506577 0.695254 0.844317
O O11 0.000000 0.000000 0.500000
O O12 0.601570 0.855865 0.350293
O O13 0.964324 0.731372 0.721010
O O14 0.030495 0.547721 0.721583
O O15 0.484669 0.314951 0.880524
O O16 0.908645 0.192246 0.105973
O O17 0.500000 0.000000 0.000000
#
# Coordination Sequence:
#
# PCOD9079551 Si02
#       8
#     2   2   2   2   2   2   2   2
#     4  11  20  39  63  85 121 164 208 244 293 366
#     4  11  19  35  58  94 111 152 206 247 295 354
#     4  11  19  36  65  85 114 154 200 255 291 357
#     4  11  24  38  61  92 123 159 204 251 298 366
#     4  10  20  33  59  84 123 151 197 255 297 352
#     4  10  18  37  61  86 114 156 208 246 295 348
#     4  11  22  40  61  90 122 160 202 252 312 345
#     4  11  23  39  64  90 123 163 198 249 300 365
#
# _framework density 20.477146000000001
#
# number of rings (size 3 to 8) (size 9 to 14) (size 15 to 20)
#    0.000    1.250    3.750    5.625    0.000    3.000 
#    0.000    3.750    0.000    3.000    0.000    0.000 
#    0.000    0.000    0.000    0.000    0.000    0.000 
#
# Total GULP energy -89142.161320 kJ/mol
# GULP energy per Si atom -5571.385082 kJ/mol
# Density = 2.043054 g / cm^3
# Si number density = 20.477146 Si / 1000 Ang^3
#
#
#
# Elastic Constant Matrix: (Units=GPa)
#
#
# Indices 1 2 3 4 5 6 
#
# 1 135.1665 48.6349 -12.3303 -23.9884 -49.9907 -76.4972
# 2 48.6349 91.1371 23.4879 5.5257 -28.5984 -48.1326
# 3 -12.3303 23.4879 53.6606 24.6821 -16.1537 -22.8894
# 4 -23.9884 5.5257 24.6821 53.2967 4.5098 7.5351
# 5 -49.9907 -28.5984 -16.1537 4.5098 -3.0911 -13.0421
# 6 -76.4972 -48.1326 -22.8894 7.5351 -13.0421 -5.7119
#
#
#
# Elastic Compliance Matrix: (Units=1/GPa)
#
#
# Indices 1 2 3 4 5 6 
#
# 1 0.006615 -0.007505 -0.000966 0.005251 -0.004232 -0.004881
# 2 -0.007505 0.017340 -0.009241 -0.000873 -0.005674 0.003234
# 3 -0.000966 -0.009241 0.022874 -0.008890 -0.002510 -0.006842
# 4 0.005251 -0.000873 -0.008890 0.025024 0.002061 0.000962
# 5 -0.004232 -0.005674 -0.002510 0.002061 0.078903 -0.062890
# 6 -0.004881 0.003234 -0.006842 0.000962 -0.062890 0.035330
#
#
# Mechanical properties :
#
#
# Convention : Reuss Voigt Hill
#
# Bulk Modulus (GPa) = 87.70096 44.39437 66.04767
# Shear Modulus (GPa) = 22.19140 23.57684 22.88412
#
# Velocity S-wave (km/s) = 3.29555 3.39687 3.34660
# Velocity P-wave (km/s) = 7.57645 6.09196 6.87439
#
# Compressibility (1/GPa) = 0.01140238
#
# Stress axis : x y z
#
# Youngs Moduli (GPa) = 151.17651 57.67053 43.71819
#
# Poissons Ratio (x) = 0.43283 0.04225
# Poissons Ratio (y) = 1.13462 0.40401
# Poissons Ratio (z) = 0.14610 0.53295
#
# Static dielectric constant tensor:
#      x y z
#    x 1.858630 0.069670 -0.022220 
#    y 0.069670 1.877240 0.036220 
#    z -0.022220 0.036220 1.673220 
# 
# From -- ./inp_files/277854.got.cif
#   From: 2010.05.17/outbox.cif.g08.bks.cpg/sg2_139_cif.got.tgz:277854.got - 2010.06.03 11:33:40.
