data_PCOD9079418
_publ_section_title
;
Structure prediction by ZEFSAII (Michael W. Deem and Ramdas Pophale) SiO2 
 PCOD9079418
Probable space group: P -1
;
_chemical_formula_sum "Si O2"
_cell_formula_units_Z 12
_cell_length_a 10.745466
_cell_length_b 7.073303
_cell_length_c 10.318590
_cell_angle_alpha 134.936992
_cell_angle_beta 122.119651
_cell_angle_gamma 58.745889
_cell_volume 456.573453
_symmetry_space_group_name_H-M "P -1"
_symmetry_group_IT_number 2
_symmetry_cell_setting 'triclinic'
loop_
_space_group_symop_operation_xyz
x,y,z
-x,-y,-z
loop_
_atom_site_type_symbol
_atom_site_label
_atom_site_fract_x
_atom_site_fract_y
_atom_site_fract_z
Si Si1 0.230883 0.001502 0.063749
Si Si2 0.686586 0.944488 0.408060
Si Si3 0.825058 0.402113 0.656676
Si Si4 0.457889 0.243875 0.991004
Si Si5 0.986291 0.677915 0.706632
Si Si6 0.582221 0.618559 0.414943
O O1 0.394929 0.805752 0.045518
O O2 0.227449 0.308038 0.153930
O O3 0.160942 0.090841 0.210592
O O4 0.116977 0.840905 0.860108
O O5 0.814436 0.117420 0.575836
O O6 0.525249 0.167730 0.446045
O O7 0.676953 0.791679 0.192882
O O8 0.676601 0.741222 0.420870
O O9 0.979682 0.447304 0.702547
O O10 0.704104 0.422914 0.480177
O O11 0.464625 0.502200 0.207359
O O12 0.500000 0.000000 0.000000
O O13 0.000000 0.500000 0.500000
#
# Coordination Sequence:
#
# PCOD9079418 Si02
#       6
#     2   2   2   2   2   2
#     4   9  20  33  56  87 111 144 195 230 277 344
#     4  11  22  37  53  88 115 150 194 229 279 343
#     4  10  18  37  57  80 113 145 185 237 278 330
#     4  12  21  34  59  84 117 153 186 230 287 340
#     4   9  18  34  59  85 107 149 193 232 280 330
#     4  11  22  35  57  82 120 153 183 235 285 333
#
# _framework density 26.282737000000001
#
# number of rings (size 3 to 8) (size 9 to 14) (size 15 to 20)
#    1.000    0.667    3.333    3.000    0.000    0.000 
#    0.000    0.000    0.000    8.000    0.000    0.000 
#    0.000    0.000    0.000    0.000    0.000    0.000 
#
# Total GULP energy -66980.167692 kJ/mol
# GULP energy per Si atom -5581.680641 kJ/mol
# Density = 2.622292 g / cm^3
# Si number density = 26.282737 Si / 1000 Ang^3
#
#
#
# Elastic Constant Matrix: (Units=GPa)
#
#
# Indices 1 2 3 4 5 6 
#
# 1 87.4115 15.4877 32.3301 2.6117 0.8693 -3.3527
# 2 15.4877 70.0502 19.6132 7.5422 10.6188 28.4236
# 3 32.3301 19.6132 220.5735 3.7070 10.5437 17.3325
# 4 2.6117 7.5422 3.7070 31.3294 6.9342 9.4198
# 5 0.8693 10.6188 10.5437 6.9342 36.5129 18.2032
# 6 -3.3527 28.4236 17.3325 9.4198 18.2032 43.2768
#
#
#
# Elastic Compliance Matrix: (Units=1/GPa)
#
#
# Indices 1 2 3 4 5 6 
#
# 1 0.013130 -0.004208 -0.001894 -0.001217 -0.000893 0.005181
# 2 -0.004208 0.020990 -0.000167 -0.000633 0.001389 -0.014492
# 3 -0.001894 -0.000167 0.004993 0.000281 -0.000450 -0.001909
# 4 -0.001217 -0.000633 0.000281 0.034682 -0.003537 -0.005853
# 5 -0.000893 0.001389 -0.000450 -0.003537 0.035204 -0.014839
# 6 0.005181 -0.014492 -0.001909 -0.005853 -0.014839 0.041307
#
#
# Mechanical properties :
#
#
# Convention : Reuss Voigt Hill
#
# Bulk Modulus (GPa) = 37.62888 56.98860 47.30874
# Shear Modulus (GPa) = 29.11999 42.93077 36.02538
#
# Velocity S-wave (km/s) = 3.33220 4.04594 3.70629
# Velocity P-wave (km/s) = 5.39933 6.59971 6.02947
#
# Compressibility (1/GPa) = 0.02657533
#
# Stress axis : x y z
#
# Youngs Moduli (GPa) = 76.15950 47.64081 200.28503
#
# Poissons Ratio (x) = 0.20048 0.37940
# Poissons Ratio (y) = 0.32050 0.03337
# Poissons Ratio (z) = 0.14427 0.00794
#
# Static dielectric constant tensor:
#      x y z
#    x 2.139000 -0.005550 0.061310 
#    y -0.005550 2.116340 0.044420 
#    z 0.061310 0.044420 2.075650 
# 
# From -- ./inp_files/318640.got.cif
#   From: 2010.05.17/outbox.cif.g08.bks.cpg/sg2_160_cif.got.tgz:318640.got - 2010.06.03 11:33:40.
