data_PCOD9079639
_publ_section_title
;
Structure prediction by ZEFSAII (Michael W. Deem and Ramdas Pophale) SiO2 
 PCOD9079639
Probable space group: P -1
;
_chemical_formula_sum "Si O2"
_cell_formula_units_Z 16
_cell_length_a 8.989739
_cell_length_b 22.808982
_cell_length_c 13.428052
_cell_angle_alpha 20.612452
_cell_angle_beta 43.013147
_cell_angle_gamma 48.173815
_cell_volume 659.471914
_symmetry_space_group_name_H-M "P -1"
_symmetry_group_IT_number 2
_symmetry_cell_setting 'triclinic'
loop_
_space_group_symop_operation_xyz
x,y,z
-x,-y,-z
loop_
_atom_site_type_symbol
_atom_site_label
_atom_site_fract_x
_atom_site_fract_y
_atom_site_fract_z
Si Si1 0.862652 0.431593 0.078442
Si Si2 0.202466 0.303092 0.965018
Si Si3 0.736599 0.400230 0.867137
Si Si4 0.609875 0.754833 0.394753
Si Si5 0.661117 0.353832 0.758709
Si Si6 0.253783 0.989620 0.680999
Si Si7 0.337029 0.236173 0.425562
Si Si8 0.083440 0.140126 0.091123
O O1 0.779877 0.591989 0.805440
O O2 0.017781 0.334238 0.085503
O O3 0.641828 0.311780 0.395115
O O4 0.000000 0.500000 0.000000
O O5 0.435730 0.288424 0.923450
O O6 0.238512 0.482905 0.604650
O O7 0.155239 0.151210 0.152581
O O8 0.741374 0.586819 0.605099
O O9 0.611970 0.401278 0.821059
O O10 0.956195 0.312674 0.876728
O O11 0.591173 0.284753 0.196778
O O12 0.656335 0.835325 0.352467
O O13 0.710842 0.852140 0.095737
O O14 0.799112 0.192915 0.954022
O O15 0.500000 0.000000 0.500000
O O16 0.241075 0.118454 0.571427
O O17 0.091506 0.993513 0.660359
#
# Coordination Sequence:
#
# PCOD9079639 Si02
#       8
#     2   2   2   2   2   2   2   2
#     4  11  25  39  65  96 131 159 199 261 325 364
#     4  11  22  41  66  96 124 158 208 259 318 356
#     4  10  18  37  62  91 118 159 208 257 304 354
#     4  11  22  37  60  95 124 158 210 259 310 359
#     4  10  22  38  70  92 122 157 213 259 301 366
#     4  11  24  42  66  87 125 169 214 250 303 371
#     4  11  22  40  63  89 129 162 205 255 309 373
#     4  11  22  36  66  90 121 163 211 262 295 364
#
# _framework density 24.261837
#
# number of rings (size 3 to 8) (size 9 to 14) (size 15 to 20)
#    0.000    1.250    3.750    4.875    7.000    0.500 
#    0.000    1.875    0.000    1.500    0.000    0.000 
#    0.000    0.000    0.000    0.000    0.000    0.000 
#
# Total GULP energy -89494.542438 kJ/mol
# GULP energy per Si atom -5593.408902 kJ/mol
# Density = 2.420662 g / cm^3
# Si number density = 24.261837 Si / 1000 Ang^3
#
#
#
# Elastic Constant Matrix: (Units=GPa)
#
#
# Indices 1 2 3 4 5 6 
#
# 1 151.5639 54.6442 35.0912 13.9956 -30.8650 38.9137
# 2 54.6442 120.3114 38.0752 19.6355 -16.8331 35.9509
# 3 35.0912 38.0752 74.3008 7.9874 -14.5350 2.9506
# 4 13.9956 19.6355 7.9874 36.8776 -0.4944 -1.0497
# 5 -30.8650 -16.8331 -14.5350 -0.4944 41.9913 -6.7781
# 6 38.9137 35.9509 2.9506 -1.0497 -6.7781 45.5727
#
#
#
# Elastic Compliance Matrix: (Units=1/GPa)
#
#
# Indices 1 2 3 4 5 6 
#
# 1 0.011008 -0.000076 -0.003367 -0.003573 0.005499 -0.008386
# 2 -0.000076 0.015063 -0.006101 -0.006965 0.001966 -0.011291
# 3 -0.003367 -0.006101 0.018314 0.000790 0.002541 0.006899
# 4 -0.003573 -0.006965 0.000790 0.032214 -0.003355 0.008737
# 5 0.005499 0.001966 0.002541 -0.003355 0.029137 -0.002155
# 6 -0.008386 -0.011291 0.006899 0.008737 -0.002155 0.037445
#
#
# Mechanical properties :
#
#
# Convention : Reuss Voigt Hill
#
# Bulk Modulus (GPa) = 39.53158 66.86635 53.19897
# Shear Modulus (GPa) = 29.29112 39.44604 34.36858
#
# Velocity S-wave (km/s) = 3.47838 4.03655 3.76782
# Velocity P-wave (km/s) = 5.69748 7.02461 6.39556
#
# Compressibility (1/GPa) = 0.02529623
#
# Stress axis : x y z
#
# Youngs Moduli (GPa) = 90.84613 66.38896 54.60332
#
# Poissons Ratio (x) = 0.00501 0.18385
# Poissons Ratio (y) = 0.00686 0.33316
# Poissons Ratio (z) = 0.30589 0.40507
#
# Static dielectric constant tensor:
#      x y z
#    x 1.967850 0.016500 0.008340 
#    y 0.016500 1.947730 0.003640 
#    z 0.008340 0.003640 1.974840 
# 
# From -- ./inp_files/405254.got.cif
#   From: 2010.05.17/outbox.cif.g08.bks.cpg/sg2_203_cif.got.tgz:405254.got - 2010.06.03 11:33:40.
