data_PCOD9079865
_publ_section_title
;
Structure prediction by ZEFSAII (Michael W. Deem and Ramdas Pophale) SiO2 
 PCOD9079865
Probable space group: P -1
;
_chemical_formula_sum "Si O2"
_cell_formula_units_Z 16
_cell_length_a 8.065892
_cell_length_b 13.582474
_cell_length_c 17.454680
_cell_angle_alpha 139.798079
_cell_angle_beta 129.809414
_cell_angle_gamma 32.451591
_cell_volume 662.270138
_symmetry_space_group_name_H-M "P -1"
_symmetry_group_IT_number 2
_symmetry_cell_setting 'triclinic'
loop_
_space_group_symop_operation_xyz
x,y,z
-x,-y,-z
loop_
_atom_site_type_symbol
_atom_site_label
_atom_site_fract_x
_atom_site_fract_y
_atom_site_fract_z
Si Si1 0.893717 0.673395 0.766293
Si Si2 0.541299 0.853680 0.360766
Si Si3 0.156152 0.262208 0.770368
Si Si4 0.477464 0.681621 0.743701
Si Si5 0.180222 0.545686 0.620023
Si Si6 0.663939 0.504675 0.980173
Si Si7 0.257146 0.735376 0.270137
Si Si8 0.828192 0.904526 0.029071
O O1 0.586666 0.734535 0.737318
O O2 0.164576 0.408607 0.697563
O O3 0.948943 0.707850 0.718026
O O4 0.939820 0.783581 0.908690
O O5 0.614946 0.887393 0.320638
O O6 0.257362 0.880024 0.299966
O O7 0.500000 0.000000 0.500000
O O8 0.810960 0.485368 0.768823
O O9 0.065475 0.162050 0.733277
O O10 0.303519 0.332105 0.900046
O O11 0.299815 0.613348 0.636207
O O12 0.237428 0.886721 0.851993
O O13 0.507795 0.339457 0.636278
O O14 0.000000 0.500000 0.500000
O O15 0.585070 0.484454 0.861034
O O16 0.995113 0.263091 0.948513
O O17 0.500000 0.500000 0.000000
O O18 0.500000 0.000000 0.000000
#
# Coordination Sequence:
#
# PCOD9079865 Si02
#       8
#     2   2   2   2   2   2   2   2
#     4   9  18  37  61  86 117 153 197 253 304 356
#     4  10  19  37  60  82 119 167 205 249 297 355
#     4  10  19  38  63  91 124 160 200 250 313 373
#     4   9  19  37  66  90 119 159 200 248 307 367
#     4  10  21  39  60  85 121 164 213 249 293 360
#     4  12  19  36  66  95 128 162 193 254 325 373
#     4  10  22  37  61  90 120 162 203 256 308 368
#     4  10  18  37  67  92 126 155 198 249 311 386
#
# _framework density 24.159327000000001
#
# number of rings (size 3 to 8) (size 9 to 14) (size 15 to 20)
#    0.000    2.000    5.000    1.125    0.000    1.500 
#    4.500    0.000   19.250    0.000    0.000    0.000 
#    0.000    0.000    0.000    0.000    0.000    0.000 
#
# Total GULP energy -89172.450407 kJ/mol
# GULP energy per Si atom -5573.278150 kJ/mol
# Density = 2.410434 g / cm^3
# Si number density = 24.159327 Si / 1000 Ang^3
#
#
#
# Elastic Constant Matrix: (Units=GPa)
#
#
# Indices 1 2 3 4 5 6 
#
# 1 189.1728 9.7266 35.5413 -10.4430 12.6724 -39.3534
# 2 9.7266 52.7057 13.0239 -2.1588 0.1379 7.7727
# 3 35.5413 13.0239 126.7537 -15.6306 6.8248 -17.1756
# 4 -10.4430 -2.1588 -15.6306 31.7823 -11.5915 2.0638
# 5 12.6724 0.1379 6.8248 -11.5915 38.4635 -11.7948
# 6 -39.3534 7.7727 -17.1756 2.0638 -11.7948 17.9877
#
#
#
# Elastic Compliance Matrix: (Units=1/GPa)
#
#
# Indices 1 2 3 4 5 6 
#
# 1 0.013904 -0.009551 0.003225 0.006383 0.010161 0.043556
# 2 -0.009551 0.029156 -0.006775 -0.005789 -0.011956 -0.047140
# 3 0.003225 -0.006775 0.011514 0.007062 0.006548 0.024460
# 4 0.006383 -0.005789 0.007062 0.041412 0.018531 0.030609
# 5 0.010161 -0.011956 0.006548 0.018531 0.046040 0.061712
# 6 0.043556 -0.047140 0.024460 0.030609 0.061712 0.231565
#
#
# Mechanical properties :
#
#
# Convention : Reuss Voigt Hill
#
# Bulk Modulus (GPa) = 35.24809 53.91286 44.58048
# Shear Modulus (GPa) = 12.21741 38.33605 25.27673
#
# Velocity S-wave (km/s) = 2.25122 3.98779 3.23809
# Velocity P-wave (km/s) = 4.62373 6.60055 5.69851
#
# Compressibility (1/GPa) = 0.02837033
#
# Stress axis : x y z
#
# Youngs Moduli (GPa) = 71.92177 34.29796 86.85101
#
# Poissons Ratio (x) = 0.32759 -0.28008
# Poissons Ratio (y) = 0.68695 0.58845
# Poissons Ratio (z) = -0.23193 0.23238
#
# Static dielectric constant tensor:
#      x y z
#    x 2.003390 0.004920 -0.000510 
#    y 0.004920 1.968950 -0.024930 
#    z -0.000510 -0.024930 2.041520 
# 
# From -- ./inp_files/591239.got.cif
#   From: 2010.05.17/outbox.cif.g08.bks.cpg/sg2_296_cif.got.tgz:591239.got - 2010.06.03 11:33:40.
