data_PCOD9079268
_publ_section_title
;
Structure prediction by ZEFSAII (Michael W. Deem and Ramdas Pophale) SiO2 
 PCOD9079268
Probable space group: P -1
;
_chemical_formula_sum "Si O2"
_cell_formula_units_Z 16
_cell_length_a 19.466200
_cell_length_b 8.346804
_cell_length_c 16.930265
_cell_angle_alpha 46.747399
_cell_angle_beta 158.961186
_cell_angle_gamma 134.182184
_cell_volume 701.725547
_symmetry_space_group_name_H-M "P -1"
_symmetry_group_IT_number 2
_symmetry_cell_setting 'triclinic'
loop_
_space_group_symop_operation_xyz
x,y,z
-x,-y,-z
loop_
_atom_site_type_symbol
_atom_site_label
_atom_site_fract_x
_atom_site_fract_y
_atom_site_fract_z
Si Si1 0.220605 0.892715 0.393987
Si Si2 0.610172 0.433225 0.013341
Si Si3 0.235934 0.536513 0.653285
Si Si4 0.969113 0.520290 0.151144
Si Si5 0.194498 0.630445 0.207548
Si Si6 0.897511 0.208541 0.327449
Si Si7 0.639139 0.845423 0.790309
Si Si8 0.368379 0.344517 0.331900
O O1 0.223077 0.778333 0.520805
O O2 0.422534 0.862068 0.580757
O O3 0.035076 0.753233 0.193279
O O4 0.243223 0.157300 0.319097
O O5 0.692856 0.456551 0.183372
O O6 0.678213 0.224300 0.114095
O O7 0.382171 0.433781 0.786766
O O8 0.686600 0.650939 0.964799
O O9 0.026655 0.373493 0.473926
O O10 0.936523 0.325709 0.244961
O O11 0.149764 0.542056 0.278567
O O12 0.770133 0.489592 0.897514
O O13 0.404593 0.583447 0.424988
O O14 0.226662 0.902480 0.143294
O O15 0.000000 0.500000 0.000000
O O16 0.000000 0.000000 0.500000
O O17 0.624795 0.774720 0.707256
#
# Coordination Sequence:
#
# PCOD9079268 Si02
#       8
#     2   2   2   2   2   2   2   2
#     4   9  17  33  59  95 117 147 208 265 301 364
#     4  10  20  40  64  92 121 162 218 266 310 369
#     4   9  21  37  62  91 125 159 207 266 318 372
#     4  11  21  36  62  85 117 163 215 250 311 376
#     4  11  24  38  55  92 135 161 196 257 325 377
#     4  11  24  39  60  90 126 166 212 265 318 376
#     4  10  18  36  65  90 118 162 208 259 303 372
#     4  11  19  36  64  90 117 158 212 256 297 378
#
# _framework density 22.800937000000001
#
# number of rings (size 3 to 8) (size 9 to 14) (size 15 to 20)
#    0.000    1.750    3.750    1.500    0.000    2.000 
#    0.000    1.250    0.000    1.500    0.000    0.000 
#    0.000    0.000    0.000    0.000    0.000    0.000 
#
# Total GULP energy -89278.433893 kJ/mol
# GULP energy per Si atom -5579.902118 kJ/mol
# Density = 2.274904 g / cm^3
# Si number density = 22.800937 Si / 1000 Ang^3
#
#
#
# Elastic Constant Matrix: (Units=GPa)
#
#
# Indices 1 2 3 4 5 6 
#
# 1 79.6164 31.7698 25.9512 -9.6935 18.9269 8.2533
# 2 31.7698 81.4404 50.0189 -2.1841 3.4794 10.5902
# 3 25.9512 50.0189 124.6380 4.7496 -0.0340 10.3044
# 4 -9.6935 -2.1841 4.7496 42.7933 -1.2960 4.9565
# 5 18.9269 3.4794 -0.0340 -1.2960 50.8682 -4.4699
# 6 8.2533 10.5902 10.3044 4.9565 -4.4699 16.3278
#
#
#
# Elastic Compliance Matrix: (Units=1/GPa)
#
#
# Indices 1 2 3 4 5 6 
#
# 1 0.017994 -0.004640 -0.001357 0.004773 -0.007012 -0.008598
# 2 -0.004640 0.018671 -0.006051 0.001308 -0.000081 -0.006366
# 3 -0.001357 -0.006051 0.010927 -0.001622 0.000745 -0.001589
# 4 0.004773 0.001308 -0.001622 0.025868 -0.002146 -0.010677
# 5 -0.007012 -0.000081 0.000745 -0.002146 0.023107 0.010104
# 6 -0.008598 -0.006366 -0.001589 -0.010677 0.010104 0.076730
#
#
# Mechanical properties :
#
#
# Convention : Reuss Voigt Hill
#
# Bulk Modulus (GPa) = 42.55928 55.68607 49.12267
# Shear Modulus (GPa) = 24.36337 33.86152 29.11244
#
# Velocity S-wave (km/s) = 3.27238 3.85787 3.57712
# Velocity P-wave (km/s) = 5.74317 6.65732 6.21707
#
# Compressibility (1/GPa) = 0.02349664
#
# Stress axis : x y z
#
# Youngs Moduli (GPa) = 55.57502 53.55773 91.51245
#
# Poissons Ratio (x) = 0.24851 0.12422
# Poissons Ratio (y) = 0.25787 0.55371
# Poissons Ratio (z) = 0.07544 0.32406
#
# Static dielectric constant tensor:
#      x y z
#    x 1.916090 -0.074820 0.037030 
#    y -0.074820 1.869980 -0.020460 
#    z 0.037030 -0.020460 1.947810 
# 
# From -- ./inp_files/577571.got.cif
#   From: 2010.05.17/outbox.cif.g08.bks.cpg/sg2_289_cif.got.tgz:577571.got - 2010.06.03 11:33:40.
