data_PCOD9079011
_publ_section_title
;
Structure prediction by ZEFSAII (Michael W. Deem and Ramdas Pophale) SiO2 
 PCOD9079011
Probable space group: P -1
;
_chemical_formula_sum "Si O2"
_cell_formula_units_Z 16
_cell_length_a 22.310271
_cell_length_b 12.287004
_cell_length_c 15.803651
_cell_angle_alpha 133.066263
_cell_angle_beta 27.634845
_cell_angle_gamma 151.728868
_cell_volume 853.100417
_symmetry_space_group_name_H-M "P -1"
_symmetry_group_IT_number 2
_symmetry_cell_setting 'triclinic'
loop_
_space_group_symop_operation_xyz
x,y,z
-x,-y,-z
loop_
_atom_site_type_symbol
_atom_site_label
_atom_site_fract_x
_atom_site_fract_y
_atom_site_fract_z
Si Si1 0.179183 0.565965 0.859089
Si Si2 0.777277 0.182186 0.920121
Si Si3 0.715081 0.390742 0.793422
Si Si4 0.308126 0.302655 0.065399
Si Si5 0.921429 0.762441 0.318447
Si Si6 0.507390 0.259949 0.664671
Si Si7 0.343526 0.912135 0.540387
Si Si8 0.963917 0.457476 0.661260
O O1 0.127971 0.355282 0.774758
O O2 0.421687 0.837836 0.665726
O O3 0.176633 0.614538 0.985055
O O4 0.000000 0.500000 0.000000
O O5 0.848920 0.257240 0.773331
O O6 0.917997 0.195742 0.805616
O O7 0.520271 0.896731 0.094070
O O8 0.698386 0.552603 0.903130
O O9 0.792016 0.389351 0.784012
O O10 0.896923 0.515767 0.562149
O O11 0.500000 0.500000 0.000000
O O12 0.378054 0.227425 0.880909
O O13 0.068808 0.046781 0.271586
O O14 0.687222 0.536118 0.540723
O O15 0.641563 0.242891 0.524689
O O16 0.342124 0.027566 0.680562
O O17 0.142900 0.730490 0.629656
#
# Coordination Sequence:
#
# PCOD9079011 Si02
#       8
#     2   2   2   2   2   2   2   2
#     4   9  18  31  57  91 120 140 185 248 292 339
#     4  11  19  36  62  88 115 150 197 242 294 337
#     4  11  25  42  54  87 120 159 201 235 290 351
#     4  12  24  38  59  82 127 158 185 235 296 361
#     4  10  21  34  57  92 118 148 183 239 301 349
#     4  10  21  35  59  91 116 150 190 242 294 348
#     4  10  18  36  61  89 119 145 195 246 295 331
#     4  11  23  39  63  83 115 158 201 249 282 339
#
# _framework density 18.755120000000002
#
# number of rings (size 3 to 8) (size 9 to 14) (size 15 to 20)
#    0.000    1.500    3.750    2.625    3.500    1.500 
#    0.000    0.625    0.000    1.500    0.000    0.000 
#    0.000    0.000    0.000    0.000    0.000    0.000 
#
# Total GULP energy -89306.426832 kJ/mol
# GULP energy per Si atom -5581.651677 kJ/mol
# Density = 1.871243 g / cm^3
# Si number density = 18.755120 Si / 1000 Ang^3
#
#
#
# Elastic Constant Matrix: (Units=GPa)
#
#
# Indices 1 2 3 4 5 6 
#
# 1 65.3611 23.1059 13.1773 11.6217 3.4620 10.7604
# 2 23.1059 75.7256 16.6345 -10.9401 -1.3407 2.0850
# 3 13.1773 16.6345 43.9929 -0.5585 6.5262 -2.3967
# 4 11.6217 -10.9401 -0.5585 27.5469 4.7766 6.5028
# 5 3.4620 -1.3407 6.5262 4.7766 25.4337 -2.4702
# 6 10.7604 2.0850 -2.3967 6.5028 -2.4702 19.7809
#
#
#
# Elastic Compliance Matrix: (Units=1/GPa)
#
#
# Indices 1 2 3 4 5 6 
#
# 1 0.021844 -0.006913 -0.004342 -0.009806 -0.001218 -0.008609
# 2 -0.006913 0.017925 -0.004835 0.010220 0.001018 -0.001948
# 3 -0.004342 -0.004835 0.027063 0.000277 -0.006146 0.005292
# 4 -0.009806 0.010220 0.000277 0.049055 -0.008665 -0.012918
# 5 -0.001218 0.001018 -0.006146 -0.008665 0.043528 0.008095
# 6 -0.008609 -0.001948 0.005292 -0.012918 0.008095 0.061341
#
#
# Mechanical properties :
#
#
# Convention : Reuss Voigt Hill
#
# Bulk Modulus (GPa) = 28.85678 32.32388 30.59033
# Shear Modulus (GPa) = 18.90462 23.36309 21.13386
#
# Velocity S-wave (km/s) = 3.17830 3.53326 3.36047
# Velocity P-wave (km/s) = 5.37478 5.82386 5.60382
#
# Compressibility (1/GPa) = 0.03465391
#
# Stress axis : x y z
#
# Youngs Moduli (GPa) = 45.77933 55.78810 36.95064
#
# Poissons Ratio (x) = 0.38564 0.16044
# Poissons Ratio (y) = 0.31645 0.17864
# Poissons Ratio (z) = 0.19877 0.26971
#
# Static dielectric constant tensor:
#      x y z
#    x 1.628610 0.007310 0.033840 
#    y 0.007310 1.668590 -0.011420 
#    z 0.033840 -0.011420 1.665110 
# 
# From -- ./inp_files/451338.got.cif
#   From: 2010.05.17/outbox.cif.g08.bks.cpg/sg2_226_cif.got.tgz:451338.got - 2010.06.03 11:33:40.
