data_PCOD9079029
_publ_section_title
;
Structure prediction by ZEFSAII (Michael W. Deem and Ramdas Pophale) SiO2 
 PCOD9079029
Probable space group: P -1
;
_chemical_formula_sum "Si O2"
_cell_formula_units_Z 12
_cell_length_a 12.214069
_cell_length_b 11.263051
_cell_length_c 7.019367
_cell_angle_alpha 53.278938
_cell_angle_beta 52.922745
_cell_angle_gamma 41.458592
_cell_volume 490.174504
_symmetry_space_group_name_H-M "P -1"
_symmetry_group_IT_number 2
_symmetry_cell_setting 'triclinic'
loop_
_space_group_symop_operation_xyz
x,y,z
-x,-y,-z
loop_
_atom_site_type_symbol
_atom_site_label
_atom_site_fract_x
_atom_site_fract_y
_atom_site_fract_z
Si Si1 0.434936 0.377937 0.472972
Si Si2 0.927595 0.939904 0.376968
Si Si3 0.227556 0.656082 0.756318
Si Si4 0.392225 0.019223 0.411658
Si Si5 0.838330 0.410002 0.728012
Si Si6 0.093408 0.350370 0.213074
O O1 0.288294 0.532740 0.622270
O O2 0.593231 0.386734 0.316011
O O3 0.352092 0.435501 0.296220
O O4 0.491448 0.171409 0.650037
O O5 0.707851 0.784515 0.786244
O O6 0.098832 0.794563 0.214840
O O7 0.917423 0.819789 0.666595
O O8 0.893049 0.120810 0.325032
O O9 0.152757 0.593657 0.052100
O O10 0.230304 0.015795 0.634660
O O11 0.500000 0.000000 0.500000
O O12 0.965165 0.430444 0.453366
O O13 0.000000 0.500000 0.000000
#
# Coordination Sequence:
#
# PCOD9079029 Si02
#       6
#     2   2   2   2   2   2
#     4  10  20  34  60  97 124 163 211 259 333 378
#     4   7  18  33  62  91 123 164 218 250 324 375
#     4  10  18  36  61  92 132 161 205 273 315 390
#     4   8  17  37  64  88 126 165 219 261 314 381
#     4   9  19  35  61  90 128 164 211 262 323 370
#     4   8  18  38  65  89 123 169 223 258 304 386
#
# _framework density 24.481078
#
# number of rings (size 3 to 8) (size 9 to 14) (size 15 to 20)
#    2.000    1.000    0.000    1.000    0.000    0.667 
#    3.000    4.167    0.000    0.000    0.000    0.000 
#    0.000    0.000    0.000    0.000    0.000    0.000 
#
# Total GULP energy -66801.022929 kJ/mol
# GULP energy per Si atom -5566.751911 kJ/mol
# Density = 2.442536 g / cm^3
# Si number density = 24.481078 Si / 1000 Ang^3
#
#
#
# Elastic Constant Matrix: (Units=GPa)
#
#
# Indices 1 2 3 4 5 6 
#
# 1 109.9837 30.4143 35.4520 -10.9064 27.0273 -0.7618
# 2 30.4143 118.3722 40.9865 -25.3861 16.0468 12.0188
# 3 35.4520 40.9865 142.0565 -13.0576 12.6926 5.6140
# 4 -10.9064 -25.3861 -13.0576 32.8054 -6.1250 2.0527
# 5 27.0273 16.0468 12.6926 -6.1250 36.1704 -5.2457
# 6 -0.7618 12.0188 5.6140 2.0527 -5.2457 32.5753
#
#
#
# Elastic Compliance Matrix: (Units=1/GPa)
#
#
# Indices 1 2 3 4 5 6 
#
# 1 0.011994 -0.001169 -0.001876 0.000921 -0.007666 -0.000257
# 2 -0.001169 0.012086 -0.001979 0.007901 -0.003204 -0.005159
# 3 -0.001876 -0.001979 0.008264 0.001085 -0.000567 -0.000898
# 4 0.000921 0.007901 0.001085 0.037866 0.001070 -0.005294
# 5 -0.007666 -0.003204 -0.000567 0.001070 0.036172 0.006858
# 6 -0.000257 -0.005159 -0.000898 -0.005294 0.006858 0.034188
#
#
# Mechanical properties :
#
#
# Convention : Reuss Voigt Hill
#
# Bulk Modulus (GPa) = 44.85109 64.90200 54.87655
# Shear Modulus (GPa) = 31.63542 37.88086 34.75814
#
# Velocity S-wave (km/s) = 3.59867 3.93791 3.77211
# Velocity P-wave (km/s) = 5.96890 6.87349 6.43710
#
# Compressibility (1/GPa) = 0.02229600
#
# Stress axis : x y z
#
# Youngs Moduli (GPa) = 83.37679 82.73886 121.00033
#
# Poissons Ratio (x) = 0.09674 0.22701
# Poissons Ratio (y) = 0.09749 0.23945
# Poissons Ratio (z) = 0.15642 0.16373
#
# Static dielectric constant tensor:
#      x y z
#    x 2.016020 -0.009730 -0.028060 
#    y -0.009730 2.033800 -0.084490 
#    z -0.028060 -0.084490 2.006240 
# 
# From -- ./inp_files/92169.got.cif
#   From: 2010.05.17/outbox.cif.g08.bks.cpg/sg2_47_cif.got.tgz:92169.got - 2010.06.03 11:33:40.
