data_PCOD9079607
_publ_section_title
;
Structure prediction by ZEFSAII (Michael W. Deem and Ramdas Pophale) SiO2 
 PCOD9079607
Probable space group: P -1
;
_chemical_formula_sum "Si O2"
_cell_formula_units_Z 16
_cell_length_a 7.438221
_cell_length_b 6.804308
_cell_length_c 19.789734
_cell_angle_alpha 74.006064
_cell_angle_beta 63.994954
_cell_angle_gamma 115.031024
_cell_volume 672.331853
_symmetry_space_group_name_H-M "P -1"
_symmetry_group_IT_number 2
_symmetry_cell_setting 'triclinic'
loop_
_space_group_symop_operation_xyz
x,y,z
-x,-y,-z
loop_
_atom_site_type_symbol
_atom_site_label
_atom_site_fract_x
_atom_site_fract_y
_atom_site_fract_z
Si Si1 0.425395 0.403779 0.633284
Si Si2 0.379049 0.114832 0.545658
Si Si3 0.562346 0.914794 0.741658
Si Si4 0.989976 0.549830 0.860285
Si Si5 0.862873 0.195500 0.793937
Si Si6 0.849707 0.845230 0.606963
Si Si7 0.743325 0.658345 0.112314
Si Si8 0.158128 0.158058 0.067808
O O1 0.444885 0.214087 0.602397
O O2 0.518677 0.637016 0.542764
O O3 0.139430 0.281966 0.716323
O O4 0.620659 0.548655 0.649882
O O5 0.500000 0.000000 0.500000
O O6 0.069565 0.899627 0.613890
O O7 0.282851 0.817945 0.779145
O O8 0.743169 0.987986 0.641934
O O9 0.500116 0.636273 0.800272
O O10 0.694305 0.111933 0.763160
O O11 0.899149 0.413747 0.815373
O O12 0.032522 0.375363 0.917056
O O13 0.834026 0.622353 0.916372
O O14 0.741133 0.948643 0.887851
O O15 0.000000 0.000000 0.500000
O O16 0.863270 0.900343 0.120975
O O17 0.716280 0.737853 0.036068
#
# Coordination Sequence:
#
# PCOD9079607 Si02
#       8
#     2   2   2   2   2   2   2   2
#     4  10  20  39  58  78 119 147 181 240 290 334
#     4  10  22  37  60  86 108 146 193 236 284 345
#     4  10  20  39  56  84 119 151 190 243 288 340
#     4   9  20  37  58  83 115 152 195 236 282 341
#     4  11  21  37  57  85 120 155 187 236 294 338
#     4  10  19  37  62  80 112 152 183 234 294 334
#     4   8  19  36  62  82 119 152 191 237 296 328
#     4  10  18  37  62  85 113 159 191 237 286 347
#
# _framework density 23.79777
#
# number of rings (size 3 to 8) (size 9 to 14) (size 15 to 20)
#    0.750    1.500    2.500    0.375    0.000    2.000 
#    2.250    1.875    0.000    0.000    0.000    0.000 
#    0.000    0.000    0.000    0.000    0.000    0.000 
#
# Total GULP energy -89329.121077 kJ/mol
# GULP energy per Si atom -5583.070067 kJ/mol
# Density = 2.374361 g / cm^3
# Si number density = 23.797770 Si / 1000 Ang^3
#
#
#
# Elastic Constant Matrix: (Units=GPa)
#
#
# Indices 1 2 3 4 5 6 
#
# 1 38.1395 45.2099 1.4395 4.2299 4.1825 16.0671
# 2 45.2099 135.6989 13.2642 39.2748 8.6512 20.5451
# 3 1.4395 13.2642 64.8937 0.6524 17.4346 6.1849
# 4 4.2299 39.2748 0.6524 41.4921 6.0005 6.5672
# 5 4.1825 8.6512 17.4346 6.0005 22.8874 3.8145
# 6 16.0671 20.5451 6.1849 6.5672 3.8145 33.1907
#
#
#
# Elastic Compliance Matrix: (Units=1/GPa)
#
#
# Indices 1 2 3 4 5 6 
#
# 1 0.060281 -0.023118 0.007772 0.020130 -0.010289 -0.019120
# 2 -0.023118 0.019911 -0.004858 -0.017499 0.004535 0.002713
# 3 0.007772 -0.004858 0.021019 0.006522 -0.016630 -0.004051
# 4 0.020130 -0.017499 0.006522 0.041304 -0.011701 -0.006955
# 5 -0.010289 0.004535 -0.016630 -0.011701 0.059469 0.000753
# 6 -0.019120 0.002713 -0.004051 -0.006955 0.000753 0.039750
#
#
# Mechanical properties :
#
#
# Convention : Reuss Voigt Hill
#
# Bulk Modulus (GPa) = 16.44667 39.83991 28.14329
# Shear Modulus (GPa) = 16.53394 31.43525 23.98460
#
# Velocity S-wave (km/s) = 2.63871 3.63841 3.17811
# Velocity P-wave (km/s) = 4.02613 5.86754 5.03179
#
# Compressibility (1/GPa) = 0.06080258
#
# Stress axis : x y z
#
# Youngs Moduli (GPa) = 16.58904 50.22289 47.57657
#
# Poissons Ratio (x) = 1.16107 -0.36978
# Poissons Ratio (y) = 0.38351 0.23112
# Poissons Ratio (z) = -0.12893 0.24398
#
# Static dielectric constant tensor:
#      x y z
#    x 1.953230 0.017070 0.013440 
#    y 0.017070 1.944370 -0.039040 
#    z 0.013440 -0.039040 1.917890 
# 
# From -- ./inp_files/585198.got.cif
#   From: 2010.05.17/outbox.cif.g08.bks.cpg/sg2_293_cif.got.tgz:585198.got - 2010.06.03 11:33:40.
