data_PCOD9079483
_publ_section_title
;
Structure prediction by ZEFSAII (Michael W. Deem and Ramdas Pophale) SiO2 
 PCOD9079483
Probable space group: P -1
;
_chemical_formula_sum "Si O2"
_cell_formula_units_Z 16
_cell_length_a 8.041293
_cell_length_b 11.021059
_cell_length_c 20.346098
_cell_angle_alpha 148.137329
_cell_angle_beta 47.258951
_cell_angle_gamma 133.787004
_cell_volume 667.290556
_symmetry_space_group_name_H-M "P -1"
_symmetry_group_IT_number 2
_symmetry_cell_setting 'triclinic'
loop_
_space_group_symop_operation_xyz
x,y,z
-x,-y,-z
loop_
_atom_site_type_symbol
_atom_site_label
_atom_site_fract_x
_atom_site_fract_y
_atom_site_fract_z
Si Si1 0.674030 0.210063 0.637215
Si Si2 0.340405 0.262218 0.636960
Si Si3 0.161645 0.079718 0.180780
Si Si4 0.864378 0.357750 0.322476
Si Si5 0.762755 0.557980 0.568686
Si Si6 0.625463 0.489757 0.893245
Si Si7 0.174173 0.695696 0.840287
Si Si8 0.520581 0.206711 0.031957
O O1 0.440777 0.202103 0.652427
O O2 0.636131 0.243617 0.740699
O O3 0.882513 0.445810 0.668832
O O4 0.767330 0.990727 0.487670
O O5 0.561570 0.386121 0.587761
O O6 0.195078 0.455421 0.761184
O O7 0.195697 0.175758 0.290527
O O8 0.933816 0.132228 0.233390
O O9 0.219955 0.827857 0.046475
O O10 0.385741 0.237191 0.148898
O O11 0.732217 0.480763 0.466139
O O12 0.752852 0.310510 0.258821
O O13 0.000000 0.500000 0.500000
O O14 0.894943 0.667085 0.904909
O O15 0.500000 0.500000 0.000000
O O16 0.481254 0.591878 0.925619
O O17 0.337545 0.954315 0.939302
#
# Coordination Sequence:
#
# PCOD9079483 Si02
#       8
#     2   2   2   2   2   2   2   2
#     4  10  21  42  61  82 120 167 196 234 310 360
#     4  11  21  39  64  89 116 156 204 248 290 367
#     4  10  19  36  64  89 116 155 205 242 296 350
#     4  10  20  37  60  87 127 151 191 254 304 351
#     4  10  18  37  59  91 117 146 197 251 290 342
#     4  11  25  44  58  87 128 162 195 248 305 357
#     4  11  23  40  62  90 117 158 206 246 302 354
#     4  11  20  39  67  85 118 163 204 244 291 363
#
# _framework density 23.97756
#
# number of rings (size 3 to 8) (size 9 to 14) (size 15 to 20)
#    0.000    1.500    6.250    0.375    1.750    3.500 
#    6.750    0.625    0.000    0.000    0.000    0.000 
#    0.000    0.000    0.000    0.000    0.000    0.000 
#
# Total GULP energy -89273.405087 kJ/mol
# GULP energy per Si atom -5579.587818 kJ/mol
# Density = 2.392299 g / cm^3
# Si number density = 23.977560 Si / 1000 Ang^3
#
#
#
# Elastic Constant Matrix: (Units=GPa)
#
#
# Indices 1 2 3 4 5 6 
#
# 1 58.3928 -1.0964 27.1829 -0.3598 6.3982 -10.8776
# 2 -1.0964 17.7378 15.7542 -18.1012 8.5088 -1.8964
# 3 27.1829 15.7542 150.9270 -17.2091 25.0899 -8.9492
# 4 -0.3598 -18.1012 -17.2091 48.6654 -12.9639 7.8250
# 5 6.3982 8.5088 25.0899 -12.9639 49.9219 -1.5639
# 6 -10.8776 -1.8964 -8.9492 7.8250 -1.5639 22.1168
#
#
#
# Elastic Compliance Matrix: (Units=1/GPa)
#
#
# Indices 1 2 3 4 5 6 
#
# 1 0.020845 0.005070 -0.003564 -0.001226 -0.001764 0.009554
# 2 0.005070 0.099409 -0.006754 0.033800 -0.005549 -0.004067
# 3 -0.003564 -0.006754 0.008435 -0.000447 -0.002715 0.001048
# 4 -0.001226 0.033800 -0.000447 0.035535 0.003529 -0.010209
# 5 -0.001764 -0.005549 -0.002715 0.003529 0.023420 -0.002034
# 6 0.009554 -0.004067 0.001048 -0.010209 -0.002034 0.053457
#
#
# Mechanical properties :
#
#
# Convention : Reuss Voigt Hill
#
# Bulk Modulus (GPa) = 8.46082 34.52654 21.49368
# Shear Modulus (GPa) = 17.18246 36.48862 26.83554
#
# Velocity S-wave (km/s) = 2.67985 3.90523 3.34906
# Velocity P-wave (km/s) = 3.62102 5.89621 4.89270
#
# Compressibility (1/GPa) = 0.11819183
#
# Stress axis : x y z
#
# Youngs Moduli (GPa) = 47.97314 10.05948 118.55406
#
# Poissons Ratio (x) = -0.05100 0.42248
# Poissons Ratio (y) = -0.24320 0.80076
# Poissons Ratio (z) = 0.17096 0.06795
#
# Static dielectric constant tensor:
#      x y z
#    x 2.015280 -0.023380 0.056360 
#    y -0.023380 1.895600 0.037420 
#    z 0.056360 0.037420 2.124110 
# 
# From -- ./inp_files/314081.got.cif
#   From: 2010.05.17/outbox.cif.g08.bks.cpg/sg2_158_cif.got.tgz:314081.got - 2010.06.03 11:33:40.
