data_PCOD9079619
_publ_section_title
;
Structure prediction by ZEFSAII (Michael W. Deem and Ramdas Pophale) SiO2 
 PCOD9079619
Probable space group: P -1
;
_chemical_formula_sum "Si O2"
_cell_formula_units_Z 16
_cell_length_a 7.946707
_cell_length_b 19.935516
_cell_length_c 12.301271
_cell_angle_alpha 21.844742
_cell_angle_beta 79.627195
_cell_angle_gamma 89.173882
_cell_volume 648.233618
_symmetry_space_group_name_H-M "P -1"
_symmetry_group_IT_number 2
_symmetry_cell_setting 'triclinic'
loop_
_space_group_symop_operation_xyz
x,y,z
-x,-y,-z
loop_
_atom_site_type_symbol
_atom_site_label
_atom_site_fract_x
_atom_site_fract_y
_atom_site_fract_z
Si Si1 0.806819 0.362476 0.171077
Si Si2 0.015679 0.064116 0.698626
Si Si3 0.306239 0.829194 0.319461
Si Si4 0.649178 0.162589 0.096726
Si Si5 0.303190 0.222614 0.254537
Si Si6 0.226993 0.056069 0.279827
Si Si7 0.089115 0.752364 0.255741
Si Si8 0.697185 0.472415 0.801044
O O1 0.662420 0.273604 0.421187
O O2 0.821991 0.176760 0.384885
O O3 0.753854 0.477721 0.911036
O O4 0.000000 0.500000 0.000000
O O5 0.853012 0.101233 0.722414
O O6 0.899068 0.904086 0.857876
O O7 0.170078 0.230068 0.355309
O O8 0.122128 0.982073 0.893926
O O9 0.198029 0.705463 0.412875
O O10 0.500000 0.000000 0.000000
O O11 0.627591 0.940927 0.458809
O O12 0.452572 0.155058 0.086160
O O13 0.816127 0.274466 0.825229
O O14 0.691779 0.279848 0.027745
O O15 0.203274 0.126619 0.296853
O O16 0.477695 0.427111 0.896230
O O17 0.866078 0.645849 0.460270
#
# Coordination Sequence:
#
# PCOD9079619 Si02
#       8
#     2   2   2   2   2   2   2   2
#     4  11  20  36  60  92 117 150 200 251 286 336
#     4  10  23  37  58  86 117 158 198 236 297 360
#     4  11  24  41  64  83 115 159 204 241 287 364
#     4  10  19  36  65  89 114 159 202 243 283 350
#     4  10  19  36  63  87 116 156 196 253 287 349
#     4  10  18  37  62  87 117 154 208 239 287 347
#     4  11  22  38  57  88 127 156 189 247 299 343
#     4  11  20  37  60  92 121 151 200 242 298 339
#
# _framework density 24.682459000000001
#
# number of rings (size 3 to 8) (size 9 to 14) (size 15 to 20)
#    0.000    1.500    3.750    3.375    1.750    0.000 
#    0.000    5.625    0.000    0.000    0.000    0.000 
#    0.000    0.000    0.000    0.000    0.000    0.000 
#
# Total GULP energy -89302.166248 kJ/mol
# GULP energy per Si atom -5581.385390 kJ/mol
# Density = 2.462628 g / cm^3
# Si number density = 24.682459 Si / 1000 Ang^3
#
#
#
# Elastic Constant Matrix: (Units=GPa)
#
#
# Indices 1 2 3 4 5 6 
#
# 1 50.4116 29.0060 16.3816 9.4194 -20.3147 -2.5031
# 2 29.0060 141.1844 38.7609 20.8557 -17.1609 2.1536
# 3 16.3816 38.7609 123.9677 29.0658 -49.1796 -7.6003
# 4 9.4194 20.8557 29.0658 44.5671 -2.1765 -6.1545
# 5 -20.3147 -17.1609 -49.1796 -2.1765 43.7500 4.1539
# 6 -2.5031 2.1536 -7.6003 -6.1545 4.1539 45.4653
#
#
#
# Elastic Compliance Matrix: (Units=1/GPa)
#
#
# Indices 1 2 3 4 5 6 
#
# 1 0.029398 -0.004473 0.007037 -0.007736 0.019403 0.000187
# 2 -0.004473 0.008780 -0.002207 -0.001942 -0.001098 -0.001194
# 3 0.007037 -0.002207 0.020806 -0.012803 0.025158 -0.000062
# 4 -0.007736 -0.001942 -0.012803 0.032975 -0.017445 0.003583
# 5 0.019403 -0.001098 0.025158 -0.017445 0.059079 -0.002434
# 6 0.000187 -0.001194 -0.000062 0.003583 -0.002434 0.022759
#
#
# Mechanical properties :
#
#
# Convention : Reuss Voigt Hill
#
# Bulk Modulus (GPa) = 16.75198 53.76227 35.25713
# Shear Modulus (GPa) = 25.90919 42.18415 34.04667
#
# Velocity S-wave (km/s) = 3.24342 4.13858 3.71804
# Velocity P-wave (km/s) = 4.56378 6.68326 5.72250
#
# Compressibility (1/GPa) = 0.05969442
#
# Stress axis : x y z
#
# Youngs Moduli (GPa) = 34.01639 113.90057 48.06419
#
# Poissons Ratio (x) = 0.50950 -0.33820
# Poissons Ratio (y) = 0.15216 0.10610
# Poissons Ratio (z) = -0.23936 0.25143
#
# Static dielectric constant tensor:
#      x y z
#    x 2.020800 0.007710 0.012700 
#    y 0.007710 1.966290 -0.033680 
#    z 0.012700 -0.033680 2.031300 
# 
# From -- ./inp_files/181463.got.cif
#   From: 2010.05.17/outbox.cif.g08.bks.cpg/sg2_91_cif.got.tgz:181463.got - 2010.06.03 11:33:40.
