data_PCOD9079155
_publ_section_title
;
Structure prediction by ZEFSAII (Michael W. Deem and Ramdas Pophale) SiO2 
 PCOD9079155
Probable space group: P -1
;
_chemical_formula_sum "Si O2"
_cell_formula_units_Z 16
_cell_length_a 10.300616
_cell_length_b 21.684785
_cell_length_c 14.319804
_cell_angle_alpha 31.723790
_cell_angle_beta 149.279402
_cell_angle_gamma 153.101083
_cell_volume 688.774680
_symmetry_space_group_name_H-M "P -1"
_symmetry_group_IT_number 2
_symmetry_cell_setting 'triclinic'
loop_
_space_group_symop_operation_xyz
x,y,z
-x,-y,-z
loop_
_atom_site_type_symbol
_atom_site_label
_atom_site_fract_x
_atom_site_fract_y
_atom_site_fract_z
Si Si1 0.481423 0.352361 0.610690
Si Si2 0.379041 0.129140 0.611879
Si Si3 0.254546 0.030440 0.847343
Si Si4 0.993240 0.387719 0.775206
Si Si5 0.305444 0.342673 0.187491
Si Si6 0.719652 0.749211 0.180848
Si Si7 0.704661 0.009785 0.877840
Si Si8 0.243762 0.466184 0.168383
O O1 0.420461 0.195910 0.770238
O O2 0.384635 0.348112 0.663596
O O3 0.273094 0.370120 0.386470
O O4 0.836627 0.447841 0.665117
O O5 0.134379 0.043368 0.656878
O O6 0.279828 0.206707 0.385508
O O7 0.439814 0.025877 0.727708
O O8 0.719963 0.268282 0.688939
O O9 0.500000 0.000000 0.000000
O O10 0.098397 0.950305 0.952376
O O11 0.319645 0.525797 0.757342
O O12 0.118806 0.316846 0.010276
O O13 0.171297 0.392525 0.118789
O O14 0.573682 0.628675 0.165214
O O15 0.085716 0.871849 0.224993
O O16 0.601056 0.852208 0.981882
O O17 0.000000 0.500000 0.000000
#
# Coordination Sequence:
#
# PCOD9079155 Si02
#       8
#     2   2   2   2   2   2   2   2
#     4  10  20  38  60  87 120 163 206 250 311 365
#     4  10  18  36  63  87 122 157 205 258 316 356
#     4   8  15  31  60  86 111 152 200 250 301 360
#     4  10  21  36  60  93 126 152 205 257 318 369
#     4  11  22  36  59  96 123 159 202 261 310 376
#     4  10  21  37  60  89 121 167 213 243 309 375
#     4   9  19  35  64  88 117 166 211 254 301 374
#     4  12  24  39  60  90 131 166 205 255 311 376
#
# _framework density 23.229655999999999
#
# number of rings (size 3 to 8) (size 9 to 14) (size 15 to 20)
#    0.000    2.000    2.500    2.250    1.750    0.000 
#    2.250    0.000   11.000   15.000    0.000    0.000 
#    0.000    0.000    0.000    0.000    0.000    0.000 
#
# Total GULP energy -89148.075077 kJ/mol
# GULP energy per Si atom -5571.754692 kJ/mol
# Density = 2.317678 g / cm^3
# Si number density = 23.229656 Si / 1000 Ang^3
#
#
#
# Elastic Constant Matrix: (Units=GPa)
#
#
# Indices 1 2 3 4 5 6 
#
# 1 83.0410 6.5869 6.7987 -1.6478 0.0644 4.3561
# 2 6.5869 81.7291 12.1813 13.4973 -10.8621 -6.4372
# 3 6.7987 12.1813 91.2406 -3.3365 -12.5883 4.4899
# 4 -1.6478 13.4973 -3.3365 25.7607 3.6594 3.7675
# 5 0.0644 -10.8621 -12.5883 3.6594 26.5628 -6.8690
# 6 4.3561 -6.4372 4.4899 3.7675 -6.8690 36.5870
#
#
#
# Elastic Compliance Matrix: (Units=1/GPa)
#
#
# Indices 1 2 3 4 5 6 
#
# 1 0.012404 -0.001688 -0.000780 0.002191 -0.001980 -0.002275
# 2 -0.001688 0.016038 -0.001478 -0.010844 0.008906 0.005993
# 3 -0.000780 -0.001478 0.011958 0.001764 0.004574 -0.000958
# 4 0.002191 -0.010844 0.001764 0.048103 -0.012748 -0.009732
# 5 -0.001980 0.008906 0.004574 -0.012748 0.048218 0.011607
# 6 -0.002275 0.005993 -0.000958 -0.009732 0.011607 0.031956
#
#
# Mechanical properties :
#
#
# Convention : Reuss Voigt Hill
#
# Bulk Modulus (GPa) = 30.76070 34.12715 32.44393
# Shear Modulus (GPa) = 26.67987 33.14502 29.91245
#
# Velocity S-wave (km/s) = 3.39267 3.78145 3.59232
# Velocity P-wave (km/s) = 5.34955 5.81283 5.58599
#
# Compressibility (1/GPa) = 0.03250901
#
# Stress axis : x y z
#
# Youngs Moduli (GPa) = 80.61696 62.35037 83.62477
#
# Poissons Ratio (x) = 0.10522 0.06523
# Poissons Ratio (y) = 0.13605 0.12362
# Poissons Ratio (z) = 0.06289 0.09217
#
# Static dielectric constant tensor:
#      x y z
#    x 1.955120 -0.003340 -0.059350 
#    y -0.003340 1.948070 0.012660 
#    z -0.059350 0.012660 1.944610 
# 
# From -- ./inp_files/524394.got.cif
#   From: 2010.05.17/outbox.cif.g08.bks.cpg/sg2_263_cif.got.tgz:524394.got - 2010.06.03 11:33:40.
