data_PCOD9079631
_publ_section_title
;
Structure prediction by ZEFSAII (Michael W. Deem and Ramdas Pophale) SiO2 
 PCOD9079631
Probable space group: P -1
;
_chemical_formula_sum "Si O2"
_cell_formula_units_Z 14
_cell_length_a 11.290470
_cell_length_b 7.985331
_cell_length_c 9.290195
_cell_angle_alpha 129.696631
_cell_angle_beta 97.365869
_cell_angle_gamma 68.052990
_cell_volume 590.554657
_symmetry_space_group_name_H-M "P -1"
_symmetry_group_IT_number 2
_symmetry_cell_setting 'triclinic'
loop_
_space_group_symop_operation_xyz
x,y,z
-x,-y,-z
loop_
_atom_site_type_symbol
_atom_site_label
_atom_site_fract_x
_atom_site_fract_y
_atom_site_fract_z
Si Si1 0.243252 0.712154 0.294867
Si Si2 0.566093 0.782838 0.997725
Si Si3 0.064456 0.158620 0.178734
Si Si4 0.933554 0.364206 0.557415
Si Si5 0.394175 0.873112 0.614397
Si Si6 0.325126 0.491626 0.579007
Si Si7 0.304995 0.747504 0.002075
O O1 0.112855 0.748317 0.378495
O O2 0.310947 0.877550 0.463076
O O3 0.247369 0.713805 0.125798
O O4 0.341740 0.444160 0.197519
O O5 0.452143 0.722176 0.017887
O O6 0.636552 0.877300 0.180371
O O7 0.500000 0.000000 0.000000
O O8 0.022238 0.428446 0.270798
O O9 0.029141 0.187309 0.359737
O O10 0.215482 0.014792 0.093206
O O11 0.000000 0.000000 0.000000
O O12 0.803819 0.496293 0.513468
O O13 0.360232 0.700399 0.624897
O O14 0.547904 0.745998 0.541291
O O15 0.296173 0.570744 0.782434
#
# Coordination Sequence:
#
# PCOD9079631 Si02
#       7
#     2   2   2   2   2   2   2
#     4  11  25  40  57  95 132 152 197 254 308 358
#     4  12  21  38  65  90 124 169 206 237 295 364
#     4  11  23  43  69  89 111 159 215 251 295 362
#     4  10  23  42  66  89 115 158 211 248 294 367
#     4  10  20  36  60  89 121 167 197 240 294 363
#     4  10  18  37  62  89 121 157 206 242 290 363
#     4  12  23  39  61  91 129 158 196 262 304 347
#
# _framework density 23.706527000000001
#
# number of rings (size 3 to 8) (size 9 to 14) (size 15 to 20)
#    0.000    1.143    4.286    3.857    0.000    1.143 
#    2.571    0.714    0.000    0.000    0.000    0.000 
#    0.000    0.000    0.000    0.000    0.000    0.000 
#
# Total GULP energy -78341.382787 kJ/mol
# GULP energy per Si atom -5595.813056 kJ/mol
# Density = 2.365257 g / cm^3
# Si number density = 23.706527 Si / 1000 Ang^3
#
#
#
# Elastic Constant Matrix: (Units=GPa)
#
#
# Indices 1 2 3 4 5 6 
#
# 1 80.5718 6.0702 35.0908 11.4809 -12.1937 8.3243
# 2 6.0702 36.1403 15.7135 -2.6185 -3.6938 7.0863
# 3 35.0908 15.7135 156.9491 1.4692 9.8985 12.2959
# 4 11.4809 -2.6185 1.4692 40.5835 7.0477 -10.9134
# 5 -12.1937 -3.6938 9.8985 7.0477 46.0716 1.9897
# 6 8.3243 7.0863 12.2959 -10.9134 1.9897 12.9950
#
#
#
# Elastic Compliance Matrix: (Units=1/GPa)
#
#
# Indices 1 2 3 4 5 6 
#
# 1 0.019128 0.002624 -0.003197 -0.012794 0.008900 -0.022766
# 2 0.002624 0.032963 -0.002385 -0.005732 0.005724 -0.023089
# 3 -0.003197 -0.002385 0.007775 -0.000082 -0.002536 -0.003688
# 4 -0.012794 -0.005732 -0.000082 0.043496 -0.012635 0.049862
# 5 0.008900 0.005724 -0.002536 -0.012635 0.027918 -0.021309
# 6 -0.022766 -0.023089 -0.003688 0.049862 -0.021309 0.152754
#
#
# Mechanical properties :
#
#
# Convention : Reuss Voigt Hill
#
# Bulk Modulus (GPa) = 18.53612 43.04557 30.79084
# Shear Modulus (GPa) = 16.23722 34.38246 25.30984
#
# Velocity S-wave (km/s) = 2.61995 3.81246 3.27101
# Velocity P-wave (km/s) = 4.12167 6.13000 5.22327
#
# Compressibility (1/GPa) = 0.05394873
#
# Stress axis : x y z
#
# Youngs Moduli (GPa) = 52.27891 30.33671 128.61945
#
# Poissons Ratio (x) = -0.07960 0.41125
# Poissons Ratio (y) = -0.13718 0.30680
# Poissons Ratio (z) = 0.16716 0.07236
#
# Static dielectric constant tensor:
#      x y z
#    x 1.893570 -0.008930 0.022520 
#    y -0.008930 1.976300 -0.033740 
#    z 0.022520 -0.033740 1.880590 
# 
# From -- ./inp_files/168314.got.cif
#   From: 2010.05.17/outbox.cif.g08.bks.cpg/sg2_85_cif.got.tgz:168314.got - 2010.06.03 11:33:40.
