data_PCOD9079020
_publ_section_title
;
Structure prediction by ZEFSAII (Michael W. Deem and Ramdas Pophale) SiO2 
 PCOD9079020
Probable space group: P -1
;
_chemical_formula_sum "Si O2"
_cell_formula_units_Z 16
_cell_length_a 19.932147
_cell_length_b 14.729838
_cell_length_c 11.540101
_cell_angle_alpha 27.900168
_cell_angle_beta 29.937165
_cell_angle_gamma 27.945666
_cell_volume 683.660534
_symmetry_space_group_name_H-M "P -1"
_symmetry_group_IT_number 2
_symmetry_cell_setting 'triclinic'
loop_
_space_group_symop_operation_xyz
x,y,z
-x,-y,-z
loop_
_atom_site_type_symbol
_atom_site_label
_atom_site_fract_x
_atom_site_fract_y
_atom_site_fract_z
Si Si1 0.217287 0.472240 0.397611
Si Si2 0.009678 0.671766 0.177062
Si Si3 0.672438 0.328016 0.573916
Si Si4 0.875896 0.435935 0.304121
Si Si5 0.682623 0.372941 0.235259
Si Si6 0.144041 0.976712 0.177401
Si Si7 0.549490 0.240291 0.195268
Si Si8 0.778343 0.091871 0.195706
O O1 0.194095 0.456290 0.588204
O O2 0.392498 0.265632 0.349850
O O3 0.083353 0.458608 0.545044
O O4 0.208482 0.701861 0.112824
O O5 0.193813 0.543197 0.059639
O O6 0.971937 0.792345 0.969967
O O7 0.921983 0.869333 0.179818
O O8 0.746864 0.467234 0.365734
O O9 0.676148 0.328124 0.430572
O O10 0.491571 0.450516 0.743521
O O11 0.779632 0.078303 0.747752
O O12 0.937503 0.174096 0.536121
O O13 0.000000 0.500000 0.000000
O O14 0.753905 0.147970 0.304252
O O15 0.301443 0.869109 0.987112
O O16 0.620190 0.117022 0.349998
O O17 0.500000 0.500000 0.000000
#
# Coordination Sequence:
#
# PCOD9079020 Si02
#       8
#     2   2   2   2   2   2   2   2
#     4  11  20  35  63  92 119 161 199 258 303 353
#     4  11  23  37  60  99 118 154 208 250 310 355
#     4   9  20  38  62  88 115 169 208 233 311 363
#     4  10  18  36  61  90 116 152 205 253 297 355
#     4  11  21  37  61  85 125 168 200 243 297 378
#     4   9  19  37  58  88 117 152 198 254 299 344
#     4   9  14  32  59  83 111 151 196 239 300 346
#     4  10  20  38  58  86 126 160 197 248 310 354
#
# _framework density 23.403428000000002
#
# number of rings (size 3 to 8) (size 9 to 14) (size 15 to 20)
#    0.750    1.250    3.750    3.375    0.000    3.000 
#    0.000    0.000    0.000    2.250    0.000    0.000 
#    0.000    0.000    0.000    0.000    0.000    0.000 
#
# Total GULP energy -89276.306526 kJ/mol
# GULP energy per Si atom -5579.769158 kJ/mol
# Density = 2.335016 g / cm^3
# Si number density = 23.403428 Si / 1000 Ang^3
#
#
#
# Elastic Constant Matrix: (Units=GPa)
#
#
# Indices 1 2 3 4 5 6 
#
# 1 136.7119 45.2970 50.4468 23.4499 -14.7544 4.6241
# 2 45.2970 85.2763 38.9965 32.3534 -14.6062 -8.5705
# 3 50.4468 38.9965 108.7790 9.9396 -12.0726 -13.8437
# 4 23.4499 32.3534 9.9396 34.3005 -2.8096 -1.3064
# 5 -14.7544 -14.6062 -12.0726 -2.8096 44.1693 13.7998
# 6 4.6241 -8.5705 -13.8437 -1.3064 13.7998 37.8268
#
#
#
# Elastic Compliance Matrix: (Units=1/GPa)
#
#
# Indices 1 2 3 4 5 6 
#
# 1 0.010698 -0.002328 -0.004025 -0.003888 0.002858 -0.004485
# 2 -0.002328 0.022915 -0.004832 -0.018248 0.003789 0.001696
# 3 -0.004025 -0.004832 0.012963 0.003677 -0.000563 0.004474
# 4 -0.003888 -0.018248 0.003677 0.047697 -0.003483 0.000605
# 5 0.002858 0.003789 -0.000563 -0.003483 0.027556 -0.009870
# 6 -0.004485 0.001696 0.004474 0.000605 -0.009870 0.032628
#
#
# Mechanical properties :
#
#
# Convention : Reuss Voigt Hill
#
# Bulk Modulus (GPa) = 41.31128 66.69420 54.00274
# Shear Modulus (GPa) = 27.04240 36.32780 31.68510
#
# Velocity S-wave (km/s) = 3.40294 3.94413 3.68348
# Velocity P-wave (km/s) = 5.75587 7.02147 6.41993
#
# Compressibility (1/GPa) = 0.02420646
#
# Stress axis : x y z
#
# Youngs Moduli (GPa) = 93.47178 43.63915 77.14507
#
# Poissons Ratio (x) = 0.10160 0.31052
# Poissons Ratio (y) = 0.21762 0.37273
# Poissons Ratio (z) = 0.37624 0.21084
#
# Static dielectric constant tensor:
#      x y z
#    x 2.006230 0.021320 -0.013300 
#    y 0.021320 1.917350 -0.011730 
#    z -0.013300 -0.011730 1.934930 
# 
# From -- ./inp_files/471850.got.cif
#   From: 2010.05.17/outbox.cif.g08.bks.cpg/sg2_236_cif.got.tgz:471850.got - 2010.06.03 11:33:40.
