data_PCOD9079589
_publ_section_title
;
Structure prediction by ZEFSAII (Michael W. Deem and Ramdas Pophale) SiO2 
 PCOD9079589
Probable space group: P -1
;
_chemical_formula_sum "Si O2"
_cell_formula_units_Z 16
_cell_length_a 12.958334
_cell_length_b 12.031704
_cell_length_c 9.441022
_cell_angle_alpha 106.137208
_cell_angle_beta 125.632876
_cell_angle_gamma 43.517647
_cell_volume 795.840253
_symmetry_space_group_name_H-M "P -1"
_symmetry_group_IT_number 2
_symmetry_cell_setting 'triclinic'
loop_
_space_group_symop_operation_xyz
x,y,z
-x,-y,-z
loop_
_atom_site_type_symbol
_atom_site_label
_atom_site_fract_x
_atom_site_fract_y
_atom_site_fract_z
Si Si1 0.575151 0.973645 0.206583
Si Si2 0.215882 0.371060 0.590739
Si Si3 0.563096 0.838423 0.564008
Si Si4 0.245603 0.720492 0.499563
Si Si5 0.157905 0.017614 0.696392
Si Si6 0.722436 0.182874 0.717826
Si Si7 0.652717 0.455216 0.209021
Si Si8 0.153505 0.863646 0.892399
O O1 0.664198 0.802584 0.289643
O O2 0.432577 0.129951 0.255529
O O3 0.735019 0.958040 0.295553
O O4 0.500000 0.000000 0.000000
O O5 0.261114 0.318945 0.441416
O O6 0.297288 0.443561 0.721317
O O7 0.000000 0.500000 0.500000
O O8 0.408830 0.840676 0.418995
O O9 0.500000 0.000000 0.500000
O O10 0.191636 0.881667 0.578574
O O11 0.318094 0.695606 0.392176
O O12 0.370712 0.569773 0.656178
O O13 0.043329 0.798850 0.368313
O O14 0.217346 0.928446 0.866577
O O15 0.726663 0.215658 0.897344
O O16 0.938558 0.015123 0.805813
O O17 0.826489 0.266619 0.226566
O O18 0.500000 0.500000 0.000000
#
# Coordination Sequence:
#
# PCOD9079589 Si02
#       8
#     2   2   2   2   2   2   2   2
#     4  11  24  40  67  95 125 167 223 272 310 379
#     4  11  26  45  65  92 132 180 213 259 338 399
#     4  10  23  38  63  88 127 168 221 261 312 388
#     4   9  18  33  61  86 118 162 203 254 314 383
#     4   9  17  34  59  89 117 155 208 260 310 369
#     4  10  18  37  61  97 120 156 215 268 319 368
#     4  11  23  38  61  89 131 168 214 256 325 388
#     4   9  21  33  63  94 126 157 206 271 321 378
#
# _framework density 20.104537000000001
#
# number of rings (size 3 to 8) (size 9 to 14) (size 15 to 20)
#    0.000    2.000    1.250    2.250   10.500    0.000 
#    0.000    4.375    0.000    0.000    0.000    0.000 
#    0.000    0.000    0.000    0.000    0.000    0.000 
#
# Total GULP energy -89154.013130 kJ/mol
# GULP energy per Si atom -5572.125821 kJ/mol
# Density = 2.005878 g / cm^3
# Si number density = 20.104537 Si / 1000 Ang^3
#
#
#
# Elastic Constant Matrix: (Units=GPa)
#
#
# Indices 1 2 3 4 5 6 
#
# 1 121.6278 52.2867 54.0398 8.9249 -17.0400 0.1422
# 2 52.2867 89.0500 44.6522 10.3361 -6.9328 -2.0830
# 3 54.0398 44.6522 112.1168 6.2693 -34.0603 -13.8991
# 4 8.9249 10.3361 6.2693 30.5795 -2.1975 -5.0497
# 5 -17.0400 -6.9328 -34.0603 -2.1975 38.4306 6.8980
# 6 0.1422 -2.0830 -13.8991 -5.0497 6.8980 31.2375
#
#
#
# Elastic Compliance Matrix: (Units=1/GPa)
#
#
# Indices 1 2 3 4 5 6 
#
# 1 0.012440 -0.005249 -0.003620 -0.001423 0.001752 -0.002634
# 2 -0.005249 0.017120 -0.005451 -0.003586 -0.004108 -0.000933
# 3 -0.003620 -0.005451 0.016887 0.001059 0.011580 0.004781
# 4 -0.001423 -0.003586 0.001059 0.035111 0.000631 0.005775
# 5 0.001752 -0.004108 0.011580 0.000631 0.036927 -0.003182
# 6 -0.002634 -0.000933 0.004781 0.005775 -0.003182 0.035726
#
#
# Mechanical properties :
#
#
# Convention : Reuss Voigt Hill
#
# Bulk Modulus (GPa) = 56.16331 69.41688 62.79009
# Shear Modulus (GPa) = 26.48504 31.50393 28.99449
#
# Velocity S-wave (km/s) = 3.63349 3.96284 3.80173
# Velocity P-wave (km/s) = 6.75273 7.45263 7.11129
#
# Compressibility (1/GPa) = 0.01780522
#
# Stress axis : x y z
#
# Youngs Moduli (GPa) = 80.38807 58.41261 59.21816
#
# Poissons Ratio (x) = 0.30660 0.21439
# Poissons Ratio (y) = 0.42194 0.32282
# Poissons Ratio (z) = 0.29103 0.31842
#
# Static dielectric constant tensor:
#      x y z
#    x 1.722340 -0.024150 -0.023850 
#    y -0.024150 1.743240 0.001290 
#    z -0.023850 0.001290 1.742690 
# 
# From -- ./inp_files/262717.got.cif
#   From: 2010.05.17/outbox.cif.g08.bks.cpg/sg2_132_cif.got.tgz:262717.got - 2010.06.03 11:33:40.
