data_PCOD9079203
_publ_section_title
;
Structure prediction by ZEFSAII (Michael W. Deem and Ramdas Pophale) SiO2 
 PCOD9079203
Probable space group: P -1
;
_chemical_formula_sum "Si O2"
_cell_formula_units_Z 15
_cell_length_a 16.398114
_cell_length_b 13.287774
_cell_length_c 10.152385
_cell_angle_alpha 34.566360
_cell_angle_beta 123.526661
_cell_angle_gamma 145.880698
_cell_volume 643.174112
_symmetry_space_group_name_H-M "P -1"
_symmetry_group_IT_number 2
_symmetry_cell_setting 'triclinic'
loop_
_space_group_symop_operation_xyz
x,y,z
-x,-y,-z
loop_
_atom_site_type_symbol
_atom_site_label
_atom_site_fract_x
_atom_site_fract_y
_atom_site_fract_z
Si Si1 0.831912 0.325233 0.481970
Si Si2 0.957439 0.801730 0.485459
Si Si3 0.596039 0.111626 0.326009
Si Si4 0.268106 0.503891 0.629282
Si Si5 0.689054 0.642956 0.778819
Si Si6 0.000000 0.500000 0.000000
Si Si7 0.353634 0.252450 0.934577
Si Si8 0.204834 0.071081 0.713017
O O1 0.756713 0.225638 0.374345
O O2 0.809136 0.495125 0.323429
O O3 0.000000 0.500000 0.500000
O O4 0.711235 0.025903 0.773484
O O5 0.835899 0.596968 0.480297
O O6 0.949086 0.627632 0.766685
O O7 0.913400 0.932712 0.360475
O O8 0.141106 0.072888 0.312928
O O9 0.500000 0.000000 0.500000
O O10 0.454032 0.819522 0.431492
O O11 0.649532 0.377568 0.032161
O O12 0.264711 0.290020 0.880256
O O13 0.539586 0.524701 0.838307
O O14 0.701077 0.734154 0.542984
O O15 0.114609 0.759998 0.935237
O O16 0.314112 0.209038 0.791017
#
# Coordination Sequence:
#
# PCOD9079203 Si02
#       8
#     2   2   2   2   2   1   2   2
#     4  11  25  45  69  98 129 177 220 278 333 395
#     4  10  23  42  65  98 135 172 224 275 325 394
#     4  10  22  45  66  91 136 168 219 276 329 394
#     4  10  23  45  65  95 132 171 219 275 331 393
#     4  11  21  42  67  96 135 175 214 276 331 387
#     4  10  18  36  64  88 128 170 214 258 324 384
#     4  11  23  43  67  95 136 170 222 279 332 394
#     4  10  23  42  65  98 134 175 220 276 327 392
#
# _framework density 23.321833000000002
#
# number of rings (size 3 to 8) (size 9 to 14) (size 15 to 20)
#    0.000    1.600    2.667    2.800    3.733    2.133 
#   14.400    1.333    0.000    0.000    0.000    0.000 
#    0.000    0.000    0.000    0.000    0.000    0.000 
#
# Total GULP energy -83554.139958 kJ/mol
# GULP energy per Si atom -5570.275997 kJ/mol
# Density = 2.326875 g / cm^3
# Si number density = 23.321833 Si / 1000 Ang^3
#
#
#
# Elastic Constant Matrix: (Units=GPa)
#
#
# Indices 1 2 3 4 5 6 
#
# 1 48.7355 24.8160 16.2000 -10.2353 8.4259 11.4926
# 2 24.8160 150.9008 35.1490 -15.7491 10.1782 22.6317
# 3 16.2000 35.1490 85.5507 6.4543 9.3508 -3.0899
# 4 -10.2353 -15.7491 6.4543 35.0182 0.4802 4.5928
# 5 8.4259 10.1782 9.3508 0.4802 13.7661 -9.6709
# 6 11.4926 22.6317 -3.0899 4.5928 -9.6709 34.0897
#
#
#
# Elastic Compliance Matrix: (Units=1/GPa)
#
#
# Indices 1 2 3 4 5 6 
#
# 1 0.042165 0.006166 -0.007874 0.022056 -0.051503 -0.036604
# 2 0.006166 0.012350 -0.005254 0.011096 -0.022890 -0.018742
# 3 -0.007874 -0.005254 0.015783 -0.009010 0.005584 0.010371
# 4 0.022056 0.011096 -0.009010 0.046599 -0.040705 -0.033445
# 5 -0.051503 -0.022890 0.005584 -0.040705 0.182088 0.090206
# 6 -0.036604 -0.018742 0.010371 -0.033445 0.090206 0.085154
#
#
# Mechanical properties :
#
#
# Convention : Reuss Voigt Hill
#
# Bulk Modulus (GPa) = 17.73914 48.61299 33.17607
# Shear Modulus (GPa) = 11.99462 30.50961 21.25211
#
# Velocity S-wave (km/s) = 2.27030 3.62083 3.02197
# Velocity P-wave (km/s) = 3.80724 6.19437 5.14127
#
# Compressibility (1/GPa) = 0.05637251
#
# Stress axis : x y z
#
# Youngs Moduli (GPa) = 23.71619 80.97457 63.36087
#
# Poissons Ratio (x) = -0.49925 0.49893
# Poissons Ratio (y) = -0.14622 0.33288
# Poissons Ratio (z) = 0.18675 0.42541
#
# Static dielectric constant tensor:
#      x y z
#    x 1.961220 -0.034470 -0.028900 
#    y -0.034470 1.982370 -0.019510 
#    z -0.028900 -0.019510 1.820040 
# 
# From -- ./inp_files/465742.got.cif
#   From: 2010.05.17/outbox.cif.g08.bks.cpg/sg2_233_cif.got.tgz:465742.got - 2010.06.03 11:33:40.
