data_PCOD9080506
_publ_section_title
;
Structure prediction by ZEFSAII (Michael W. Deem and Ramdas Pophale) SiO2 
 PCOD9080506
Probable space group: P -1
;
_chemical_formula_sum "Si O2"
_cell_formula_units_Z 12
_cell_length_a 10.150296
_cell_length_b 9.799810
_cell_length_c 7.256274
_cell_angle_alpha 47.305300
_cell_angle_beta 76.590324
_cell_angle_gamma 86.114682
_cell_volume 511.975868
_symmetry_space_group_name_H-M "P -1"
_symmetry_group_IT_number 2
_symmetry_cell_setting 'triclinic'
loop_
_space_group_symop_operation_xyz
x,y,z
-x,-y,-z
loop_
_atom_site_type_symbol
_atom_site_label
_atom_site_fract_x
_atom_site_fract_y
_atom_site_fract_z
Si Si1 0.656516 0.542971 0.460726
Si Si2 0.343081 0.532613 0.049643
Si Si3 0.066903 0.364620 0.332273
Si Si4 0.214174 0.046277 0.032064
Si Si5 0.772944 0.259622 0.413352
Si Si6 0.964880 0.226746 0.892800
O O1 0.500000 0.500000 0.500000
O O2 0.674525 0.461280 0.731444
O O3 0.743500 0.432620 0.394872
O O4 0.694407 0.765487 0.229159
O O5 0.217997 0.366199 0.196718
O O6 0.500000 0.500000 0.000000
O O7 0.307903 0.705185 0.777966
O O8 0.056506 0.583314 0.175170
O O9 0.937530 0.279858 0.332282
O O10 0.042070 0.278454 0.623993
O O11 0.271113 0.929421 0.285087
O O12 0.170883 0.904165 0.006943
O O13 0.068681 0.113720 0.071666
#
# Coordination Sequence:
#
# PCOD9080506 Si02
#       6
#     2   2   2   2   2   2
#     4  12  24  46  69  91 136 182 214 271 334 395
#     4  12  24  42  65  99 136 178 220 268 331 397
#     4  10  18  39  69  96 132 173 219 271 330 391
#     4  10  20  38  68 103 127 168 229 270 332 388
#     4  11  24  43  70 103 128 172 226 276 328 390
#     4   9  17  35  70 101 125 170 222 276 326 386
#
# _framework density 23.438604999999999
#
# number of rings (size 3 to 8) (size 9 to 14) (size 15 to 20)
#    0.000    1.333    5.000    2.500    0.000    0.667 
#    0.000    5.000    0.000    0.000    0.000    0.000 
#    0.000    0.000    0.000    0.000    0.000    0.000 
#
# Total GULP energy -67043.563771 kJ/mol
# GULP energy per Si atom -5586.963648 kJ/mol
# Density = 2.338526 g / cm^3
# Si number density = 23.438605 Si / 1000 Ang^3
#
#
#
# Elastic Constant Matrix: (Units=GPa)
#
#
# Indices 1 2 3 4 5 6 
#
# 1 150.5684 3.7975 56.8664 4.7422 6.1807 12.9056
# 2 3.7975 45.4316 47.8174 -4.5428 4.4520 2.4132
# 3 56.8664 47.8174 135.4394 -2.1502 25.5819 13.5931
# 4 4.7422 -4.5428 -2.1502 45.1924 6.7053 1.6251
# 5 6.1807 4.4520 25.5819 6.7053 60.8848 9.9133
# 6 12.9056 2.4132 13.5931 1.6251 9.9133 25.6654
#
#
#
# Elastic Compliance Matrix: (Units=1/GPa)
#
#
# Indices 1 2 3 4 5 6 
#
# 1 0.008762 0.004925 -0.005471 -0.000824 0.001550 -0.002518
# 2 0.004925 0.038718 -0.016421 0.002084 0.003138 0.001236
# 3 -0.005471 -0.016421 0.016676 0.000536 -0.004872 -0.002690
# 4 -0.000824 0.002084 0.000536 0.022872 -0.002739 -0.000456
# 5 0.001550 0.003138 -0.004872 -0.002739 0.019328 -0.005786
# 6 -0.002518 0.001236 -0.002690 -0.000456 -0.005786 0.043801
#
#
# Mechanical properties :
#
#
# Convention : Reuss Voigt Hill
#
# Bulk Modulus (GPa) = 33.08752 60.93355 47.01054
# Shear Modulus (GPa) = 25.75127 41.21239 33.48183
#
# Velocity S-wave (km/s) = 3.31821 4.19777 3.78364
# Velocity P-wave (km/s) = 5.36918 7.03908 6.26006
#
# Compressibility (1/GPa) = 0.03022287
#
# Stress axis : x y z
#
# Youngs Moduli (GPa) = 114.13525 25.82769 59.96473
#
# Poissons Ratio (x) = -0.12720 0.32804
# Poissons Ratio (y) = -0.56211 0.98468
# Poissons Ratio (z) = 0.62438 0.42412
#
# Static dielectric constant tensor:
#      x y z
#    x 1.971860 0.011660 -0.002240 
#    y 0.011660 1.913990 0.037390 
#    z -0.002240 0.037390 1.936490 
# 
# From -- ./inp_files/255761.got.cif
#   From: 2010.05.17/outbox.cif.g08.bks.cpg/sg2_128_cif.got.tgz:255761.got - 2010.06.03 11:33:40.
