data_PCOD9080650
_publ_section_title
;
Structure prediction by ZEFSAII (Michael W. Deem and Ramdas Pophale) SiO2 
 PCOD9080650
Probable space group: P -1
;
_chemical_formula_sum "Si O2"
_cell_formula_units_Z 13
_cell_length_a 15.876007
_cell_length_b 13.832292
_cell_length_c 11.983711
_cell_angle_alpha 42.715315
_cell_angle_beta 25.550835
_cell_angle_gamma 29.180034
_cell_volume 535.557343
_symmetry_space_group_name_H-M "P -1"
_symmetry_group_IT_number 2
_symmetry_cell_setting 'triclinic'
loop_
_space_group_symop_operation_xyz
x,y,z
-x,-y,-z
loop_
_atom_site_type_symbol
_atom_site_label
_atom_site_fract_x
_atom_site_fract_y
_atom_site_fract_z
Si Si1 0.000000 0.500000 0.000000
Si Si2 0.742381 0.849459 0.245012
Si Si3 0.654042 0.442866 0.749850
Si Si4 0.462682 0.187672 0.906597
Si Si5 0.490422 0.713321 0.534017
Si Si6 0.074954 0.462337 0.311867
Si Si7 0.018473 0.977606 0.696594
O O1 0.209161 0.358684 0.979133
O O2 0.240045 0.490830 0.679815
O O3 0.632781 0.787193 0.342091
O O4 0.988891 0.653379 0.191778
O O5 0.500000 0.000000 0.500000
O O6 0.850834 0.923237 0.978261
O O7 0.438816 0.629971 0.764218
O O8 0.882081 0.443383 0.502647
O O9 0.500000 0.500000 0.000000
O O10 0.807778 0.217853 0.725610
O O11 0.739117 0.134791 0.591172
O O12 0.377536 0.261915 0.073335
O O13 0.500000 0.000000 0.000000
O O14 0.215784 0.896260 0.639580
O O15 0.000000 0.500000 0.500000
#
# Coordination Sequence:
#
# PCOD9080650 Si02
#       7
#     1   2   2   2   2   2   2
#     4  10  18  40  68  94 128 182 224 286 350 412
#     4  11  25  44  65 105 144 180 240 298 351 433
#     4  11  23  43  64  98 138 182 237 284 352 434
#     4  11  21  44  74  99 140 189 239 292 360 431
#     4  10  23  43  66  96 139 175 233 293 347 419
#     4  11  25  44  66 102 145 182 229 301 360 417
#     4  11  24  42  76 100 131 196 238 286 368 419
#
# _framework density 24.273776999999999
#
# number of rings (size 3 to 8) (size 9 to 14) (size 15 to 20)
#    0.000    1.231    4.615    1.846    4.308    1.846 
#    0.000    0.000    0.000    6.462    0.000    0.000 
#    0.000    0.000    0.000    0.000    0.000    0.000 
#
# Total GULP energy -72397.205134 kJ/mol
# GULP energy per Si atom -5569.015780 kJ/mol
# Density = 2.421853 g / cm^3
# Si number density = 24.273777 Si / 1000 Ang^3
#
#
#
# Elastic Constant Matrix: (Units=GPa)
#
#
# Indices 1 2 3 4 5 6 
#
# 1 86.6737 44.7783 39.6853 -9.1119 -5.2467 -12.8645
# 2 44.7783 -2.9034 0.1350 -20.9419 -27.1073 54.1064
# 3 39.6853 0.1350 144.4846 -20.2874 -0.4852 39.0365
# 4 -9.1119 -20.9419 -20.2874 40.1563 0.0460 8.2401
# 5 -5.2467 -27.1073 -0.4852 0.0460 46.6944 12.7685
# 6 -12.8645 54.1064 39.0365 8.2401 12.7685 -1.3943
#
#
#
# Elastic Compliance Matrix: (Units=1/GPa)
#
#
# Indices 1 2 3 4 5 6 
#
# 1 0.010932 0.001645 -0.000928 0.004006 0.003689 -0.005558
# 2 0.001645 0.005174 -0.005104 -0.002741 -0.001172 0.015763
# 3 -0.000928 -0.005104 0.007464 0.001015 -0.002839 -0.000554
# 4 0.004006 -0.002741 0.001015 0.023954 -0.002411 0.004599
# 5 0.003689 -0.001172 -0.002839 -0.002411 0.019550 0.005752
# 6 -0.005558 0.015763 -0.000554 0.004599 0.005752 0.010109
#
#
# Mechanical properties :
#
#
# Convention : Reuss Voigt Hill
#
# Bulk Modulus (GPa) = 67.59063 44.16136 55.87599
# Shear Modulus (GPa) = 55.01235 26.66836 40.84036
#
# Velocity S-wave (km/s) = 4.76576 3.31818 4.10627
# Velocity P-wave (km/s) = 7.62816 5.73698 6.74914
#
# Compressibility (1/GPa) = 0.01479495
#
# Stress axis : x y z
#
# Youngs Moduli (GPa) = 91.47332 193.27910 133.98526
#
# Poissons Ratio (x) = -0.31788 0.12430
# Poissons Ratio (y) = -0.15044 0.68389
# Poissons Ratio (z) = 0.08486 0.98654
#
# Static dielectric constant tensor:
#      x y z
#    x 1.976780 -0.000870 0.020690 
#    y -0.000870 1.876810 -0.090070 
#    z 0.020690 -0.090070 2.089150 
# 
# From -- ./inp_files/541393.got.cif
#   From: 2010.05.17/outbox.cif.g08.bks.cpg/sg2_271_cif.got.tgz:541393.got - 2010.06.03 11:33:40.
