data_PCOD9080966
_publ_section_title
;
Structure prediction by ZEFSAII (Michael W. Deem and Ramdas Pophale) SiO2 
 PCOD9080966
Probable space group: P -1
;
_chemical_formula_sum "Si O2"
_cell_formula_units_Z 14
_cell_length_a 18.371250
_cell_length_b 9.393230
_cell_length_c 9.277513
_cell_angle_alpha 46.079402
_cell_angle_beta 28.465836
_cell_angle_gamma 43.632556
_cell_volume 518.472941
_symmetry_space_group_name_H-M "P -1"
_symmetry_group_IT_number 2
_symmetry_cell_setting 'triclinic'
loop_
_space_group_symop_operation_xyz
x,y,z
-x,-y,-z
loop_
_atom_site_type_symbol
_atom_site_label
_atom_site_fract_x
_atom_site_fract_y
_atom_site_fract_z
Si Si1 0.476309 0.776903 0.696057
Si Si2 0.031723 0.258647 0.371275
Si Si3 0.830422 0.097577 0.054280
Si Si4 0.398923 0.730080 0.457388
Si Si5 0.276799 0.574455 0.363353
Si Si6 0.661324 0.940079 0.889785
Si Si7 0.829640 0.688523 0.486942
O O1 0.340620 0.794151 0.802046
O O2 0.646065 0.584839 0.529667
O O3 0.500000 0.000000 0.500000
O O4 0.386271 0.713221 0.033484
O O5 0.915683 0.292725 0.408104
O O6 0.992167 0.489717 0.344914
O O7 0.220139 0.135170 0.128100
O O8 0.961812 0.136375 0.697266
O O9 0.784979 0.214061 0.204229
O O10 0.854957 0.861037 0.216078
O O11 0.500000 0.500000 0.500000
O O12 0.374639 0.824041 0.271301
O O13 0.500444 0.880112 0.232771
O O14 0.286448 0.416324 0.320784
O O15 0.756438 0.792485 0.692360
#
# Coordination Sequence:
#
# PCOD9080966 Si02
#       7
#     2   2   2   2   2   2   2
#     4  10  15  29  47  71 102 127 153 207 247 288
#     4   9  18  31  49  74 100 129 160 204 246 293
#     4  10  19  31  51  76 101 126 169 201 246 283
#     4  10  22  35  48  71 100 137 167 199 234 299
#     4   8  18  26  44  76  98 122 156 196 253 285
#     4  10  20  34  50  69 104 134 164 195 249 288
#     4   9  17  29  47  76  99 126 159 205 242 296
#
# _framework density 27.002374
#
# number of rings (size 3 to 8) (size 9 to 14) (size 15 to 20)
#    0.857    1.714    1.429    1.286    0.000    3.429 
#    0.000    0.000    0.000    0.857    0.000    5.000 
#    0.000    0.000    0.000    0.000    0.000    0.000 
#
# Total GULP energy -78161.433124 kJ/mol
# GULP energy per Si atom -5582.959509 kJ/mol
# Density = 2.694092 g / cm^3
# Si number density = 27.002374 Si / 1000 Ang^3
#
#
#
# Elastic Constant Matrix: (Units=GPa)
#
#
# Indices 1 2 3 4 5 6 
#
# 1 58.4742 36.0179 39.5063 6.1594 -6.0899 -17.0957
# 2 36.0179 191.9963 59.4780 -31.5467 0.7530 -25.7013
# 3 39.5063 59.4780 83.8329 -24.9866 -5.8795 -18.0950
# 4 6.1594 -31.5467 -24.9866 50.8382 -14.9677 -6.1346
# 5 -6.0899 0.7530 -5.8795 -14.9677 40.6712 10.6471
# 6 -17.0957 -25.7013 -18.0950 -6.1346 10.6471 57.6827
#
#
#
# Elastic Compliance Matrix: (Units=1/GPa)
#
#
# Indices 1 2 3 4 5 6 
#
# 1 0.032675 -0.002875 -0.017801 -0.015378 -0.003779 0.001881
# 2 -0.002875 0.007398 -0.002178 0.004154 0.000074 0.002189
# 3 -0.017801 -0.002178 0.028084 0.017009 0.006882 0.003103
# 4 -0.015378 0.004154 0.017009 0.036650 0.012461 0.004227
# 5 -0.003779 0.000074 0.006882 0.012461 0.030444 -0.003223
# 6 0.001881 0.002189 0.003103 0.004227 -0.003223 0.020887
#
#
# Mechanical properties :
#
#
# Convention : Reuss Voigt Hill
#
# Bulk Modulus (GPa) = 44.54381 67.14532 55.84457
# Shear Modulus (GPa) = 23.88586 43.12517 33.50551
#
# Velocity S-wave (km/s) = 2.97742 4.00069 3.52637
# Velocity P-wave (km/s) = 5.32467 6.80156 6.10792
#
# Compressibility (1/GPa) = 0.02244981
#
# Stress axis : x y z
#
# Youngs Moduli (GPa) = 30.60414 135.17458 35.60745
#
# Poissons Ratio (x) = 0.38869 0.63383
# Poissons Ratio (y) = 0.08800 0.07754
# Poissons Ratio (z) = 0.54477 0.29436
#
# Static dielectric constant tensor:
#      x y z
#    x 2.315730 0.074560 0.046560 
#    y 0.074560 2.244270 0.067420 
#    z 0.046560 0.067420 2.061050 
# 
# From -- ./inp_files/544005.got.cif
#   From: 2010.05.17/outbox.cif.g08.bks.cpg/sg2_273_cif.got.tgz:544005.got - 2010.06.03 11:33:40.
