data_PCOD9080168
_publ_section_title
;
Structure prediction by ZEFSAII (Michael W. Deem and Ramdas Pophale) SiO2 
 PCOD9080168
Probable space group: P -1
;
_chemical_formula_sum "Si O2"
_cell_formula_units_Z 16
_cell_length_a 15.483150
_cell_length_b 14.424377
_cell_length_c 8.723227
_cell_angle_alpha 55.945322
_cell_angle_beta 147.700306
_cell_angle_gamma 122.787462
_cell_volume 852.193342
_symmetry_space_group_name_H-M "P -1"
_symmetry_group_IT_number 2
_symmetry_cell_setting 'triclinic'
loop_
_space_group_symop_operation_xyz
x,y,z
-x,-y,-z
loop_
_atom_site_type_symbol
_atom_site_label
_atom_site_fract_x
_atom_site_fract_y
_atom_site_fract_z
Si Si1 0.872478 0.079579 0.176520
Si Si2 0.383533 0.311542 0.675314
Si Si3 0.946738 0.910821 0.869406
Si Si4 0.364422 0.053627 0.839443
Si Si5 0.041684 0.535825 0.280458
Si Si6 0.025441 0.326315 0.250620
Si Si7 0.782252 0.661487 0.918457
Si Si8 0.378136 0.510732 0.944882
O O1 0.923303 0.202079 0.215836
O O2 0.910041 0.092944 0.038903
O O3 0.700306 0.020195 0.040147
O O4 0.000000 0.000000 0.500000
O O5 0.421339 0.183748 0.853148
O O6 0.335783 0.338112 0.405508
O O7 0.215732 0.315853 0.515325
O O8 0.526134 0.404362 0.866734
O O9 0.791593 0.941923 0.511515
O O10 0.886531 0.786301 0.964083
O O11 0.000000 0.000000 0.000000
O O12 0.500000 0.000000 0.000000
O O13 0.219503 0.557089 0.600850
O O14 0.007865 0.405562 0.295451
O O15 0.032527 0.610137 0.044291
O O16 0.905408 0.572460 0.151851
O O17 0.679723 0.612962 0.955174
O O18 0.500000 0.500000 0.000000
#
# Coordination Sequence:
#
# PCOD9080168 Si02
#       8
#     2   2   2   2   2   2   2   2
#     4  10  18  38  67  85 112 162 203 238 288 360
#     4  10  20  41  59  83 123 157 190 243 301 355
#     4  10  21  39  63  86 117 157 200 245 295 347
#     4  10  22  39  60  90 119 152 199 242 297 353
#     4  10  21  37  61  88 115 153 198 248 285 353
#     4  10  18  38  65  85 115 155 202 237 295 356
#     4  10  22  42  58  84 123 157 200 242 294 360
#     4  12  24  36  58  89 121 155 196 243 302 345
#
# _framework density 18.775084
#
# number of rings (size 3 to 8) (size 9 to 14) (size 15 to 20)
#    0.000    1.750    6.250    0.750    0.000    5.000 
#    4.500    0.625    0.000    0.000    0.000    0.000 
#    0.000    0.000    0.000    0.000    0.000    0.000 
#
# Total GULP energy -89295.295680 kJ/mol
# GULP energy per Si atom -5580.955980 kJ/mol
# Density = 1.873235 g / cm^3
# Si number density = 18.775084 Si / 1000 Ang^3
#
#
#
# Elastic Constant Matrix: (Units=GPa)
#
#
# Indices 1 2 3 4 5 6 
#
# 1 119.1616 70.5897 24.0799 -3.3069 12.5288 15.7817
# 2 70.5897 136.4864 35.2027 -10.3117 -3.3167 -4.2007
# 3 24.0799 35.2027 48.4017 2.4333 7.4300 -2.1522
# 4 -3.3069 -10.3117 2.4333 22.5756 -10.9855 -1.5481
# 5 12.5288 -3.3167 7.4300 -10.9855 17.1413 3.3126
# 6 15.7817 -4.2007 -2.1522 -1.5481 3.3126 35.9630
#
#
#
# Elastic Compliance Matrix: (Units=1/GPa)
#
#
# Indices 1 2 3 4 5 6 
#
# 1 0.018936 -0.013653 0.005679 -0.019033 -0.029663 -0.007652
# 2 -0.013653 0.021905 -0.016341 0.029061 0.038912 0.005239
# 3 0.005679 -0.016341 0.038275 -0.032558 -0.044889 0.000623
# 4 -0.019033 0.029061 -0.032558 0.108313 0.102085 0.005058
# 5 -0.029663 0.038912 -0.044889 0.102085 0.171764 0.003449
# 6 -0.007652 0.005239 0.000623 0.005058 0.003449 0.031713
#
#
# Mechanical properties :
#
#
# Convention : Reuss Voigt Hill
#
# Bulk Modulus (GPa) = 32.80038 62.64381 47.72210
# Shear Modulus (GPa) = 11.11859 26.74781 18.93320
#
# Velocity S-wave (km/s) = 2.43615 3.77854 3.17901
# Velocity P-wave (km/s) = 5.04195 7.24392 6.24082
#
# Compressibility (1/GPa) = 0.03048745
#
# Stress axis : x y z
#
# Youngs Moduli (GPa) = 52.80954 45.65209 26.12675
#
# Poissons Ratio (x) = 0.62327 -0.14838
# Poissons Ratio (y) = 0.72099 0.42693
# Poissons Ratio (z) = -0.29991 0.74598
#
# Static dielectric constant tensor:
#      x y z
#    x 1.689640 0.018810 -0.004100 
#    y 0.018810 1.648510 -0.003100 
#    z -0.004100 -0.003100 1.643760 
# 
# From -- ./inp_files/237167.got.cif
#   From: 2010.05.17/outbox.cif.g08.bks.cpg/sg2_119_cif.got.tgz:237167.got - 2010.06.03 11:33:40.
