data_PCOD9080837
_publ_section_title
;
Structure prediction by ZEFSAII (Michael W. Deem and Ramdas Pophale) SiO2 
 PCOD9080837
Probable space group: P -1
;
_chemical_formula_sum "Si O2"
_cell_formula_units_Z 14
_cell_length_a 5.263551
_cell_length_b 15.599073
_cell_length_c 10.531986
_cell_angle_alpha 124.035243
_cell_angle_beta 124.918474
_cell_angle_gamma 70.674099
_cell_volume 587.524395
_symmetry_space_group_name_H-M "P -1"
_symmetry_group_IT_number 2
_symmetry_cell_setting 'triclinic'
loop_
_space_group_symop_operation_xyz
x,y,z
-x,-y,-z
loop_
_atom_site_type_symbol
_atom_site_label
_atom_site_fract_x
_atom_site_fract_y
_atom_site_fract_z
Si Si1 0.564666 0.389717 0.361008
Si Si2 0.670077 0.203986 0.863262
Si Si3 0.216930 0.518985 0.197904
Si Si4 0.365356 0.399856 0.803713
Si Si5 0.744272 0.909000 0.162146
Si Si6 0.120700 0.925391 0.854922
Si Si7 0.912220 0.724767 0.719402
O O1 0.500000 0.500000 0.500000
O O2 0.334918 0.408696 0.190077
O O3 0.893783 0.362315 0.373082
O O4 0.410485 0.306767 0.339010
O O5 0.481183 0.296449 0.819148
O O6 0.437470 0.117102 0.781468
O O7 0.945519 0.160188 0.816995
O O8 0.861237 0.247258 0.074395
O O9 0.495249 0.587387 0.284804
O O10 0.000526 0.582700 0.284386
O O11 0.000000 0.500000 0.000000
O O12 0.500000 0.500000 0.000000
O O13 0.858442 0.018506 0.228324
O O14 0.470318 0.889020 0.963228
O O15 0.903237 0.826874 0.715267
O O16 0.000000 0.000000 0.000000
#
# Coordination Sequence:
#
# PCOD9080837 Si02
#       7
#     2   2   2   2   2   2   2
#     4  12  25  39  54  81 115 154 194 223 263 335
#     4  11  19  31  50  78 110 146 180 216 290 331
#     4  10  19  35  54  74 105 142 181 233 273 309
#     4  10  19  30  47  74 102 135 178 222 264 324
#     4  10  19  29  46  73 114 144 168 232 275 351
#     4  10  19  32  48  78 110 144 188 224 285 343
#     4  11  21  34  56  73 109 158 180 225 281 330
#
# _framework density 23.828797999999999
#
# number of rings (size 3 to 8) (size 9 to 14) (size 15 to 20)
#    0.000    1.429    2.857    7.286    2.000    0.000 
#    0.000    0.000    0.000    0.000    0.000    0.000 
#    0.000   22.857    0.000    0.000    0.000    0.000 
#
# Total GULP energy -78168.730916 kJ/mol
# GULP energy per Si atom -5583.480780 kJ/mol
# Density = 2.377456 g / cm^3
# Si number density = 23.828798 Si / 1000 Ang^3
#
#
#
# Elastic Constant Matrix: (Units=GPa)
#
#
# Indices 1 2 3 4 5 6 
#
# 1 181.1017 37.3627 -6.3440 -0.0124 11.2107 5.3409
# 2 37.3627 110.9551 -8.7851 13.0544 20.3252 10.8903
# 3 -6.3440 -8.7851 16.8233 -2.8776 -0.6351 1.2252
# 4 -0.0124 13.0544 -2.8776 18.7329 2.9106 4.3448
# 5 11.2107 20.3252 -0.6351 2.9106 24.0406 8.0934
# 6 5.3409 10.8903 1.2252 4.3448 8.0934 53.1765
#
#
#
# Elastic Compliance Matrix: (Units=1/GPa)
#
#
# Indices 1 2 3 4 5 6 
#
# 1 0.006050 -0.001854 0.001584 0.001798 -0.001361 -0.000204
# 2 -0.001854 0.012359 0.004372 -0.006481 -0.008474 -0.000626
# 3 0.001584 0.004372 0.063753 0.007814 -0.002775 -0.002740
# 4 0.001798 -0.006481 0.007814 0.060156 -0.001167 -0.003771
# 5 -0.001361 -0.008474 -0.002775 -0.001167 0.051413 -0.005794
# 6 -0.000204 -0.000626 -0.002740 -0.003771 -0.005794 0.020207
#
#
# Mechanical properties :
#
#
# Convention : Reuss Voigt Hill
#
# Bulk Modulus (GPa) = 11.06589 39.26079 25.16334
# Shear Modulus (GPa) = 21.19928 38.29974 29.74951
#
# Velocity S-wave (km/s) = 2.98594 4.01345 3.53720
# Velocity P-wave (km/s) = 4.06715 6.16352 5.22162
#
# Compressibility (1/GPa) = 0.09036781
#
# Stress axis : x y z
#
# Youngs Moduli (GPa) = 165.28466 80.91016 15.68543
#
# Poissons Ratio (x) = 0.15002 -0.02485
# Poissons Ratio (y) = 0.30646 -0.06858
# Poissons Ratio (z) = -0.26187 -0.35375
#
# Static dielectric constant tensor:
#      x y z
#    x 2.017530 0.040610 -0.060840 
#    y 0.040610 1.966620 -0.025030 
#    z -0.060840 -0.025030 1.533420 
# 
# From -- ./inp_files/367197.got.cif
#   From: 2010.05.17/outbox.cif.g08.bks.cpg/sg2_184_cif.got.tgz:367197.got - 2010.06.03 11:33:40.
