data_PCOD9080167
_publ_section_title
;
Structure prediction by ZEFSAII (Michael W. Deem and Ramdas Pophale) SiO2 
 PCOD9080167
Probable space group: P -1
;
_chemical_formula_sum "Si O2"
_cell_formula_units_Z 16
_cell_length_a 8.479564
_cell_length_b 18.222994
_cell_length_c 5.641416
_cell_angle_alpha 117.638504
_cell_angle_beta 96.770987
_cell_angle_gamma 56.476419
_cell_volume 632.410688
_symmetry_space_group_name_H-M "P -1"
_symmetry_group_IT_number 2
_symmetry_cell_setting 'triclinic'
loop_
_space_group_symop_operation_xyz
x,y,z
-x,-y,-z
loop_
_atom_site_type_symbol
_atom_site_label
_atom_site_fract_x
_atom_site_fract_y
_atom_site_fract_z
Si Si1 0.409163 0.872122 0.496576
Si Si2 0.694906 0.309062 0.433806
Si Si3 0.996310 0.324417 0.707402
Si Si4 0.967082 0.078164 0.309299
Si Si5 0.498110 0.338640 0.941320
Si Si6 0.749496 0.881758 0.352439
Si Si7 0.873748 0.584293 0.795319
Si Si8 0.315308 0.206083 0.192255
O O1 0.180951 0.922301 0.533632
O O2 0.484942 0.765695 0.233991
O O3 0.547454 0.904780 0.463768
O O4 0.470985 0.852252 0.754799
O O5 0.813151 0.357538 0.571862
O O6 0.844264 0.189867 0.335185
O O7 0.550889 0.350465 0.699491
O O8 0.622470 0.327202 0.178036
O O9 0.057448 0.233788 0.764414
O O10 0.176296 0.260297 0.470102
O O11 0.997564 0.407178 0.977096
O O12 0.162646 0.062026 0.428242
O O13 0.000000 0.000000 0.000000
O O14 0.283674 0.423191 0.109225
O O15 0.712114 0.875065 0.057890
O O16 0.748170 0.695249 0.819926
O O17 0.000000 0.500000 0.500000
#
# Coordination Sequence:
#
# PCOD9080167 Si02
#       8
#     2   2   2   2   2   2   2   2
#     4  10  20  37  63  85 118 167 213 252 306 379
#     4  10  24  40  69  86 122 166 217 250 307 376
#     4   9  20  37  59  88 114 164 208 255 303 373
#     4  10  22  39  59  94 128 160 207 267 323 365
#     4  11  21  41  64  93 116 167 213 252 303 387
#     4   9  19  36  61  86 117 162 215 252 307 379
#     4  11  22  36  60  93 124 157 203 262 318 368
#     4  10  18  38  65  84 121 162 217 250 305 384
#
# _framework density 25.300014999999998
#
# number of rings (size 3 to 8) (size 9 to 14) (size 15 to 20)
#    0.000    2.000    3.750    1.500    7.000    1.000 
#    0.000    4.375    0.000    0.000    0.000    0.000 
#    0.000    0.000    0.000    0.000    0.000    0.000 
#
# Total GULP energy -89233.035202 kJ/mol
# GULP energy per Si atom -5577.064700 kJ/mol
# Density = 2.524243 g / cm^3
# Si number density = 25.300015 Si / 1000 Ang^3
#
#
#
# Elastic Constant Matrix: (Units=GPa)
#
#
# Indices 1 2 3 4 5 6 
#
# 1 132.9895 28.9510 74.0475 5.0612 35.7442 -35.6088
# 2 28.9510 56.9413 13.0703 -8.0217 12.1858 -6.1153
# 3 74.0475 13.0703 191.4451 3.8832 26.9443 -30.7219
# 4 5.0612 -8.0217 3.8832 37.6193 -15.1014 4.2723
# 5 35.7442 12.1858 26.9443 -15.1014 54.2714 -4.7493
# 6 -35.6088 -6.1153 -30.7219 4.2723 -4.7493 24.6029
#
#
#
# Elastic Compliance Matrix: (Units=1/GPa)
#
#
# Indices 1 2 3 4 5 6 
#
# 1 0.020306 -0.006271 -0.001293 -0.011834 -0.012351 0.025887
# 2 -0.006271 0.020947 0.000000 0.006143 0.000716 -0.004798
# 3 -0.001293 0.000000 0.007330 -0.002548 -0.002869 0.007169
# 4 -0.011834 0.006143 -0.002548 0.038931 0.016557 -0.022347
# 5 -0.012351 0.000716 -0.002869 0.016557 0.030838 -0.018203
# 6 0.025887 -0.004798 0.007169 -0.022347 -0.018203 0.086239
#
#
# Mechanical properties :
#
#
# Convention : Reuss Voigt Hill
#
# Bulk Modulus (GPa) = 29.89178 68.16817 49.02998
# Shear Modulus (GPa) = 21.65698 40.98587 31.32142
#
# Velocity S-wave (km/s) = 2.92893 4.02928 3.52234
# Velocity P-wave (km/s) = 4.82481 6.97490 5.99700
#
# Compressibility (1/GPa) = 0.03345401
#
# Stress axis : x y z
#
# Youngs Moduli (GPa) = 49.24612 47.73911 136.43233
#
# Poissons Ratio (x) = 0.29938 0.17646
# Poissons Ratio (y) = 0.30883 -0.00001
# Poissons Ratio (z) = 0.06369 0.00000
#
# Static dielectric constant tensor:
#      x y z
#    x 2.152310 0.143480 -0.099250 
#    y 0.143480 2.289060 -0.216480 
#    z -0.099250 -0.216480 2.230040 
# 
# From -- ./inp_files/52436.got.cif
#   From: 2010.05.17/outbox.cif.g08.bks.cpg/sg2_27_cif.got.tgz:52436.got - 2010.06.03 11:33:40.
