data_PCOD9080847
_publ_section_title
;
Structure prediction by ZEFSAII (Michael W. Deem and Ramdas Pophale) SiO2 
 PCOD9080847
Probable space group: P -1
;
_chemical_formula_sum "Si O2"
_cell_formula_units_Z 16
_cell_length_a 11.861961
_cell_length_b 20.473842
_cell_length_c 7.736796
_cell_angle_alpha 72.395845
_cell_angle_beta 88.366123
_cell_angle_gamma 27.490077
_cell_volume 693.146877
_symmetry_space_group_name_H-M "P -1"
_symmetry_group_IT_number 2
_symmetry_cell_setting 'triclinic'
loop_
_space_group_symop_operation_xyz
x,y,z
-x,-y,-z
loop_
_atom_site_type_symbol
_atom_site_label
_atom_site_fract_x
_atom_site_fract_y
_atom_site_fract_z
Si Si1 0.214973 0.965512 0.465405
Si Si2 0.344931 0.560604 0.282528
Si Si3 0.247605 0.090557 0.800451
Si Si4 0.650266 0.956887 0.691127
Si Si5 0.149616 0.649554 0.701214
Si Si6 0.571757 0.297145 0.327897
Si Si7 0.414011 0.222739 0.081203
Si Si8 0.118933 0.520642 0.863069
O O1 0.340505 0.824846 0.491897
O O2 0.319416 0.901825 0.711719
O O3 0.336635 0.968374 0.381884
O O4 0.866760 0.159203 0.334538
O O5 0.500000 0.500000 0.500000
O O6 0.522803 0.507975 0.182500
O O7 0.437579 0.430570 0.348312
O O8 0.001300 0.763320 0.162283
O O9 0.046043 0.197382 0.547666
O O10 0.459731 0.035647 0.794248
O O11 0.455724 0.907971 0.942473
O O12 0.983808 0.746727 0.813149
O O13 0.500000 0.000000 0.500000
O O14 0.124489 0.584801 0.695204
O O15 0.337543 0.413414 0.096912
O O16 0.238535 0.384582 0.879601
O O17 0.187825 0.319456 0.156352
#
# Coordination Sequence:
#
# PCOD9080847 Si02
#       8
#     2   2   2   2   2   2   2   2
#     4  10  17  33  57  82 112 142 188 231 265 327
#     4  10  20  35  53  77 110 150 186 222 268 337
#     4  10  18  31  58  79 103 146 192 218 256 336
#     4  10  15  28  56  83 100 133 192 226 249 311
#     4  10  17  32  54  83 106 137 185 229 269 317
#     4  10  21  34  53  86 116 141 178 234 288 315
#     4  10  17  34  54  82 110 148 181 221 280 330
#     4  10  21  31  55  87 115 134 178 243 282 313
#
# _framework density 23.083129
#
# number of rings (size 3 to 8) (size 9 to 14) (size 15 to 20)
#    0.000    2.000    5.000    1.500    0.000    0.500 
#    0.000    1.875    0.000    0.000    0.000    0.000 
#    0.000    0.000    0.000    0.000    0.000    0.000 
#
# Total GULP energy -89303.256606 kJ/mol
# GULP energy per Si atom -5581.453538 kJ/mol
# Density = 2.303059 g / cm^3
# Si number density = 23.083129 Si / 1000 Ang^3
#
#
#
# Elastic Constant Matrix: (Units=GPa)
#
#
# Indices 1 2 3 4 5 6 
#
# 1 159.3834 77.8968 23.6344 -35.0892 -23.9134 8.6041
# 2 77.8968 159.7613 37.1513 -43.5588 -15.2164 -0.7553
# 3 23.6344 37.1513 52.3258 -26.5669 1.7432 0.0735
# 4 -35.0892 -43.5588 -26.5669 46.4442 4.0075 0.2408
# 5 -23.9134 -15.2164 1.7432 4.0075 46.4742 -22.5395
# 6 8.6041 -0.7553 0.0735 0.2408 -22.5395 54.7259
#
#
#
# Elastic Compliance Matrix: (Units=1/GPa)
#
#
# Indices 1 2 3 4 5 6 
#
# 1 0.009112 -0.003108 -0.000209 0.003565 0.003310 -0.000128
# 2 -0.003108 0.010134 -0.003281 0.005089 0.002124 0.001485
# 3 -0.000209 -0.003281 0.028516 0.013460 -0.004330 -0.001893
# 4 0.003565 0.005089 0.013460 0.036756 -0.000623 -0.000927
# 5 0.003310 0.002124 -0.004330 -0.000623 0.029863 0.011817
# 6 -0.000128 0.001485 -0.001893 -0.000927 0.011817 0.023187
#
#
# Mechanical properties :
#
#
# Convention : Reuss Voigt Hill
#
# Bulk Modulus (GPa) = 28.92919 72.09283 50.51101
# Shear Modulus (GPa) = 30.80985 45.04807 37.92896
#
# Velocity S-wave (km/s) = 3.65737 4.42244 4.05797
# Velocity P-wave (km/s) = 5.51316 7.57475 6.62464
#
# Compressibility (1/GPa) = 0.03456716
#
# Stress axis : x y z
#
# Youngs Moduli (GPa) = 109.73959 98.67429 35.06855
#
# Poissons Ratio (x) = 0.30665 0.00734
# Poissons Ratio (y) = 0.34104 0.11505
# Poissons Ratio (z) = 0.02297 0.32371
#
# Static dielectric constant tensor:
#      x y z
#    x 1.942100 -0.015740 -0.017670 
#    y -0.015740 1.965990 0.025710 
#    z -0.017670 0.025710 1.937470 
# 
# From -- ./inp_files/423576.got.cif
#   From: 2010.05.17/outbox.cif.g08.bks.cpg/sg2_212_cif.got.tgz:423576.got - 2010.06.03 11:33:40.
