data_PCOD9080295
_publ_section_title
;
Structure prediction by ZEFSAII (Michael W. Deem and Ramdas Pophale) SiO2 
 PCOD9080295
Probable space group: P -1
;
_chemical_formula_sum "Si O2"
_cell_formula_units_Z 16
_cell_length_a 9.337204
_cell_length_b 20.128366
_cell_length_c 17.637456
_cell_angle_alpha 157.964599
_cell_angle_beta 38.014123
_cell_angle_gamma 142.572724
_cell_volume 736.118814
_symmetry_space_group_name_H-M "P -1"
_symmetry_group_IT_number 2
_symmetry_cell_setting 'triclinic'
loop_
_space_group_symop_operation_xyz
x,y,z
-x,-y,-z
loop_
_atom_site_type_symbol
_atom_site_label
_atom_site_fract_x
_atom_site_fract_y
_atom_site_fract_z
Si Si1 0.854064 0.613529 0.867765
Si Si2 0.939437 0.981882 0.317351
Si Si3 0.205980 0.592434 0.572242
Si Si4 0.743383 0.877240 0.446431
Si Si5 0.353348 0.555293 0.948406
Si Si6 0.876675 0.357442 0.711696
Si Si7 0.375914 0.612700 0.828272
Si Si8 0.537495 0.965900 0.772186
O O1 0.642458 0.615136 0.899123
O O2 0.752742 0.446901 0.792869
O O3 0.078612 0.580792 0.694198
O O4 0.921357 0.804116 0.086349
O O5 0.749246 0.922660 0.403335
O O6 0.892829 0.153274 0.473927
O O7 0.207945 0.046053 0.310075
O O8 0.416368 0.490361 0.373476
O O9 0.325577 0.805730 0.726886
O O10 0.000000 0.500000 0.500000
O O11 0.730631 0.664605 0.239047
O O12 0.549610 0.925388 0.634208
O O13 0.000000 0.000000 0.500000
O O14 0.288972 0.606418 0.945681
O O15 0.248111 0.643139 0.155180
O O16 0.143244 0.499463 0.759004
O O17 0.469077 0.825773 0.992003
#
# Coordination Sequence:
#
# PCOD9080295 Si02
#       8
#     2   2   2   2   2   2   2   2
#     4  12  27  46  66 100 145 180 223 283 343 399
#     4  11  23  43  67 105 138 173 226 280 343 409
#     4  12  26  49  69  95 140 182 232 281 333 405
#     4  10  18  38  69  98 136 172 217 280 332 398
#     4  12  23  45  71 101 146 175 219 292 342 402
#     4  12  24  44  73 104 134 179 227 277 351 403
#     4  12  23  45  75 102 129 184 233 273 339 408
#     4  11  22  43  71 102 134 177 230 283 331 401
#
# _framework density 21.735620999999998
#
# number of rings (size 3 to 8) (size 9 to 14) (size 15 to 20)
#    0.000    0.500    6.250    3.000    0.000    3.000 
#    4.500    0.000    0.000    0.000    0.000    0.000 
#    0.000    0.000    0.000    0.000    0.000    0.000 
#
# Total GULP energy -89579.863195 kJ/mol
# GULP energy per Si atom -5598.741450 kJ/mol
# Density = 2.168615 g / cm^3
# Si number density = 21.735621 Si / 1000 Ang^3
#
#
#
# Elastic Constant Matrix: (Units=GPa)
#
#
# Indices 1 2 3 4 5 6 
#
# 1 43.5421 6.0048 0.9514 1.4438 5.4318 -5.7414
# 2 6.0048 83.3807 28.0681 8.6464 0.9460 -3.0663
# 3 0.9514 28.0681 112.6436 10.9139 -7.1050 -19.5420
# 4 1.4438 8.6464 10.9139 46.5895 -10.6727 -2.7952
# 5 5.4318 0.9460 -7.1050 -10.6727 26.3588 -4.9393
# 6 -5.7414 -3.0663 -19.5420 -2.7952 -4.9393 23.5492
#
#
#
# Elastic Compliance Matrix: (Units=1/GPa)
#
#
# Indices 1 2 3 4 5 6 
#
# 1 0.024484 -0.001731 0.001057 -0.001308 -0.004180 0.005589
# 2 -0.001731 0.013555 -0.003747 -0.002327 -0.002565 -0.002581
# 3 0.001057 -0.003747 0.012020 -0.000356 0.005028 0.010757
# 4 -0.001308 -0.002327 -0.000356 0.024831 0.011129 0.004364
# 5 -0.004180 -0.002565 0.005028 0.011129 0.047391 0.014080
# 6 0.005589 -0.002581 0.010757 0.004364 0.014080 0.055889
#
#
# Mechanical properties :
#
#
# Convention : Reuss Voigt Hill
#
# Bulk Modulus (GPa) = 24.26155 34.40168 29.33161
# Shear Modulus (GPa) = 24.90664 32.93563 28.92114
#
# Velocity S-wave (km/s) = 3.38877 3.89689 3.65168
# Velocity P-wave (km/s) = 5.14763 6.00910 5.59497
#
# Compressibility (1/GPa) = 0.04121748
#
# Stress axis : x y z
#
# Youngs Moduli (GPa) = 40.84356 73.77565 83.19398
#
# Poissons Ratio (x) = 0.12767 -0.08794
# Poissons Ratio (y) = 0.07068 0.31172
# Poissons Ratio (z) = -0.04317 0.27643
#
# Static dielectric constant tensor:
#      x y z
#    x 1.791070 -0.008410 0.006000 
#    y -0.008410 1.790320 -0.022860 
#    z 0.006000 -0.022860 1.765860 
# 
# From -- ./inp_files/226201.got.cif
#   From: 2010.05.17/outbox.cif.g08.bks.cpg/sg2_114_cif.got.tgz:226201.got - 2010.06.03 11:33:40.
