data_PCOD9080496
_publ_section_title
;
Structure prediction by ZEFSAII (Michael W. Deem and Ramdas Pophale) SiO2 
 PCOD9080496
Probable space group: P -1
;
_chemical_formula_sum "Si O2"
_cell_formula_units_Z 14
_cell_length_a 7.487527
_cell_length_b 7.275685
_cell_length_c 19.412914
_cell_angle_alpha 134.239816
_cell_angle_beta 51.733916
_cell_angle_gamma 125.126116
_cell_volume 575.242299
_symmetry_space_group_name_H-M "P -1"
_symmetry_group_IT_number 2
_symmetry_cell_setting 'triclinic'
loop_
_space_group_symop_operation_xyz
x,y,z
-x,-y,-z
loop_
_atom_site_type_symbol
_atom_site_label
_atom_site_fract_x
_atom_site_fract_y
_atom_site_fract_z
Si Si1 0.892603 0.404246 0.310798
Si Si2 0.074204 0.343061 0.878656
Si Si3 0.321717 0.103453 0.208821
Si Si4 0.165697 0.831905 0.883915
Si Si5 0.951604 0.216826 0.401735
Si Si6 0.748857 0.904709 0.494537
Si Si7 0.417223 0.681010 0.274602
O O1 0.840107 0.215851 0.208649
O O2 0.897880 0.271719 0.349810
O O3 0.714333 0.592089 0.411627
O O4 0.157921 0.585491 0.277748
O O5 0.096415 0.541209 0.859916
O O6 0.333663 0.296290 0.815514
O O7 0.864073 0.082447 0.846733
O O8 0.000000 0.500000 0.000000
O O9 0.563538 0.022154 0.126787
O O10 0.395761 0.418813 0.258348
O O11 0.179508 0.097046 0.311908
O O12 0.000000 0.000000 0.000000
O O13 0.000000 0.500000 0.500000
O O14 0.771570 0.022756 0.443110
O O15 0.584960 0.050530 0.614409
O O16 0.000000 0.000000 0.500000
#
# Coordination Sequence:
#
# PCOD9080496 Si02
#       7
#     2   2   2   2   2   2   2
#     4  10  22  42  71 105 144 184 236 293 358 425
#     4  11  26  46  73 104 131 190 247 291 359 420
#     4  10  23  45  69  99 142 181 236 288 352 431
#     4  11  27  48  68 100 147 185 235 301 355 411
#     4  11  19  40  71 100 140 187 229 280 360 424
#     4  10  18  39  69 107 146 181 228 294 356 427
#     4   9  21  42  73 101 143 178 229 296 357 411
#
# _framework density 24.337568000000001
#
# number of rings (size 3 to 8) (size 9 to 14) (size 15 to 20)
#    0.000    1.714    4.286    0.857    6.000    1.714 
#    7.714    2.857    0.000    3.429    0.000    0.000 
#    0.000    0.000    0.000    0.000    0.000    0.000 
#
# Total GULP energy -78193.156515 kJ/mol
# GULP energy per Si atom -5585.225465 kJ/mol
# Density = 2.428217 g / cm^3
# Si number density = 24.337568 Si / 1000 Ang^3
#
#
#
# Elastic Constant Matrix: (Units=GPa)
#
#
# Indices 1 2 3 4 5 6 
#
# 1 79.8496 59.0962 59.2654 -4.4386 -2.2550 10.4312
# 2 59.0962 85.9187 44.4723 -5.2071 -6.3934 -6.8368
# 3 59.2654 44.4723 217.2411 7.8423 -24.7441 17.4823
# 4 -4.4386 -5.2071 7.8423 35.2553 -0.0235 -4.2089
# 5 -2.2550 -6.3934 -24.7441 -0.0235 54.0368 -13.7046
# 6 10.4312 -6.8368 17.4823 -4.2089 -13.7046 52.3077
#
#
#
# Elastic Compliance Matrix: (Units=1/GPa)
#
#
# Indices 1 2 3 4 5 6 
#
# 1 0.032649 -0.021221 -0.004486 0.000876 -0.005526 -0.009162
# 2 -0.021221 0.027563 -0.000164 0.002551 0.004665 0.009317
# 3 -0.004486 -0.000164 0.006277 -0.002072 0.002479 -0.000742
# 4 0.000876 0.002551 -0.002072 0.029707 0.000240 0.003305
# 5 -0.005526 0.004665 0.002479 0.000240 0.021628 0.006569
# 6 -0.009162 0.009317 -0.000742 0.003305 0.006569 0.024398
#
#
# Mechanical properties :
#
#
# Convention : Reuss Voigt Hill
#
# Bulk Modulus (GPa) = 67.81228 78.74191 73.27709
# Shear Modulus (GPa) = 25.14075 42.99834 34.06954
#
# Velocity S-wave (km/s) = 3.21752 4.20783 3.74555
# Velocity P-wave (km/s) = 6.45964 7.48546 6.99139
#
# Compressibility (1/GPa) = 0.01474659
#
# Stress axis : x y z
#
# Youngs Moduli (GPa) = 30.62920 36.28055 159.29989
#
# Poissons Ratio (x) = 0.76992 0.71466
# Poissons Ratio (y) = 0.64999 0.02608
# Poissons Ratio (z) = 0.13741 0.00594
#
# Static dielectric constant tensor:
#      x y z
#    x 2.066080 -0.022500 -0.110190 
#    y -0.022500 2.033300 0.021370 
#    z -0.110190 0.021370 1.987290 
# 
# From -- ./inp_files/587577.got.cif
#   From: 2010.05.17/outbox.cif.g08.bks.cpg/sg2_294_cif.got.tgz:587577.got - 2010.06.03 11:33:40.
