data_PCOD9080633
_publ_section_title
;
Structure prediction by ZEFSAII (Michael W. Deem and Ramdas Pophale) SiO2 
 PCOD9080633
Probable space group: P -1
;
_chemical_formula_sum "Si O2"
_cell_formula_units_Z 14
_cell_length_a 7.270243
_cell_length_b 14.496928
_cell_length_c 6.813151
_cell_angle_alpha 123.403339
_cell_angle_beta 70.676699
_cell_angle_gamma 93.107008
_cell_volume 558.181360
_symmetry_space_group_name_H-M "P -1"
_symmetry_group_IT_number 2
_symmetry_cell_setting 'triclinic'
loop_
_space_group_symop_operation_xyz
x,y,z
-x,-y,-z
loop_
_atom_site_type_symbol
_atom_site_label
_atom_site_fract_x
_atom_site_fract_y
_atom_site_fract_z
Si Si1 0.506059 0.626051 0.574384
Si Si2 0.909786 0.095634 0.411248
Si Si3 0.375298 0.687293 0.272465
Si Si4 0.639174 0.172841 0.914767
Si Si5 0.249488 0.086210 0.003088
Si Si6 0.881236 0.666613 0.732402
Si Si7 0.866174 0.488978 0.845409
O O1 0.500000 0.500000 0.500000
O O2 0.501376 0.651422 0.376324
O O3 0.705776 0.654553 0.627839
O O4 0.335262 0.723664 0.832910
O O5 0.819734 0.220487 0.514174
O O6 0.840829 0.105831 0.674800
O O7 0.133789 0.071408 0.229188
O O8 0.786469 0.013084 0.244258
O O9 0.464297 0.758034 0.157232
O O10 0.307494 0.574046 0.086907
O O11 0.477608 0.101110 0.963757
O O12 0.132275 0.201246 0.086963
O O13 0.843288 0.606480 0.878878
O O14 0.061612 0.592008 0.463837
O O15 0.000000 0.500000 0.000000
#
# Coordination Sequence:
#
# PCOD9080633 Si02
#       7
#     2   2   2   2   2   2   2
#     4  11  22  38  64  92 138 169 214 270 315 393
#     4   9  20  39  69  89 130 172 215 271 323 385
#     4  10  22  41  62  99 127 174 216 261 335 379
#     4   9  22  37  64  93 129 169 219 261 324 387
#     4  10  18  40  67  92 128 171 216 274 317 380
#     4  10  22  38  59  95 122 172 208 258 327 375
#     4  11  23  39  62  88 136 163 207 270 317 385
#
# _framework density 25.081454000000001
#
# number of rings (size 3 to 8) (size 9 to 14) (size 15 to 20)
#    0.857    1.143    2.857    0.429    2.000    2.857 
#    0.000    2.857    9.429    2.571    0.000    0.000 
#    0.000    0.000    0.000    0.000    0.000    0.000 
#
# Total GULP energy -78115.777325 kJ/mol
# GULP energy per Si atom -5579.698380 kJ/mol
# Density = 2.502437 g / cm^3
# Si number density = 25.081454 Si / 1000 Ang^3
#
#
#
# Elastic Constant Matrix: (Units=GPa)
#
#
# Indices 1 2 3 4 5 6 
#
# 1 46.9190 12.2142 18.2096 -11.5224 -2.1546 6.4420
# 2 12.2142 137.5514 41.3484 -11.9444 6.2636 6.8892
# 3 18.2096 41.3484 115.0615 1.6611 -13.3079 7.6176
# 4 -11.5224 -11.9444 1.6611 44.9151 -13.3942 4.6318
# 5 -2.1546 6.2636 -13.3079 -13.3942 45.3284 -11.2476
# 6 6.4420 6.8892 7.6176 4.6318 -11.2476 36.7244
#
#
#
# Elastic Compliance Matrix: (Units=1/GPa)
#
#
# Indices 1 2 3 4 5 6 
#
# 1 0.025211 -0.000400 -0.003522 0.007322 0.001360 -0.004124
# 2 -0.000400 0.008601 -0.003173 0.001881 -0.002015 -0.001740
# 3 -0.003522 -0.003173 0.010758 -0.001233 0.003085 0.000082
# 4 0.007322 0.001881 -0.001233 0.027069 0.007072 -0.002629
# 5 0.001360 -0.002015 0.003085 0.007072 0.027115 0.006912
# 6 -0.004124 -0.001740 0.000082 -0.002629 0.006912 0.030711
#
#
# Mechanical properties :
#
#
# Convention : Reuss Voigt Hill
#
# Bulk Modulus (GPa) = 32.91414 49.23071 41.07243
# Shear Modulus (GPa) = 32.51386 40.57756 36.54571
#
# Velocity S-wave (km/s) = 3.60437 4.02659 3.82131
# Velocity P-wave (km/s) = 5.52026 6.42564 5.99008
#
# Compressibility (1/GPa) = 0.03038208
#
# Stress axis : x y z
#
# Youngs Moduli (GPa) = 39.66516 116.25951 92.95636
#
# Poissons Ratio (x) = 0.04646 0.32736
# Poissons Ratio (y) = 0.01585 0.29493
# Poissons Ratio (z) = 0.13969 0.36887
#
# Static dielectric constant tensor:
#      x y z
#    x 2.072130 -0.009320 -0.163650 
#    y -0.009320 1.956480 -0.004070 
#    z -0.163650 -0.004070 2.078220 
# 
# From -- ./inp_files/33591.got.cif
#   From: 2010.05.17/outbox.cif.g08.bks.cpg/sg2_17_cif.got.tgz:33591.got - 2010.06.03 11:33:40.
