data_PCOD9080891
_publ_section_title
;
Structure prediction by ZEFSAII (Michael W. Deem and Ramdas Pophale) SiO2 
 PCOD9080891
Probable space group: P -1
;
_chemical_formula_sum "Si O2"
_cell_formula_units_Z 14
_cell_length_a 14.465006
_cell_length_b 5.718345
_cell_length_c 12.110498
_cell_angle_alpha 63.262086
_cell_angle_beta 39.625613
_cell_angle_gamma 59.380715
_cell_volume 546.757561
_symmetry_space_group_name_H-M "P -1"
_symmetry_group_IT_number 2
_symmetry_cell_setting 'triclinic'
loop_
_space_group_symop_operation_xyz
x,y,z
-x,-y,-z
loop_
_atom_site_type_symbol
_atom_site_label
_atom_site_fract_x
_atom_site_fract_y
_atom_site_fract_z
Si Si1 0.610838 0.260559 0.589560
Si Si2 0.354106 0.976635 0.858977
Si Si3 0.954661 0.335200 0.974995
Si Si4 0.877241 0.778239 0.804247
Si Si5 0.654367 0.223512 0.315283
Si Si6 0.619289 0.613383 0.945480
Si Si7 0.282319 0.731751 0.269324
O O1 0.689512 0.141412 0.427373
O O2 0.513078 0.570610 0.587172
O O3 0.709686 0.261789 0.607159
O O4 0.484228 0.101369 0.755844
O O5 0.335195 0.005124 0.738370
O O6 0.394506 0.657114 0.919491
O O7 0.195612 0.092552 0.040838
O O8 0.773646 0.385526 0.138251
O O9 0.993225 0.491956 0.797175
O O10 0.000000 0.500000 0.000000
O O11 0.000000 0.000000 0.000000
O O12 0.748277 0.694439 0.873626
O O13 0.868883 0.052386 0.684344
O O14 0.690296 0.539711 0.772937
O O15 0.443360 0.787256 0.073446
#
# Coordination Sequence:
#
# PCOD9080891 Si02
#       7
#     2   2   2   2   2   2   2
#     4  11  22  36  58  90 133 162 190 244 320 402
#     4  11  17  34  55  88 130 160 198 243 312 376
#     4  12  26  45  69  91 119 164 223 273 308 354
#     4  11  21  35  59  85 124 152 207 265 303 363
#     4  11  23  39  58  90 126 163 203 248 318 376
#     4  10  19  29  54  85 127 160 191 250 305 380
#     4  10  20  31  53  87 123 162 196 241 314 375
#
# _framework density 25.605498999999998
#
# number of rings (size 3 to 8) (size 9 to 14) (size 15 to 20)
#    0.000    1.143    5.714    1.714    6.000    0.000 
#    0.000    0.000    0.000    1.714    0.000    0.000 
#    0.000    0.000    0.000    0.000    0.000    0.000 
#
# Total GULP energy -78005.641889 kJ/mol
# GULP energy per Si atom -5571.831564 kJ/mol
# Density = 2.554722 g / cm^3
# Si number density = 25.605499 Si / 1000 Ang^3
#
#
#
# Elastic Constant Matrix: (Units=GPa)
#
#
# Indices 1 2 3 4 5 6 
#
# 1 118.1007 41.2539 20.9967 13.0332 53.7549 1.7511
# 2 41.2539 92.1855 9.8226 4.9130 13.4120 -17.8960
# 3 20.9967 9.8226 73.9733 14.1057 38.0347 -1.4888
# 4 13.0332 4.9130 14.1057 18.3747 11.5549 7.9677
# 5 53.7549 13.4120 38.0347 11.5549 57.0071 -2.9702
# 6 1.7511 -17.8960 -1.4888 7.9677 -2.9702 39.9853
#
#
#
# Elastic Compliance Matrix: (Units=1/GPa)
#
#
# Indices 1 2 3 4 5 6 
#
# 1 0.019788 -0.007399 0.006423 -0.001389 -0.021195 -0.005236
# 2 -0.007399 0.015408 -0.001980 -0.004919 0.006117 0.008581
# 3 0.006423 -0.001980 0.023932 -0.010311 -0.019451 0.000333
# 4 -0.001389 -0.004919 -0.010311 0.077207 -0.007263 -0.018449
# 5 -0.021195 0.006117 -0.019451 -0.007263 0.050964 0.008175
# 6 -0.005236 0.008581 0.000333 -0.018449 0.008175 0.033375
#
#
# Mechanical properties :
#
#
# Convention : Reuss Voigt Hill
#
# Bulk Modulus (GPa) = 18.79128 47.60066 33.19597
# Shear Modulus (GPa) = 20.46469 37.21917 28.84193
#
# Velocity S-wave (km/s) = 2.83013 3.81670 3.35982
# Velocity P-wave (km/s) = 4.24667 6.16873 5.29564
#
# Compressibility (1/GPa) = 0.05321616
#
# Stress axis : x y z
#
# Youngs Moduli (GPa) = 50.53578 64.90287 41.78496
#
# Poissons Ratio (x) = 0.48019 -0.26839
# Poissons Ratio (y) = 0.37389 0.08275
# Poissons Ratio (z) = -0.32460 0.12853
#
# Static dielectric constant tensor:
#      x y z
#    x 2.078190 -0.038640 0.052270 
#    y -0.038640 2.239940 0.007640 
#    z 0.052270 0.007640 2.112660 
# 
# From -- ./inp_files/92264.got.cif
#   From: 2010.05.17/outbox.cif.g08.bks.cpg/sg2_47_cif.got.tgz:92264.got - 2010.06.03 11:33:40.
