data_PCOD9080537
_publ_section_title
;
Structure prediction by ZEFSAII (Michael W. Deem and Ramdas Pophale) SiO2 
 PCOD9080537
Probable space group: P -1
;
_chemical_formula_sum "Si O2"
_cell_formula_units_Z 15
_cell_length_a 14.146171
_cell_length_b 13.970607
_cell_length_c 12.390300
_cell_angle_alpha 31.579165
_cell_angle_beta 48.558182
_cell_angle_gamma 29.037592
_cell_volume 588.324647
_symmetry_space_group_name_H-M "P -1"
_symmetry_group_IT_number 2
_symmetry_cell_setting 'triclinic'
loop_
_space_group_symop_operation_xyz
x,y,z
-x,-y,-z
loop_
_atom_site_type_symbol
_atom_site_label
_atom_site_fract_x
_atom_site_fract_y
_atom_site_fract_z
Si Si1 0.127390 0.393677 0.185098
Si Si2 0.693760 0.162161 0.138328
Si Si3 0.500000 0.000000 0.500000
Si Si4 0.929043 0.687992 0.265062
Si Si5 0.527433 0.447367 0.360968
Si Si6 0.129398 0.969727 0.648853
Si Si7 0.186302 0.967416 0.257694
Si Si8 0.577161 0.824595 0.370400
O O1 0.106465 0.200460 0.397449
O O2 0.353783 0.168324 0.183499
O O3 0.114175 0.490187 0.227028
O O4 0.950457 0.694784 0.963090
O O5 0.604046 0.060790 0.309558
O O6 0.821995 0.999121 0.085677
O O7 0.862379 0.013791 0.245360
O O8 0.500000 0.500000 0.000000
O O9 0.439078 0.188339 0.476244
O O10 0.000000 0.500000 0.500000
O O11 0.765161 0.740520 0.282835
O O12 0.369715 0.769029 0.222698
O O13 0.706678 0.208674 0.542994
O O14 0.647537 0.356924 0.248293
O O15 0.415000 0.381381 0.493401
O O16 0.964341 0.019480 0.681062
#
# Coordination Sequence:
#
# PCOD9080537 Si02
#       8
#     2   2   1   2   2   2   2   2
#     4  11  23  42  65  98 128 171 217 263 324 383
#     4  11  24  37  65  98 129 170 219 253 324 392
#     4  10  18  40  60  88 128 164 198 260 310 372
#     4  11  22  41  64  96 136 172 210 267 318 386
#     4  10  23  46  65  94 132 168 212 278 321 376
#     4  11  23  45  65  94 133 168 212 272 319 382
#     4  11  26  42  69  97 126 168 226 264 322 387
#     4  10  21  39  68  90 132 170 210 261 324 378
#
# _framework density 25.496127000000001
#
# number of rings (size 3 to 8) (size 9 to 14) (size 15 to 20)
#    0.000    1.333    4.000    2.000    5.600    2.133 
#    0.000    6.667    0.000    0.000    0.000    0.000 
#    0.000    0.000    0.000    0.000    0.000    0.000 
#
# Total GULP energy -83758.245551 kJ/mol
# GULP energy per Si atom -5583.883037 kJ/mol
# Density = 2.543810 g / cm^3
# Si number density = 25.496127 Si / 1000 Ang^3
#
#
#
# Elastic Constant Matrix: (Units=GPa)
#
#
# Indices 1 2 3 4 5 6 
#
# 1 95.3514 -3.5669 9.7642 7.8250 -9.5878 -8.5250
# 2 -3.5669 102.2535 13.0533 -31.5463 -10.1978 8.8060
# 3 9.7642 13.0533 69.1987 -23.7887 -1.7666 -15.1565
# 4 7.8250 -31.5463 -23.7887 42.8619 8.6283 -2.6559
# 5 -9.5878 -10.1978 -1.7666 8.6283 29.8028 -0.1671
# 6 -8.5250 8.8060 -15.1565 -2.6559 -0.1671 33.9415
#
#
#
# Elastic Compliance Matrix: (Units=1/GPa)
#
#
# Indices 1 2 3 4 5 6 
#
# 1 0.011790 -0.000371 -0.002841 -0.004906 0.004926 0.001429
# 2 -0.000371 0.012984 0.000263 0.009278 0.001638 -0.002610
# 3 -0.002841 0.000263 0.021765 0.014132 -0.003569 0.010026
# 4 -0.004906 0.009278 0.014132 0.041163 -0.009450 0.005846
# 5 0.004926 0.001638 -0.003569 -0.009450 0.038216 -0.001333
# 6 0.001429 -0.002610 0.010026 0.005846 -0.001333 0.035427
#
#
# Mechanical properties :
#
#
# Convention : Reuss Voigt Hill
#
# Bulk Modulus (GPa) = 24.60625 33.92275 29.26450
# Shear Modulus (GPa) = 27.65626 37.82477 32.74052
#
# Velocity S-wave (km/s) = 3.29709 3.85587 3.58737
# Velocity P-wave (km/s) = 4.91592 5.75826 5.35368
#
# Compressibility (1/GPa) = 0.04064007
#
# Stress axis : x y z
#
# Youngs Moduli (GPa) = 84.81585 77.01969 45.94437
#
# Poissons Ratio (x) = 0.02860 0.13054
# Poissons Ratio (y) = 0.03149 -0.01208
# Poissons Ratio (z) = 0.24098 -0.02025
#
# Static dielectric constant tensor:
#      x y z
#    x 3.215500 0.202850 1.337520 
#    y 0.202850 2.092680 0.098260 
#    z 1.337520 0.098260 3.379120 
# 
# From -- ./inp_files/534123.got.cif
#   From: 2010.05.17/outbox.cif.g08.bks.cpg/sg2_268_cif.got.tgz:534123.got - 2010.06.03 11:33:40.
