data_PCOD9080664
_publ_section_title
;
Structure prediction by ZEFSAII (Michael W. Deem and Ramdas Pophale) SiO2 
 PCOD9080664
Probable space group: P -1
;
_chemical_formula_sum "Si O2"
_cell_formula_units_Z 16
_cell_length_a 13.286272
_cell_length_b 11.787466
_cell_length_c 7.340480
_cell_angle_alpha 107.943418
_cell_angle_beta 134.253725
_cell_angle_gamma 50.795054
_cell_volume 619.456236
_symmetry_space_group_name_H-M "P -1"
_symmetry_group_IT_number 2
_symmetry_cell_setting 'triclinic'
loop_
_space_group_symop_operation_xyz
x,y,z
-x,-y,-z
loop_
_atom_site_type_symbol
_atom_site_label
_atom_site_fract_x
_atom_site_fract_y
_atom_site_fract_z
Si Si1 0.461039 0.025976 0.249096
Si Si2 0.890545 0.695084 0.215336
Si Si3 0.252672 0.471381 0.387094
Si Si4 0.257088 0.450294 0.943806
Si Si5 0.391528 0.640284 0.578537
Si Si6 0.612367 0.186810 0.890967
Si Si7 0.232713 0.957140 0.362298
Si Si8 0.906064 0.228266 0.278532
O O1 0.625296 0.017223 0.373827
O O2 0.500000 0.000000 0.500000
O O3 0.435503 0.903067 0.091979
O O4 0.277813 0.190881 0.067843
O O5 0.064131 0.541243 0.272950
O O6 0.958100 0.788899 0.411153
O O7 0.818004 0.639544 0.247919
O O8 0.246628 0.454307 0.153809
O O9 0.275517 0.601251 0.507674
O O10 0.427084 0.325320 0.630093
O O11 0.461937 0.370330 0.118983
O O12 0.162030 0.614876 0.825102
O O13 0.500000 0.500000 0.500000
O O14 0.284755 0.800017 0.426155
O O15 0.731756 0.068476 0.819683
O O16 0.743331 0.227432 0.130940
O O17 0.035407 0.093725 0.235443
#
# Coordination Sequence:
#
# PCOD9080664 Si02
#       8
#     2   2   2   2   2   2   2   2
#     4  10  24  43  68  95 132 173 222 276 328 395
#     4  12  27  45  63 103 140 175 221 273 343 398
#     4  11  23  41  75  98 128 174 229 281 323 390
#     4  11  21  45  69  96 130 176 233 275 319 395
#     4  10  18  40  69  96 123 166 225 280 316 373
#     4  11  22  44  67 102 132 174 228 274 331 393
#     4  11  22  43  68  98 131 175 227 276 325 393
#     4  12  28  41  67 101 141 178 215 277 340 398
#
# _framework density 25.829105999999999
#
# number of rings (size 3 to 8) (size 9 to 14) (size 15 to 20)
#    0.000    1.000    5.000    2.625    7.000    1.500 
#    0.000    0.000    0.000    0.000    0.000    0.000 
#    0.000    0.000    0.000    0.000    0.000    0.000 
#
# Total GULP energy -89522.199509 kJ/mol
# GULP energy per Si atom -5595.137469 kJ/mol
# Density = 2.577032 g / cm^3
# Si number density = 25.829106 Si / 1000 Ang^3
#
#
#
# Elastic Constant Matrix: (Units=GPa)
#
#
# Indices 1 2 3 4 5 6 
#
# 1 104.2290 46.6033 45.8269 0.0684 48.0296 12.4866
# 2 46.6033 116.5107 31.5869 7.7978 23.2446 29.7390
# 3 45.8269 31.5869 125.3128 3.7912 36.1963 9.9481
# 4 0.0684 7.7978 3.7912 47.1698 7.2690 9.8036
# 5 48.0296 23.2446 36.1963 7.2690 55.1757 8.2315
# 6 12.4866 29.7390 9.9481 9.8036 8.2315 51.0525
#
#
#
# Elastic Compliance Matrix: (Units=1/GPa)
#
#
# Indices 1 2 3 4 5 6 
#
# 1 0.018624 -0.004447 -0.001883 0.002936 -0.013492 0.000014
# 2 -0.004447 0.012058 -0.001067 -0.000795 0.000439 -0.005646
# 3 -0.001883 -0.001067 0.010293 0.000109 -0.004649 -0.000195
# 4 0.002936 -0.000795 0.000109 0.022857 -0.004721 -0.003904
# 5 -0.013492 0.000439 -0.004649 -0.004721 0.033435 -0.000534
# 6 0.000014 -0.005646 -0.000195 -0.003904 -0.000534 0.023747
#
#
# Mechanical properties :
#
#
# Convention : Reuss Voigt Hill
#
# Bulk Modulus (GPa) = 38.19702 66.00964 52.10333
# Shear Modulus (GPa) = 34.59330 45.48196 40.03763
#
# Velocity S-wave (km/s) = 3.66363 4.20084 3.94140
# Velocity P-wave (km/s) = 5.71986 7.01008 6.39757
#
# Compressibility (1/GPa) = 0.02618005
#
# Stress axis : x y z
#
# Youngs Moduli (GPa) = 53.69301 82.93178 97.15755
#
# Poissons Ratio (x) = 0.36884 0.18291
# Poissons Ratio (y) = 0.23880 0.10371
# Poissons Ratio (z) = 0.10108 0.08853
#
# Static dielectric constant tensor:
#      x y z
#    x 2.088360 -0.039480 0.037090 
#    y -0.039480 2.090940 0.149720 
#    z 0.037090 0.149720 2.170150 
# 
# From -- ./inp_files/308222.got.cif
#   From: 2010.05.17/outbox.cif.g08.bks.cpg/sg2_155_cif.got.tgz:308222.got - 2010.06.03 11:33:40.
