data_PCOD9080897
_publ_section_title
;
Structure prediction by ZEFSAII (Michael W. Deem and Ramdas Pophale) SiO2 
 PCOD9080897
Probable space group: P -1
;
_chemical_formula_sum "Si O2"
_cell_formula_units_Z 16
_cell_length_a 9.099407
_cell_length_b 28.609136
_cell_length_c 15.169206
_cell_angle_alpha 18.268452
_cell_angle_beta 134.665543
_cell_angle_gamma 141.669856
_cell_volume 749.637015
_symmetry_space_group_name_H-M "P -1"
_symmetry_group_IT_number 2
_symmetry_cell_setting 'triclinic'
loop_
_space_group_symop_operation_xyz
x,y,z
-x,-y,-z
loop_
_atom_site_type_symbol
_atom_site_label
_atom_site_fract_x
_atom_site_fract_y
_atom_site_fract_z
Si Si1 0.253260 0.042047 0.571021
Si Si2 0.215821 0.983859 0.999787
Si Si3 0.388367 0.935630 0.662204
Si Si4 0.501240 0.780780 0.466860
Si Si5 0.324269 0.172993 0.894856
Si Si6 0.084262 0.419467 0.880125
Si Si7 0.960084 0.662452 0.178918
Si Si8 0.697640 0.523491 0.471296
O O1 0.410036 0.082144 0.476817
O O2 0.356342 0.168006 0.472120
O O3 0.000000 0.000000 0.500000
O O4 0.198733 0.851615 0.923401
O O5 0.322944 0.127643 0.708194
O O6 0.277406 0.068288 0.972244
O O7 0.924108 0.864750 0.097069
O O8 0.335857 0.867926 0.244617
O O9 0.539502 0.867751 0.899180
O O10 0.500000 0.000000 0.500000
O O11 0.108990 0.775702 0.817842
O O12 0.315988 0.572523 0.752981
O O13 0.519225 0.373053 0.596488
O O14 0.901684 0.491927 0.655179
O O15 0.174815 0.388388 0.880202
O O16 0.842801 0.685646 0.176057
O O17 0.000000 0.500000 0.500000
O O18 0.500000 0.500000 0.500000
#
# Coordination Sequence:
#
# PCOD9080897 Si02
#       8
#     2   2   2   2   2   2   2   2
#     4  11  25  41  62  90 125 168 214 252 310 385
#     4  10  22  33  61  90 124 156 199 258 322 357
#     4  10  22  42  64  82 120 174 205 249 308 385
#     4  11  22  37  63  91 124 157 204 264 313 364
#     4  10  20  38  55  91 124 159 201 256 317 369
#     4   9  20  37  58  86 115 157 202 251 309 357
#     4   9  20  37  60  84 122 161 205 251 306 365
#     4  10  19  29  56  87 120 149 199 252 303 358
#
# _framework density 21.343661999999998
#
# number of rings (size 3 to 8) (size 9 to 14) (size 15 to 20)
#    0.000    2.000    1.250    2.250   10.500    1.000 
#    0.000    3.125    5.500    0.000    0.000    0.000 
#    0.000    0.000    0.000    0.000    0.000    0.000 
#
# Total GULP energy -89145.034059 kJ/mol
# GULP energy per Si atom -5571.564629 kJ/mol
# Density = 2.129508 g / cm^3
# Si number density = 21.343662 Si / 1000 Ang^3
#
#
#
# Elastic Constant Matrix: (Units=GPa)
#
#
# Indices 1 2 3 4 5 6 
#
# 1 148.5777 43.6200 18.4868 8.6731 -30.4983 -17.0105
# 2 43.6200 132.5515 36.5368 -22.2748 -15.2257 -11.5844
# 3 18.4868 36.5368 37.9782 -8.9007 -15.9416 -13.4469
# 4 8.6731 -22.2748 -8.9007 29.5851 -3.2858 2.4433
# 5 -30.4983 -15.2257 -15.9416 -3.2858 31.7812 7.1310
# 6 -17.0105 -11.5844 -13.4469 2.4433 7.1310 43.6305
#
#
#
# Elastic Compliance Matrix: (Units=1/GPa)
#
#
# Indices 1 2 3 4 5 6 
#
# 1 0.009497 -0.003140 0.001326 -0.004127 0.007329 0.002311
# 2 -0.003140 0.012145 -0.009164 0.007312 -0.000788 -0.001105
# 3 0.001326 -0.009164 0.048105 0.008630 0.019843 0.009183
# 4 -0.004127 0.007312 0.008630 0.044145 0.008635 -0.000891
# 5 0.007329 -0.000788 0.019843 0.008635 0.048903 0.000288
# 6 0.002311 -0.001105 0.009183 -0.000891 0.000288 0.026361
#
#
# Mechanical properties :
#
#
# Convention : Reuss Voigt Hill
#
# Bulk Modulus (GPa) = 20.92472 57.37720 39.15096
# Shear Modulus (GPa) = 22.02223 35.69693 28.85958
#
# Velocity S-wave (km/s) = 3.21564 4.09404 3.68113
# Velocity P-wave (km/s) = 4.85923 7.02062 6.03743
#
# Compressibility (1/GPa) = 0.04779036
#
# Stress axis : x y z
#
# Youngs Moduli (GPa) = 105.29118 82.33614 20.78788
#
# Poissons Ratio (x) = 0.25858 -0.02756
# Poissons Ratio (y) = 0.33067 0.19050
# Poissons Ratio (z) = -0.13959 0.75453
#
# Static dielectric constant tensor:
#      x y z
#    x 1.843110 -0.010100 0.048270 
#    y -0.010100 1.786320 -0.007830 
#    z 0.048270 -0.007830 1.897990 
# 
# From -- ./inp_files/175011.got.cif
#   From: 2010.05.17/outbox.cif.g08.bks.cpg/sg2_88_cif.got.tgz:175011.got - 2010.06.03 11:33:40.
