data_PCOD9080549
_publ_section_title
;
Structure prediction by ZEFSAII (Michael W. Deem and Ramdas Pophale) SiO2 
 PCOD9080549
Probable space group: P -1
;
_chemical_formula_sum "Si O2"
_cell_formula_units_Z 16
_cell_length_a 7.418322
_cell_length_b 15.159743
_cell_length_c 18.283177
_cell_angle_alpha 22.772643
_cell_angle_beta 88.094089
_cell_angle_gamma 101.015427
_cell_volume 651.805479
_symmetry_space_group_name_H-M "P -1"
_symmetry_group_IT_number 2
_symmetry_cell_setting 'triclinic'
loop_
_space_group_symop_operation_xyz
x,y,z
-x,-y,-z
loop_
_atom_site_type_symbol
_atom_site_label
_atom_site_fract_x
_atom_site_fract_y
_atom_site_fract_z
Si Si1 0.744399 0.500920 0.290396
Si Si2 0.191329 0.896400 0.322653
Si Si3 0.139735 0.708710 0.216145
Si Si4 0.907232 0.672259 0.992208
Si Si5 0.526708 0.179597 0.271858
Si Si6 0.785281 0.510549 0.890371
Si Si7 0.468138 0.200319 0.945812
Si Si8 0.232671 0.054564 0.504264
O O1 0.722708 0.220220 0.528393
O O2 0.830610 0.588866 0.140221
O O3 0.553679 0.548132 0.265835
O O4 0.946648 0.717701 0.175662
O O5 0.992996 0.606941 0.510117
O O6 0.088540 0.056377 0.231036
O O7 0.380805 0.087721 0.114937
O O8 0.297272 0.731419 0.131516
O O9 0.291180 0.942561 0.093500
O O10 0.720877 0.424412 0.133726
O O11 0.126370 0.679059 0.978057
O O12 0.311157 0.057662 0.416776
O O13 0.600556 0.968122 0.431701
O O14 0.568991 0.339698 0.073451
O O15 0.757229 0.665904 0.705287
O O16 0.989165 0.778328 0.726462
#
# Coordination Sequence:
#
# PCOD9080549 Si02
#       8
#     2   2   2   2   2   2   2   2
#     4   9  21  38  55  84 119 149 182 231 281 331
#     4   9  21  38  55  82 118 149 179 230 281 335
#     4   9  20  38  62  86 112 147 190 232 274 330
#     4  10  20  37  54  78 118 145 181 228 279 333
#     4  10  20  36  57  78 105 143 186 235 271 324
#     4  10  20  36  58  79 104 144 186 233 275 325
#     4  10  18  40  62  85 112 145 193 235 268 329
#     4   9  19  35  55  81 102 130 191 234 272 324
#
# _framework density 24.547198000000002
#
# number of rings (size 3 to 8) (size 9 to 14) (size 15 to 20)
#    0.750    1.750    0.000    2.625    0.000    4.000 
#    9.000    6.250    0.000    0.000    0.000    0.000 
#    0.000    0.000    0.000    0.000    0.000    0.000 
#
# Total GULP energy -89460.587331 kJ/mol
# GULP energy per Si atom -5591.286708 kJ/mol
# Density = 2.449133 g / cm^3
# Si number density = 24.547198 Si / 1000 Ang^3
#
#
#
# Elastic Constant Matrix: (Units=GPa)
#
#
# Indices 1 2 3 4 5 6 
#
# 1 107.0742 9.7502 32.2410 -1.4891 30.2460 -13.2592
# 2 9.7502 54.3527 25.9291 -6.2243 15.0964 -5.3173
# 3 32.2410 25.9291 135.9708 -6.7259 18.8374 -12.4852
# 4 -1.4891 -6.2243 -6.7259 43.2681 -4.7862 0.8318
# 5 30.2460 15.0964 18.8374 -4.7862 56.6718 -5.3913
# 6 -13.2592 -5.3173 -12.4852 0.8318 -5.3913 38.4957
#
#
#
# Elastic Compliance Matrix: (Units=1/GPa)
#
#
# Indices 1 2 3 4 5 6 
#
# 1 0.011768 0.000556 -0.001895 -0.000479 -0.005578 0.002745
# 2 0.000556 0.021561 -0.003375 0.002059 -0.004613 0.001384
# 3 -0.001895 -0.003375 0.008736 0.000690 -0.000784 0.001590
# 4 -0.000479 0.002059 0.000690 0.023662 0.001480 0.000039
# 5 -0.005578 -0.004613 -0.000784 0.001480 0.022263 0.000273
# 6 0.002745 0.001384 0.001590 0.000039 0.000273 0.027666
#
#
# Mechanical properties :
#
#
# Convention : Reuss Voigt Hill
#
# Bulk Modulus (GPa) = 30.64066 48.13758 39.38912
# Shear Modulus (GPa) = 36.77409 42.98564 39.87987
#
# Velocity S-wave (km/s) = 3.87473 4.18921 4.03503
# Velocity P-wave (km/s) = 5.70328 6.56141 6.14734
#
# Compressibility (1/GPa) = 0.03263637
#
# Stress axis : x y z
#
# Youngs Moduli (GPa) = 84.97369 46.37939 114.46491
#
# Poissons Ratio (x) = -0.02579 0.21696
# Poissons Ratio (y) = -0.04725 0.38637
# Poissons Ratio (z) = 0.16106 0.15655
#
# Static dielectric constant tensor:
#      x y z
#    x 1.935220 0.025290 0.015730 
#    y 0.025290 2.018670 -0.057230 
#    z 0.015730 -0.057230 1.958690 
# 
# From -- ./inp_files/590887.got.cif
#   From: 2010.05.17/outbox.cif.g08.bks.cpg/sg2_296_cif.got.tgz:590887.got - 2010.06.03 11:33:40.
