data_PCOD9080398
_publ_section_title
;
Structure prediction by ZEFSAII (Michael W. Deem and Ramdas Pophale) SiO2 
 PCOD9080398
Probable space group: P -1
;
_chemical_formula_sum "Si O2"
_cell_formula_units_Z 12
_cell_length_a 11.872420
_cell_length_b 11.669801
_cell_length_c 9.195231
_cell_angle_alpha 58.568252
_cell_angle_beta 49.978584
_cell_angle_gamma 35.795068
_cell_volume 570.631363
_symmetry_space_group_name_H-M "P -1"
_symmetry_group_IT_number 2
_symmetry_cell_setting 'triclinic'
loop_
_space_group_symop_operation_xyz
x,y,z
-x,-y,-z
loop_
_atom_site_type_symbol
_atom_site_label
_atom_site_fract_x
_atom_site_fract_y
_atom_site_fract_z
Si Si1 0.070575 0.433192 0.816587
Si Si2 0.448956 0.341799 0.627217
Si Si3 0.852513 0.910033 0.097360
Si Si4 0.035471 0.742157 0.598591
Si Si5 0.129786 0.966729 0.701093
Si Si6 0.390232 0.933959 0.082451
O O1 0.325182 0.292782 0.699090
O O2 0.979424 0.623863 0.683018
O O3 0.000000 0.500000 0.000000
O O4 0.035383 0.309414 0.869167
O O5 0.269292 0.573535 0.590555
O O6 0.664916 0.212562 0.444233
O O7 0.492797 0.270340 0.804302
O O8 0.010931 0.918913 0.899277
O O9 0.646250 0.048457 0.070414
O O10 0.804207 0.980209 0.256284
O O11 0.024108 0.848760 0.402692
O O12 0.149957 0.093417 0.244521
O O13 0.500000 0.000000 0.000000
#
# Coordination Sequence:
#
# PCOD9080398 Si02
#       6
#     2   2   2   2   2   2
#     4  10  18  39  63  89 117 151 207 253 286 353
#     4   9  20  38  63  88 123 153 212 243 308 356
#     4  11  22  40  64  88 129 157 207 246 308 366
#     4   9  20  40  61  90 123 152 215 244 304 359
#     4  10  24  42  59  90 128 170 185 251 315 367
#     4  11  18  37  63  89 118 159 203 259 298 347
#
# _framework density 21.029339
#
# number of rings (size 3 to 8) (size 9 to 14) (size 15 to 20)
#    1.000    1.000    3.333    0.000    0.000    4.000 
#    0.000   15.833    0.000    0.000    0.000    0.000 
#    0.000    0.000    0.000    0.000    0.000    0.000 
#
# Total GULP energy -66910.352240 kJ/mol
# GULP energy per Si atom -5575.862687 kJ/mol
# Density = 2.098148 g / cm^3
# Si number density = 21.029339 Si / 1000 Ang^3
#
#
#
# Elastic Constant Matrix: (Units=GPa)
#
#
# Indices 1 2 3 4 5 6 
#
# 1 79.8037 50.5899 15.9758 -2.6663 14.8480 12.2476
# 2 50.5899 99.6399 45.3996 -21.8914 7.1911 -3.8834
# 3 15.9758 45.3996 65.2636 -14.4448 -1.9158 3.1396
# 4 -2.6663 -21.8914 -14.4448 25.5779 -0.9964 -0.2087
# 5 14.8480 7.1911 -1.9158 -0.9964 27.3798 -6.0810
# 6 12.2476 -3.8834 3.1396 -0.2087 -6.0810 48.5444
#
#
#
# Elastic Compliance Matrix: (Units=1/GPa)
#
#
# Indices 1 2 3 4 5 6 
#
# 1 0.025258 -0.015716 0.002672 -0.009845 -0.011812 -0.009325
# 2 -0.015716 0.026666 -0.011706 0.014745 0.002852 0.007276
# 3 0.002672 -0.011706 0.023876 0.003830 0.002817 -0.002786
# 4 -0.009845 0.014745 0.003830 0.053066 0.004603 0.004220
# 5 -0.011812 0.002852 0.002817 0.004603 0.044458 0.008615
# 6 -0.009325 0.007276 -0.002786 0.004220 0.008615 0.024812
#
#
# Mechanical properties :
#
#
# Convention : Reuss Voigt Hill
#
# Bulk Modulus (GPa) = 38.02022 52.07086 45.04554
# Shear Modulus (GPa) = 19.50061 29.14989 24.32525
#
# Velocity S-wave (km/s) = 3.04847 3.72715 3.40476
# Velocity P-wave (km/s) = 5.52356 6.58308 6.07646
#
# Compressibility (1/GPa) = 0.02630179
#
# Stress axis : x y z
#
# Youngs Moduli (GPa) = 39.59075 37.50050 41.88360
#
# Poissons Ratio (x) = 0.58936 -0.11193
# Poissons Ratio (y) = 0.62221 0.49028
# Poissons Ratio (z) = -0.10580 0.43897
#
# Static dielectric constant tensor:
#      x y z
#    x 1.825650 -0.000310 -0.028330 
#    y -0.000310 1.769140 -0.038960 
#    z -0.028330 -0.038960 1.780480 
# 
# From -- ./inp_files/300139.got.cif
#   From: 2010.05.17/outbox.cif.g08.bks.cpg/sg2_151_cif.got.tgz:300139.got - 2010.06.03 11:33:40.
