data_PCOD9080064
_publ_section_title
;
Structure prediction by ZEFSAII (Michael W. Deem and Ramdas Pophale) SiO2 
 PCOD9080064
Probable space group: P -1
;
_chemical_formula_sum "Si O2"
_cell_formula_units_Z 13
_cell_length_a 13.870475
_cell_length_b 12.914525
_cell_length_c 7.274831
_cell_angle_alpha 118.175070
_cell_angle_beta 98.109547
_cell_angle_gamma 32.438327
_cell_volume 516.845169
_symmetry_space_group_name_H-M "P -1"
_symmetry_group_IT_number 2
_symmetry_cell_setting 'triclinic'
loop_
_space_group_symop_operation_xyz
x,y,z
-x,-y,-z
loop_
_atom_site_type_symbol
_atom_site_label
_atom_site_fract_x
_atom_site_fract_y
_atom_site_fract_z
Si Si1 0.973443 0.091969 0.804563
Si Si2 0.500000 0.500000 0.000000
Si Si3 0.888943 0.286015 0.348526
Si Si4 0.488763 0.745086 0.420682
Si Si5 0.039757 0.276076 0.862047
Si Si6 0.862582 0.762089 0.723538
Si Si7 0.419353 0.178517 0.783377
O O1 0.745496 0.278789 0.865948
O O2 0.016478 0.159506 0.750596
O O3 0.972020 0.144923 0.057050
O O4 0.124364 0.814621 0.612120
O O5 0.536045 0.363964 0.725208
O O6 0.649035 0.590479 0.504647
O O7 0.051818 0.220167 0.364695
O O8 0.606493 0.675372 0.219905
O O9 0.266606 0.052331 0.638968
O O10 0.084123 0.261747 0.073610
O O11 0.820718 0.577106 0.995159
O O12 0.000000 0.500000 0.500000
O O13 0.614597 0.995825 0.819405
O O14 0.500000 0.000000 0.500000
#
# Coordination Sequence:
#
# PCOD9080064 Si02
#       7
#     2   1   2   2   2   2   2
#     4   9  18  35  60  90 124 169 211 260 320 389
#     4  10  18  38  62  88 132 168 202 268 328 366
#     4   9  18  36  61  88 127 172 208 257 330 375
#     4  11  23  42  67  97 135 169 219 275 318 395
#     4  11  24  44  65 101 129 171 229 262 325 396
#     4  11  21  43  69  90 130 178 215 270 333 384
#     4  12  23  46  69  92 135 173 216 276 332 381
#
# _framework density 25.152601000000001
#
# number of rings (size 3 to 8) (size 9 to 14) (size 15 to 20)
#    0.000    1.538    6.154    0.923    0.000    3.077 
#    5.538    1.538    0.000    0.000    0.000    0.000 
#    0.000    0.000    0.000    0.000    0.000    0.000 
#
# Total GULP energy -72369.010455 kJ/mol
# GULP energy per Si atom -5566.846958 kJ/mol
# Density = 2.509535 g / cm^3
# Si number density = 25.152601 Si / 1000 Ang^3
#
#
#
# Elastic Constant Matrix: (Units=GPa)
#
#
# Indices 1 2 3 4 5 6 
#
# 1 67.9276 32.5321 14.9601 9.6744 4.4840 -10.4058
# 2 32.5321 112.4719 43.3057 25.6789 11.5533 -39.5516
# 3 14.9601 43.3057 96.4080 17.4891 -3.9155 -17.1083
# 4 9.6744 25.6789 17.4891 45.1052 -17.5664 -0.5589
# 5 4.4840 11.5533 -3.9155 -17.5664 26.6315 2.9243
# 6 -10.4058 -39.5516 -17.1083 -0.5589 2.9243 42.4175
#
#
#
# Elastic Compliance Matrix: (Units=1/GPa)
#
#
# Indices 1 2 3 4 5 6 
#
# 1 0.017281 -0.003309 -0.000599 -0.003004 -0.003667 0.001125
# 2 -0.003309 0.033919 -0.005095 -0.031453 -0.039061 0.031038
# 3 -0.000599 -0.005095 0.013017 -0.000505 0.003884 0.000078
# 4 -0.003004 -0.031453 -0.000505 0.063810 0.059851 -0.033554
# 5 -0.003667 -0.039061 0.003884 0.059851 0.099757 -0.041844
# 6 0.001125 0.031038 0.000078 -0.033554 -0.041844 0.055267
#
#
# Mechanical properties :
#
#
# Convention : Reuss Voigt Hill
#
# Bulk Modulus (GPa) = 21.64074 50.93370 36.28722
# Shear Modulus (GPa) = 15.79973 35.23148 25.51561
#
# Velocity S-wave (km/s) = 2.50902 3.74667 3.18847
# Velocity P-wave (km/s) = 4.12505 6.24584 5.29276
#
# Compressibility (1/GPa) = 0.04620914
#
# Stress axis : x y z
#
# Youngs Moduli (GPa) = 57.86768 29.48234 76.82040
#
# Poissons Ratio (x) = 0.09757 0.04604
# Poissons Ratio (y) = 0.19151 0.39141
# Poissons Ratio (z) = 0.03468 0.15021
#
# Static dielectric constant tensor:
#      x y z
#    x 1.984180 -0.012950 -0.026260 
#    y -0.012950 1.972160 -0.038230 
#    z -0.026260 -0.038230 2.080150 
# 
# From -- ./inp_files/309657.got.cif
#   From: 2010.05.17/outbox.cif.g08.bks.cpg/sg2_155_cif.got.tgz:309657.got - 2010.06.03 11:33:40.
