data_PCOD9080805
_publ_section_title
;
Structure prediction by ZEFSAII (Michael W. Deem and Ramdas Pophale) SiO2 
 PCOD9080805
Probable space group: P -1
;
_chemical_formula_sum "Si O2"
_cell_formula_units_Z 16
_cell_length_a 14.575281
_cell_length_b 11.531121
_cell_length_c 12.358431
_cell_angle_alpha 100.385388
_cell_angle_beta 44.924352
_cell_angle_gamma 65.533930
_cell_volume 902.837378
_symmetry_space_group_name_H-M "P -1"
_symmetry_group_IT_number 2
_symmetry_cell_setting 'triclinic'
loop_
_space_group_symop_operation_xyz
x,y,z
-x,-y,-z
loop_
_atom_site_type_symbol
_atom_site_label
_atom_site_fract_x
_atom_site_fract_y
_atom_site_fract_z
Si Si1 0.041380 0.106314 0.004992
Si Si2 0.009674 0.541682 0.187201
Si Si3 0.447362 0.155105 0.832333
Si Si4 0.557723 0.098432 0.965063
Si Si5 0.840451 0.857766 0.871631
Si Si6 0.146781 0.542059 0.860617
Si Si7 0.138870 0.442739 0.477166
Si Si8 0.555050 0.096624 0.496132
O O1 0.091504 0.100532 0.086602
O O2 0.854726 0.323954 0.157830
O O3 0.244131 0.004516 0.752587
O O4 0.000000 0.000000 0.000000
O O5 0.971079 0.449966 0.132887
O O6 0.859898 0.646830 0.434553
O O7 0.235521 0.377838 0.025819
O O8 0.020693 0.625997 0.093848
O O9 0.579294 0.078431 0.602043
O O10 0.559626 0.120320 0.840076
O O11 0.350014 0.091822 0.918290
O O12 0.367201 0.297844 0.216179
O O13 0.500000 0.000000 0.000000
O O14 0.759652 0.971915 0.847341
O O15 0.026521 0.637523 0.649732
O O16 0.361689 0.319743 0.663724
O O17 0.000000 0.500000 0.500000
O O18 0.500000 0.000000 0.500000
#
# Coordination Sequence:
#
# PCOD9080805 Si02
#       8
#     2   2   2   2   2   2   2   2
#     4  12  25  41  57  82 118 159 198 238 282 345
#     4   9  16  29  53  81 120 140 178 233 297 337
#     4   9  16  32  51  84 117 132 185 229 285 346
#     4  10  19  28  49  80 112 147 175 225 283 343
#     4  10  20  35  49  80 117 145 189 232 275 345
#     4  10  20  35  53  81 114 153 189 238 283 342
#     4  11  17  29  49  81 122 147 171 229 304 337
#     4  11  21  36  62  87 113 150 186 243 304 337
#
# _framework density 17.721907000000002
#
# number of rings (size 3 to 8) (size 9 to 14) (size 15 to 20)
#    0.000    1.750    7.500    1.500    1.750    2.500 
#    0.000    0.000    0.000    0.750    0.000    2.625 
#    0.000    0.000    0.000    0.000    0.000    0.000 
#
# Total GULP energy -89142.500391 kJ/mol
# GULP energy per Si atom -5571.406274 kJ/mol
# Density = 1.768157 g / cm^3
# Si number density = 17.721907 Si / 1000 Ang^3
#
#
#
# Elastic Constant Matrix: (Units=GPa)
#
#
# Indices 1 2 3 4 5 6 
#
# 1 106.0254 64.0713 33.7720 -4.7518 26.0214 -17.7741
# 2 64.0713 91.9929 23.1613 8.2941 10.0022 -18.0629
# 3 33.7720 23.1613 80.1884 4.3196 15.4668 -9.0070
# 4 -4.7518 8.2941 4.3196 26.2399 -8.9151 7.3753
# 5 26.0214 10.0022 15.4668 -8.9151 23.1637 -9.0046
# 6 -17.7741 -18.0629 -9.0070 7.3753 -9.0046 40.5703
#
#
#
# Elastic Compliance Matrix: (Units=1/GPa)
#
#
# Indices 1 2 3 4 5 6 
#
# 1 0.022811 -0.013937 -0.002640 0.003552 -0.016945 -0.001204
# 2 -0.013937 0.022266 -0.000279 -0.009649 0.005092 0.006630
# 3 -0.002640 -0.000279 0.016042 -0.006699 -0.009679 0.001350
# 4 0.003552 -0.009649 -0.006699 0.052730 0.021423 -0.009058
# 5 -0.016945 0.005092 -0.009679 0.021423 0.077006 0.005891
# 6 -0.001204 0.006630 0.001350 -0.009058 0.005891 0.030327
#
#
# Mechanical properties :
#
#
# Convention : Reuss Voigt Hill
#
# Bulk Modulus (GPa) = 36.48638 57.80177 47.14407
# Shear Modulus (GPa) = 18.93732 28.47494 23.70613
#
# Velocity S-wave (km/s) = 3.27246 4.01280 3.66139
# Velocity P-wave (km/s) = 5.90861 7.35913 6.67340
#
# Compressibility (1/GPa) = 0.02740749
#
# Stress axis : x y z
#
# Youngs Moduli (GPa) = 43.83909 44.91245 62.33485
#
# Poissons Ratio (x) = 0.62594 0.16454
# Poissons Ratio (y) = 0.61098 0.01740
# Poissons Ratio (z) = 0.11572 0.01253
#
# Static dielectric constant tensor:
#      x y z
#    x 1.582200 -0.042310 0.014030 
#    y -0.042310 1.670680 0.025820 
#    z 0.014030 0.025820 1.653700 
# 
# From -- ./inp_files/266686.got.cif
#   From: 2010.05.17/outbox.cif.g08.bks.cpg/sg2_134_cif.got.tgz:266686.got - 2010.06.03 11:33:40.
