data_PCOD9080075
_publ_section_title
;
Structure prediction by ZEFSAII (Michael W. Deem and Ramdas Pophale) SiO2 
 PCOD9080075
Probable space group: P -1
;
_chemical_formula_sum "Si O2"
_cell_formula_units_Z 14
_cell_length_a 16.803313
_cell_length_b 7.603446
_cell_length_c 21.533200
_cell_angle_alpha 49.649946
_cell_angle_beta 22.999103
_cell_angle_gamma 36.784533
_cell_volume 594.398434
_symmetry_space_group_name_H-M "P -1"
_symmetry_group_IT_number 2
_symmetry_cell_setting 'triclinic'
loop_
_space_group_symop_operation_xyz
x,y,z
-x,-y,-z
loop_
_atom_site_type_symbol
_atom_site_label
_atom_site_fract_x
_atom_site_fract_y
_atom_site_fract_z
Si Si1 0.625090 0.642815 0.608601
Si Si2 0.788421 0.896565 0.291520
Si Si3 0.487469 0.247787 0.092426
Si Si4 0.320293 0.907866 0.472628
Si Si5 0.131952 0.250144 0.245688
Si Si6 0.113551 0.759724 0.765494
Si Si7 0.216996 0.683814 0.302642
O O1 0.667619 0.452595 0.681056
O O2 0.845287 0.398933 0.453263
O O3 0.314381 0.908252 0.742848
O O4 0.705931 0.837833 0.527758
O O5 0.026447 0.515886 0.209620
O O6 0.500000 0.000000 0.500000
O O7 0.880983 0.023006 0.243092
O O8 0.312086 0.231453 0.174314
O O9 0.349766 0.401144 0.223376
O O10 0.500000 0.500000 0.000000
O O11 0.801125 0.909990 0.952409
O O12 0.203008 0.789931 0.626763
O O13 0.646340 0.598292 0.300845
O O14 0.117506 0.087561 0.518582
O O15 0.273589 0.909450 0.195798
#
# Coordination Sequence:
#
# PCOD9080075 Si02
#       7
#     2   2   2   2   2   2   2
#     4  11  22  41  67 100 135 163 222 278 314 388
#     4  10  18  38  62  96 129 158 214 275 311 370
#     4  12  23  46  64  96 138 169 219 270 321 393
#     4  11  21  39  70  96 124 172 219 267 333 373
#     4  11  23  41  70  99 128 173 219 270 320 386
#     4  11  22  40  66  97 129 166 220 276 314 384
#     4  12  25  42  70  97 131 176 215 268 336 377
#
# _framework density 23.553225999999999
#
# number of rings (size 3 to 8) (size 9 to 14) (size 15 to 20)
#    0.000    0.857    7.143    2.571    2.000    0.571 
#    2.571    1.429    0.000    0.000    0.000    0.000 
#    0.000    0.000    0.000    0.000    0.000    0.000 
#
# Total GULP energy -78345.835615 kJ/mol
# GULP energy per Si atom -5596.131115 kJ/mol
# Density = 2.349962 g / cm^3
# Si number density = 23.553226 Si / 1000 Ang^3
#
#
#
# Elastic Constant Matrix: (Units=GPa)
#
#
# Indices 1 2 3 4 5 6 
#
# 1 100.3684 52.7853 24.4382 15.5837 -20.7224 -17.7564
# 2 52.7853 113.2228 44.6782 38.3974 -0.0085 -21.7238
# 3 24.4382 44.6782 61.3202 37.0077 -14.2953 -4.3228
# 4 15.5837 38.3974 37.0077 32.6581 -6.2746 -8.6863
# 5 -20.7224 -0.0085 -14.2953 -6.2746 29.5687 4.3146
# 6 -17.7564 -21.7238 -4.3228 -8.6863 4.3146 57.7920
#
#
#
# Elastic Compliance Matrix: (Units=1/GPa)
#
#
# Indices 1 2 3 4 5 6 
#
# 1 0.017158 -0.009769 -0.001142 0.007502 0.012816 0.001685
# 2 -0.009769 0.021607 -0.003536 -0.018403 -0.012900 0.003053
# 3 -0.001142 -0.003536 0.060446 -0.062749 0.016245 -0.007803
# 4 0.007502 -0.018403 -0.062749 0.122104 -0.000499 0.009084
# 5 0.012816 -0.012900 0.016245 -0.000499 0.051069 -0.003584
# 6 0.001685 0.003053 -0.007803 0.009084 -0.003584 0.020018
#
#
# Mechanical properties :
#
#
# Convention : Reuss Voigt Hill
#
# Bulk Modulus (GPa) = 14.22083 57.63498 35.92791
# Shear Modulus (GPa) = 14.50390 34.20441 24.35415
#
# Velocity S-wave (km/s) = 2.48421 3.81493 3.21908
# Velocity P-wave (km/s) = 3.77879 6.62783 5.39478
#
# Compressibility (1/GPa) = 0.07031938
#
# Stress axis : x y z
#
# Youngs Moduli (GPa) = 58.28147 46.28025 16.54363
#
# Poissons Ratio (x) = 0.45210 0.01889
# Poissons Ratio (y) = 0.56933 0.05849
# Poissons Ratio (z) = 0.06655 0.16363
#
# Static dielectric constant tensor:
#      x y z
#    x 1.892090 -0.013220 0.020800 
#    y -0.013220 1.922190 0.014290 
#    z 0.020800 0.014290 1.914420 
# 
# From -- ./inp_files/418349.got.cif
#   From: 2010.05.17/outbox.cif.g08.bks.cpg/sg2_210_cif.got.tgz:418349.got - 2010.06.03 11:33:40.
