data_PCOD9080486
_publ_section_title
;
Structure prediction by ZEFSAII (Michael W. Deem and Ramdas Pophale) SiO2 
 PCOD9080486
Probable space group: P -1
;
_chemical_formula_sum "Si O2"
_cell_formula_units_Z 16
_cell_length_a 11.579270
_cell_length_b 8.697005
_cell_length_c 8.782900
_cell_angle_alpha 112.115466
_cell_angle_beta 86.348172
_cell_angle_gamma 120.419514
_cell_volume 697.634065
_symmetry_space_group_name_H-M "P -1"
_symmetry_group_IT_number 2
_symmetry_cell_setting 'triclinic'
loop_
_space_group_symop_operation_xyz
x,y,z
-x,-y,-z
loop_
_atom_site_type_symbol
_atom_site_label
_atom_site_fract_x
_atom_site_fract_y
_atom_site_fract_z
Si Si1 0.344500 0.317182 0.571221
Si Si2 0.459355 0.359825 0.097944
Si Si3 0.128626 0.018550 0.721025
Si Si4 0.468584 0.066611 0.368518
Si Si5 0.322935 0.718626 0.035204
Si Si6 0.179408 0.305857 0.066576
Si Si7 0.871070 0.641015 0.571604
Si Si8 0.236576 0.751120 0.730315
O O1 0.460584 0.506163 0.716978
O O2 0.263877 0.367049 0.476629
O O3 0.236797 0.181252 0.659216
O O4 0.411531 0.204793 0.455596
O O5 0.527437 0.233819 0.013402
O O6 0.300041 0.268810 0.091487
O O7 0.500000 0.500000 0.000000
O O8 0.197681 0.909416 0.752108
O O9 0.999019 0.844845 0.582510
O O10 0.090715 0.129176 0.891946
O O11 0.500000 0.000000 0.500000
O O12 0.611265 0.171253 0.309853
O O13 0.355271 0.881787 0.216293
O O14 0.238453 0.715874 0.896433
O O15 0.246956 0.506817 0.040832
O O16 0.120313 0.340608 0.238591
O O17 0.858706 0.449919 0.428021
#
# Coordination Sequence:
#
# PCOD9080486 Si02
#       8
#     2   2   2   2   2   2   2   2
#     4  12  24  43  70  99 134 175 221 273 336 395
#     4  10  18  39  68  93 127 168 209 268 340 383
#     4  12  25  47  68  94 136 184 222 268 328 394
#     4  12  24  41  68 107 137 165 215 288 339 388
#     4  11  23  42  66  99 137 171 210 273 348 398
#     4  11  24  43  70  98 133 172 225 277 331 390
#     4  12  27  45  67  98 134 181 229 269 315 403
#     4  12  25  44  68  99 137 172 224 271 339 394
#
# _framework density 22.934660000000001
#
# number of rings (size 3 to 8) (size 9 to 14) (size 15 to 20)
#    0.000    0.500    5.000    5.250    3.500    1.000 
#    0.000    0.625    0.000    0.000    0.000    0.000 
#    0.000    0.000    0.000    0.000    0.000    0.000 
#
# Total GULP energy -89617.285260 kJ/mol
# GULP energy per Si atom -5601.080329 kJ/mol
# Density = 2.288246 g / cm^3
# Si number density = 22.934660 Si / 1000 Ang^3
#
#
#
# Elastic Constant Matrix: (Units=GPa)
#
#
# Indices 1 2 3 4 5 6 
#
# 1 32.7861 -2.6643 5.6727 -3.0784 6.4540 -11.2818
# 2 -2.6643 75.5431 48.7110 -5.0175 8.5875 2.2225
# 3 5.6727 48.7110 151.9981 20.7696 0.7875 -9.7091
# 4 -3.0784 -5.0175 20.7696 34.3987 0.7010 12.3064
# 5 6.4540 8.5875 0.7875 0.7010 28.8167 3.5245
# 6 -11.2818 2.2225 -9.7091 12.3064 3.5245 31.8982
#
#
#
# Elastic Compliance Matrix: (Units=1/GPa)
#
#
# Indices 1 2 3 4 5 6 
#
# 1 0.038022 0.003131 -0.001461 -0.000052 -0.011124 0.014034
# 2 0.003131 0.020441 -0.008527 0.010831 -0.006038 -0.006423
# 3 -0.001461 -0.008527 0.011335 -0.010956 0.001902 0.007544
# 4 -0.000052 0.010831 -0.010956 0.044902 -0.001407 -0.021276
# 5 -0.011124 -0.006038 0.001902 -0.001407 0.039805 -0.006790
# 6 0.014034 -0.006423 0.007544 -0.021276 -0.006790 0.048016
#
#
# Mechanical properties :
#
#
# Convention : Reuss Voigt Hill
#
# Bulk Modulus (GPa) = 17.83002 40.41847 29.12425
# Shear Modulus (GPa) = 21.28307 32.92991 27.10649
#
# Velocity S-wave (km/s) = 3.04959 3.79332 3.44161
# Velocity P-wave (km/s) = 4.49346 6.07020 5.34034
#
# Compressibility (1/GPa) = 0.05608518
#
# Stress axis : x y z
#
# Youngs Moduli (GPa) = 26.30046 48.92225 88.22055
#
# Poissons Ratio (x) = -0.15320 0.12892
# Poissons Ratio (y) = -0.08236 0.75221
# Poissons Ratio (z) = 0.03843 0.41714
#
# Static dielectric constant tensor:
#      x y z
#    x 1.853970 0.028720 -0.021530 
#    y 0.028720 1.873200 -0.035330 
#    z -0.021530 -0.035330 1.876550 
# 
# From -- ./inp_files/184820.got.cif
#   From: 2010.05.17/outbox.cif.g08.bks.cpg/sg2_93_cif.got.tgz:184820.got - 2010.06.03 11:33:40.
