data_PCOD9080836
_publ_section_title
;
Structure prediction by ZEFSAII (Michael W. Deem and Ramdas Pophale) SiO2 
 PCOD9080836
Probable space group: P -1
;
_chemical_formula_sum "Si O2"
_cell_formula_units_Z 14
_cell_length_a 10.588830
_cell_length_b 6.946139
_cell_length_c 9.086082
_cell_angle_alpha 117.937152
_cell_angle_beta 82.743285
_cell_angle_gamma 114.292199
_cell_volume 536.303588
_symmetry_space_group_name_H-M "P -1"
_symmetry_group_IT_number 2
_symmetry_cell_setting 'triclinic'
loop_
_space_group_symop_operation_xyz
x,y,z
-x,-y,-z
loop_
_atom_site_type_symbol
_atom_site_label
_atom_site_fract_x
_atom_site_fract_y
_atom_site_fract_z
Si Si1 0.976032 0.752193 0.332878
Si Si2 0.195910 0.398246 0.441485
Si Si3 0.408787 0.586792 0.910878
Si Si4 0.595307 0.327579 0.740048
Si Si5 0.687692 0.057556 0.073101
Si Si6 0.274989 0.975061 0.289466
Si Si7 0.937745 0.015549 0.171403
O O1 0.879129 0.555024 0.387194
O O2 0.130597 0.769072 0.293311
O O3 0.915365 0.788707 0.198620
O O4 0.000000 0.000000 0.500000
O O5 0.308027 0.582890 0.384845
O O6 0.061344 0.238232 0.307342
O O7 0.270677 0.224701 0.419392
O O8 0.461128 0.392399 0.770732
O O9 0.343978 0.706864 0.846011
O O10 0.337518 0.534097 0.064660
O O11 0.547865 0.820161 0.018116
O O12 0.595737 0.069661 0.681463
O O13 0.795978 0.045249 0.171307
O O14 0.734796 0.041627 0.891874
O O15 0.000000 0.000000 0.000000
#
# Coordination Sequence:
#
# PCOD9080836 Si02
#       7
#     2   2   2   2   2   2   2
#     4   8  17  30  48  78 104 128 162 196 253 313
#     4  10  19  33  51  79 104 129 162 204 252 306
#     4   9  19  30  46  78  99 130 177 207 237 290
#     4  10  18  31  51  73  98 134 171 206 242 292
#     4  10  16  30  53  73 103 131 162 211 252 284
#     4   9  16  29  49  75  98 127 161 204 248 295
#     4  10  15  28  55  78 100 130 160 202 262 295
#
# _framework density 26.104617999999999
#
# number of rings (size 3 to 8) (size 9 to 14) (size 15 to 20)
#    0.000    2.857    4.286    0.000    0.000    0.571 
#    0.000    2.857    6.286    1.714    0.000    0.000 
#    0.000    0.000    0.000    0.000    0.000    0.000 
#
# Total GULP energy -78161.465199 kJ/mol
# GULP energy per Si atom -5582.961800 kJ/mol
# Density = 2.604520 g / cm^3
# Si number density = 26.104618 Si / 1000 Ang^3
#
#
#
# Elastic Constant Matrix: (Units=GPa)
#
#
# Indices 1 2 3 4 5 6 
#
# 1 104.1903 26.2574 35.4507 -2.6417 0.7489 -25.7856
# 2 26.2574 70.1294 36.7168 -20.5030 -9.1589 -18.8199
# 3 35.4507 36.7168 83.0659 -42.1115 -11.6395 19.5835
# 4 -2.6417 -20.5030 -42.1115 40.7654 15.0671 -0.9526
# 5 0.7489 -9.1589 -11.6395 15.0671 47.1228 -3.4992
# 6 -25.7856 -18.8199 19.5835 -0.9526 -3.4992 50.0393
#
#
#
# Elastic Compliance Matrix: (Units=1/GPa)
#
#
# Indices 1 2 3 4 5 6 
#
# 1 0.035766 0.015596 -0.058503 -0.052203 0.008177 0.046770
# 2 0.015596 0.034908 -0.045751 -0.030723 0.007959 0.039042
# 3 -0.058503 -0.045751 0.141502 0.124529 -0.020386 -0.101787
# 4 -0.052203 -0.030723 0.124529 0.142002 -0.026196 -0.086320
# 5 0.008177 0.007959 -0.020386 -0.026196 0.027210 0.016589
# 6 0.046770 0.039042 -0.101787 -0.086320 0.016589 0.098121
#
#
# Mechanical properties :
#
#
# Convention : Reuss Voigt Hill
#
# Bulk Modulus (GPa) = 28.68716 50.47059 39.57888
# Shear Modulus (GPa) = 7.48004 38.18288 22.83146
#
# Velocity S-wave (km/s) = 1.69459 3.82866 2.96060
# Velocity P-wave (km/s) = 3.85253 6.23865 5.18473
#
# Compressibility (1/GPa) = 0.03485880
#
# Stress axis : x y z
#
# Youngs Moduli (GPa) = 27.95981 28.64681 7.06705
#
# Poissons Ratio (x) = -0.44677 0.41344
# Poissons Ratio (y) = -0.43605 0.32332
# Poissons Ratio (z) = 1.63573 1.31062
#
# Static dielectric constant tensor:
#      x y z
#    x 2.107040 0.000920 -0.041650 
#    y 0.000920 2.135610 -0.037330 
#    z -0.041650 -0.037330 2.098500 
# 
# From -- ./inp_files/231952.got.cif
#   From: 2010.05.17/outbox.cif.g08.bks.cpg/sg2_116_cif.got.tgz:231952.got - 2010.06.03 11:33:40.
