data_PCOD9080041
_publ_section_title
;
Structure prediction by ZEFSAII (Michael W. Deem and Ramdas Pophale) SiO2 
 PCOD9080041
Probable space group: P -1
;
_chemical_formula_sum "Si O2"
_cell_formula_units_Z 14
_cell_length_a 13.900564
_cell_length_b 11.321092
_cell_length_c 11.320218
_cell_angle_alpha 113.321159
_cell_angle_beta 55.837182
_cell_angle_gamma 149.586772
_cell_volume 729.413728
_symmetry_space_group_name_H-M "P -1"
_symmetry_group_IT_number 2
_symmetry_cell_setting 'triclinic'
loop_
_space_group_symop_operation_xyz
x,y,z
-x,-y,-z
loop_
_atom_site_type_symbol
_atom_site_label
_atom_site_fract_x
_atom_site_fract_y
_atom_site_fract_z
Si Si1 0.583356 0.857208 0.395747
Si Si2 0.626270 0.494593 0.952363
Si Si3 0.157566 0.380671 0.920144
Si Si4 0.315225 0.698978 0.725296
Si Si5 0.038205 0.620059 0.743117
Si Si6 0.941179 0.981750 0.168209
Si Si7 0.600483 0.219040 0.743818
O O1 0.718768 0.852767 0.280273
O O2 0.583720 0.257283 0.637258
O O3 0.763436 0.137612 0.372316
O O4 0.462755 0.748188 0.559528
O O5 0.660421 0.509007 0.074282
O O6 0.500000 0.500000 0.000000
O O7 0.514565 0.261308 0.892983
O O8 0.862604 0.738943 0.825146
O O9 0.244159 0.561517 0.837563
O O10 0.061772 0.165040 0.835222
O O11 0.012543 0.323920 0.093712
O O12 0.112157 0.560217 0.734296
O O13 0.453281 0.956989 0.755415
O O14 0.833533 0.411891 0.717277
O O15 0.000000 0.000000 0.000000
#
# Coordination Sequence:
#
# PCOD9080041 Si02
#       7
#     2   2   2   2   2   2   2
#     4  11  21  38  61  89 113 156 197 239 289 345
#     4  10  20  35  64  92 105 151 208 242 281 335
#     4  10  21  39  59  85 120 153 190 246 290 343
#     4  11  25  36  56  91 125 154 185 236 308 345
#     4  10  20  39  60  87 112 161 199 231 283 344
#     4  10  18  38  62  81 112 149 200 241 280 339
#     4  10  20  37  62  84 119 151 198 241 275 349
#
# _framework density 19.193498000000002
#
# number of rings (size 3 to 8) (size 9 to 14) (size 15 to 20)
#    0.000    1.714    4.286    3.857    2.000    5.143 
#    2.571    0.000    0.000    1.714    0.000    0.000 
#    0.000    0.000    0.000    0.000    0.000    0.000 
#
# Total GULP energy -77995.704509 kJ/mol
# GULP energy per Si atom -5571.121751 kJ/mol
# Density = 1.914981 g / cm^3
# Si number density = 19.193498 Si / 1000 Ang^3
#
#
#
# Elastic Constant Matrix: (Units=GPa)
#
#
# Indices 1 2 3 4 5 6 
#
# 1 76.1788 13.2628 27.7852 -11.1829 -20.6410 15.3385
# 2 13.2628 57.2459 15.1393 8.8405 -1.5698 3.1903
# 3 27.7852 15.1393 67.8085 -8.9541 -18.7385 -2.8471
# 4 -11.1829 8.8405 -8.9541 18.6893 -7.7385 -2.6315
# 5 -20.6410 -1.5698 -18.7385 -7.7385 27.4286 0.4999
# 6 15.3385 3.1903 -2.8471 -2.6315 0.4999 32.7630
#
#
#
# Elastic Compliance Matrix: (Units=1/GPa)
#
#
# Indices 1 2 3 4 5 6 
#
# 1 0.033980 -0.015359 0.007291 0.047512 0.043272 -0.010623
# 2 -0.015359 0.031454 -0.016094 -0.045778 -0.033661 -0.000434
# 3 0.007291 -0.016094 0.032027 0.043917 0.038766 0.003873
# 4 0.047512 -0.045778 0.043917 0.170417 0.111253 -0.001979
# 5 0.043272 -0.033661 0.038766 0.111253 0.125087 -0.006585
# 6 -0.010623 -0.000434 0.003873 -0.001979 -0.006585 0.035816
#
#
# Mechanical properties :
#
#
# Convention : Reuss Voigt Hill
#
# Bulk Modulus (GPa) = 20.35128 34.84531 27.59829
# Shear Modulus (GPa) = 10.13203 25.44592 17.78898
#
# Velocity S-wave (km/s) = 2.30008 3.64505 3.04768
# Velocity P-wave (km/s) = 4.20476 5.99244 5.17636
#
# Compressibility (1/GPa) = 0.04913696
#
# Stress axis : x y z
#
# Youngs Moduli (GPa) = 29.42918 31.79263 31.22323
#
# Poissons Ratio (x) = 0.48831 -0.22766
# Poissons Ratio (y) = 0.45201 0.50251
# Poissons Ratio (z) = -0.21458 0.51167
#
# Static dielectric constant tensor:
#      x y z
#    x 1.696790 0.015760 -0.040980 
#    y 0.015760 1.759310 0.035440 
#    z -0.040980 0.035440 1.699920 
# 
# From -- ./inp_files/196929.got.cif
#   From: 2010.05.17/outbox.cif.g08.bks.cpg/sg2_99_cif.got.tgz:196929.got - 2010.06.03 11:33:40.
