data_PCOD9080914
_publ_section_title
;
Structure prediction by ZEFSAII (Michael W. Deem and Ramdas Pophale) SiO2 
 PCOD9080914
Probable space group: P -1
;
_chemical_formula_sum "Si O2"
_cell_formula_units_Z 16
_cell_length_a 15.192294
_cell_length_b 15.750571
_cell_length_c 15.792056
_cell_angle_alpha 161.516218
_cell_angle_beta 133.768913
_cell_angle_gamma 42.337433
_cell_volume 806.100099
_symmetry_space_group_name_H-M "P -1"
_symmetry_group_IT_number 2
_symmetry_cell_setting 'triclinic'
loop_
_space_group_symop_operation_xyz
x,y,z
-x,-y,-z
loop_
_atom_site_type_symbol
_atom_site_label
_atom_site_fract_x
_atom_site_fract_y
_atom_site_fract_z
Si Si1 0.874597 0.915166 0.819902
Si Si2 0.000204 0.503641 0.808374
Si Si3 0.237501 0.094274 0.079778
Si Si4 0.948219 0.101257 0.654152
Si Si5 0.616732 0.563334 0.425909
Si Si6 0.295255 0.330387 0.784761
Si Si7 0.736339 0.555879 0.313074
Si Si8 0.345869 0.722607 0.325457
O O1 0.832208 0.858540 0.830849
O O2 0.859040 0.662137 0.512907
O O3 0.775633 0.216577 0.002519
O O4 0.000000 0.000000 0.000000
O O5 0.871275 0.709359 0.870301
O O6 0.135606 0.473111 0.821045
O O7 0.005234 0.181769 0.522483
O O8 0.006538 0.656029 0.045687
O O9 0.356020 0.207075 0.278682
O O10 0.292180 0.752493 0.780595
O O11 0.791022 0.227680 0.672791
O O12 0.000000 0.000000 0.500000
O O13 0.657551 0.610451 0.400643
O O14 0.468034 0.592085 0.344945
O O15 0.331410 0.295812 0.677588
O O16 0.338587 0.029849 0.577403
O O17 0.353566 0.527247 0.063559
#
# Coordination Sequence:
#
# PCOD9080914 Si02
#       8
#     2   2   2   2   2   2   2   2
#     4  10  19  30  46  69 102 143 182 218 255 293
#     4  10  20  35  57  83 107 133 170 216 267 309
#     4  10  20  34  53  76 107 143 177 214 253 311
#     4  10  21  38  61  84 104 129 166 218 272 319
#     4  10  21  35  51  75 108 149 182 206 253 308
#     4  10  20  33  52  78 105 137 181 226 261 296
#     4  10  20  31  46  72 104 141 182 218 254 296
#     4  10  21  36  55  77 104 140 176 216 265 315
#
# _framework density 19.848652000000001
#
# number of rings (size 3 to 8) (size 9 to 14) (size 15 to 20)
#    0.000    2.000    0.000    3.750    0.000    5.000 
#    0.000    0.000    0.000    4.500    0.000    0.000 
#    0.000    0.000    0.000    0.000    0.000    0.000 
#
# Total GULP energy -89276.132282 kJ/mol
# GULP energy per Si atom -5579.758268 kJ/mol
# Density = 1.980348 g / cm^3
# Si number density = 19.848652 Si / 1000 Ang^3
#
#
#
# Elastic Constant Matrix: (Units=GPa)
#
#
# Indices 1 2 3 4 5 6 
#
# 1 1.0330 12.2438 21.1767 6.9238 15.4661 -0.7578
# 2 12.2438 72.6891 0.5585 -8.3383 10.9799 -13.4842
# 3 21.1767 0.5585 78.0208 -13.3644 -12.2971 -6.3520
# 4 6.9238 -8.3383 -13.3644 5.7609 -11.2437 4.5391
# 5 15.4661 10.9799 -12.2971 -11.2437 1.7610 -4.6827
# 6 -0.7578 -13.4842 -6.3520 4.5391 -4.6827 13.4292
#
#
#
# Elastic Compliance Matrix: (Units=1/GPa)
#
#
# Indices 1 2 3 4 5 6 
#
# 1 0.034919 -0.008115 0.004491 0.043497 0.042942 -0.003782
# 2 -0.008115 0.020100 0.000726 -0.000999 -0.015177 0.015114
# 3 0.004491 0.000726 0.009176 -0.006382 -0.010392 0.003856
# 4 0.043497 -0.000999 -0.006382 0.076987 -0.029700 -0.037946
# 5 0.042942 -0.015177 -0.010392 -0.029700 0.036926 0.005183
# 6 -0.003782 0.015114 0.003856 -0.037946 0.005183 0.105884
#
#
# Mechanical properties :
#
#
# Convention : Reuss Voigt Hill
#
# Bulk Modulus (GPa) = 17.12338 24.41122 20.76730
# Shear Modulus (GPa) = 16.16793 12.04114 14.10453
#
# Velocity S-wave (km/s) = 2.85715 2.46569 2.66861
# Velocity P-wave (km/s) = 4.41929 4.52013 4.46999
#
# Compressibility (1/GPa) = 0.05839970
#
# Stress axis : x y z
#
# Youngs Moduli (GPa) = 28.63742 49.75129 108.98406
#
# Poissons Ratio (x) = 0.40372 -0.48947
# Poissons Ratio (y) = 0.23239 -0.07912
# Poissons Ratio (z) = -0.12862 -0.03612
#
# Static dielectric constant tensor:
#      x y z
#    x 1.708270 -0.037870 0.024130 
#    y -0.037870 1.713800 -0.005960 
#    z 0.024130 -0.005960 1.713320 
# 
# From -- ./inp_files/81512.got.cif
#   From: 2010.05.17/outbox.cif.g08.bks.cpg/sg2_41_cif.got.tgz:81512.got - 2010.06.03 11:33:40.
