data_PCOD9080605
_publ_section_title
;
Structure prediction by ZEFSAII (Michael W. Deem and Ramdas Pophale) SiO2 
 PCOD9080605
Probable space group: P -1
;
_chemical_formula_sum "Si O2"
_cell_formula_units_Z 14
_cell_length_a 11.759372
_cell_length_b 11.762306
_cell_length_c 7.722187
_cell_angle_alpha 54.166149
_cell_angle_beta 126.831817
_cell_angle_gamma 143.290133
_cell_volume 498.612602
_symmetry_space_group_name_H-M "P -1"
_symmetry_group_IT_number 2
_symmetry_cell_setting 'triclinic'
loop_
_space_group_symop_operation_xyz
x,y,z
-x,-y,-z
loop_
_atom_site_type_symbol
_atom_site_label
_atom_site_fract_x
_atom_site_fract_y
_atom_site_fract_z
Si Si1 0.672317 0.061485 0.983464
Si Si2 0.500000 0.500000 0.000000
Si Si3 0.702303 0.523999 0.485434
Si Si4 0.085575 0.635744 0.630106
Si Si5 0.000000 0.500000 0.000000
Si Si6 0.246106 0.988634 0.242406
Si Si7 0.290507 0.185522 0.561854
Si Si8 0.823138 0.777406 0.898250
O O1 0.860416 0.288315 0.966687
O O2 0.744224 0.963095 0.210627
O O3 0.626828 0.002209 0.793364
O O4 0.500000 0.000000 0.000000
O O5 0.675554 0.546853 0.241283
O O6 0.363998 0.448235 0.099553
O O7 0.901426 0.568851 0.643534
O O8 0.507536 0.311283 0.563039
O O9 0.722384 0.676305 0.478576
O O10 0.000000 0.500000 0.500000
O O11 0.212698 0.856832 0.486408
O O12 0.168984 0.601556 0.892395
O O13 0.312004 0.200131 0.128938
O O14 0.022658 0.861529 0.083629
O O15 0.140123 0.098043 0.342381
#
# Coordination Sequence:
#
# PCOD9080605 Si02
#       8
#     2   1   2   2   1   2   2   2
#     4  12  27  50  71 107 153 201 252 310 373 454
#     4  10  18  40  66 104 136 180 226 298 374 432
#     4  10  22  42  73 106 148 185 250 309 376 446
#     4  12  25  47  71 108 150 194 245 308 366 455
#     4  12  28  50  76 108 148 208 246 300 390 434
#     4  11  24  45  71 104 143 192 242 312 371 448
#     4  10  23  42  71 108 144 191 245 311 369 448
#     4  10  22  41  71 105 141 182 242 306 381 437
#
# _framework density 28.077908999999998
#
# number of rings (size 3 to 8) (size 9 to 14) (size 15 to 20)
#    0.000    1.143    2.857    2.571    4.000    0.571 
#   15.429    1.429    0.000    0.000    0.000    0.000 
#    0.000    0.000    0.000    0.000    0.000    0.000 
#
# Total GULP energy -78014.893097 kJ/mol
# GULP energy per Si atom -5572.492364 kJ/mol
# Density = 2.801400 g / cm^3
# Si number density = 28.077909 Si / 1000 Ang^3
#
#
#
# Elastic Constant Matrix: (Units=GPa)
#
#
# Indices 1 2 3 4 5 6 
#
# 1 143.6832 34.9370 21.0164 -13.0482 -2.6603 8.5404
# 2 34.9370 55.6177 18.8035 -7.0134 19.6524 10.9934
# 3 21.0164 18.8035 117.4916 -32.8127 -21.0462 1.9009
# 4 -13.0482 -7.0134 -32.8127 47.9080 0.7165 -3.2642
# 5 -2.6603 19.6524 -21.0462 0.7165 43.9657 4.6879
# 6 8.5404 10.9934 1.9009 -3.2642 4.6879 49.1748
#
#
#
# Elastic Compliance Matrix: (Units=1/GPa)
#
#
# Indices 1 2 3 4 5 6 
#
# 1 0.008780 -0.006892 0.000758 0.001824 0.003974 -0.000271
# 2 -0.006892 0.031653 -0.007642 -0.002488 -0.017751 -0.004057
# 3 0.000758 -0.007642 0.013677 0.008354 0.009801 0.000668
# 4 0.001824 -0.002488 0.008354 0.026743 0.004653 0.001248
# 5 0.003974 -0.017751 0.009801 0.004653 0.035556 -0.000181
# 6 -0.000271 -0.004057 0.000668 0.001248 -0.000181 0.021364
#
#
# Mechanical properties :
#
#
# Convention : Reuss Voigt Hill
#
# Bulk Modulus (GPa) = 37.65393 51.81181 44.73287
# Shear Modulus (GPa) = 28.70629 44.34542 36.52585
#
# Velocity S-wave (km/s) = 3.20094 3.97844 3.61068
# Velocity P-wave (km/s) = 5.20586 6.29261 5.77485
#
# Compressibility (1/GPa) = 0.02655765
#
# Stress axis : x y z
#
# Youngs Moduli (GPa) = 113.89423 31.59209 73.11720
#
# Poissons Ratio (x) = 0.21774 -0.05543
# Poissons Ratio (y) = 0.78500 0.55877
# Poissons Ratio (z) = -0.08635 0.24143
#
# Static dielectric constant tensor:
#      x y z
#    x 2.260410 -0.124270 -0.131260 
#    y -0.124270 1.754250 0.086470 
#    z -0.131260 0.086470 1.126230 
# 
# From -- ./inp_files/158388.got.cif
#   From: 2010.05.17/outbox.cif.g08.bks.cpg/sg2_80_cif.got.tgz:158388.got - 2010.06.03 11:33:40.
