data_PCOD9080156
_publ_section_title
;
Structure prediction by ZEFSAII (Michael W. Deem and Ramdas Pophale) SiO2 
 PCOD9080156
Probable space group: P -1
;
_chemical_formula_sum "Si O2"
_cell_formula_units_Z 16
_cell_length_a 12.115823
_cell_length_b 14.877355
_cell_length_c 13.250424
_cell_angle_alpha 45.250451
_cell_angle_beta 122.041755
_cell_angle_gamma 156.588398
_cell_volume 614.910246
_symmetry_space_group_name_H-M "P -1"
_symmetry_group_IT_number 2
_symmetry_cell_setting 'triclinic'
loop_
_space_group_symop_operation_xyz
x,y,z
-x,-y,-z
loop_
_atom_site_type_symbol
_atom_site_label
_atom_site_fract_x
_atom_site_fract_y
_atom_site_fract_z
Si Si1 0.167029 0.257861 0.494321
Si Si2 0.932899 0.674172 0.953749
Si Si3 0.577945 0.592096 0.774614
Si Si4 0.110680 0.295116 0.656941
Si Si5 0.350138 0.763206 0.464825
Si Si6 0.572201 0.277432 0.825979
Si Si7 0.401894 0.935310 0.854876
Si Si8 0.525167 0.256270 0.256335
O O1 0.500000 0.500000 0.500000
O O2 0.067163 0.239611 0.562263
O O3 0.215163 0.413425 0.315017
O O4 0.885172 0.914773 0.612858
O O5 0.665352 0.531149 0.903131
O O6 0.078692 0.704435 0.921318
O O7 0.823086 0.511544 0.130813
O O8 0.225574 0.019602 0.845360
O O9 0.284167 0.333848 0.764469
O O10 0.497585 0.622830 0.799974
O O11 0.335289 0.607512 0.538153
O O12 0.766275 0.018660 0.740342
O O13 0.459057 0.833227 0.576053
O O14 0.000000 0.500000 0.500000
O O15 0.547580 0.011169 0.282121
O O16 0.623716 0.229160 0.791714
O O17 0.552013 0.162021 0.999201
#
# Coordination Sequence:
#
# PCOD9080156 Si02
#       8
#     2   2   2   2   2   2   2   2
#     4  11  19  38  65 101 123 177 217 266 337 393
#     4  10  18  38  64  95 134 178 213 278 329 391
#     4  10  22  38  64  96 131 176 223 270 328 401
#     4  10  23  42  57  95 135 169 226 277 315 397
#     4  11  22  41  69  99 128 178 223 270 333 404
#     4   9  18  34  65  96 136 163 210 273 331 391
#     4   9  19  37  65  99 134 170 212 276 341 382
#     4  10  23  39  66  94 133 175 225 266 340 387
#
# _framework density 26.020059
#
# number of rings (size 3 to 8) (size 9 to 14) (size 15 to 20)
#    0.750    1.250    2.500    1.125    0.000    1.500 
#    4.500    3.750    0.000   12.000    0.000    0.000 
#    0.000    0.000    0.000    0.000    0.000    0.000 
#
# Total GULP energy -89410.662017 kJ/mol
# GULP energy per Si atom -5588.166376 kJ/mol
# Density = 2.596084 g / cm^3
# Si number density = 26.020059 Si / 1000 Ang^3
#
#
#
# Elastic Constant Matrix: (Units=GPa)
#
#
# Indices 1 2 3 4 5 6 
#
# 1 97.6885 17.1879 48.8457 8.2023 -6.8747 18.8238
# 2 17.1879 113.2759 47.9368 14.7986 3.0482 26.8820
# 3 48.8457 47.9368 163.5562 24.3601 -19.7229 9.8967
# 4 8.2023 14.7986 24.3601 42.6819 7.9813 14.5384
# 5 -6.8747 3.0482 -19.7229 7.9813 39.4552 -4.5654
# 6 18.8238 26.8820 9.8967 14.5384 -4.5654 43.3289
#
#
#
# Elastic Compliance Matrix: (Units=1/GPa)
#
#
# Indices 1 2 3 4 5 6 
#
# 1 0.013128 0.001039 -0.004242 0.001794 -0.000981 -0.006084
# 2 0.001039 0.012229 -0.004100 0.001371 -0.004014 -0.007985
# 3 -0.004242 -0.004100 0.010007 -0.006350 0.006432 0.004909
# 4 0.001794 0.001371 -0.006350 0.032441 -0.010943 -0.012218
# 5 -0.000981 -0.004014 0.006432 -0.010943 0.031895 0.008480
# 6 -0.006084 -0.007985 0.004909 -0.012218 0.008480 0.034548
#
#
# Mechanical properties :
#
#
# Convention : Reuss Voigt Hill
#
# Bulk Modulus (GPa) = 48.17345 66.94015 57.55680
# Shear Modulus (GPa) = 32.09793 42.46322 37.28057
#
# Velocity S-wave (km/s) = 3.51605 4.04411 3.78929
# Velocity P-wave (km/s) = 5.91926 6.89845 6.42753
#
# Compressibility (1/GPa) = 0.02075832
#
# Stress axis : x y z
#
# Youngs Moduli (GPa) = 76.17409 81.77158 99.92992
#
# Poissons Ratio (x) = -0.08499 0.42395
# Poissons Ratio (y) = -0.07917 0.40968
# Poissons Ratio (z) = 0.32317 0.33524
#
# Static dielectric constant tensor:
#      x y z
#    x 2.114920 0.012160 -0.055780 
#    y 0.012160 2.158960 -0.042810 
#    z -0.055780 -0.042810 2.073130 
# 
# From -- ./inp_files/535074.got.cif
#   From: 2010.05.17/outbox.cif.g08.bks.cpg/sg2_268_cif.got.tgz:535074.got - 2010.06.03 11:33:40.
