data_PCOD9080107
_publ_section_title
;
Structure prediction by ZEFSAII (Michael W. Deem and Ramdas Pophale) SiO2 
 PCOD9080107
Probable space group: P -1
;
_chemical_formula_sum "Si O2"
_cell_formula_units_Z 15
_cell_length_a 23.257361
_cell_length_b 9.085755
_cell_length_c 19.731309
_cell_angle_alpha 23.203860
_cell_angle_beta 159.664248
_cell_angle_gamma 151.467873
_cell_volume 566.622403
_symmetry_space_group_name_H-M "P -1"
_symmetry_group_IT_number 2
_symmetry_cell_setting 'triclinic'
loop_
_space_group_symop_operation_xyz
x,y,z
-x,-y,-z
loop_
_atom_site_type_symbol
_atom_site_label
_atom_site_fract_x
_atom_site_fract_y
_atom_site_fract_z
Si Si1 0.076490 0.446106 0.210463
Si Si2 0.000000 0.000000 0.000000
Si Si3 0.101857 0.529907 0.765386
Si Si4 0.520260 0.947173 0.816199
Si Si5 0.614202 0.355695 0.444683
Si Si6 0.724674 0.293387 0.452865
Si Si7 0.613533 0.051885 0.023996
Si Si8 0.165369 0.021562 0.941397
O O1 0.249494 0.433403 0.444218
O O2 0.966304 0.623789 0.070182
O O3 0.982581 0.058041 0.242710
O O4 0.118402 0.720429 0.076600
O O5 0.897147 0.776061 0.044142
O O6 0.205587 0.883026 0.765687
O O7 0.905194 0.489880 0.548724
O O8 0.183201 0.413302 0.835091
O O9 0.351977 0.995878 0.566579
O O10 0.500000 0.500000 0.000000
O O11 0.573596 0.153345 0.858376
O O12 0.668115 0.039493 0.887255
O O13 0.728535 0.187416 0.582170
O O14 0.500000 0.000000 0.500000
O O15 0.490845 0.673884 0.165511
O O16 0.597572 0.601106 0.191155
#
# Coordination Sequence:
#
# PCOD9080107 Si02
#       8
#     2   1   2   2   2   2   2   2
#     4  10  21  38  66 101 136 173 219 276 344 398
#     4  10  18  38  64 100 130 170 208 288 318 398
#     4  11  22  40  70  98 133 175 227 275 340 393
#     4  10  23  44  65  93 134 181 221 277 335 398
#     4  12  24  42  68 102 134 174 226 276 344 402
#     4  11  24  44  68  97 135 175 229 276 338 406
#     4  11  25  43  67  94 137 179 224 279 337 397
#     4  10  22  41  65  97 140 170 224 279 341 394
#
# _framework density 26.472656000000001
#
# number of rings (size 3 to 8) (size 9 to 14) (size 15 to 20)
#    0.000    1.333    1.333    4.800    1.867    1.067 
#    0.000    4.000    0.000    0.000    0.000    0.000 
#    0.000    0.000    0.000    0.000    0.000    0.000 
#
# Total GULP energy -83526.115684 kJ/mol
# GULP energy per Si atom -5568.407712 kJ/mol
# Density = 2.641240 g / cm^3
# Si number density = 26.472656 Si / 1000 Ang^3
#
#
#
# Elastic Constant Matrix: (Units=GPa)
#
#
# Indices 1 2 3 4 5 6 
#
# 1 121.8152 25.3186 22.1211 17.2290 10.3250 -50.5416
# 2 25.3186 104.9748 22.1238 33.0646 -8.1282 -35.6574
# 3 22.1211 22.1238 72.5813 21.5484 12.0840 -11.5282
# 4 17.2290 33.0646 21.5484 60.5069 -1.8473 -16.5654
# 5 10.3250 -8.1282 12.0840 -1.8473 34.3545 3.5745
# 6 -50.5416 -35.6574 -11.5282 -16.5654 3.5745 37.1629
#
#
#
# Elastic Compliance Matrix: (Units=1/GPa)
#
#
# Indices 1 2 3 4 5 6 
#
# 1 0.025239 0.007810 -0.001934 0.000546 -0.009436 0.042370
# 2 0.007810 0.018137 -0.002621 -0.004273 0.000003 0.025305
# 3 -0.001934 -0.002621 0.017428 -0.004759 -0.006294 -0.001255
# 4 0.000546 -0.004273 -0.004759 0.021736 0.001174 0.004742
# 5 -0.009436 0.000003 -0.006294 0.001174 0.036067 -0.017729
# 6 0.042370 0.025305 -0.001255 0.004742 -0.017729 0.112241
#
#
# Mechanical properties :
#
#
# Convention : Reuss Voigt Hill
#
# Bulk Modulus (GPa) = 14.85631 48.72203 31.78917
# Shear Modulus (GPa) = 20.26133 41.72537 30.99335
#
# Velocity S-wave (km/s) = 2.76953 3.97441 3.42536
# Velocity P-wave (km/s) = 3.98136 6.28537 5.26104
#
# Compressibility (1/GPa) = 0.06731147
#
# Stress axis : x y z
#
# Youngs Moduli (GPa) = 39.62098 55.13725 57.38018
#
# Poissons Ratio (x) = -0.43060 0.11099
# Poissons Ratio (y) = -0.30942 0.15040
# Poissons Ratio (z) = 0.07664 0.14452
#
# Static dielectric constant tensor:
#      x y z
#    x 2.202980 0.024300 -0.028680 
#    y 0.024300 2.156090 0.015220 
#    z -0.028680 0.015220 2.032540 
# 
# From -- ./inp_files/416401.got.cif
#   From: 2010.05.17/outbox.cif.g08.bks.cpg/sg2_209_cif.got.tgz:416401.got - 2010.06.03 11:33:40.
