data_PCOD9080181
_publ_section_title
;
Structure prediction by ZEFSAII (Michael W. Deem and Ramdas Pophale) SiO2 
 PCOD9080181
Probable space group: P -1
;
_chemical_formula_sum "Si O2"
_cell_formula_units_Z 14
_cell_length_a 9.464278
_cell_length_b 10.587251
_cell_length_c 8.349106
_cell_angle_alpha 91.927404
_cell_angle_beta 48.701604
_cell_angle_gamma 88.022116
_cell_volume 626.362814
_symmetry_space_group_name_H-M "P -1"
_symmetry_group_IT_number 2
_symmetry_cell_setting 'triclinic'
loop_
_space_group_symop_operation_xyz
x,y,z
-x,-y,-z
loop_
_atom_site_type_symbol
_atom_site_label
_atom_site_fract_x
_atom_site_fract_y
_atom_site_fract_z
Si Si1 0.322539 0.441582 0.561030
Si Si2 0.908920 0.243161 0.899292
Si Si3 0.041214 0.480463 0.283107
Si Si4 0.835596 0.960014 0.505937
Si Si5 0.511759 0.779677 0.737057
Si Si6 0.457206 0.872669 0.434949
Si Si7 0.186622 0.275301 0.948639
O O1 0.500000 0.500000 0.500000
O O2 0.372888 0.357254 0.361406
O O3 0.237162 0.366179 0.767959
O O4 0.160940 0.546684 0.639982
O O5 0.910150 0.385520 0.828590
O O6 0.056640 0.142767 0.696859
O O7 0.989662 0.232521 0.021560
O O8 0.694565 0.207911 0.032634
O O9 0.000000 0.500000 0.500000
O O10 0.174067 0.360711 0.119852
O O11 0.653591 0.883290 0.690978
O O12 0.735951 0.088640 0.509413
O O13 0.000000 0.000000 0.500000
O O14 0.460475 0.784068 0.584093
O O15 0.636076 0.828857 0.188015
O O16 0.500000 0.000000 0.500000
#
# Coordination Sequence:
#
# PCOD9080181 Si02
#       7
#     2   2   2   2   2   2   2
#     4  10  18  38  65  92 130 169 221 265 327 405
#     4  11  21  43  69  95 134 180 223 273 332 400
#     4  11  23  41  63  99 141 171 217 282 337 392
#     4  11  23  44  64  95 143 172 216 284 335 391
#     4  10  20  39  69  96 125 176 227 272 320 397
#     4   9  18  41  66  96 127 165 230 274 314 397
#     4  10  19  39  69  95 128 178 221 268 330 402
#
# _framework density 22.351262999999999
#
# number of rings (size 3 to 8) (size 9 to 14) (size 15 to 20)
#    0.000    1.714    5.714    3.429    0.000    1.143 
#   10.286    1.429    0.000    0.000    0.000    0.000 
#    0.000    0.000    0.000    0.000    0.000    0.000 
#
# Total GULP energy -77938.208407 kJ/mol
# GULP energy per Si atom -5567.014886 kJ/mol
# Density = 2.230039 g / cm^3
# Si number density = 22.351263 Si / 1000 Ang^3
#
#
#
# Elastic Constant Matrix: (Units=GPa)
#
#
# Indices 1 2 3 4 5 6 
#
# 1 134.1031 34.0906 40.3905 3.0454 -19.8709 15.9142
# 2 34.0906 62.0254 36.0869 28.7313 -7.4644 4.8328
# 3 40.3905 36.0869 106.3821 29.9627 -22.1492 2.1852
# 4 3.0454 28.7313 29.9627 43.3823 9.6158 -12.4728
# 5 -19.8709 -7.4644 -22.1492 9.6158 35.0806 -0.4982
# 6 15.9142 4.8328 2.1852 -12.4728 -0.4982 29.3306
#
#
#
# Elastic Compliance Matrix: (Units=1/GPa)
#
#
# Indices 1 2 3 4 5 6 
#
# 1 0.010095 -0.004836 -0.002351 0.002613 0.002441 -0.003352
# 2 -0.004836 0.036411 0.002926 -0.034534 0.016066 -0.018006
# 3 -0.002351 0.002926 0.019110 -0.021490 0.017113 -0.009478
# 4 0.002613 -0.034534 -0.021490 0.081094 -0.041101 0.039660
# 5 0.002441 0.016066 0.017113 -0.041101 0.055068 -0.021789
# 6 -0.003352 -0.018006 -0.009478 0.039660 -0.021789 0.056081
#
#
# Mechanical properties :
#
#
# Convention : Reuss Voigt Hill
#
# Bulk Modulus (GPa) = 17.51493 58.18298 37.84895
# Shear Modulus (GPa) = 17.51850 34.35487 25.93668
#
# Velocity S-wave (km/s) = 2.80265 3.92477 3.41018
# Velocity P-wave (km/s) = 4.28093 6.82833 5.69879
#
# Compressibility (1/GPa) = 0.05709415
#
# Stress axis : x y z
#
# Youngs Moduli (GPa) = 99.06323 27.46413 52.32745
#
# Poissons Ratio (x) = 0.13281 0.12304
# Poissons Ratio (y) = 0.47905 -0.15311
# Poissons Ratio (z) = 0.23292 -0.08036
#
# Static dielectric constant tensor:
#      x y z
#    x 2.152200 -0.128360 -0.139900 
#    y -0.128360 2.077970 0.042490 
#    z -0.139900 0.042490 1.946810 
# 
# From -- ./inp_files/188123.got.cif
#   From: 2010.05.17/outbox.cif.g08.bks.cpg/sg2_95_cif.got.tgz:188123.got - 2010.06.03 11:33:40.
