data_PCOD9080762
_publ_section_title
;
Structure prediction by ZEFSAII (Michael W. Deem and Ramdas Pophale) SiO2 
 PCOD9080762
Probable space group: P -1
;
_chemical_formula_sum "Si O2"
_cell_formula_units_Z 15
_cell_length_a 12.261605
_cell_length_b 14.781642
_cell_length_c 18.613827
_cell_angle_alpha 151.697693
_cell_angle_beta 28.199893
_cell_angle_gamma 153.101645
_cell_volume 646.955064
_symmetry_space_group_name_H-M "P -1"
_symmetry_group_IT_number 2
_symmetry_cell_setting 'triclinic'
loop_
_space_group_symop_operation_xyz
x,y,z
-x,-y,-z
loop_
_atom_site_type_symbol
_atom_site_label
_atom_site_fract_x
_atom_site_fract_y
_atom_site_fract_z
Si Si1 0.983025 0.016359 0.845298
Si Si2 0.386045 0.719168 0.160542
Si Si3 0.177773 0.849121 0.093713
Si Si4 0.103586 0.307964 0.208492
Si Si5 0.560548 0.196338 0.655061
Si Si6 0.500000 0.500000 0.500000
Si Si7 0.985187 0.352388 0.798424
Si Si8 0.823832 0.275099 0.211831
O O1 0.930568 0.010433 0.787206
O O2 0.290502 0.205820 0.812122
O O3 0.946211 0.809821 0.768119
O O4 0.791706 0.090447 0.045041
O O5 0.412379 0.849288 0.309791
O O6 0.270445 0.768666 0.191140
O O7 0.126765 0.480831 0.165967
O O8 0.652406 0.709731 0.982046
O O9 0.087396 0.796998 0.192306
O O10 0.050445 0.600696 0.958793
O O11 0.500000 0.000000 0.000000
O O12 0.196726 0.565180 0.342397
O O13 0.854801 0.203359 0.223835
O O14 0.500000 0.000000 0.500000
O O15 0.246830 0.401110 0.636155
O O16 0.626044 0.363553 0.373062
#
# Coordination Sequence:
#
# PCOD9080762 Si02
#       8
#     2   2   2   2   2   1   2   2
#     4  12  22  42  70 102 141 188 243 291 377 445
#     4  10  18  42  75  98 133 186 243 297 365 438
#     4  11  23  43  69 106 142 190 252 298 366 435
#     4  11  21  39  74 103 133 189 241 298 366 448
#     4  11  24  43  65 105 146 176 235 315 377 433
#     4  10  20  42  72  98 146 192 248 296 366 430
#     4  10  22  44  73 102 147 193 239 313 359 437
#     4  10  19  38  69 103 136 183 244 296 351 440
#
# _framework density 23.185535999999999
#
# number of rings (size 3 to 8) (size 9 to 14) (size 15 to 20)
#    0.000    1.333    5.333    2.000    0.000    1.600 
#    9.600    0.667    0.000    0.000    0.000    0.000 
#    0.000    0.000    0.000    0.000    0.000    0.000 
#
# Total GULP energy -83503.077301 kJ/mol
# GULP energy per Si atom -5566.871820 kJ/mol
# Density = 2.313276 g / cm^3
# Si number density = 23.185536 Si / 1000 Ang^3
#
#
#
# Elastic Constant Matrix: (Units=GPa)
#
#
# Indices 1 2 3 4 5 6 
#
# 1 226.8353 50.4515 67.9697 -3.6172 5.4038 -37.1441
# 2 50.4515 64.9081 15.9292 -7.9609 13.6595 -38.8979
# 3 67.9697 15.9292 115.7877 -9.5266 -4.0956 3.4724
# 4 -3.6172 -7.9609 -9.5266 35.8816 5.7789 3.8258
# 5 5.4038 13.6595 -4.0956 5.7789 39.0336 -2.1038
# 6 -37.1441 -38.8979 3.4724 3.8258 -2.1038 46.7646
#
#
#
# Elastic Compliance Matrix: (Units=1/GPa)
#
#
# Indices 1 2 3 4 5 6 
#
# 1 0.006639 -0.001806 -0.003879 -0.001154 -0.000300 0.004140
# 2 -0.001806 0.040989 -0.005511 0.006280 -0.013881 0.031931
# 3 -0.003879 -0.005511 0.012205 0.002065 0.002976 -0.008606
# 4 -0.001154 0.006280 0.002065 0.030558 -0.006271 0.001371
# 5 -0.000300 -0.013881 0.002976 -0.006271 0.031215 -0.010088
# 6 0.004140 0.031931 -0.008606 0.001371 -0.010088 0.051304
#
#
# Mechanical properties :
#
#
# Convention : Reuss Voigt Hill
#
# Bulk Modulus (GPa) = 26.70769 75.13687 50.92228
# Shear Modulus (GPa) = 24.06373 42.54801 33.30587
#
# Velocity S-wave (km/s) = 3.22510 4.28847 3.79422
# Velocity P-wave (km/s) = 5.04108 7.54973 6.41915
#
# Compressibility (1/GPa) = 0.03744240
#
# Stress axis : x y z
#
# Youngs Moduli (GPa) = 150.62562 24.39673 81.93605
#
# Poissons Ratio (x) = 0.04406 0.31779
# Poissons Ratio (y) = 0.27201 0.45153
# Poissons Ratio (z) = 0.58420 0.13444
#
# Static dielectric constant tensor:
#      x y z
#    x 1.946190 -0.011950 0.039230 
#    y -0.011950 1.944620 0.035640 
#    z 0.039230 0.035640 1.892110 
# 
# From -- ./inp_files/569798.got.cif
#   From: 2010.05.17/outbox.cif.g08.bks.cpg/sg2_285_cif.got.tgz:569798.got - 2010.06.03 11:33:40.
