data_PCOD9080136
_publ_section_title
;
Structure prediction by ZEFSAII (Michael W. Deem and Ramdas Pophale) SiO2 
 PCOD9080136
Probable space group: P -1
;
_chemical_formula_sum "Si O2"
_cell_formula_units_Z 15
_cell_length_a 11.497448
_cell_length_b 12.153717
_cell_length_c 8.191241
_cell_angle_alpha 83.157282
_cell_angle_beta 82.332078
_cell_angle_gamma 35.513143
_cell_volume 658.840569
_symmetry_space_group_name_H-M "P -1"
_symmetry_group_IT_number 2
_symmetry_cell_setting 'triclinic'
loop_
_space_group_symop_operation_xyz
x,y,z
-x,-y,-z
loop_
_atom_site_type_symbol
_atom_site_label
_atom_site_fract_x
_atom_site_fract_y
_atom_site_fract_z
Si Si1 0.273301 0.640691 0.549332
Si Si2 0.808798 0.548403 0.333568
Si Si3 0.500000 0.500000 0.000000
Si Si4 0.101368 0.706473 0.222741
Si Si5 0.692785 0.181973 0.916319
Si Si6 0.568520 0.821839 0.021685
Si Si7 0.806787 0.607348 0.684676
Si Si8 0.863176 0.090272 0.211498
O O1 0.500000 0.500000 0.500000
O O2 0.225088 0.557243 0.651923
O O3 0.166355 0.706536 0.384170
O O4 0.188152 0.812693 0.629798
O O5 0.719308 0.677394 0.167934
O O6 0.720425 0.657270 0.508038
O O7 0.041684 0.405559 0.332021
O O8 0.721193 0.404873 0.917899
O O9 0.534889 0.391569 0.846182
O O10 0.070161 0.600237 0.267095
O O11 0.899678 0.932812 0.194950
O O12 0.616501 0.119022 0.923799
O O13 0.676501 0.254797 0.091439
O O14 0.922133 0.021947 0.856736
O O15 0.654474 0.730849 0.841482
O O16 0.500000 0.000000 0.000000
#
# Coordination Sequence:
#
# PCOD9080136 Si02
#       8
#     2   2   1   2   2   2   2   2
#     4  11  24  40  67  99 132 176 226 275 348 405
#     4  10  26  46  69  99 135 179 229 286 330 403
#     4  10  18  38  64  90 126 170 218 272 320 406
#     4  10  21  39  66  96 130 180 221 276 338 402
#     4  10  23  39  61  96 133 172 223 274 343 387
#     4  12  27  43  71 103 132 182 231 280 338 404
#     4  10  23  49  70  95 137 183 229 274 344 401
#     4  10  23  38  63  94 137 172 218 282 328 402
#
# _framework density 22.767268999999999
#
# number of rings (size 3 to 8) (size 9 to 14) (size 15 to 20)
#    0.000    1.600    1.333    1.600   11.200    1.600 
#    0.000    0.000    0.000    0.000    0.000    0.000 
#    0.000    0.000    0.000    0.000    0.000    0.000 
#
# Total GULP energy -83511.076317 kJ/mol
# GULP energy per Si atom -5567.405088 kJ/mol
# Density = 2.271545 g / cm^3
# Si number density = 22.767269 Si / 1000 Ang^3
#
#
#
# Elastic Constant Matrix: (Units=GPa)
#
#
# Indices 1 2 3 4 5 6 
#
# 1 92.0831 13.8422 -22.7128 6.8204 -0.7860 11.0902
# 2 13.8422 92.9677 15.1344 20.6079 -11.0013 6.3042
# 3 -22.7128 15.1344 76.3531 7.0524 -4.2389 -9.8675
# 4 6.8204 20.6079 7.0524 38.6862 0.5181 -0.7334
# 5 -0.7860 -11.0013 -4.2389 0.5181 27.4052 -8.1820
# 6 11.0902 6.3042 -9.8675 -0.7334 -8.1820 38.1459
#
#
#
# Elastic Compliance Matrix: (Units=1/GPa)
#
#
# Indices 1 2 3 4 5 6 
#
# 1 0.012569 -0.001987 0.003965 -0.001920 -0.000518 -0.002448
# 2 -0.001987 0.013568 -0.002610 -0.006492 0.004672 -0.001463
# 3 0.003965 -0.002610 0.015637 -0.002122 0.002676 0.003857
# 4 -0.001920 -0.006492 -0.002122 0.030095 -0.003272 0.000959
# 5 -0.000518 0.004672 0.002676 -0.003272 0.041485 0.008906
# 6 -0.002448 -0.001463 0.003857 0.000959 0.008906 0.030095
#
#
# Mechanical properties :
#
#
# Convention : Reuss Voigt Hill
#
# Bulk Modulus (GPa) = 24.68545 30.43683 27.56114
# Shear Modulus (GPa) = 31.60234 37.85680 34.72957
#
# Velocity S-wave (km/s) = 3.72971 4.08214 3.90990
# Velocity P-wave (km/s) = 5.42344 5.96793 5.70219
#
# Compressibility (1/GPa) = 0.04050969
#
# Stress axis : x y z
#
# Youngs Moduli (GPa) = 79.56088 73.70139 63.95144
#
# Poissons Ratio (x) = 0.14642 -0.25356
# Poissons Ratio (y) = 0.15806 0.16694
# Poissons Ratio (z) = -0.31544 0.19239
#
# Static dielectric constant tensor:
#      x y z
#    x 1.844870 0.023930 -0.022380 
#    y 0.023930 2.023560 -0.118340 
#    z -0.022380 -0.118340 1.959060 
# 
# From -- ./inp_files/254152.got.cif
#   From: 2010.05.17/outbox.cif.g08.bks.cpg/sg2_128_cif.got.tgz:254152.got - 2010.06.03 11:33:40.
