data_PCOD9080414
_publ_section_title
;
Structure prediction by ZEFSAII (Michael W. Deem and Ramdas Pophale) SiO2 
 PCOD9080414
Probable space group: P -1
;
_chemical_formula_sum "Si O2"
_cell_formula_units_Z 16
_cell_length_a 12.824505
_cell_length_b 20.982334
_cell_length_c 7.821620
_cell_angle_alpha 123.215200
_cell_angle_beta 58.520211
_cell_angle_gamma 155.837967
_cell_volume 719.198675
_symmetry_space_group_name_H-M "P -1"
_symmetry_group_IT_number 2
_symmetry_cell_setting 'triclinic'
loop_
_space_group_symop_operation_xyz
x,y,z
-x,-y,-z
loop_
_atom_site_type_symbol
_atom_site_label
_atom_site_fract_x
_atom_site_fract_y
_atom_site_fract_z
Si Si1 0.980062 0.355966 0.186139
Si Si2 0.477775 0.321276 0.859050
Si Si3 0.261686 0.933498 0.931415
Si Si4 0.203139 0.160968 0.176321
Si Si5 0.839460 0.270637 0.812983
Si Si6 0.653525 0.243435 0.595764
Si Si7 0.875849 0.125814 0.430908
Si Si8 0.071709 0.976309 0.268708
O O1 0.834589 0.197260 0.101579
O O2 0.835968 0.331228 0.406287
O O3 0.280154 0.509459 0.189957
O O4 0.972975 0.376251 0.023149
O O5 0.530934 0.259788 0.717721
O O6 0.206508 0.193379 0.821956
O O7 0.431926 0.313744 0.086954
O O8 0.124889 0.872579 0.774484
O O9 0.555053 0.097371 0.870418
O O10 0.200675 0.966086 0.168366
O O11 0.056847 0.153887 0.366543
O O12 0.270938 0.132845 0.210911
O O13 0.000000 0.000000 0.000000
O O14 0.808804 0.309090 0.732767
O O15 0.945449 0.246782 0.621985
O O16 0.413111 0.053729 0.529399
O O17 0.000000 0.000000 0.500000
#
# Coordination Sequence:
#
# PCOD9080414 Si02
#       8
#     2   2   2   2   2   2   2   2
#     4  12  26  40  62  95 134 168 203 257 320 380
#     4  11  24  44  61  90 131 169 201 257 324 371
#     4  11  21  40  65  91 128 164 209 267 305 370
#     4  10  18  39  64  85 119 160 207 256 303 367
#     4  11  24  39  66  97 119 168 220 255 313 366
#     4  11  21  42  66  89 127 164 210 270 306 370
#     4  11  18  39  68  89 117 163 216 264 309 352
#     4  11  24  40  67  98 117 163 219 262 309 369
#
# _framework density 22.246981999999999
#
# number of rings (size 3 to 8) (size 9 to 14) (size 15 to 20)
#    0.000    1.000    7.500    2.250    3.500    1.000 
#    2.250    0.625    0.000    0.000    0.000    0.000 
#    0.000    0.000    0.000    0.000    0.000    0.000 
#
# Total GULP energy -89314.624540 kJ/mol
# GULP energy per Si atom -5582.164034 kJ/mol
# Density = 2.219635 g / cm^3
# Si number density = 22.246982 Si / 1000 Ang^3
#
#
#
# Elastic Constant Matrix: (Units=GPa)
#
#
# Indices 1 2 3 4 5 6 
#
# 1 49.5953 -2.5005 14.1004 5.4931 -15.4613 -0.1211
# 2 -2.5005 51.4768 21.5079 -22.2369 0.9121 7.8006
# 3 14.1004 21.5079 101.6065 -26.1306 -13.0651 2.0254
# 4 5.4931 -22.2369 -26.1306 21.1920 5.4799 -7.4434
# 5 -15.4613 0.9121 -13.0651 5.4799 35.4250 -4.0330
# 6 -0.1211 7.8006 2.0254 -7.4434 -4.0330 16.0126
#
#
#
# Elastic Compliance Matrix: (Units=1/GPa)
#
#
# Indices 1 2 3 4 5 6 
#
# 1 0.030980 -0.009126 -0.009443 -0.035539 0.014989 -0.006870
# 2 -0.009126 0.040400 0.005405 0.055175 -0.011296 0.002369
# 3 -0.009443 0.005405 0.018703 0.035461 -0.001594 0.011012
# 4 -0.035539 0.055175 0.035461 0.180992 -0.026638 0.045791
# 5 0.014989 -0.011296 -0.001594 -0.026638 0.038964 0.003249
# 6 -0.006870 0.002369 0.011012 0.045791 0.003249 0.081956
#
#
# Mechanical properties :
#
#
# Convention : Reuss Voigt Hill
#
# Bulk Modulus (GPa) = 15.68516 29.87715 22.78116
# Shear Modulus (GPa) = 11.37459 25.83063 18.60261
#
# Velocity S-wave (km/s) = 2.26362 3.41117 2.89482
# Velocity P-wave (km/s) = 3.72797 5.38272 4.62987
#
# Compressibility (1/GPa) = 0.06375452
#
# Stress axis : x y z
#
# Youngs Moduli (GPa) = 32.27875 24.75230 53.46603
#
# Poissons Ratio (x) = 0.22590 0.50487
# Poissons Ratio (y) = 0.29459 -0.28896
# Poissons Ratio (z) = 0.30480 -0.13378
#
# Static dielectric constant tensor:
#      x y z
#    x 1.905570 0.031270 0.017960 
#    y 0.031270 1.802290 -0.040700 
#    z 0.017960 -0.040700 2.011880 
# 
# From -- ./inp_files/320171.got.cif
#   From: 2010.05.17/outbox.cif.g08.bks.cpg/sg2_161_cif.got.tgz:320171.got - 2010.06.03 11:33:40.
