data_PCOD9080962
_publ_section_title
;
Structure prediction by ZEFSAII (Michael W. Deem and Ramdas Pophale) SiO2 
 PCOD9080962
Probable space group: P -1
;
_chemical_formula_sum "Si O2"
_cell_formula_units_Z 16
_cell_length_a 9.826788
_cell_length_b 10.903834
_cell_length_c 10.073904
_cell_angle_alpha 89.878802
_cell_angle_beta 32.997246
_cell_angle_gamma 87.797576
_cell_volume 586.513846
_symmetry_space_group_name_H-M "P -1"
_symmetry_group_IT_number 2
_symmetry_cell_setting 'triclinic'
loop_
_space_group_symop_operation_xyz
x,y,z
-x,-y,-z
loop_
_atom_site_type_symbol
_atom_site_label
_atom_site_fract_x
_atom_site_fract_y
_atom_site_fract_z
Si Si1 0.212470 0.571846 0.463417
Si Si2 0.632021 0.883737 0.465795
Si Si3 0.679489 0.790576 0.000665
Si Si4 0.141638 0.939890 0.512444
Si Si5 0.966300 0.334641 0.665956
Si Si6 0.853759 0.669025 0.130516
Si Si7 0.458815 0.327249 0.162412
Si Si8 0.638582 0.349452 0.373557
O O1 0.123040 0.657304 0.414062
O O2 0.421469 0.472054 0.230207
O O3 0.279624 0.642695 0.539621
O O4 0.999842 0.477681 0.670570
O O5 0.836648 0.802873 0.212205
O O6 0.411839 0.786562 0.638752
O O7 0.500000 0.000000 0.500000
O O8 0.770040 0.951234 0.469416
O O9 0.413184 0.867526 0.251890
O O10 0.757961 0.702206 0.060555
O O11 0.626536 0.711333 0.913310
O O12 0.919830 0.869296 0.768795
O O13 0.000000 0.000000 0.500000
O O14 0.250261 0.277841 0.431364
O O15 0.747914 0.283600 0.928888
O O16 0.650603 0.596903 0.380936
O O17 0.133185 0.611210 0.900513
#
# Coordination Sequence:
#
# PCOD9080962 Si02
#       8
#     2   2   2   2   2   2   2   2
#     4   9  19  28  45  73 117 152 185 223 285 336
#     4  10  22  40  60  88 116 154 197 244 285 348
#     4  12  22  39  61  85 117 152 196 239 294 344
#     4  12  27  43  62  86 118 152 195 244 294 347
#     4   9  18  25  44  69 115 150 184 216 280 331
#     4  10  21  33  57  85 118 152 196 232 290 336
#     4  10  19  30  49  76 108 152 186 230 275 346
#     4  10  21  31  53  83 121 159 191 234 288 348
#
# _framework density 27.279831999999999
#
# number of rings (size 3 to 8) (size 9 to 14) (size 15 to 20)
#    1.500    0.250    1.250    4.500    3.500    1.000 
#    0.000    0.000    0.000    0.000    0.000    1.750 
#    0.000    0.000    0.000    0.000    0.000    0.000 
#
# Total GULP energy -89333.265888 kJ/mol
# GULP energy per Si atom -5583.329118 kJ/mol
# Density = 2.721774 g / cm^3
# Si number density = 27.279832 Si / 1000 Ang^3
#
#
#
# Elastic Constant Matrix: (Units=GPa)
#
#
# Indices 1 2 3 4 5 6 
#
# 1 190.5905 50.2201 37.9689 0.5440 19.0622 45.8968
# 2 50.2201 104.9341 83.0192 -4.6265 -13.3365 33.1880
# 3 37.9689 83.0192 282.1207 -4.4465 -46.8325 7.8693
# 4 0.5440 -4.6265 -4.4465 56.5473 3.6918 0.5175
# 5 19.0622 -13.3365 -46.8325 3.6918 43.0883 12.2840
# 6 45.8968 33.1880 7.8693 0.5175 12.2840 56.0493
#
#
#
# Elastic Compliance Matrix: (Units=1/GPa)
#
#
# Indices 1 2 3 4 5 6 
#
# 1 0.007245 -0.002044 -0.000886 -0.000029 -0.003720 -0.003782
# 2 -0.002044 0.016783 -0.003650 0.000889 0.004553 -0.008757
# 3 -0.000886 -0.003650 0.005538 -0.000191 0.005009 0.001013
# 4 -0.000029 0.000889 -0.000191 0.017834 -0.001349 -0.000345
# 5 -0.003720 0.004553 0.005009 -0.001349 0.034048 -0.007802
# 6 -0.003782 -0.008757 0.001013 -0.000345 -0.007802 0.027695
#
#
# Mechanical properties :
#
#
# Convention : Reuss Voigt Hill
#
# Bulk Modulus (GPa) = 60.95179 102.22908 81.59043
# Shear Modulus (GPa) = 39.13271 58.23281 48.68276
#
# Velocity S-wave (km/s) = 3.79158 4.62524 4.22900
# Velocity P-wave (km/s) = 6.44669 8.12892 7.33618
#
# Compressibility (1/GPa) = 0.01640641
#
# Stress axis : x y z
#
# Youngs Moduli (GPa) = 138.02651 59.58418 180.56896
#
# Poissons Ratio (x) = 0.12181 0.15998
# Poissons Ratio (y) = 0.28216 0.65899
# Poissons Ratio (z) = 0.12229 0.21745
#
# Static dielectric constant tensor:
#      x y z
#    x 2.195930 -0.012250 -0.023480 
#    y -0.012250 2.100620 0.092870 
#    z -0.023480 0.092870 1.761900 
# 
# From -- ./inp_files/426117.got.cif
#   From: 2010.05.17/outbox.cif.g08.bks.cpg/sg2_214_cif.got.tgz:426117.got - 2010.06.03 11:33:40.
