data_PCOD9080361
_publ_section_title
;
Structure prediction by ZEFSAII (Michael W. Deem and Ramdas Pophale) SiO2 
 PCOD9080361
Probable space group: P -1
;
_chemical_formula_sum "Si O2"
_cell_formula_units_Z 16
_cell_length_a 11.216235
_cell_length_b 7.800865
_cell_length_c 16.528438
_cell_angle_alpha 119.233954
_cell_angle_beta 144.265572
_cell_angle_gamma 62.900263
_cell_volume 732.060272
_symmetry_space_group_name_H-M "P -1"
_symmetry_group_IT_number 2
_symmetry_cell_setting 'triclinic'
loop_
_space_group_symop_operation_xyz
x,y,z
-x,-y,-z
loop_
_atom_site_type_symbol
_atom_site_label
_atom_site_fract_x
_atom_site_fract_y
_atom_site_fract_z
Si Si1 0.976818 0.328736 0.384435
Si Si2 0.517164 0.313751 0.403705
Si Si3 0.664300 0.344581 0.869003
Si Si4 0.591772 0.381327 0.101298
Si Si5 0.100179 0.195870 0.065629
Si Si6 0.794465 0.128139 0.382364
Si Si7 0.410387 0.088709 0.554160
Si Si8 0.395923 0.941162 0.079194
O O1 0.828410 0.414717 0.251380
O O2 0.853452 0.188842 0.339191
O O3 0.000000 0.500000 0.500000
O O4 0.191083 0.214225 0.450125
O O5 0.500000 0.500000 0.500000
O O6 0.285873 0.275289 0.237831
O O7 0.682403 0.309804 0.418793
O O8 0.603751 0.106865 0.445708
O O9 0.532345 0.546044 0.870297
O O10 0.555565 0.229747 0.712606
O O11 0.657898 0.212922 0.916626
O O12 0.901714 0.353398 0.982644
O O13 0.500000 0.500000 0.000000
O O14 0.591474 0.156736 0.023216
O O15 0.217230 0.120885 0.031279
O O16 0.000000 0.000000 0.000000
O O17 0.612769 0.994321 0.240787
O O18 0.000000 0.000000 0.500000
O O19 0.500000 0.000000 0.500000
#
# Coordination Sequence:
#
# PCOD9080361 Si02
#       8
#     2   2   2   2   2   2   2   2
#     4  12  26  44  68 101 133 184 230 285 346 410
#     4  11  24  42  66 104 137 183 233 279 346 411
#     4  10  18  39  61  96 130 175 223 278 331 407
#     4  10  23  38  66  98 133 166 230 277 338 406
#     4   9  17  35  64  88 126 172 219 265 331 396
#     4  11  22  43  70  91 143 185 218 287 350 404
#     4  12  25  41  65 100 141 173 234 288 341 413
#     4   9  19  37  63  91 127 173 219 272 338 401
#
# _framework density 21.856121999999999
#
# number of rings (size 3 to 8) (size 9 to 14) (size 15 to 20)
#    0.000    1.500    6.250    0.000    5.250    2.500 
#    0.000    0.000    0.000    2.250    0.000    0.000 
#    0.000    0.000    0.000    0.000    0.000    0.000 
#
# Total GULP energy -89214.516930 kJ/mol
# GULP energy per Si atom -5575.907308 kJ/mol
# Density = 2.180638 g / cm^3
# Si number density = 21.856122 Si / 1000 Ang^3
#
#
#
# Elastic Constant Matrix: (Units=GPa)
#
#
# Indices 1 2 3 4 5 6 
#
# 1 104.6053 48.4002 52.9571 0.0094 6.2484 -48.8699
# 2 48.4002 83.8901 72.4260 -2.0489 5.2101 -55.0042
# 3 52.9571 72.4260 145.4654 -15.0105 6.8367 -49.9479
# 4 0.0094 -2.0489 -15.0105 42.7179 -14.2984 -4.4501
# 5 6.2484 5.2101 6.8367 -14.2984 39.7891 -2.2117
# 6 -48.8699 -55.0042 -49.9479 -4.4501 -2.2117 62.8724
#
#
#
# Elastic Compliance Matrix: (Units=1/GPa)
#
#
# Indices 1 2 3 4 5 6 
#
# 1 0.015562 -0.000908 -0.001788 -0.000165 -0.001532 0.009816
# 2 -0.000908 0.035928 -0.009514 0.000274 -0.001543 0.023133
# 3 -0.001788 -0.009514 0.013027 0.004553 0.000979 0.000993
# 4 -0.000165 0.000274 0.004553 0.028998 0.009969 0.006131
# 5 -0.001532 -0.001543 0.000979 0.009969 0.028987 -0.000037
# 6 0.009816 0.023133 0.000993 0.006131 -0.000037 0.044995
#
#
# Mechanical properties :
#
#
# Convention : Reuss Voigt Hill
#
# Bulk Modulus (GPa) = 24.93870 75.72526 50.33198
# Shear Modulus (GPa) = 24.35663 39.75438 32.05551
#
# Velocity S-wave (km/s) = 3.34190 4.26950 3.83385
# Velocity P-wave (km/s) = 5.13091 7.68292 6.53274
#
# Compressibility (1/GPa) = 0.04009833
#
# Stress axis : x y z
#
# Youngs Moduli (GPa) = 64.25708 27.83332 76.76401
#
# Poissons Ratio (x) = 0.02526 0.13727
# Poissons Ratio (y) = 0.05832 0.73033
# Poissons Ratio (z) = 0.11490 0.26480
#
# Static dielectric constant tensor:
#      x y z
#    x 1.842500 -0.004150 0.015220 
#    y -0.004150 1.973910 0.007700 
#    z 0.015220 0.007700 1.762970 
# 
# From -- ./inp_files/566161.got.cif
#   From: 2010.05.17/outbox.cif.g08.bks.cpg/sg2_284_cif.got.tgz:566161.got - 2010.06.03 11:33:40.
