data_PCOD9080504
_publ_section_title
;
Structure prediction by ZEFSAII (Michael W. Deem and Ramdas Pophale) SiO2 
 PCOD9080504
Probable space group: P -1
;
_chemical_formula_sum "Si O2"
_cell_formula_units_Z 16
_cell_length_a 27.246300
_cell_length_b 8.420761
_cell_length_c 15.521628
_cell_angle_alpha 43.716212
_cell_angle_beta 19.047275
_cell_angle_gamma 34.037328
_cell_volume 613.761902
_symmetry_space_group_name_H-M "P -1"
_symmetry_group_IT_number 2
_symmetry_cell_setting 'triclinic'
loop_
_space_group_symop_operation_xyz
x,y,z
-x,-y,-z
loop_
_atom_site_type_symbol
_atom_site_label
_atom_site_fract_x
_atom_site_fract_y
_atom_site_fract_z
Si Si1 0.958271 0.073317 0.294365
Si Si2 0.617291 0.403797 0.466501
Si Si3 0.455249 0.037954 0.724489
Si Si4 0.125955 0.220568 0.812520
Si Si5 0.219683 0.394800 0.324481
Si Si6 0.099493 0.209268 0.159014
Si Si7 0.247118 0.425422 0.068978
Si Si8 0.393361 0.731581 0.283226
O O1 0.043645 0.045929 0.257295
O O2 0.730203 0.240758 0.602354
O O3 0.062871 0.742964 0.212473
O O4 0.024381 0.213231 0.067471
O O5 0.581310 0.672940 0.369724
O O6 0.654159 0.394433 0.510279
O O7 0.780738 0.085916 0.274561
O O8 0.417812 0.450155 0.778920
O O9 0.684836 0.813828 0.456694
O O10 0.336425 0.145764 0.969299
O O11 0.329402 0.002954 0.882323
O O12 0.979534 0.501691 0.882526
O O13 0.033662 0.641275 0.593630
O O14 0.193498 0.403100 0.262130
O O15 0.314078 0.055243 0.325484
O O16 0.386584 0.424819 0.047410
#
# Coordination Sequence:
#
# PCOD9080504 Si02
#       8
#     2   2   2   2   2   2   2   2
#     4  12  24  41  61  96 128 169 206 252 322 381
#     4  10  18  39  69  95 118 158 212 269 316 352
#     4  11  22  41  70  95 124 165 208 269 314 359
#     4  11  22  42  65  98 130 159 212 264 309 378
#     4  10  23  44  62  95 121 161 221 262 307 370
#     4  12  27  41  61  96 134 171 206 247 319 389
#     4  10  21  40  66  92 123 157 215 265 306 367
#     4  10  22  39  69  90 121 162 213 270 308 359
#
# _framework density 26.068742
#
# number of rings (size 3 to 8) (size 9 to 14) (size 15 to 20)
#    0.000    1.250    3.750    2.625    1.750    4.500 
#    4.500    0.000    0.000    0.000    0.000    0.000 
#    0.000    0.000    0.000    0.000    0.000    0.000 
#
# Total GULP energy -89651.613730 kJ/mol
# GULP energy per Si atom -5603.225858 kJ/mol
# Density = 2.600941 g / cm^3
# Si number density = 26.068742 Si / 1000 Ang^3
#
#
#
# Elastic Constant Matrix: (Units=GPa)
#
#
# Indices 1 2 3 4 5 6 
#
# 1 133.8784 6.8418 73.5047 -4.5912 -16.5389 -5.2161
# 2 6.8418 76.2042 21.7838 0.0976 18.3362 3.1084
# 3 73.5047 21.7838 125.7167 1.2838 -1.4667 4.6602
# 4 -4.5912 0.0976 1.2838 28.7362 -1.9245 4.6102
# 5 -16.5389 18.3362 -1.4667 -1.9245 62.6734 -5.8666
# 6 -5.2161 3.1084 4.6602 4.6102 -5.8666 31.5305
#
#
#
# Elastic Compliance Matrix: (Units=1/GPa)
#
#
# Indices 1 2 3 4 5 6 
#
# 1 0.011991 0.000006 -0.007118 0.001917 0.003371 0.003382
# 2 0.000006 0.015063 -0.002596 0.000071 -0.004649 -0.001976
# 3 -0.007118 -0.002596 0.012670 -0.001319 -0.001126 -0.002811
# 4 0.001917 0.000071 -0.001319 0.035969 0.001133 -0.004543
# 5 0.003371 -0.004649 -0.001126 0.001133 0.018634 0.004484
# 6 0.003382 -0.001976 -0.002811 -0.004543 0.004484 0.034384
#
#
# Mechanical properties :
#
#
# Convention : Reuss Voigt Hill
#
# Bulk Modulus (GPa) = 49.23496 60.00666 54.62081
# Shear Modulus (GPa) = 32.28002 40.16595 36.22298
#
# Velocity S-wave (km/s) = 3.52272 3.92952 3.73167
# Velocity P-wave (km/s) = 5.95597 6.60733 6.29009
#
# Compressibility (1/GPa) = 0.02031077
#
# Stress axis : x y z
#
# Youngs Moduli (GPa) = 83.39562 66.38733 78.92476
#
# Poissons Ratio (x) = -0.00043 0.56176
# Poissons Ratio (y) = -0.00054 0.20486
# Poissons Ratio (z) = 0.59359 0.17232
#
# Static dielectric constant tensor:
#      x y z
#    x 2.089940 0.016000 -0.056560 
#    y 0.016000 2.109770 -0.008030 
#    z -0.056560 -0.008030 1.969650 
# 
# From -- ./inp_files/206252.got.cif
#   From: 2010.05.17/outbox.cif.g08.bks.cpg/sg2_104_cif.got.tgz:206252.got - 2010.06.03 11:33:40.
