data_PCOD9080647
_publ_section_title
;
Structure prediction by ZEFSAII (Michael W. Deem and Ramdas Pophale) SiO2 
 PCOD9080647
Probable space group: P -1
;
_chemical_formula_sum "Si O2"
_cell_formula_units_Z 16
_cell_length_a 9.313113
_cell_length_b 11.493562
_cell_length_c 8.194285
_cell_angle_alpha 79.447256
_cell_angle_beta 49.011530
_cell_angle_gamma 80.259689
_cell_volume 649.466964
_symmetry_space_group_name_H-M "P -1"
_symmetry_group_IT_number 2
_symmetry_cell_setting 'triclinic'
loop_
_space_group_symop_operation_xyz
x,y,z
-x,-y,-z
loop_
_atom_site_type_symbol
_atom_site_label
_atom_site_fract_x
_atom_site_fract_y
_atom_site_fract_z
Si Si1 0.179735 0.810261 0.720196
Si Si2 0.372588 0.921914 0.803434
Si Si3 0.386398 0.732079 0.122550
Si Si4 0.994971 0.142260 0.478613
Si Si5 0.403620 0.185309 0.767880
Si Si6 0.797660 0.450884 0.196667
Si Si7 0.392235 0.496520 0.331704
Si Si8 0.714258 0.771485 0.492537
O O1 0.195624 0.910951 0.817277
O O2 0.007345 0.821300 0.719284
O O3 0.385656 0.805601 0.474850
O O4 0.181774 0.685165 0.837298
O O5 0.569863 0.890154 0.569829
O O6 0.371539 0.047629 0.856413
O O7 0.390555 0.808167 0.937271
O O8 0.204864 0.800017 0.324347
O O9 0.569418 0.753824 0.093611
O O10 0.360269 0.591329 0.184609
O O11 0.137420 0.191577 0.491544
O O12 0.000000 0.000000 0.500000
O O13 0.258181 0.239433 0.723344
O O14 0.608409 0.503659 0.233001
O O15 0.743435 0.458252 0.427681
O O16 0.000000 0.500000 0.000000
O O17 0.350273 0.358992 0.374519
#
# Coordination Sequence:
#
# PCOD9080647 Si02
#       8
#     2   2   2   2   2   2   2   2
#     4  10  20  43  63  95 133 175 231 283 352 410
#     4  11  22  39  67 101 129 178 242 277 346 430
#     4  11  24  42  65  98 145 182 227 291 348 419
#     4  11  23  43  66  96 136 182 231 291 358 412
#     4  10  18  40  68  92 130 183 228 284 352 411
#     4  11  22  42  73 103 136 186 235 284 348 419
#     4  11  22  46  68 100 150 181 233 288 351 424
#     4  11  22  40  70  98 131 190 228 285 360 408
#
# _framework density 24.635587999999998
#
# number of rings (size 3 to 8) (size 9 to 14) (size 15 to 20)
#    0.000    1.250    5.000    4.875    0.000    3.000 
#    2.250    5.000    0.000    0.000    0.000    0.000 
#    0.000    0.000    0.000    0.000    0.000    0.000 
#
# Total GULP energy -89309.129311 kJ/mol
# GULP energy per Si atom -5581.820582 kJ/mol
# Density = 2.457952 g / cm^3
# Si number density = 24.635588 Si / 1000 Ang^3
#
#
#
# Elastic Constant Matrix: (Units=GPa)
#
#
# Indices 1 2 3 4 5 6 
#
# 1 155.8322 21.1690 31.7763 -19.1138 1.2715 27.9974
# 2 21.1690 142.7343 28.9780 -21.9410 -5.6993 10.6473
# 3 31.7763 28.9780 49.0421 -10.6435 -13.6261 -1.6230
# 4 -19.1138 -21.9410 -10.6435 32.6327 -8.9211 4.1072
# 5 1.2715 -5.6993 -13.6261 -8.9211 31.7288 -3.2860
# 6 27.9974 10.6473 -1.6230 4.1072 -3.2860 41.3653
#
#
#
# Elastic Compliance Matrix: (Units=1/GPa)
#
#
# Indices 1 2 3 4 5 6 
#
# 1 0.009634 0.001123 -0.006990 0.004334 -0.002769 -0.007734
# 2 0.001123 0.009008 -0.004663 0.005899 0.000838 -0.003781
# 3 -0.006990 -0.004663 0.034380 0.007690 0.017186 0.007882
# 4 0.004334 0.005899 0.007690 0.044975 0.016074 -0.007339
# 5 -0.002769 0.000838 0.017186 0.016074 0.044118 0.004241
# 6 -0.007734 -0.003781 0.007882 -0.007339 0.004241 0.031758
#
#
# Mechanical properties :
#
#
# Convention : Reuss Voigt Hill
#
# Bulk Modulus (GPa) = 31.28706 56.82836 44.05771
# Shear Modulus (GPa) = 24.32078 38.85773 31.58925
#
# Velocity S-wave (km/s) = 3.14542 3.97583 3.58475
# Velocity P-wave (km/s) = 5.09107 6.64786 5.92085
#
# Compressibility (1/GPa) = 0.03196209
#
# Stress axis : x y z
#
# Youngs Moduli (GPa) = 103.80164 111.00853 29.08703
#
# Poissons Ratio (x) = -0.12466 0.20332
# Poissons Ratio (y) = -0.11657 0.13562
# Poissons Ratio (z) = 0.72559 0.51760
#
# Static dielectric constant tensor:
#      x y z
#    x 1.987750 0.003680 0.101590 
#    y 0.003680 1.909350 0.045930 
#    z 0.101590 0.045930 2.190990 
# 
# From -- ./inp_files/186373.got.cif
#   From: 2010.05.17/outbox.cif.g08.bks.cpg/sg2_94_cif.got.tgz:186373.got - 2010.06.03 11:33:40.
