data_PCOD9080701
_publ_section_title
;
Structure prediction by ZEFSAII (Michael W. Deem and Ramdas Pophale) SiO2 
 PCOD9080701
Probable space group: P -1
;
_chemical_formula_sum "Si O2"
_cell_formula_units_Z 14
_cell_length_a 17.613738
_cell_length_b 9.527581
_cell_length_c 11.667963
_cell_angle_alpha 115.851829
_cell_angle_beta 151.850548
_cell_angle_gamma 84.101045
_cell_volume 621.974729
_symmetry_space_group_name_H-M "P -1"
_symmetry_group_IT_number 2
_symmetry_cell_setting 'triclinic'
loop_
_space_group_symop_operation_xyz
x,y,z
-x,-y,-z
loop_
_atom_site_type_symbol
_atom_site_label
_atom_site_fract_x
_atom_site_fract_y
_atom_site_fract_z
Si Si1 0.281592 0.291742 0.481097
Si Si2 0.933630 0.599282 0.367204
Si Si3 0.850364 0.554538 0.822269
Si Si4 0.261704 0.250889 0.700624
Si Si5 0.480661 0.173637 0.531998
Si Si6 0.591372 0.716982 0.755471
Si Si7 0.032785 0.852762 0.390017
O O1 0.139583 0.321320 0.228481
O O2 0.206329 0.194622 0.472880
O O3 0.340888 0.178801 0.442326
O O4 0.499468 0.529431 0.883096
O O5 0.885033 0.708238 0.427447
O O6 0.088890 0.767556 0.535218
O O7 0.000000 0.500000 0.500000
O O8 0.716510 0.403507 0.943475
O O9 0.596984 0.353676 0.434215
O O10 0.929093 0.694325 0.089412
O O11 0.000000 0.500000 0.000000
O O12 0.216844 0.068926 0.649945
O O13 0.390515 0.154747 0.280286
O O14 0.500000 0.000000 0.500000
O O15 0.500000 0.500000 0.500000
O O16 0.828495 0.825594 0.152882
#
# Coordination Sequence:
#
# PCOD9080701 Si02
#       7
#     2   2   2   2   2   2   2
#     4  10  22  46  65  98 141 176 217 281 344 393
#     4  11  24  40  62  96 134 168 226 278 323 398
#     4  11  23  39  70  97 135 174 221 282 335 390
#     4  10  24  42  70  92 137 183 217 269 344 408
#     4  11  22  40  68  95 128 176 223 273 333 391
#     4  10  18  41  66  89 132 168 218 279 321 384
#     4  11  22  44  69  98 127 182 232 269 336 396
#
# _framework density 22.508953000000002
#
# number of rings (size 3 to 8) (size 9 to 14) (size 15 to 20)
#    0.000    1.429    5.714    1.286    4.000    1.714 
#    0.000    0.714    0.000    0.000    0.000    0.000 
#    0.000    0.000    0.000    0.000    0.000    0.000 
#
# Total GULP energy -78234.460787 kJ/mol
# GULP energy per Si atom -5588.175770 kJ/mol
# Density = 2.245772 g / cm^3
# Si number density = 22.508953 Si / 1000 Ang^3
#
#
#
# Elastic Constant Matrix: (Units=GPa)
#
#
# Indices 1 2 3 4 5 6 
#
# 1 112.2860 70.6166 34.5296 -1.6720 -12.0381 23.2857
# 2 70.6166 184.9369 35.8100 -8.6317 -7.0054 23.1423
# 3 34.5296 35.8100 86.4272 0.2911 0.5329 1.1935
# 4 -1.6720 -8.6317 0.2911 38.3026 10.0644 -2.6229
# 5 -12.0381 -7.0054 0.5329 10.0644 22.0475 -8.1379
# 6 23.2857 23.1423 1.1935 -2.6229 -8.1379 45.6588
#
#
#
# Elastic Compliance Matrix: (Units=1/GPa)
#
#
# Indices 1 2 3 4 5 6 
#
# 1 0.014079 -0.003966 -0.003954 -0.002097 0.005957 -0.004125
# 2 -0.003966 0.007474 -0.001485 0.001717 -0.001220 -0.001845
# 3 -0.003954 -0.001485 0.013751 0.000124 -0.002278 0.002011
# 4 -0.002097 0.001717 0.000124 0.030203 -0.014640 -0.000678
# 5 0.005957 -0.001220 -0.002278 -0.014640 0.057565 0.007059
# 6 -0.004125 -0.001845 0.002011 -0.000678 0.007059 0.026107
#
#
# Mechanical properties :
#
#
# Convention : Reuss Voigt Hill
#
# Bulk Modulus (GPa) = 60.62951 73.95141 67.29046
# Shear Modulus (GPa) = 28.82029 37.38137 33.10083
#
# Velocity S-wave (km/s) = 3.58214 4.07963 3.83895
# Velocity P-wave (km/s) = 6.64102 7.42406 7.04343
#
# Compressibility (1/GPa) = 0.01649362
#
# Stress axis : x y z
#
# Youngs Moduli (GPa) = 71.02688 133.79444 72.72001
#
# Poissons Ratio (x) = 0.53067 0.28755
# Poissons Ratio (y) = 0.28172 0.10799
# Poissons Ratio (z) = 0.28086 0.19868
#
# Static dielectric constant tensor:
#      x y z
#    x 1.836220 -0.000480 -0.011290 
#    y -0.000480 1.853700 0.015040 
#    z -0.011290 0.015040 1.903360 
# 
# From -- ./inp_files/357585.got.cif
#   From: 2010.05.17/outbox.cif.g08.bks.cpg/sg2_179_cif.got.tgz:357585.got - 2010.06.03 11:33:40.
