data_PCOD9080892
_publ_section_title
;
Structure prediction by ZEFSAII (Michael W. Deem and Ramdas Pophale) SiO2 
 PCOD9080892
Probable space group: P -1
;
_chemical_formula_sum "Si O2"
_cell_formula_units_Z 16
_cell_length_a 25.608439
_cell_length_b 5.258725
_cell_length_c 8.709271
_cell_angle_alpha 123.140925
_cell_angle_beta 43.526291
_cell_angle_gamma 111.482867
_cell_volume 675.411189
_symmetry_space_group_name_H-M "P -1"
_symmetry_group_IT_number 2
_symmetry_cell_setting 'triclinic'
loop_
_space_group_symop_operation_xyz
x,y,z
-x,-y,-z
loop_
_atom_site_type_symbol
_atom_site_label
_atom_site_fract_x
_atom_site_fract_y
_atom_site_fract_z
Si Si1 0.453277 0.313670 0.663799
Si Si2 0.983619 0.818780 0.812556
Si Si3 0.208300 0.580308 0.385080
Si Si4 0.321903 0.672430 0.942870
Si Si5 0.285940 0.699950 0.691656
Si Si6 0.641812 0.676136 0.844382
Si Si7 0.808008 0.854894 0.185650
Si Si8 0.953337 0.668671 0.297168
O O1 0.500000 0.500000 0.500000
O O2 0.372507 0.364502 0.764259
O O3 0.500000 0.000000 0.500000
O O4 0.426051 0.413341 0.927686
O O5 0.006805 0.473833 0.685749
O O6 0.037368 0.980700 0.634435
O O7 0.896818 0.846294 0.954841
O O8 0.000000 0.000000 0.000000
O O9 0.279041 0.420042 0.270820
O O10 0.197374 0.919948 0.583065
O O11 0.133104 0.415239 0.531920
O O12 0.237485 0.611729 0.160506
O O13 0.322031 0.775787 0.802037
O O14 0.355975 0.957383 0.056419
O O15 0.349574 0.515693 0.392782
O O16 0.243968 0.971235 0.774911
O O17 0.223525 0.458426 0.792255
O O18 0.000000 0.500000 0.000000
#
# Coordination Sequence:
#
# PCOD9080892 Si02
#       8
#     2   2   2   2   2   2   2   2
#     4  11  23  44  74 101 134 171 209 258 316 387
#     4  10  19  30  54  87 119 163 223 263 331 383
#     4  10  21  35  63  95 125 169 224 270 319 384
#     4  11  24  44  70  99 133 173 212 267 325 377
#     4  11  26  40  66  98 135 166 223 267 320 382
#     4  10  23  42  70  98 132 171 220 256 320 382
#     4  11  21  38  60  94 126 172 220 278 318 385
#     4  10  19  29  54  90 118 161 223 265 323 385
#
# _framework density 23.689274000000001
#
# number of rings (size 3 to 8) (size 9 to 14) (size 15 to 20)
#    0.000    1.500    5.000    0.750   10.500    0.000 
#    0.000    1.250    0.000    4.500    0.000    0.000 
#    0.000    0.000    0.000    0.000    0.000    0.000 
#
# Total GULP energy -89306.788805 kJ/mol
# GULP energy per Si atom -5581.674300 kJ/mol
# Density = 2.363536 g / cm^3
# Si number density = 23.689274 Si / 1000 Ang^3
#
#
#
# Elastic Constant Matrix: (Units=GPa)
#
#
# Indices 1 2 3 4 5 6 
#
# 1 33.8144 15.9722 29.3415 0.9514 1.4962 -12.1447
# 2 15.9722 127.6336 30.8168 -26.7368 2.5826 -20.6543
# 3 29.3415 30.8168 116.4850 -29.5007 -4.6121 -6.9311
# 4 0.9514 -26.7368 -29.5007 39.5866 -1.6811 -2.2063
# 5 1.4962 2.5826 -4.6121 -1.6811 31.8550 -1.3911
# 6 -12.1447 -20.6543 -6.9311 -2.2063 -1.3911 31.4043
#
#
#
# Elastic Compliance Matrix: (Units=1/GPa)
#
#
# Indices 1 2 3 4 5 6 
#
# 1 0.048428 -0.003409 -0.014160 -0.013517 -0.004228 0.012224
# 2 -0.003409 0.010920 0.000421 0.008138 0.000050 0.006531
# 3 -0.014160 0.000421 0.015171 0.012029 0.003425 -0.000854
# 4 -0.013517 0.008138 0.012029 0.040544 0.004110 0.005810
# 5 -0.004228 0.000050 0.003425 0.004110 0.032338 0.000875
# 6 0.012224 0.006531 -0.000854 0.005810 0.000875 0.041124
#
#
# Mechanical properties :
#
#
# Convention : Reuss Voigt Hill
#
# Bulk Modulus (GPa) = 24.86111 47.79932 36.33021
# Shear Modulus (GPa) = 21.16586 34.02269 27.59427
#
# Velocity S-wave (km/s) = 2.99235 3.79384 3.41668
# Velocity P-wave (km/s) = 4.73881 6.27793 5.56187
#
# Compressibility (1/GPa) = 0.04022346
#
# Stress axis : x y z
#
# Youngs Moduli (GPa) = 20.64913 91.57223 65.91411
#
# Poissons Ratio (x) = 0.31220 0.93334
# Poissons Ratio (y) = 0.07040 -0.02776
# Poissons Ratio (z) = 0.29239 -0.03857
#
# Static dielectric constant tensor:
#      x y z
#    x 1.924170 0.009710 0.004410 
#    y 0.009710 1.918860 -0.033710 
#    z 0.004410 -0.033710 1.894940 
# 
# From -- ./inp_files/356032.got.cif
#   From: 2010.05.17/outbox.cif.g08.bks.cpg/sg2_179_cif.got.tgz:356032.got - 2010.06.03 11:33:40.
