data_PCOD9080943
_publ_section_title
;
Structure prediction by ZEFSAII (Michael W. Deem and Ramdas Pophale) SiO2 
 PCOD9080943
Probable space group: P -1
;
_chemical_formula_sum "Si O2"
_cell_formula_units_Z 16
_cell_length_a 10.823511
_cell_length_b 23.102955
_cell_length_c 8.038612
_cell_angle_alpha 135.740693
_cell_angle_beta 53.173570
_cell_angle_gamma 149.055931
_cell_volume 720.733173
_symmetry_space_group_name_H-M "P -1"
_symmetry_group_IT_number 2
_symmetry_cell_setting 'triclinic'
loop_
_space_group_symop_operation_xyz
x,y,z
-x,-y,-z
loop_
_atom_site_type_symbol
_atom_site_label
_atom_site_fract_x
_atom_site_fract_y
_atom_site_fract_z
Si Si1 0.079249 0.548021 0.768595
Si Si2 0.965750 0.631250 0.792611
Si Si3 0.040699 0.845274 0.085861
Si Si4 0.658138 0.965406 0.471961
Si Si5 0.704677 0.323127 0.820935
Si Si6 0.870357 0.638313 0.411316
Si Si7 0.596633 0.574646 0.841787
Si Si8 0.761696 0.069585 0.253826
O O1 0.081071 0.470271 0.486966
O O2 0.101463 0.646934 0.869916
O O3 0.811399 0.428189 0.814699
O O4 0.281475 0.625582 0.907474
O O5 0.699033 0.558467 0.872135
O O6 0.101157 0.769836 0.901004
O O7 0.167171 0.929053 0.987374
O O8 0.749908 0.722422 0.047839
O O9 0.131662 0.927653 0.347260
O O10 0.717874 0.988981 0.275339
O O11 0.528186 0.825740 0.333334
O O12 0.466280 0.962083 0.640260
O O13 0.923262 0.345763 0.706390
O O14 0.729414 0.591536 0.602541
O O15 0.676734 0.540891 0.225971
O O16 0.014012 0.782033 0.561189
#
# Coordination Sequence:
#
# PCOD9080943 Si02
#       8
#     2   2   2   2   2   2   2   2
#     4  10  19  33  49  67 109 137 170 204 247 303
#     4   9  18  32  49  75 100 134 167 207 252 309
#     4   9  18  33  49  77 107 128 163 217 261 307
#     4  10  19  30  48  75 106 134 165 207 263 313
#     4  10  20  33  49  77 105 134 167 210 252 312
#     4   9  15  30  49  75 105 129 165 209 266 302
#     4   8  16  29  51  75 103 130 162 216 258 304
#     4   9  18  28  46  72 104 136 154 202 267 305
#
# _framework density 22.199617
#
# number of rings (size 3 to 8) (size 9 to 14) (size 15 to 20)
#    0.750    2.000    1.250    1.125    5.250    0.000 
#    2.250    2.500    0.000    0.000    0.000    8.750 
#    7.500    0.000    0.000    0.000    0.000    0.000 
#
# Total GULP energy -89071.352226 kJ/mol
# GULP energy per Si atom -5566.959514 kJ/mol
# Density = 2.214909 g / cm^3
# Si number density = 22.199617 Si / 1000 Ang^3
#
#
#
# Elastic Constant Matrix: (Units=GPa)
#
#
# Indices 1 2 3 4 5 6 
#
# 1 24.1153 16.6941 9.2846 1.3828 11.1749 -2.5681
# 2 16.6941 28.8561 13.9762 9.6449 7.6525 -0.6565
# 3 9.2846 13.9762 80.0724 11.6154 15.4120 1.3824
# 4 1.3828 9.6449 11.6154 29.4818 3.7363 5.9158
# 5 11.1749 7.6525 15.4120 3.7363 28.7616 5.3351
# 6 -2.5681 -0.6565 1.3824 5.9158 5.3351 24.0998
#
#
#
# Elastic Compliance Matrix: (Units=1/GPa)
#
#
# Indices 1 2 3 4 5 6 
#
# 1 0.085722 -0.047392 0.001175 0.012098 -0.024808 0.010298
# 2 -0.047392 0.069629 -0.004779 -0.019450 0.004822 0.000828
# 3 0.001175 -0.004779 0.015080 -0.003867 -0.007068 0.001644
# 4 0.012098 -0.019450 -0.003867 0.043284 -0.001343 -0.009347
# 5 -0.024808 0.004822 -0.007068 -0.001343 0.049446 -0.012724
# 6 0.010298 0.000828 0.001644 -0.009347 -0.012724 0.047631
#
#
# Mechanical properties :
#
#
# Convention : Reuss Voigt Hill
#
# Bulk Modulus (GPa) = 14.61201 23.66151 19.13676
# Shear Modulus (GPa) = 11.47849 22.67456 17.07652
#
# Velocity S-wave (km/s) = 2.27636 3.19939 2.77650
# Velocity P-wave (km/s) = 3.67498 4.93253 4.34944
#
# Compressibility (1/GPa) = 0.06843687
#
# Stress axis : x y z
#
# Youngs Moduli (GPa) = 11.66560 14.36191 66.31467
#
# Poissons Ratio (x) = 0.68064 -0.07789
# Poissons Ratio (y) = 0.55286 0.31691
# Poissons Ratio (z) = -0.01370 0.06863
#
# Static dielectric constant tensor:
#      x y z
#    x 1.895040 -0.026970 0.027860 
#    y -0.026970 1.860330 -0.057210 
#    z 0.027860 -0.057210 1.870560 
# 
# From -- ./inp_files/283828.got.cif
#   From: 2010.05.17/outbox.cif.g08.bks.cpg/sg2_142_cif.got.tgz:283828.got - 2010.06.03 11:33:40.
