data_PCOD9080319
_publ_section_title
;
Structure prediction by ZEFSAII (Michael W. Deem and Ramdas Pophale) SiO2 
 PCOD9080319
Probable space group: P -1
;
_chemical_formula_sum "Si O2"
_cell_formula_units_Z 11
_cell_length_a 14.798511
_cell_length_b 13.364128
_cell_length_c 8.545119
_cell_angle_alpha 39.697623
_cell_angle_beta 144.763394
_cell_angle_gamma 152.935624
_cell_volume 437.890808
_symmetry_space_group_name_H-M "P -1"
_symmetry_group_IT_number 2
_symmetry_cell_setting 'triclinic'
loop_
_space_group_symop_operation_xyz
x,y,z
-x,-y,-z
loop_
_atom_site_type_symbol
_atom_site_label
_atom_site_fract_x
_atom_site_fract_y
_atom_site_fract_z
Si Si1 0.138445 0.213668 0.830987
Si Si2 0.500000 0.500000 0.500000
Si Si3 0.537243 0.995343 0.816404
Si Si4 0.422547 0.707121 0.279442
Si Si5 0.002325 0.180045 0.342712
Si Si6 0.551632 0.344378 0.085732
O O1 0.015507 0.198899 0.524951
O O2 0.340884 0.255279 0.994052
O O3 0.235064 0.427391 0.808192
O O4 0.000000 0.000000 0.000000
O O5 0.622683 0.733940 0.492514
O O6 0.519776 0.397741 0.805954
O O7 0.793171 0.121377 0.046446
O O8 0.398889 0.823450 0.975241
O O9 0.442647 0.836952 0.723425
O O10 0.552836 0.191122 0.642240
O O11 0.234664 0.435041 0.312534
O O12 0.000000 0.000000 0.500000
#
# Coordination Sequence:
#
# PCOD9080319 Si02
#       6
#     2   1   2   2   2   2
#     4  11  25  36  60  94 128 162 210 255 306 362
#     4  10  18  38  72  82 116 158 212 248 304 364
#     4  10  22  37  66  91 123 163 204 260 312 363
#     4  10  21  38  62  97 122 153 212 260 308 369
#     4  12  22  39  64  94 120 168 212 256 302 370
#     4  10  22  40  60  92 122 163 208 260 303 367
#
# _framework density 25.120418999999998
#
# number of rings (size 3 to 8) (size 9 to 14) (size 15 to 20)
#    0.000    1.455    3.636    1.636   10.182    0.000 
#    0.000    0.909    0.000   10.909    0.000    0.000 
#    0.000    0.000    0.000    0.000    0.000    0.000 
#
# Total GULP energy -61294.133935 kJ/mol
# GULP energy per Si atom -5572.193994 kJ/mol
# Density = 2.506324 g / cm^3
# Si number density = 25.120419 Si / 1000 Ang^3
#
#
#
# Elastic Constant Matrix: (Units=GPa)
#
#
# Indices 1 2 3 4 5 6 
#
# 1 118.5159 86.1338 21.8462 -18.2478 1.0229 -39.3975
# 2 86.1338 213.9176 31.4203 -14.5594 -6.8361 -47.0226
# 3 21.8462 31.4203 55.0773 -21.2415 -14.5888 -1.7529
# 4 -18.2478 -14.5594 -21.2415 37.3267 -2.2637 5.2534
# 5 1.0229 -6.8361 -14.5888 -2.2637 40.9078 -25.4923
# 6 -39.3975 -47.0226 -1.7529 5.2534 -25.4923 81.9591
#
#
#
# Elastic Compliance Matrix: (Units=1/GPa)
#
#
# Indices 1 2 3 4 5 6 
#
# 1 0.013646 -0.004041 -0.000986 0.004003 0.001641 0.004474
# 2 -0.004041 0.007298 -0.002040 -0.000564 0.002426 0.002992
# 3 -0.000986 -0.002040 0.028982 0.015702 0.011936 0.001682
# 4 0.004003 -0.000564 0.015702 0.037681 0.008922 0.002296
# 5 0.001641 0.002426 0.011936 0.008922 0.038108 0.013717
# 6 0.004474 0.002992 0.001682 0.002296 0.013717 0.020224
#
#
# Mechanical properties :
#
#
# Convention : Reuss Voigt Hill
#
# Bulk Modulus (GPa) = 27.93952 74.03462 50.98707
# Shear Modulus (GPa) = 29.06883 48.57944 38.82413
#
# Velocity S-wave (km/s) = 3.40542 4.40234 3.93558
# Velocity P-wave (km/s) = 5.15838 7.44155 6.40256
#
# Compressibility (1/GPa) = 0.03579159
#
# Stress axis : x y z
#
# Youngs Moduli (GPa) = 73.28142 137.01544 34.50388
#
# Poissons Ratio (x) = 0.55374 0.03402
# Poissons Ratio (y) = 0.29616 0.07039
# Poissons Ratio (z) = 0.07226 0.27953
#
# Static dielectric constant tensor:
#      x y z
#    x 1.139630 -0.269260 -0.338430 
#    y -0.269260 1.988230 -0.116970 
#    z -0.338430 -0.116970 1.886280 
# 
# From -- ./inp_files/300299.got.cif
#   From: 2010.05.17/outbox.cif.g08.bks.cpg/sg2_151_cif.got.tgz:300299.got - 2010.06.03 11:33:40.
