data_PCOD9080835
_publ_section_title
;
Structure prediction by ZEFSAII (Michael W. Deem and Ramdas Pophale) SiO2 
 PCOD9080835
Probable space group: P -1
;
_chemical_formula_sum "Si O2"
_cell_formula_units_Z 16
_cell_length_a 13.841164
_cell_length_b 10.391079
_cell_length_c 7.889471
_cell_angle_alpha 44.483168
_cell_angle_beta 69.568920
_cell_angle_gamma 71.314006
_cell_volume 740.658564
_symmetry_space_group_name_H-M "P -1"
_symmetry_group_IT_number 2
_symmetry_cell_setting 'triclinic'
loop_
_space_group_symop_operation_xyz
x,y,z
-x,-y,-z
loop_
_atom_site_type_symbol
_atom_site_label
_atom_site_fract_x
_atom_site_fract_y
_atom_site_fract_z
Si Si1 0.497275 0.262751 0.400986
Si Si2 0.040956 0.510160 0.777974
Si Si3 0.111964 0.781740 0.244811
Si Si4 0.494309 0.148951 0.115976
Si Si5 0.182977 0.460190 0.272984
Si Si6 0.394005 0.562046 0.395839
Si Si7 0.330286 0.474705 0.852671
Si Si8 0.119290 0.187891 0.811047
O O1 0.492843 0.208590 0.258609
O O2 0.402500 0.408963 0.386041
O O3 0.502886 0.071807 0.682940
O O4 0.595286 0.378444 0.256851
O O5 0.091110 0.692921 0.522134
O O6 0.110745 0.328008 0.842582
O O7 0.938050 0.517810 0.720737
O O8 0.000000 0.500000 0.000000
O O9 0.188797 0.634009 0.231136
O O10 0.997990 0.807168 0.199380
O O11 0.152464 0.979368 0.037987
O O12 0.390957 0.268446 0.997108
O O13 0.587155 0.240283 0.878874
O O14 0.243388 0.466603 0.055077
O O15 0.193309 0.269210 0.550606
O O16 0.500000 0.500000 0.500000
O O17 0.308567 0.544293 0.608343
#
# Coordination Sequence:
#
# PCOD9080835 Si02
#       8
#     2   2   2   2   2   2   2   2
#     4   9  17  31  50  68  88 118 154 187 222 270
#     4   9  17  30  48  71  94 119 151 189 226 265
#     4   8  15  30  50  67  87 120 157 185 214 266
#     4   9  17  31  50  68  88 118 154 187 222 270
#     4   9  18  31  46  67  93 120 153 187 227 267
#     4   8  16  28  44  66  90 119 153 184 220 269
#     4  10  19  29  46  70  93 118 148 190 231 267
#     4   8  15  30  50  67  87 120 157 185 214 266
#
# _framework density 21.602395000000001
#
# number of rings (size 3 to 8) (size 9 to 14) (size 15 to 20)
#    0.000    3.500    0.000    3.000    0.000    6.000 
#    0.000    5.000    0.000    0.000    0.000    0.000 
#    0.000    0.000    0.000    0.000    0.000    0.000 
#
# Total GULP energy -89176.703760 kJ/mol
# GULP energy per Si atom -5573.543985 kJ/mol
# Density = 2.155323 g / cm^3
# Si number density = 21.602395 Si / 1000 Ang^3
#
#
#
# Elastic Constant Matrix: (Units=GPa)
#
#
# Indices 1 2 3 4 5 6 
#
# 1 35.7250 -1.5826 5.3549 -8.2843 -11.1088 -6.6611
# 2 -1.5826 82.4403 90.4673 -6.5946 -12.0817 -4.9705
# 3 5.3549 90.4673 217.5442 -8.2087 -12.1467 -13.3688
# 4 -8.2843 -6.5946 -8.2087 52.7164 0.7842 0.4234
# 5 -11.1088 -12.0817 -12.1467 0.7842 22.1782 4.7812
# 6 -6.6611 -4.9705 -13.3688 0.4234 4.7812 19.7918
#
#
#
# Elastic Compliance Matrix: (Units=1/GPa)
#
#
# Indices 1 2 3 4 5 6 
#
# 1 0.037523 0.006551 -0.001832 0.006077 0.019372 0.008227
# 2 0.006551 0.024873 -0.009830 0.002446 0.011585 -0.001039
# 3 -0.001832 -0.009830 0.008812 -0.000140 -0.002173 0.003395
# 4 0.006077 0.002446 -0.000140 0.020149 0.003299 0.001337
# 5 0.019372 0.011585 -0.002173 0.003299 0.061288 -0.006914
# 6 0.008227 -0.001039 0.003395 0.001337 -0.006914 0.056969
#
#
# Mechanical properties :
#
#
# Convention : Reuss Voigt Hill
#
# Bulk Modulus (GPa) = 16.39649 58.24318 37.31983
# Shear Modulus (GPa) = 20.81918 35.03528 27.92723
#
# Velocity S-wave (km/s) = 3.10779 4.03156 3.59943
# Velocity P-wave (km/s) = 4.52597 6.97791 5.88114
#
# Compressibility (1/GPa) = 0.06098866
#
# Stress axis : x y z
#
# Youngs Moduli (GPa) = 26.65005 40.20348 113.48665
#
# Poissons Ratio (x) = -0.26339 0.20785
# Poissons Ratio (y) = -0.17459 1.11554
# Poissons Ratio (z) = 0.04881 0.39519
#
# Static dielectric constant tensor:
#      x y z
#    x 1.896090 -0.004850 0.018010 
#    y -0.004850 1.784240 0.029370 
#    z 0.018010 0.029370 1.811310 
# 
# From -- ./inp_files/344464.got.cif
#   From: 2010.05.17/outbox.cif.g08.bks.cpg/sg2_173_cif.got.tgz:344464.got - 2010.06.03 11:33:40.
