data_PCOD9080133
_publ_section_title
;
Structure prediction by ZEFSAII (Michael W. Deem and Ramdas Pophale) SiO2 
 PCOD9080133
Probable space group: P -1
;
_chemical_formula_sum "Si O2"
_cell_formula_units_Z 16
_cell_length_a 16.648078
_cell_length_b 12.971786
_cell_length_c 9.208692
_cell_angle_alpha 130.504240
_cell_angle_beta 91.279655
_cell_angle_gamma 48.463797
_cell_volume 788.448078
_symmetry_space_group_name_H-M "P -1"
_symmetry_group_IT_number 2
_symmetry_cell_setting 'triclinic'
loop_
_space_group_symop_operation_xyz
x,y,z
-x,-y,-z
loop_
_atom_site_type_symbol
_atom_site_label
_atom_site_fract_x
_atom_site_fract_y
_atom_site_fract_z
Si Si1 0.098057 0.343343 0.213412
Si Si2 0.831127 0.549256 0.274921
Si Si3 0.341004 0.976162 0.116961
Si Si4 0.616689 0.436778 0.524200
Si Si5 0.845187 0.231206 0.111750
Si Si6 0.291361 0.776104 0.104201
Si Si7 0.345256 0.806222 0.445477
Si Si8 0.848090 0.646347 0.065120
O O1 0.000000 0.500000 0.500000
O O2 0.001457 0.363333 0.149953
O O3 0.265798 0.084175 0.052746
O O4 0.110636 0.443243 0.183596
O O5 0.818476 0.419217 0.221281
O O6 0.806753 0.598382 0.144945
O O7 0.712250 0.819520 0.603043
O O8 0.278378 0.934386 0.159644
O O9 0.520493 0.688175 0.838806
O O10 0.500000 0.500000 0.500000
O O11 0.716152 0.364358 0.339859
O O12 0.702212 0.219036 0.444447
O O13 0.830196 0.152196 0.901885
O O14 0.000000 0.000000 0.000000
O O15 0.277614 0.834593 0.324523
O O16 0.467819 0.468033 0.808141
O O17 0.282755 0.048822 0.672177
O O18 0.000000 0.500000 0.000000
#
# Coordination Sequence:
#
# PCOD9080133 Si02
#       8
#     2   2   2   2   2   2   2   2
#     4   9  19  34  60  93 123 168 214 263 310 385
#     4  10  22  38  59  93 132 165 206 275 335 374
#     4  10  18  38  64  90 121 164 232 261 305 389
#     4  11  22  39  69  95 122 177 227 264 319 398
#     4  12  26  43  63  97 139 171 208 277 346 385
#     4  10  21  39  65  94 126 173 216 266 315 395
#     4  10  20  38  69  93 120 165 235 259 304 380
#     4  10  20  34  62  93 127 164 214 267 317 387
#
# _framework density 20.293029000000001
#
# number of rings (size 3 to 8) (size 9 to 14) (size 15 to 20)
#    0.000    1.750    3.750    1.500    3.500    0.500 
#    0.000    3.750    0.000    0.000    0.000    0.000 
#    0.000    0.000    0.000    0.000    0.000    0.000 
#
# Total GULP energy -89225.989497 kJ/mol
# GULP energy per Si atom -5576.624344 kJ/mol
# Density = 2.024684 g / cm^3
# Si number density = 20.293029 Si / 1000 Ang^3
#
#
#
# Elastic Constant Matrix: (Units=GPa)
#
#
# Indices 1 2 3 4 5 6 
#
# 1 87.8257 50.9050 22.7668 -8.5463 0.5224 19.4996
# 2 50.9050 170.1850 35.7158 -25.8235 0.6841 23.4944
# 3 22.7668 35.7158 78.0158 -6.3694 1.6961 11.7042
# 4 -8.5463 -25.8235 -6.3694 36.6896 4.5316 -0.5063
# 5 0.5224 0.6841 1.6961 4.5316 19.7911 -5.3576
# 6 19.4996 23.4944 11.7042 -0.5063 -5.3576 40.5603
#
#
#
# Elastic Compliance Matrix: (Units=1/GPa)
#
#
# Indices 1 2 3 4 5 6 
#
# 1 0.014986 -0.003207 -0.002040 0.001019 -0.001688 -0.004969
# 2 -0.003207 0.008445 -0.002030 0.005049 -0.001992 -0.002964
# 3 -0.002040 -0.002030 0.014813 0.000881 -0.001989 -0.002370
# 4 0.001019 0.005049 0.000881 0.032233 -0.008858 -0.004437
# 5 -0.001688 -0.001992 -0.001989 -0.008858 0.055481 0.009757
# 6 -0.004969 -0.002964 -0.002370 -0.004437 0.009757 0.030678
#
#
# Mechanical properties :
#
#
# Convention : Reuss Voigt Hill
#
# Bulk Modulus (GPa) = 42.21099 61.64465 51.92782
# Shear Modulus (GPa) = 27.91954 34.51745 31.21850
#
# Velocity S-wave (km/s) = 3.71323 4.12873 3.92648
# Velocity P-wave (km/s) = 6.26338 7.29190 6.79712
#
# Compressibility (1/GPa) = 0.02369051
#
# Stress axis : x y z
#
# Youngs Moduli (GPa) = 66.72775 118.41848 67.50785
#
# Poissons Ratio (x) = 0.37979 0.13770
# Poissons Ratio (y) = 0.21401 0.13703
# Poissons Ratio (z) = 0.13611 0.24037
#
# Static dielectric constant tensor:
#      x y z
#    x 1.695330 -0.015330 0.005600 
#    y -0.015330 1.771670 -0.003580 
#    z 0.005600 -0.003580 1.831230 
# 
# From -- ./inp_files/332353.got.cif
#   From: 2010.05.17/outbox.cif.g08.bks.cpg/sg2_167_cif.got.tgz:332353.got - 2010.06.03 11:33:40.
