data_PCOD9080821
_publ_section_title
;
Structure prediction by ZEFSAII (Michael W. Deem and Ramdas Pophale) SiO2 
 PCOD9080821
Probable space group: P -1
;
_chemical_formula_sum "Si O2"
_cell_formula_units_Z 16
_cell_length_a 9.872283
_cell_length_b 17.573654
_cell_length_c 8.018638
_cell_angle_alpha 133.849660
_cell_angle_beta 78.997752
_cell_angle_gamma 136.616841
_cell_volume 534.512994
_symmetry_space_group_name_H-M "P -1"
_symmetry_group_IT_number 2
_symmetry_cell_setting 'triclinic'
loop_
_space_group_symop_operation_xyz
x,y,z
-x,-y,-z
loop_
_atom_site_type_symbol
_atom_site_label
_atom_site_fract_x
_atom_site_fract_y
_atom_site_fract_z
Si Si1 0.719123 0.264423 0.198323
Si Si2 0.068924 0.764841 0.102421
Si Si3 0.217787 0.265357 0.695863
Si Si4 0.488714 0.238401 0.898548
Si Si5 0.806136 0.816301 0.888528
Si Si6 0.519901 0.310144 0.508617
Si Si7 0.231194 0.733905 0.324603
Si Si8 0.931339 0.693722 0.519600
O O1 0.575551 0.219808 0.002756
O O2 0.548654 0.206862 0.295414
O O3 0.000000 0.500000 0.500000
O O4 0.781482 0.184527 0.014693
O O5 0.800736 0.528130 0.818240
O O6 0.963823 0.814459 0.233643
O O7 0.211847 0.807900 0.294821
O O8 0.447160 0.330540 0.389751
O O9 0.085613 0.237240 0.526861
O O10 0.500000 0.500000 0.000000
O O11 0.245166 0.148634 0.880254
O O12 0.696561 0.465160 0.193879
O O13 0.527986 0.186057 0.651734
O O14 0.885138 0.744412 0.760342
O O15 0.000000 0.000000 0.000000
O O16 0.310266 0.208443 0.538514
O O17 0.167993 0.765298 0.549617
O O18 0.000000 0.500000 0.000000
#
# Coordination Sequence:
#
# PCOD9080821 Si02
#       8
#     2   2   2   2   2   2   2   2
#     4   8  13  21  35  57  81 101 124 160 205 246
#     4   8  12  20  35  56  79  99 121 159 205 245
#     4   8  13  21  35  57  81 101 124 160 205 246
#     4   9  16  27  43  63  85 107 136 176 213 246
#     4  10  19  29  40  58  85 117 146 171 201 244
#     4   8  14  23  35  52  75 104 132 160 196 237
#     4   8  14  24  41  66  86 100 126 170 218 254
#     4   9  16  27  43  63  85 107 136 176 213 246
#
# _framework density 29.933790999999999
#
# number of rings (size 3 to 8) (size 9 to 14) (size 15 to 20)
#    0.000    3.500    0.000    0.375    0.000    0.000 
#    0.000    0.625    0.000    0.000    0.000   43.750 
#    0.000    0.000    0.000    0.000    0.000    0.000 
#
# Total GULP energy -89450.015492 kJ/mol
# GULP energy per Si atom -5590.625968 kJ/mol
# Density = 2.986566 g / cm^3
# Si number density = 29.933791 Si / 1000 Ang^3
#
#
#
# Elastic Constant Matrix: (Units=GPa)
#
#
# Indices 1 2 3 4 5 6 
#
# 1 202.2777 81.6031 43.9629 -33.2127 -30.8828 55.9381
# 2 81.6031 241.3910 88.2755 -63.4116 -55.8906 89.2117
# 3 43.9629 88.2755 131.0341 -42.7962 -42.1410 28.1166
# 4 -33.2127 -63.4116 -42.7962 82.1736 27.8943 -38.8700
# 5 -30.8828 -55.8906 -42.1410 27.8943 50.0797 -25.9988
# 6 55.9381 89.2117 28.1166 -38.8700 -25.9988 74.9649
#
#
#
# Elastic Compliance Matrix: (Units=1/GPa)
#
#
# Indices 1 2 3 4 5 6 
#
# 1 0.006447 -0.000181 -0.000929 -0.000281 0.001059 -0.004026
# 2 -0.000181 0.009353 -0.003367 0.000382 0.002843 -0.008549
# 3 -0.000929 -0.003367 0.012482 0.003193 0.006419 0.003900
# 4 -0.000281 0.000382 0.003193 0.018556 -0.003841 0.006847
# 5 0.001059 0.002843 0.006419 -0.003841 0.032788 0.002799
# 6 -0.004026 -0.008549 0.003900 0.006847 0.002799 0.029575
#
#
# Mechanical properties :
#
#
# Convention : Reuss Voigt Hill
#
# Bulk Modulus (GPa) = 51.73399 111.37619 81.55509
# Shear Modulus (GPa) = 40.12921 65.50105 52.81513
#
# Velocity S-wave (km/s) = 3.66539 4.68289 4.20503
# Velocity P-wave (km/s) = 5.93581 8.15644 7.13307
#
# Compressibility (1/GPa) = 0.01932965
#
# Stress axis : x y z
#
# Youngs Moduli (GPa) = 155.10248 106.91753 80.11655
#
# Poissons Ratio (x) = 0.01930 0.07441
# Poissons Ratio (y) = 0.02800 0.26975
# Poissons Ratio (z) = 0.14405 0.35999
#
# Static dielectric constant tensor:
#      x y z
#    x 2.355780 -0.067320 0.084830 
#    y -0.067320 2.443090 -0.079090 
#    z 0.084830 -0.079090 2.436750 
# 
# From -- ./inp_files/279379.got.cif
#   From: 2010.05.17/outbox.cif.g08.bks.cpg/sg2_140_cif.got.tgz:279379.got - 2010.06.03 11:33:40.
