data_PCOD9080332
_publ_section_title
;
Structure prediction by ZEFSAII (Michael W. Deem and Ramdas Pophale) SiO2 
 PCOD9080332
Probable space group: P -1
;
_chemical_formula_sum "Si O2"
_cell_formula_units_Z 16
_cell_length_a 21.163541
_cell_length_b 12.122338
_cell_length_c 12.341421
_cell_angle_alpha 145.846572
_cell_angle_beta 151.168599
_cell_angle_gamma 48.672864
_cell_volume 832.432163
_symmetry_space_group_name_H-M "P -1"
_symmetry_group_IT_number 2
_symmetry_cell_setting 'triclinic'
loop_
_space_group_symop_operation_xyz
x,y,z
-x,-y,-z
loop_
_atom_site_type_symbol
_atom_site_label
_atom_site_fract_x
_atom_site_fract_y
_atom_site_fract_z
Si Si1 0.319820 0.887554 0.203379
Si Si2 0.734382 0.764929 0.230258
Si Si3 0.637324 0.727853 0.290963
Si Si4 0.648480 0.422542 0.361991
Si Si5 0.604280 0.990436 0.054756
Si Si6 0.208309 0.579728 0.628048
Si Si7 0.022294 0.674196 0.587503
Si Si8 0.481898 0.662352 0.424841
O O1 0.410849 0.768092 0.310842
O O2 0.365916 0.120105 0.491998
O O3 0.303181 0.800613 0.985364
O O4 0.162818 0.827662 0.956198
O O5 0.691869 0.828956 0.338603
O O6 0.888288 0.752189 0.449782
O O7 0.715911 0.908117 0.220465
O O8 0.629933 0.543063 0.877795
O O9 0.732915 0.580081 0.343906
O O10 0.484007 0.613731 0.943814
O O11 0.775414 0.472348 0.513642
O O12 0.614247 0.588902 0.525388
O O13 0.647690 0.211946 0.248077
O O14 0.529328 0.826218 0.722083
O O15 0.500000 0.000000 0.000000
O O16 0.063397 0.590100 0.465681
O O17 0.000000 0.500000 0.500000
#
# Coordination Sequence:
#
# PCOD9080332 Si02
#       8
#     2   2   2   2   2   2   2   2
#     4  10  20  33  58  89 111 148 180 228 286 331
#     4  11  20  37  59  84 113 149 186 235 275 326
#     4  11  19  34  58  87 115 142 185 232 289 334
#     4  11  22  36  56  83 118 151 181 233 282 335
#     4  12  23  38  58  87 115 145 190 231 279 337
#     4  10  22  37  54  83 117 151 183 230 283 333
#     4  10  18  39  58  79 117 149 185 232 274 330
#     4  11  20  36  60  87 114 143 186 232 288 328
#
# _framework density 19.220784999999999
#
# number of rings (size 3 to 8) (size 9 to 14) (size 15 to 20)
#    0.750    0.500    8.750    0.750    0.000    2.000 
#    0.000    0.625    0.000    0.750    0.000    0.000 
#    0.000    0.000    0.000    0.000    0.000    0.000 
#
# Total GULP energy -89150.722077 kJ/mol
# GULP energy per Si atom -5571.920130 kJ/mol
# Density = 1.917704 g / cm^3
# Si number density = 19.220785 Si / 1000 Ang^3
#
#
#
# Elastic Constant Matrix: (Units=GPa)
#
#
# Indices 1 2 3 4 5 6 
#
# 1 101.9708 13.8884 20.0552 0.3019 -0.7500 -15.8538
# 2 13.8884 70.4415 12.7067 -13.0248 -8.4667 -13.2655
# 3 20.0552 12.7067 24.8972 -1.7124 -7.4838 -11.3907
# 4 0.3019 -13.0248 -1.7124 25.5625 -12.0566 -6.5495
# 5 -0.7500 -8.4667 -7.4838 -12.0566 29.1682 1.9487
# 6 -15.8538 -13.2655 -11.3907 -6.5495 1.9487 28.0457
#
#
#
# Elastic Compliance Matrix: (Units=1/GPa)
#
#
# Indices 1 2 3 4 5 6 
#
# 1 0.012145 -0.001216 -0.009502 -0.002611 -0.003697 0.002078
# 2 -0.001216 0.023266 0.002916 0.023810 0.016247 0.015933
# 3 -0.009502 0.002916 0.069451 0.026511 0.027476 0.028497
# 4 -0.002611 0.023810 0.026511 0.084238 0.045991 0.037030
# 5 -0.003697 0.016247 0.027476 0.045991 0.063422 0.023088
# 6 0.002078 0.015933 0.028497 0.037030 0.023088 0.062984
#
#
# Mechanical properties :
#
#
# Convention : Reuss Voigt Hill
#
# Bulk Modulus (GPa) = 11.20357 32.29000 21.74679
# Shear Modulus (GPa) = 13.85570 26.59923 20.22747
#
# Velocity S-wave (km/s) = 2.68782 3.72409 3.24755
# Velocity P-wave (km/s) = 3.93370 5.94372 5.03993
#
# Compressibility (1/GPa) = 0.08925726
#
# Stress axis : x y z
#
# Youngs Moduli (GPa) = 82.33947 42.98175 14.39865
#
# Poissons Ratio (x) = 0.05228 0.13682
# Poissons Ratio (y) = 0.10014 -0.04199
# Poissons Ratio (z) = 0.78242 -0.12535
#
# Static dielectric constant tensor:
#      x y z
#    x 1.718320 0.002540 -0.007860 
#    y 0.002540 1.759800 -0.013200 
#    z -0.007860 -0.013200 1.725850 
# 
# From -- ./inp_files/470904.got.cif
#   From: 2010.05.17/outbox.cif.g08.bks.cpg/sg2_236_cif.got.tgz:470904.got - 2010.06.03 11:33:40.
