data_PCOD9080194
_publ_section_title
;
Structure prediction by ZEFSAII (Michael W. Deem and Ramdas Pophale) SiO2 
 PCOD9080194
Probable space group: P -1
;
_chemical_formula_sum "Si O2"
_cell_formula_units_Z 16
_cell_length_a 8.713209
_cell_length_b 11.158067
_cell_length_c 11.692957
_cell_angle_alpha 115.344918
_cell_angle_beta 84.443175
_cell_angle_gamma 135.500563
_cell_volume 679.982175
_symmetry_space_group_name_H-M "P -1"
_symmetry_group_IT_number 2
_symmetry_cell_setting 'triclinic'
loop_
_space_group_symop_operation_xyz
x,y,z
-x,-y,-z
loop_
_atom_site_type_symbol
_atom_site_label
_atom_site_fract_x
_atom_site_fract_y
_atom_site_fract_z
Si Si1 0.729904 0.073588 0.893776
Si Si2 0.106282 0.248668 0.499382
Si Si3 0.989735 0.096936 0.704224
Si Si4 0.695641 0.774331 0.058543
Si Si5 0.648293 0.347503 0.268350
Si Si6 0.085967 0.688216 0.629771
Si Si7 0.938259 0.766448 0.863318
Si Si8 0.754061 0.373328 0.023585
O O1 0.835943 0.112694 0.778198
O O2 0.606314 0.853857 0.837268
O O3 0.927174 0.211453 0.031520
O O4 0.617279 0.144719 0.941248
O O5 0.051592 0.174805 0.603094
O O6 0.302359 0.489774 0.595408
O O7 0.899978 0.192401 0.421988
O O8 0.141383 0.130393 0.386156
O O9 0.204666 0.217584 0.825708
O O10 0.882616 0.010917 0.112130
O O11 0.430236 0.649755 0.033901
O O12 0.723903 0.695487 0.914578
O O13 0.704419 0.244221 0.287567
O O14 0.791529 0.444340 0.180082
O O15 0.909608 0.640123 0.714386
O O16 0.000000 0.500000 0.500000
O O17 0.000000 0.500000 0.000000
#
# Coordination Sequence:
#
# PCOD9080194 Si02
#       8
#     2   2   2   2   2   2   2   2
#     4  11  22  39  68  95 129 173 226 280 337 390
#     4  10  22  40  65  89 137 180 218 269 331 404
#     4  10  22  42  66  94 134 179 215 271 341 401
#     4  10  21  37  70  96 130 173 218 280 336 392
#     4  11  22  39  65  98 128 172 226 277 331 393
#     4  10  20  36  65  95 132 173 218 274 323 396
#     4  10  18  38  66 103 124 168 227 277 329 394
#     4  12  24  40  66 102 136 171 215 285 348 401
#
# _framework density 23.530028000000001
#
# number of rings (size 3 to 8) (size 9 to 14) (size 15 to 20)
#    0.000    1.500    3.750    1.875    0.000    0.500 
#    0.000    7.500   19.250    0.000    0.000    0.000 
#    0.000    0.000    0.000    0.000    0.000    0.000 
#
# Total GULP energy -89206.361870 kJ/mol
# GULP energy per Si atom -5575.397617 kJ/mol
# Density = 2.347647 g / cm^3
# Si number density = 23.530028 Si / 1000 Ang^3
#
#
#
# Elastic Constant Matrix: (Units=GPa)
#
#
# Indices 1 2 3 4 5 6 
#
# 1 81.3206 21.8218 46.9266 -10.5836 -8.6366 -5.0859
# 2 21.8218 75.4398 30.0825 4.5512 -2.8847 -6.6320
# 3 46.9266 30.0825 153.3354 2.6432 -26.9797 -9.2199
# 4 -10.5836 4.5512 2.6432 44.8695 -18.5139 -2.7534
# 5 -8.6366 -2.8847 -26.9797 -18.5139 41.7717 -1.2879
# 6 -5.0859 -6.6320 -9.2199 -2.7534 -1.2879 38.5878
#
#
#
# Elastic Compliance Matrix: (Units=1/GPa)
#
#
# Indices 1 2 3 4 5 6 
#
# 1 0.016654 -0.003401 -0.003860 0.005980 0.003404 0.001229
# 2 -0.003401 0.015360 -0.002272 -0.003163 -0.002471 0.001341
# 3 -0.003860 -0.002272 0.009200 0.001165 0.005552 0.001567
# 4 0.005980 -0.003163 0.001165 0.030495 0.015385 0.003212
# 5 0.003404 -0.002471 0.005552 0.015385 0.034989 0.003616
# 6 0.001229 0.001341 0.001567 0.003212 0.003616 0.027032
#
#
# Mechanical properties :
#
#
# Convention : Reuss Voigt Hill
#
# Bulk Modulus (GPa) = 45.15201 56.41751 50.78476
# Shear Modulus (GPa) = 31.21560 39.13013 35.17287
#
# Velocity S-wave (km/s) = 3.64624 4.08240 3.87047
# Velocity P-wave (km/s) = 6.07927 6.80075 6.45010
#
# Compressibility (1/GPa) = 0.02214741
#
# Stress axis : x y z
#
# Youngs Moduli (GPa) = 60.04735 65.10590 108.70002
#
# Poissons Ratio (x) = 0.22141 0.41955
# Poissons Ratio (y) = 0.20420 0.24699
# Poissons Ratio (z) = 0.23177 0.14793
#
# Static dielectric constant tensor:
#      x y z
#    x 1.999960 0.005710 0.060160 
#    y 0.005710 2.037750 0.030140 
#    z 0.060160 0.030140 1.930320 
# 
# From -- ./inp_files/391048.got.cif
#   From: 2010.05.17/outbox.cif.g08.bks.cpg/sg2_196_cif.got.tgz:391048.got - 2010.06.03 11:33:40.
