data_PCOD9080251
_publ_section_title
;
Structure prediction by ZEFSAII (Michael W. Deem and Ramdas Pophale) SiO2 
 PCOD9080251
Probable space group: P -1
;
_chemical_formula_sum "Si O2"
_cell_formula_units_Z 14
_cell_length_a 11.639953
_cell_length_b 20.853666
_cell_length_c 8.520015
_cell_angle_alpha 146.278300
_cell_angle_beta 52.061105
_cell_angle_gamma 149.780358
_cell_volume 536.445216
_symmetry_space_group_name_H-M "P -1"
_symmetry_group_IT_number 2
_symmetry_cell_setting 'triclinic'
loop_
_space_group_symop_operation_xyz
x,y,z
-x,-y,-z
loop_
_atom_site_type_symbol
_atom_site_label
_atom_site_fract_x
_atom_site_fract_y
_atom_site_fract_z
Si Si1 0.873367 0.598053 0.223688
Si Si2 0.616941 0.627347 0.822318
Si Si3 0.151972 0.994647 0.202406
Si Si4 0.347865 0.564633 0.361023
Si Si5 0.081039 0.511820 0.739436
Si Si6 0.602274 0.076704 0.242675
Si Si7 0.909195 0.166537 0.740147
O O1 0.073595 0.629215 0.068725
O O2 0.588698 0.411969 0.034264
O O3 0.850802 0.549043 0.324772
O O4 0.982702 0.782828 0.423732
O O5 0.500000 0.500000 0.500000
O O6 0.627024 0.533066 0.751384
O O7 0.889891 0.855153 0.058360
O O8 0.104244 0.926134 0.285273
O O9 0.375993 0.227459 0.496334
O O10 0.252947 0.951650 0.923300
O O11 0.245249 0.602569 0.634017
O O12 0.120062 0.391663 0.084093
O O13 0.796843 0.303325 0.525418
O O14 0.368209 0.963022 0.308773
O O15 0.500000 0.000000 0.000000
#
# Coordination Sequence:
#
# PCOD9080251 Si02
#       7
#     2   2   2   2   2   2   2
#     4  11  25  41  66  97 141 166 213 283 335 371
#     4  11  22  47  66  94 134 175 216 269 330 395
#     4  10  22  38  67 102 123 172 228 254 315 401
#     4  11  22  42  74  93 131 175 223 264 315 406
#     4  11  22  43  67 103 128 173 222 274 323 392
#     4  10  18  38  67  98 129 169 223 264 318 387
#     4  10  23  40  65 101 133 170 215 273 329 374
#
# _framework density 26.097726999999999
#
# number of rings (size 3 to 8) (size 9 to 14) (size 15 to 20)
#    0.000    1.429    5.714    0.857    4.000    4.571 
#    2.571    2.857    0.000    0.000    0.000    0.000 
#    0.000    0.000    0.000    0.000    0.000    0.000 
#
# Total GULP energy -78096.791099 kJ/mol
# GULP energy per Si atom -5578.342221 kJ/mol
# Density = 2.603833 g / cm^3
# Si number density = 26.097727 Si / 1000 Ang^3
#
#
#
# Elastic Constant Matrix: (Units=GPa)
#
#
# Indices 1 2 3 4 5 6 
#
# 1 89.0946 40.3800 12.5184 10.4478 14.9071 12.3232
# 2 40.3800 156.5248 36.4510 42.4661 17.5236 8.1621
# 3 12.5184 36.4510 53.3856 25.9976 -2.6707 1.5093
# 4 10.4478 42.4661 25.9976 46.5547 5.2070 -2.2985
# 5 14.9071 17.5236 -2.6707 5.2070 25.7026 8.4722
# 6 12.3232 8.1621 1.5093 -2.2985 8.4722 50.5326
#
#
#
# Elastic Compliance Matrix: (Units=1/GPa)
#
#
# Indices 1 2 3 4 5 6 
#
# 1 0.013857 -0.002555 -0.002299 0.001104 -0.006159 -0.001815
# 2 -0.002555 0.010038 -0.003436 -0.006204 -0.004312 -0.000455
# 3 -0.002299 -0.003436 0.028852 -0.013697 0.010131 -0.002067
# 4 0.001104 -0.006204 -0.013697 0.035429 -0.006265 0.003804
# 5 -0.006159 -0.004312 0.010131 -0.006265 0.049971 -0.006767
# 6 -0.001815 -0.000455 -0.002067 0.003804 -0.006767 0.021675
#
#
# Mechanical properties :
#
#
# Convention : Reuss Voigt Hill
#
# Bulk Modulus (GPa) = 27.64981 53.07820 40.36400
# Shear Modulus (GPa) = 26.53112 38.53501 32.53306
#
# Velocity S-wave (km/s) = 3.19189 3.84678 3.53453
# Velocity P-wave (km/s) = 4.91954 6.33346 5.67074
#
# Compressibility (1/GPa) = 0.03616661
#
# Stress axis : x y z
#
# Youngs Moduli (GPa) = 72.16503 99.62447 34.65931
#
# Poissons Ratio (x) = 0.25450 0.07970
# Poissons Ratio (y) = 0.18435 0.11910
# Poissons Ratio (z) = 0.16594 0.34233
#
# Static dielectric constant tensor:
#      x y z
#    x 2.153920 0.013530 -0.093000 
#    y 0.013530 2.102130 -0.124660 
#    z -0.093000 -0.124660 1.950840 
# 
# From -- ./inp_files/283343.got.cif
#   From: 2010.05.17/outbox.cif.g08.bks.cpg/sg2_142_cif.got.tgz:283343.got - 2010.06.03 11:33:40.
