data_PCOD9080952
_publ_section_title
;
Structure prediction by ZEFSAII (Michael W. Deem and Ramdas Pophale) SiO2 
 PCOD9080952
Probable space group: P -1
;
_chemical_formula_sum "Si O2"
_cell_formula_units_Z 16
_cell_length_a 15.882732
_cell_length_b 17.095581
_cell_length_c 15.799092
_cell_angle_alpha 45.399330
_cell_angle_beta 18.289784
_cell_angle_gamma 53.542443
_cell_volume 906.752274
_symmetry_space_group_name_H-M "P -1"
_symmetry_group_IT_number 2
_symmetry_cell_setting 'triclinic'
loop_
_space_group_symop_operation_xyz
x,y,z
-x,-y,-z
loop_
_atom_site_type_symbol
_atom_site_label
_atom_site_fract_x
_atom_site_fract_y
_atom_site_fract_z
Si Si1 0.112820 0.187314 0.683214
Si Si2 0.871361 0.640777 0.077511
Si Si3 0.494701 0.053532 0.369504
Si Si4 0.749418 0.764384 0.305436
Si Si5 0.291270 0.496094 0.827690
Si Si6 0.746309 0.168820 0.336622
Si Si7 0.874437 0.548731 0.504190
Si Si8 0.668486 0.478428 0.042168
O O1 0.371373 0.160161 0.413011
O O2 0.143578 0.154974 0.776679
O O3 0.105395 0.318502 0.593979
O O4 0.817924 0.104138 0.993260
O O5 0.592869 0.589504 0.441014
O O6 0.772738 0.607121 0.101112
O O7 0.067454 0.563884 0.974972
O O8 0.067760 0.774430 0.802306
O O9 0.500000 0.000000 0.500000
O O10 0.312222 0.958682 0.548999
O O11 0.558410 0.813226 0.389315
O O12 0.532411 0.647641 0.638562
O O13 0.031824 0.752614 0.004141
O O14 0.268656 0.456858 0.976718
O O15 0.000000 0.500000 0.500000
O O16 0.544378 0.483730 0.845217
O O17 0.066592 0.535644 0.250881
#
# Coordination Sequence:
#
# PCOD9080952 Si02
#       8
#     2   2   2   2   2   2   2   2
#     4  11  21  35  46  68  97 131 168 211 238 290
#     4  10  19  31  43  70 102 132 170 201 233 281
#     4  12  21  30  46  71 100 135 173 198 229 291
#     4  11  18  28  45  67  92 135 163 199 221 283
#     4  10  19  30  49  68  96 134 168 202 240 292
#     4  12  19  28  44  65 103 131 172 189 229 275
#     4  11  24  38  55  73  97 127 169 222 265 294
#     4  11  19  33  53  73  96 128 173 198 260 299
#
# _framework density 17.645392999999999
#
# number of rings (size 3 to 8) (size 9 to 14) (size 15 to 20)
#    0.000    1.000    5.000    5.250    0.000    0.000 
#    0.000    0.000    0.000    0.000    0.000    0.000 
#    0.000    6.000    0.000    0.000    0.000    0.000 
#
# Total GULP energy -89122.228766 kJ/mol
# GULP energy per Si atom -5570.139298 kJ/mol
# Density = 1.760523 g / cm^3
# Si number density = 17.645393 Si / 1000 Ang^3
#
#
#
# Elastic Constant Matrix: (Units=GPa)
#
#
# Indices 1 2 3 4 5 6 
#
# 1 80.4984 41.2524 10.5666 -7.6891 -17.7418 16.6166
# 2 41.2524 76.4411 18.4170 10.6150 -7.6960 9.5750
# 3 10.5666 18.4170 51.8043 15.1061 -16.9433 2.8747
# 4 -7.6891 10.6150 15.1061 29.4181 6.3600 -11.6950
# 5 -17.7418 -7.6960 -16.9433 6.3600 25.9429 -2.7733
# 6 16.6166 9.5750 2.8747 -11.6950 -2.7733 30.3042
#
#
#
# Elastic Compliance Matrix: (Units=1/GPa)
#
#
# Indices 1 2 3 4 5 6 
#
# 1 0.021981 -0.010894 0.002964 0.002838 0.012328 -0.006668
# 2 -0.010894 0.021730 -0.001545 -0.012119 0.000382 -0.005388
# 3 0.002964 -0.001545 0.041237 -0.033262 0.035086 -0.014674
# 4 0.002838 -0.012119 -0.033262 0.077184 -0.038915 0.031654
# 5 0.012328 0.000382 0.035086 -0.038915 0.077607 -0.018124
# 6 -0.006668 -0.005388 -0.014674 0.031654 -0.018124 0.050307
#
#
# Mechanical properties :
#
#
# Convention : Reuss Voigt Hill
#
# Bulk Modulus (GPa) = 15.15238 38.80176 26.97707
# Shear Modulus (GPa) = 15.10595 26.36691 20.73643
#
# Velocity S-wave (km/s) = 2.92907 3.86977 3.43180
# Velocity P-wave (km/s) = 4.47717 6.48107 5.56998
#
# Compressibility (1/GPa) = 0.06599625
#
# Stress axis : x y z
#
# Youngs Moduli (GPa) = 45.49392 46.02013 24.25006
#
# Poissons Ratio (x) = 0.50135 -0.07187
# Poissons Ratio (y) = 0.49562 0.03748
# Poissons Ratio (z) = -0.13484 0.07112
#
# Static dielectric constant tensor:
#      x y z
#    x 1.679380 0.044960 -0.033450 
#    y 0.044960 1.658630 -0.000860 
#    z -0.033450 -0.000860 1.624430 
# 
# From -- ./inp_files/533309.got.cif
#   From: 2010.05.17/outbox.cif.g08.bks.cpg/sg2_267_cif.got.tgz:533309.got - 2010.06.03 11:33:40.
