data_PCOD9080044
_publ_section_title
;
Structure prediction by ZEFSAII (Michael W. Deem and Ramdas Pophale) SiO2 
 PCOD9080044
Probable space group: P -1
;
_chemical_formula_sum "Si O2"
_cell_formula_units_Z 16
_cell_length_a 11.506516
_cell_length_b 14.279693
_cell_length_c 21.596444
_cell_angle_alpha 154.503934
_cell_angle_beta 28.743277
_cell_angle_gamma 149.297133
_cell_volume 693.231893
_symmetry_space_group_name_H-M "P -1"
_symmetry_group_IT_number 2
_symmetry_cell_setting 'triclinic'
loop_
_space_group_symop_operation_xyz
x,y,z
-x,-y,-z
loop_
_atom_site_type_symbol
_atom_site_label
_atom_site_fract_x
_atom_site_fract_y
_atom_site_fract_z
Si Si1 0.312772 0.800222 0.507086
Si Si2 0.318495 0.302971 0.161318
Si Si3 0.378467 0.709960 0.111472
Si Si4 0.165691 0.978599 0.852377
Si Si5 0.842715 0.574923 0.334305
Si Si6 0.469577 0.701087 0.504230
Si Si7 0.239511 0.185045 0.255827
Si Si8 0.325254 0.143682 0.323818
O O1 0.283717 0.543839 0.342723
O O2 0.441132 0.833136 0.534604
O O3 0.042282 0.838013 0.649124
O O4 0.500000 0.000000 0.500000
O O5 0.394977 0.196798 0.125820
O O6 0.052564 0.109673 0.149909
O O7 0.499194 0.362037 0.050771
O O8 0.108480 0.556082 0.174794
O O9 0.584470 0.793735 0.121378
O O10 0.327288 0.936378 0.243308
O O11 0.283826 0.772662 0.679864
O O12 0.000000 0.000000 0.000000
O O13 0.739288 0.723533 0.421413
O O14 0.614244 0.329674 0.296958
O O15 0.843712 0.714378 0.480742
O O16 0.353305 0.439275 0.382613
O O17 0.237154 0.047495 0.238378
#
# Coordination Sequence:
#
# PCOD9080044 Si02
#       8
#     2   2   2   2   2   2   2   2
#     4  11  22  36  63  93 116 159 210 259 302 369
#     4  10  21  43  61  89 127 164 201 257 319 363
#     4  11  23  39  65  91 128 169 203 252 316 375
#     4  10  19  34  62  87 114 163 203 242 313 361
#     4  10  22  39  60  94 125 161 216 259 290 375
#     4  10  18  38  62  83 117 161 206 249 305 358
#     4  10  20  38  63  85 120 160 207 256 301 367
#     4  10  22  38  63  91 121 170 208 250 312 361
#
# _framework density 23.080299
#
# number of rings (size 3 to 8) (size 9 to 14) (size 15 to 20)
#    0.000    1.750    3.750    1.125    1.750    0.500 
#    2.250    5.625    0.000    4.500    0.000    0.000 
#    0.000    0.000    0.000    0.000    0.000    0.000 
#
# Total GULP energy -89149.050360 kJ/mol
# GULP energy per Si atom -5571.815647 kJ/mol
# Density = 2.302777 g / cm^3
# Si number density = 23.080299 Si / 1000 Ang^3
#
#
#
# Elastic Constant Matrix: (Units=GPa)
#
#
# Indices 1 2 3 4 5 6 
#
# 1 125.8689 25.9152 36.2631 -9.0748 29.9773 0.7699
# 2 25.9152 67.8489 12.4214 -24.9631 7.5283 1.8622
# 3 36.2631 12.4214 99.3871 -26.8161 17.5437 20.0822
# 4 -9.0748 -24.9631 -26.8161 33.2016 -0.3591 -6.1685
# 5 29.9773 7.5283 17.5437 -0.3591 29.4727 2.8481
# 6 0.7699 1.8622 20.0822 -6.1685 2.8481 25.2678
#
#
#
# Elastic Compliance Matrix: (Units=1/GPa)
#
#
# Indices 1 2 3 4 5 6 
#
# 1 0.011705 -0.003491 -0.003226 -0.001549 -0.009416 0.003148
# 2 -0.003491 0.023208 0.004669 0.020247 -0.004927 0.000183
# 3 -0.003226 0.004669 0.018170 0.015348 -0.007565 -0.010087
# 4 -0.001549 0.020247 0.015348 0.057512 -0.012203 0.001772
# 5 -0.009416 -0.004927 -0.007565 -0.012203 0.049301 -0.001874
# 6 0.003148 0.000183 -0.010087 0.001772 -0.001874 0.048127
#
#
# Mechanical properties :
#
#
# Convention : Reuss Voigt Hill
#
# Bulk Modulus (GPa) = 20.41396 49.14494 34.77945
# Shear Modulus (GPa) = 21.88662 32.15543 27.02102
#
# Velocity S-wave (km/s) = 3.08276 3.73661 3.42532
# Velocity P-wave (km/s) = 4.64060 6.32104 5.54485
#
# Compressibility (1/GPa) = 0.04898609
#
# Stress axis : x y z
#
# Youngs Moduli (GPa) = 85.43566 43.08778 55.03566
#
# Poissons Ratio (x) = 0.15044 0.17755
# Poissons Ratio (y) = 0.29829 -0.25696
# Poissons Ratio (z) = 0.27562 -0.20117
#
# Static dielectric constant tensor:
#      x y z
#    x 2.011450 -0.028680 0.019970 
#    y -0.028680 1.865110 -0.018850 
#    z 0.019970 -0.018850 1.966990 
# 
# From -- ./inp_files/455712.got.cif
#   From: 2010.05.17/outbox.cif.g08.bks.cpg/sg2_228_cif.got.tgz:455712.got - 2010.06.03 11:33:40.
