data_PCOD9080586
_publ_section_title
;
Structure prediction by ZEFSAII (Michael W. Deem and Ramdas Pophale) SiO2 
 PCOD9080586
Probable space group: P -1
;
_chemical_formula_sum "Si O2"
_cell_formula_units_Z 13
_cell_length_a 8.845323
_cell_length_b 8.580976
_cell_length_c 12.393411
_cell_angle_alpha 142.673999
_cell_angle_beta 102.355832
_cell_angle_gamma 70.136411
_cell_volume 533.832223
_symmetry_space_group_name_H-M "P -1"
_symmetry_group_IT_number 2
_symmetry_cell_setting 'triclinic'
loop_
_space_group_symop_operation_xyz
x,y,z
-x,-y,-z
loop_
_atom_site_type_symbol
_atom_site_label
_atom_site_fract_x
_atom_site_fract_y
_atom_site_fract_z
Si Si1 0.733483 0.745282 0.308175
Si Si2 0.186945 0.344705 0.968083
Si Si3 0.777341 0.769464 0.668793
Si Si4 0.916052 0.138912 0.319971
Si Si5 0.524913 0.708813 0.443222
Si Si6 0.000000 0.000000 0.500000
Si Si7 0.631217 0.726661 0.838178
O O1 0.724336 0.663002 0.137184
O O2 0.648016 0.603484 0.304405
O O3 0.632435 0.055508 0.484334
O O4 0.914276 0.747846 0.364703
O O5 0.185362 0.048525 0.845342
O O6 0.273791 0.436777 0.133463
O O7 0.000000 0.500000 0.000000
O O8 0.840264 0.454667 0.473406
O O9 0.611932 0.850230 0.621271
O O10 0.749627 0.788113 0.801540
O O11 0.904744 0.920210 0.733222
O O12 0.926872 0.051151 0.397284
O O13 0.459968 0.467800 0.340181
O O14 0.500000 0.000000 0.000000
#
# Coordination Sequence:
#
# PCOD9080586 Si02
#       7
#     2   2   2   2   2   1   2
#     4  10  23  40  69  94 127 164 227 268 321 378
#     4  11  26  40  63  97 135 179 207 269 330 401
#     4  11  23  42  69  97 124 172 223 275 318 382
#     4  10  23  40  69  94 127 164 227 268 321 378
#     4  11  23  42  69  97 124 172 223 275 318 382
#     4  10  18  40  64  92 122 156 212 272 310 368
#     4  12  26  41  62  91 141 178 209 261 337 397
#
# _framework density 24.352219000000002
#
# number of rings (size 3 to 8) (size 9 to 14) (size 15 to 20)
#    0.000    1.231    1.538    4.154    8.615    2.462 
#    0.000    0.000    0.000    0.000    0.000    0.000 
#    0.000    0.000    0.000    0.000    0.000    0.000 
#
# Total GULP energy -72454.402121 kJ/mol
# GULP energy per Si atom -5573.415548 kJ/mol
# Density = 2.429679 g / cm^3
# Si number density = 24.352219 Si / 1000 Ang^3
#
#
#
# Elastic Constant Matrix: (Units=GPa)
#
#
# Indices 1 2 3 4 5 6 
#
# 1 75.6438 20.6574 14.1379 -23.1247 -14.7886 13.6951
# 2 20.6574 61.7364 8.9011 -17.8960 -11.0612 -1.7264
# 3 14.1379 8.9011 44.4439 -24.5298 -4.5230 -8.8927
# 4 -23.1247 -17.8960 -24.5298 46.6450 0.6935 -3.7028
# 5 -14.7886 -11.0612 -4.5230 0.6935 28.2011 -3.6121
# 6 13.6951 -1.7264 -8.8927 -3.7028 -3.6121 40.1693
#
#
#
# Elastic Compliance Matrix: (Units=1/GPa)
#
#
# Indices 1 2 3 4 5 6 
#
# 1 0.018958 -0.002946 -0.002240 0.006517 0.007522 -0.005809
# 2 -0.002946 0.020537 0.002818 0.008104 0.007264 0.003911
# 3 -0.002240 0.002818 0.036729 0.020096 0.006798 0.011480
# 4 0.006517 0.008104 0.020096 0.038759 0.009766 0.007026
# 5 0.007522 0.007264 0.006798 0.009766 0.043626 0.004076
# 6 -0.005809 0.003911 0.011480 0.007026 0.004076 0.030599
#
#
# Mechanical properties :
#
#
# Convention : Reuss Voigt Hill
#
# Bulk Modulus (GPa) = 13.98836 29.91299 21.95068
# Shear Modulus (GPa) = 22.95985 32.21162 27.58573
#
# Velocity S-wave (km/s) = 3.07387 3.64089 3.36933
# Velocity P-wave (km/s) = 4.28426 5.47585 4.91629
#
# Compressibility (1/GPa) = 0.07148801
#
# Stress axis : x y z
#
# Youngs Moduli (GPa) = 52.74921 48.69226 27.22669
#
# Poissons Ratio (x) = 0.14344 0.06099
# Poissons Ratio (y) = 0.15539 -0.07673
# Poissons Ratio (z) = 0.11817 -0.13723
#
# Static dielectric constant tensor:
#      x y z
#    x 2.000180 -0.042770 -0.041950 
#    y -0.042770 1.904410 0.050070 
#    z -0.041950 0.050070 1.973380 
# 
# From -- ./inp_files/149926.got.cif
#   From: 2010.05.17/outbox.cif.g08.bks.cpg/sg2_75_cif.got.tgz:149926.got - 2010.06.03 11:33:40.
