data_PCOD9080402
_publ_section_title
;
Structure prediction by ZEFSAII (Michael W. Deem and Ramdas Pophale) SiO2 
 PCOD9080402
Probable space group: P -1
;
_chemical_formula_sum "Si O2"
_cell_formula_units_Z 16
_cell_length_a 9.821493
_cell_length_b 9.124397
_cell_length_c 14.947999
_cell_angle_alpha 62.856073
_cell_angle_beta 61.681180
_cell_angle_gamma 105.156212
_cell_volume 831.500667
_symmetry_space_group_name_H-M "P -1"
_symmetry_group_IT_number 2
_symmetry_cell_setting 'triclinic'
loop_
_space_group_symop_operation_xyz
x,y,z
-x,-y,-z
loop_
_atom_site_type_symbol
_atom_site_label
_atom_site_fract_x
_atom_site_fract_y
_atom_site_fract_z
Si Si1 0.024183 0.193401 0.892682
Si Si2 0.717041 0.044863 0.328902
Si Si3 0.978484 0.048326 0.745765
Si Si4 0.968194 0.569270 0.397954
Si Si5 0.655875 0.099976 0.126277
Si Si6 0.300569 0.652289 0.624716
Si Si7 0.405796 0.790950 0.144565
Si Si8 0.528059 0.703731 0.962015
O O1 0.971923 0.110669 0.831460
O O2 0.222469 0.430953 0.755702
O O3 0.865966 0.205620 0.986608
O O4 0.000000 0.000000 0.000000
O O5 0.899469 0.038997 0.273042
O O6 0.530438 0.822630 0.486783
O O7 0.669968 0.075159 0.234171
O O8 0.752776 0.227285 0.329133
O O9 0.074129 0.268381 0.607798
O O10 0.756990 0.888326 0.829491
O O11 0.808563 0.407910 0.420644
O O12 0.000000 0.500000 0.500000
O O13 0.178060 0.677394 0.255288
O O14 0.583072 0.233744 0.082084
O O15 0.509980 0.875078 0.184820
O O16 0.458787 0.675955 0.094925
O O17 0.500000 0.000000 0.000000
O O18 0.500000 0.500000 0.000000
#
# Coordination Sequence:
#
# PCOD9080402 Si02
#       8
#     2   2   2   2   2   2   2   2
#     4  11  22  41  66  98 127 167 221 265 320 388
#     4  11  25  44  64  92 136 172 213 267 332 391
#     4  11  22  41  63  98 128 163 219 272 313 385
#     4  11  22  41  68  93 122 172 217 260 320 383
#     4  11  21  41  66  92 128 175 209 263 326 390
#     4  10  25  44  63  89 137 172 209 270 334 376
#     4  10  18  39  63  90 125 163 205 265 312 371
#     4  11  23  37  64  98 133 165 214 270 326 376
#
# _framework density 19.242318000000001
#
# number of rings (size 3 to 8) (size 9 to 14) (size 15 to 20)
#    0.000    1.250    5.000    3.000    3.500    3.500 
#    2.250    1.875    0.000    0.000    0.000    0.000 
#    0.000    0.000    0.000    0.000    0.000    0.000 
#
# Total GULP energy -89204.645197 kJ/mol
# GULP energy per Si atom -5575.290325 kJ/mol
# Density = 1.919852 g / cm^3
# Si number density = 19.242318 Si / 1000 Ang^3
#
#
#
# Elastic Constant Matrix: (Units=GPa)
#
#
# Indices 1 2 3 4 5 6 
#
# 1 97.2806 35.4958 38.2270 -2.1790 11.2793 -26.4459
# 2 35.4958 114.9565 30.7795 -2.5005 8.7545 -20.8049
# 3 38.2270 30.7795 75.0176 -6.0001 1.3060 -17.7062
# 4 -2.1790 -2.5005 -6.0001 29.3280 -3.8167 -5.3282
# 5 11.2793 8.7545 1.3060 -3.8167 36.5219 -0.6817
# 6 -26.4459 -20.8049 -17.7062 -5.3282 -0.6817 23.2033
#
#
#
# Elastic Compliance Matrix: (Units=1/GPa)
#
#
# Indices 1 2 3 4 5 6 
#
# 1 0.017228 -0.000863 -0.004355 0.002656 -0.004382 0.016020
# 2 -0.000863 0.011112 -0.002157 0.001567 -0.002014 0.007635
# 3 -0.004355 -0.002157 0.018885 0.005194 0.001893 0.008761
# 4 0.002656 0.001567 0.005194 0.039055 0.003026 0.017453
# 5 -0.004382 -0.002014 0.001893 0.003026 0.029394 -0.003797
# 6 0.016020 0.007635 0.008761 0.017453 -0.003797 0.078783
#
#
# Mechanical properties :
#
#
# Convention : Reuss Voigt Hill
#
# Bulk Modulus (GPa) = 30.79310 55.13994 42.96652
# Shear Modulus (GPa) = 22.72377 29.99412 26.35894
#
# Velocity S-wave (km/s) = 3.44019 3.95239 3.70515
# Velocity P-wave (km/s) = 5.64069 7.03892 6.37823
#
# Compressibility (1/GPa) = 0.03247481
#
# Stress axis : x y z
#
# Youngs Moduli (GPa) = 58.04374 89.99172 52.95212
#
# Poissons Ratio (x) = 0.07765 0.23062
# Poissons Ratio (y) = 0.05008 0.11423
# Poissons Ratio (z) = 0.25280 0.19413
#
# Static dielectric constant tensor:
#      x y z
#    x 1.759710 -0.008490 0.109080 
#    y -0.008490 1.714160 -0.004140 
#    z 0.109080 -0.004140 1.906380 
# 
# From -- ./inp_files/327517.got.cif
#   From: 2010.05.17/outbox.cif.g08.bks.cpg/sg2_164_cif.got.tgz:327517.got - 2010.06.03 11:33:40.
