data_PCOD9080352
_publ_section_title
;
Structure prediction by ZEFSAII (Michael W. Deem and Ramdas Pophale) SiO2 
 PCOD9080352
Probable space group: P -1
;
_chemical_formula_sum "Si O2"
_cell_formula_units_Z 16
_cell_length_a 15.358016
_cell_length_b 14.706669
_cell_length_c 8.201633
_cell_angle_alpha 79.250893
_cell_angle_beta 95.996297
_cell_angle_gamma 28.746087
_cell_volume 720.867176
_symmetry_space_group_name_H-M "P -1"
_symmetry_group_IT_number 2
_symmetry_cell_setting 'triclinic'
loop_
_space_group_symop_operation_xyz
x,y,z
-x,-y,-z
loop_
_atom_site_type_symbol
_atom_site_label
_atom_site_fract_x
_atom_site_fract_y
_atom_site_fract_z
Si Si1 0.727673 0.960586 0.040605
Si Si2 0.596839 0.015703 0.343942
Si Si3 0.374408 0.185825 0.778297
Si Si4 0.720950 0.171050 0.851295
Si Si5 0.973205 0.343880 0.295170
Si Si6 0.089463 0.508271 0.098217
Si Si7 0.924153 0.083506 0.205792
Si Si8 0.785763 0.333844 0.396840
O O1 0.620281 0.050813 0.167230
O O2 0.938793 0.689379 0.155620
O O3 0.554048 0.092357 0.827289
O O4 0.775753 0.019496 0.993579
O O5 0.662868 0.846714 0.366151
O O6 0.770879 0.890765 0.540680
O O7 0.346052 0.254048 0.270155
O O8 0.158588 0.442598 0.720408
O O9 0.500000 0.000000 0.000000
O O10 0.884099 0.034299 0.780911
O O11 0.464298 0.419406 0.673337
O O12 0.774513 0.197396 0.987851
O O13 0.875331 0.346526 0.354056
O O14 0.933786 0.391224 0.080043
O O15 0.000000 0.500000 0.000000
O O16 0.050395 0.872088 0.373859
O O17 0.793052 0.260703 0.264045
#
# Coordination Sequence:
#
# PCOD9080352 Si02
#       8
#     2   2   2   2   2   2   2   2
#     4  11  21  40  66  90 125 168 206 255 306 366
#     4  11  23  42  61  91 128 169 210 252 300 365
#     4  10  18  39  61  85 122 166 197 247 302 353
#     4  11  21  41  65  91 123 162 205 251 317 370
#     4  12  23  40  67  92 123 169 212 251 307 370
#     4  12  23  41  61  89 130 165 207 261 305 354
#     4  10  24  40  63  95 121 159 204 256 315 377
#     4  11  22  42  64  91 126 160 202 259 312 367
#
# _framework density 22.195488999999998
#
# number of rings (size 3 to 8) (size 9 to 14) (size 15 to 20)
#    0.000    1.000    5.000    3.375    0.000    0.500 
#    2.250    6.250    0.000    0.000    0.000    0.000 
#    0.000    0.000    0.000    0.000    0.000    0.000 
#
# Total GULP energy -89515.315187 kJ/mol
# GULP energy per Si atom -5594.707199 kJ/mol
# Density = 2.214497 g / cm^3
# Si number density = 22.195489 Si / 1000 Ang^3
#
#
#
# Elastic Constant Matrix: (Units=GPa)
#
#
# Indices 1 2 3 4 5 6 
#
# 1 99.0012 8.6867 19.1718 -13.3035 -7.6901 -17.2916
# 2 8.6867 68.6581 0.6234 -26.4291 0.6590 -17.6078
# 3 19.1718 0.6234 41.0873 -12.0128 -0.9491 -10.7757
# 4 -13.3035 -26.4291 -12.0128 32.4669 -10.4838 0.2663
# 5 -7.6901 0.6590 -0.9491 -10.4838 38.9935 -3.4479
# 6 -17.2916 -17.6078 -10.7757 0.2663 -3.4479 31.5470
#
#
#
# Elastic Compliance Matrix: (Units=1/GPa)
#
#
# Indices 1 2 3 4 5 6 
#
# 1 0.013912 0.006513 0.000746 0.013560 0.007377 0.012207
# 2 0.006513 0.041256 0.020263 0.049071 0.017368 0.035002
# 3 0.000746 0.020263 0.041651 0.036166 0.012934 0.027054
# 4 0.013560 0.049071 0.036166 0.100289 0.034115 0.050056
# 5 0.007377 0.017368 0.012934 0.034115 0.038243 0.022047
# 6 0.012207 0.035002 0.027054 0.050056 0.022047 0.069154
#
#
# Mechanical properties :
#
#
# Convention : Reuss Voigt Hill
#
# Bulk Modulus (GPa) = 6.58492 29.52339 18.05416
# Shear Modulus (GPa) = 16.66214 32.61913 24.64063
#
# Velocity S-wave (km/s) = 2.74286 3.83773 3.33553
# Velocity P-wave (km/s) = 3.60614 5.74178 4.79439
#
# Compressibility (1/GPa) = 0.15186205
#
# Stress axis : x y z
#
# Youngs Moduli (GPa) = 71.87912 24.23904 24.00912
#
# Poissons Ratio (x) = -0.15786 -0.01791
# Poissons Ratio (y) = -0.46812 -0.48650
# Poissons Ratio (z) = -0.05362 -0.49116
#
# Static dielectric constant tensor:
#      x y z
#    x 1.831230 -0.003450 0.004590 
#    y -0.003450 1.809920 0.010880 
#    z 0.004590 0.010880 1.833350 
# 
# From -- ./inp_files/314907.got.cif
#   From: 2010.05.17/outbox.cif.g08.bks.cpg/sg2_158_cif.got.tgz:314907.got - 2010.06.03 11:33:40.
