data_PCOD9080904
_publ_section_title
;
Structure prediction by ZEFSAII (Michael W. Deem and Ramdas Pophale) SiO2 
 PCOD9080904
Probable space group: P -1
;
_chemical_formula_sum "Si O2"
_cell_formula_units_Z 14
_cell_length_a 7.433318
_cell_length_b 11.512998
_cell_length_c 12.956268
_cell_angle_alpha 30.029289
_cell_angle_beta 117.418273
_cell_angle_gamma 104.869293
_cell_volume 466.692552
_symmetry_space_group_name_H-M "P -1"
_symmetry_group_IT_number 2
_symmetry_cell_setting 'triclinic'
loop_
_space_group_symop_operation_xyz
x,y,z
-x,-y,-z
loop_
_atom_site_type_symbol
_atom_site_label
_atom_site_fract_x
_atom_site_fract_y
_atom_site_fract_z
Si Si1 0.974281 0.865961 0.217750
Si Si2 0.775487 0.814626 0.936741
Si Si3 0.929605 0.925122 0.406873
Si Si4 0.610497 0.676928 0.534687
Si Si5 0.737305 0.821520 0.689907
Si Si6 0.548557 0.420529 0.952803
Si Si7 0.645763 0.639129 0.327937
O O1 0.158226 0.616980 0.427171
O O2 0.980494 0.872686 0.339911
O O3 0.742105 0.841927 0.151300
O O4 0.037476 0.107382 0.019622
O O5 0.832688 0.734400 0.895161
O O6 0.583723 0.077541 0.673210
O O7 0.676462 0.616084 0.111022
O O8 0.842773 0.710097 0.590864
O O9 0.878007 0.989158 0.562454
O O10 0.722120 0.159442 0.185882
O O11 0.597353 0.697982 0.389363
O O12 0.548044 0.428606 0.724527
O O13 0.668907 0.596955 0.798705
O O14 0.500000 0.000000 0.500000
O O15 0.500000 0.500000 0.000000
#
# Coordination Sequence:
#
# PCOD9080904 Si02
#       7
#     2   2   2   2   2   2   2
#     4   8  13  21  37  62  90 110 133 171 216 251
#     4   8  15  27  41  59  88 117 141 172 213 253
#     4   9  16  27  43  61  88 119 144 173 216 256
#     4   8  13  22  37  59  89 113 134 168 217 256
#     4  10  19  30  44  63  86 113 150 185 211 248
#     4   9  17  30  45  60  82 117 149 177 217 257
#     4   8  12  19  35  62  92 109 129 170 217 254
#
# _framework density 29.998339000000001
#
# number of rings (size 3 to 8) (size 9 to 14) (size 15 to 20)
#    0.000    3.429    0.000    0.429    0.000    0.000 
#    0.000    6.429    0.000    0.000    0.000    0.000 
#    0.000  516.571    0.000    0.000    0.000    0.000 
#
# Total GULP energy -78375.989425 kJ/mol
# GULP energy per Si atom -5598.284959 kJ/mol
# Density = 2.993006 g / cm^3
# Si number density = 29.998339 Si / 1000 Ang^3
#
#
#
# Elastic Constant Matrix: (Units=GPa)
#
#
# Indices 1 2 3 4 5 6 
#
# 1 199.3553 40.5957 76.7228 -13.8402 -66.6270 45.2968
# 2 40.5957 129.7356 31.2725 -36.6144 -14.6381 54.1398
# 3 76.7228 31.2725 131.0371 -10.2538 -41.4417 20.1291
# 4 -13.8402 -36.6144 -10.2538 36.2929 16.0082 -25.3485
# 5 -66.6270 -14.6381 -41.4417 16.0082 100.9167 -34.9740
# 6 45.2968 54.1398 20.1291 -25.3485 -34.9740 81.6919
#
#
#
# Elastic Compliance Matrix: (Units=1/GPa)
#
#
# Indices 1 2 3 4 5 6 
#
# 1 0.007891 -0.000966 -0.003154 -0.001783 0.003335 -0.002083
# 2 -0.000966 0.013473 -0.001936 0.009704 -0.003192 -0.006271
# 3 -0.003154 -0.001936 0.010484 -0.000298 0.002481 0.001419
# 4 -0.001783 0.009704 -0.000298 0.042752 -0.004623 0.005917
# 5 0.003335 -0.003192 0.002481 -0.004623 0.015010 0.004647
# 6 -0.002083 -0.006271 0.001419 0.005917 0.004647 0.021028
#
#
# Mechanical properties :
#
#
# Convention : Reuss Voigt Hill
#
# Bulk Modulus (GPa) = 50.67485 84.14554 67.41020
# Shear Modulus (GPa) = 38.66092 64.54943 51.60518
#
# Velocity S-wave (km/s) = 3.59384 4.64375 4.15211
# Velocity P-wave (km/s) = 5.84381 7.54079 6.74587
#
# Compressibility (1/GPa) = 0.01973365
#
# Stress axis : x y z
#
# Youngs Moduli (GPa) = 126.72385 74.22392 95.38605
#
# Poissons Ratio (x) = 0.07173 0.30089
# Poissons Ratio (y) = 0.12247 0.18468
# Poissons Ratio (z) = 0.39974 0.14371
#
# Static dielectric constant tensor:
#      x y z
#    x 2.362290 -0.046420 -0.190380 
#    y -0.046420 2.489000 0.257800 
#    z -0.190380 0.257800 3.104910 
# 
# From -- ./inp_files/211976.got.cif
#   From: 2010.05.17/outbox.cif.g08.bks.cpg/sg2_106_cif.got.tgz:211976.got - 2010.06.03 11:33:40.
