data_PCOD9080627
_publ_section_title
;
Structure prediction by ZEFSAII (Michael W. Deem and Ramdas Pophale) SiO2 
 PCOD9080627
Probable space group: P -1
;
_chemical_formula_sum "Si O2"
_cell_formula_units_Z 16
_cell_length_a 5.441609
_cell_length_b 7.855384
_cell_length_c 16.569968
_cell_angle_alpha 77.217794
_cell_angle_beta 102.651294
_cell_angle_gamma 120.179620
_cell_volume 592.216275
_symmetry_space_group_name_H-M "P -1"
_symmetry_group_IT_number 2
_symmetry_cell_setting 'triclinic'
loop_
_space_group_symop_operation_xyz
x,y,z
-x,-y,-z
loop_
_atom_site_type_symbol
_atom_site_label
_atom_site_fract_x
_atom_site_fract_y
_atom_site_fract_z
Si Si1 0.303205 0.949102 0.571950
Si Si2 0.322068 0.581871 0.864458
Si Si3 0.177522 0.439863 0.458601
Si Si4 0.955998 0.289882 0.980714
Si Si5 0.381607 0.968081 0.890946
Si Si6 0.667867 0.828592 0.717710
Si Si7 0.754352 0.865517 0.290313
Si Si8 0.200628 0.487562 0.279785
O O1 0.416057 0.824664 0.648112
O O2 0.990040 0.797659 0.534614
O O3 0.500000 0.000000 0.500000
O O4 0.296170 0.097828 0.624199
O O5 0.419901 0.772506 0.909445
O O6 0.560402 0.685313 0.802273
O O7 0.229379 0.380366 0.929866
O O8 0.023283 0.524053 0.801678
O O9 0.500000 0.500000 0.500000
O O10 0.153652 0.534598 0.362276
O O11 0.000000 0.500000 0.500000
O O12 0.655663 0.160315 0.924902
O O13 0.904272 0.125289 0.063335
O O14 0.000000 0.500000 0.000000
O O15 0.331341 0.009059 0.791557
O O16 0.825186 0.728210 0.691668
O O17 0.914421 0.056703 0.717931
O O18 0.532825 0.643334 0.272437
#
# Coordination Sequence:
#
# PCOD9080627 Si02
#       8
#     2   2   2   2   2   2   2   2
#     4  12  27  48  70 101 144 189 245 305 368 442
#     4  11  21  42  70  96 138 183 236 290 361 437
#     4  12  26  46  71 105 148 195 250 316 381 453
#     4   9  20  35  71 101 137 183 230 292 366 440
#     4  10  18  40  67 102 134 183 236 290 360 443
#     4  12  24  45  69 100 143 183 239 304 366 435
#     4  12  25  43  71 101 138 186 238 298 364 438
#     4  12  25  43  70 101 138 189 243 298 368 436
#
# _framework density 27.017153
#
# number of rings (size 3 to 8) (size 9 to 14) (size 15 to 20)
#    0.000    0.750    6.250    1.500    1.750    2.500 
#    0.000    0.625    0.000    4.500    0.000    0.000 
#    0.000    0.000    0.000    0.000    0.000    0.000 
#
# Total GULP energy -89370.385513 kJ/mol
# GULP energy per Si atom -5585.649095 kJ/mol
# Density = 2.695566 g / cm^3
# Si number density = 27.017153 Si / 1000 Ang^3
#
#
#
# Elastic Constant Matrix: (Units=GPa)
#
#
# Indices 1 2 3 4 5 6 
#
# 1 84.8781 41.7857 46.4805 14.5955 1.3580 37.2355
# 2 41.7857 189.9462 68.6623 15.5596 -2.2730 51.6256
# 3 46.4805 68.6623 153.0879 2.7070 -11.7022 17.4024
# 4 14.5955 15.5596 2.7070 52.1947 16.4459 2.1860
# 5 1.3580 -2.2730 -11.7022 16.4459 47.2363 -2.4135
# 6 37.2355 51.6256 17.4024 2.1860 -2.4135 50.4521
#
#
#
# Elastic Compliance Matrix: (Units=1/GPa)
#
#
# Indices 1 2 3 4 5 6 
#
# 1 0.021936 0.002069 -0.005722 -0.005509 -0.000855 -0.016135
# 2 0.002069 0.008782 -0.003479 -0.002612 -0.000060 -0.009203
# 3 -0.005722 -0.003479 0.009450 0.001287 0.002124 0.004569
# 4 -0.005509 -0.002612 0.001287 0.023606 -0.007616 0.004907
# 5 -0.000855 -0.000060 0.002124 -0.007616 0.024444 0.001459
# 6 -0.016135 -0.009203 0.004569 0.004907 0.001459 0.039427
#
#
# Mechanical properties :
#
#
# Convention : Reuss Voigt Hill
#
# Bulk Modulus (GPa) = 38.60459 82.41880 60.51170
# Shear Modulus (GPa) = 33.21315 48.04219 40.62767
#
# Velocity S-wave (km/s) = 3.50999 4.22146 3.88206
# Velocity P-wave (km/s) = 5.54497 7.37111 6.52227
#
# Compressibility (1/GPa) = 0.02590365
#
# Stress axis : x y z
#
# Youngs Moduli (GPa) = 45.58758 113.87562 105.81858
#
# Poissons Ratio (x) = -0.23564 0.60549
# Poissons Ratio (y) = -0.09433 0.36816
# Poissons Ratio (z) = 0.26085 0.39619
#
# Static dielectric constant tensor:
#      x y z
#    x 2.348120 -0.039750 -0.161150 
#    y -0.039750 2.157690 0.008510 
#    z -0.161150 0.008510 2.211800 
# 
# From -- ./inp_files/548050.got.cif
#   From: 2010.05.17/outbox.cif.g08.bks.cpg/sg2_275_cif.got.tgz:548050.got - 2010.06.03 11:33:40.
