data_PCOD9080729
_publ_section_title
;
Structure prediction by ZEFSAII (Michael W. Deem and Ramdas Pophale) SiO2 
 PCOD9080729
Probable space group: P -1
;
_chemical_formula_sum "Si O2"
_cell_formula_units_Z 16
_cell_length_a 16.588972
_cell_length_b 8.323091
_cell_length_c 14.456437
_cell_angle_alpha 59.680940
_cell_angle_beta 154.944673
_cell_angle_gamma 105.078809
_cell_volume 614.465601
_symmetry_space_group_name_H-M "P -1"
_symmetry_group_IT_number 2
_symmetry_cell_setting 'triclinic'
loop_
_space_group_symop_operation_xyz
x,y,z
-x,-y,-z
loop_
_atom_site_type_symbol
_atom_site_label
_atom_site_fract_x
_atom_site_fract_y
_atom_site_fract_z
Si Si1 0.381050 0.500329 0.001304
Si Si2 0.857364 0.666529 0.078549
Si Si3 0.839618 0.039585 0.598099
Si Si4 0.275692 0.864526 0.215320
Si Si5 0.025796 0.406762 0.156375
Si Si6 0.979712 0.746102 0.386050
Si Si7 0.574324 0.409583 0.726619
Si Si8 0.746145 0.091773 0.169095
O O1 0.619821 0.278106 0.309277
O O2 0.266876 0.459260 0.984141
O O3 0.206471 0.545286 0.724326
O O4 0.390959 0.720272 0.949278
O O5 0.034267 0.530860 0.219862
O O6 0.938773 0.691955 0.256719
O O7 0.711665 0.921005 0.817020
O O8 0.975468 0.060076 0.648668
O O9 0.787942 0.853155 0.577311
O O10 0.013661 0.961229 0.888105
O O11 0.367423 0.664509 0.440886
O O12 0.428733 0.729460 0.324072
O O13 0.000000 0.500000 0.000000
O O14 0.792510 0.419276 0.927382
O O15 0.791295 0.863970 0.237210
O O16 0.613979 0.263561 0.898411
O O17 0.000000 0.000000 0.500000
#
# Coordination Sequence:
#
# PCOD9080729 Si02
#       8
#     2   2   2   2   2   2   2   2
#     4  11  22  35  68  98 126 166 210 258 320 371
#     4  11  21  40  62  94 127 163 212 263 315 373
#     4  10  21  43  59  90 130 167 213 256 311 377
#     4   9  21  37  66  85 124 167 203 261 306 370
#     4  11  24  40  62  88 128 169 209 261 320 372
#     4  10  20  42  64  92 129 168 209 261 309 383
#     4  10  18  42  62  88 123 167 210 249 312 382
#     4  10  19  37  66  93 122 166 210 251 313 385
#
# _framework density 26.038885000000001
#
# number of rings (size 3 to 8) (size 9 to 14) (size 15 to 20)
#    0.000    1.750    5.000    0.750    1.750    1.500 
#    0.000   16.875    0.000    0.000    0.000    0.000 
#    0.000    0.000    0.000    0.000    0.000    0.000 
#
# Total GULP energy -89133.317711 kJ/mol
# GULP energy per Si atom -5570.832357 kJ/mol
# Density = 2.597962 g / cm^3
# Si number density = 26.038885 Si / 1000 Ang^3
#
#
#
# Elastic Constant Matrix: (Units=GPa)
#
#
# Indices 1 2 3 4 5 6 
#
# 1 66.6618 35.7606 11.6482 -0.2704 -11.8589 -11.2739
# 2 35.7606 112.3562 31.8840 -22.5737 2.1921 -28.7485
# 3 11.6482 31.8840 173.3113 -33.0589 -7.5105 -16.9876
# 4 -0.2704 -22.5737 -33.0589 36.7825 -7.1775 -0.4568
# 5 -11.8589 2.1921 -7.5105 -7.1775 29.9046 -1.4949
# 6 -11.2739 -28.7485 -16.9876 -0.4568 -1.4949 44.4722
#
#
#
# Elastic Compliance Matrix: (Units=1/GPa)
#
#
# Indices 1 2 3 4 5 6 
#
# 1 0.020255 -0.006866 -0.000182 -0.002678 0.007890 0.000864
# 2 -0.006866 0.014959 0.000201 0.009184 -0.001161 0.008062
# 3 -0.000182 0.000201 0.007736 0.007878 0.003909 0.003251
# 4 -0.002678 0.009184 0.007878 0.042105 0.010802 0.009063
# 5 0.007890 -0.001161 0.003909 0.010802 0.040439 0.004213
# 6 0.000864 0.008062 0.003251 0.009063 0.004213 0.029393
#
#
# Mechanical properties :
#
#
# Convention : Reuss Voigt Hill
#
# Bulk Modulus (GPa) = 34.18101 56.76833 45.47467
# Shear Modulus (GPa) = 28.03741 40.43429 34.23585
#
# Velocity S-wave (km/s) = 3.28495 3.94489 3.62995
# Velocity P-wave (km/s) = 5.24817 6.52673 5.92206
#
# Compressibility (1/GPa) = 0.02925601
#
# Stress axis : x y z
#
# Youngs Moduli (GPa) = 49.37021 66.84898 129.26471
#
# Poissons Ratio (x) = 0.45898 0.02359
# Poissons Ratio (y) = 0.33897 -0.02601
# Poissons Ratio (z) = 0.00901 -0.01345
#
# Static dielectric constant tensor:
#      x y z
#    x 2.194330 -0.021700 0.026810 
#    y -0.021700 2.267620 0.031140 
#    z 0.026810 0.031140 2.037840 
# 
# From -- ./inp_files/537303.got.cif
#   From: 2010.05.17/outbox.cif.g08.bks.cpg/sg2_269_cif.got.tgz:537303.got - 2010.06.03 11:33:40.
