data_PCOD9080606
_publ_section_title
;
Structure prediction by ZEFSAII (Michael W. Deem and Ramdas Pophale) SiO2 
 PCOD9080606
Probable space group: P -1
;
_chemical_formula_sum "Si O2"
_cell_formula_units_Z 16
_cell_length_a 8.837134
_cell_length_b 13.921373
_cell_length_c 22.153513
_cell_angle_alpha 19.475114
_cell_angle_beta 51.453132
_cell_angle_gamma 60.880326
_cell_volume 655.332274
_symmetry_space_group_name_H-M "P -1"
_symmetry_group_IT_number 2
_symmetry_cell_setting 'triclinic'
loop_
_space_group_symop_operation_xyz
x,y,z
-x,-y,-z
loop_
_atom_site_type_symbol
_atom_site_label
_atom_site_fract_x
_atom_site_fract_y
_atom_site_fract_z
Si Si1 0.610662 0.610620 0.703115
Si Si2 0.087590 0.472701 0.709678
Si Si3 0.362589 0.703269 0.903610
Si Si4 0.009401 0.069163 0.384792
Si Si5 0.510966 0.302907 0.442623
Si Si6 0.616881 0.145326 0.061880
Si Si7 0.911155 0.341621 0.714094
Si Si8 0.290358 0.694654 0.325397
O O1 0.467287 0.638246 0.668928
O O2 0.524938 0.397560 0.909620
O O3 0.752490 0.447642 0.729536
O O4 0.779346 0.935209 0.492809
O O5 0.276237 0.508278 0.685916
O O6 0.048383 0.279556 0.770866
O O7 0.865729 0.317761 0.890107
O O8 0.115132 0.831920 0.474757
O O9 0.430682 0.935144 0.693675
O O10 0.500000 0.500000 0.000000
O O11 0.132312 0.429892 0.124821
O O12 0.409741 0.924079 0.820179
O O13 0.000000 0.000000 0.500000
O O14 0.333929 0.413279 0.449446
O O15 0.494988 0.865272 0.213679
O O16 0.093258 0.591319 0.480513
O O17 0.762983 0.128511 0.823762
#
# Coordination Sequence:
#
# PCOD9080606 Si02
#       8
#     2   2   2   2   2   2   2   2
#     4   9  21  40  62  91 119 158 199 251 295 354
#     4  10  20  37  58  87 118 161 197 245 297 357
#     4  12  23  38  65  90 115 164 202 243 306 361
#     4  10  18  40  66  80 117 161 201 243 295 364
#     4  11  24  38  59  94 126 150 204 256 294 346
#     4  10  22  39  65  86 114 168 206 230 307 369
#     4   8  18  36  61  81 120 161 189 238 306 355
#     4  10  20  38  60  91 124 155 200 253 292 357
#
# _framework density 24.415096999999999
#
# number of rings (size 3 to 8) (size 9 to 14) (size 15 to 20)
#    0.000    2.250    3.750    0.750    1.750    7.500 
#    0.000    7.500    0.000    0.000    0.000    0.000 
#    0.000    0.000    0.000    0.000    0.000    0.000 
#
# Total GULP energy -89222.071602 kJ/mol
# GULP energy per Si atom -5576.379475 kJ/mol
# Density = 2.435953 g / cm^3
# Si number density = 24.415097 Si / 1000 Ang^3
#
#
#
# Elastic Constant Matrix: (Units=GPa)
#
#
# Indices 1 2 3 4 5 6 
#
# 1 108.9851 2.0171 0.3926 2.9095 3.9142 21.8677
# 2 2.0171 37.0520 -10.5992 -1.7595 4.8660 2.1133
# 3 0.3926 -10.5992 52.0849 -4.7875 2.7070 -6.8458
# 4 2.9095 -1.7595 -4.7875 29.3277 2.0963 2.4620
# 5 3.9142 4.8660 2.7070 2.0963 33.0919 1.6999
# 6 21.8677 2.1133 -6.8458 2.4620 1.6999 37.1499
#
#
#
# Elastic Compliance Matrix: (Units=1/GPa)
#
#
# Indices 1 2 3 4 5 6 
#
# 1 0.010487 -0.000439 -0.001013 -0.000655 -0.000730 -0.006258
# 2 -0.000439 0.029730 0.006591 0.003282 -0.005056 -0.000204
# 3 -0.001013 0.006591 0.021603 0.003899 -0.003073 0.004085
# 4 -0.000655 0.003282 0.003899 0.035311 -0.002895 -0.001290
# 5 -0.000730 -0.005056 -0.003073 -0.002895 0.031540 -0.001100
# 6 -0.006258 -0.000204 0.004085 -0.001290 -0.001100 0.031502
#
#
# Mechanical properties :
#
#
# Convention : Reuss Voigt Hill
#
# Bulk Modulus (GPa) = 13.87009 20.19367 17.03188
# Shear Modulus (GPa) = 28.74760 33.66800 31.20780
#
# Velocity S-wave (km/s) = 3.43512 3.71749 3.57910
# Velocity P-wave (km/s) = 4.62890 5.16868 4.90622
#
# Compressibility (1/GPa) = 0.07209756
#
# Stress axis : x y z
#
# Youngs Moduli (GPa) = 95.35946 33.63610 46.28918
#
# Poissons Ratio (x) = 0.01477 0.04690
# Poissons Ratio (y) = 0.04186 -0.30509
# Poissons Ratio (z) = 0.09661 -0.22169
#
# Static dielectric constant tensor:
#      x y z
#    x 2.059000 -0.021270 0.008730 
#    y -0.021270 2.002680 -0.035870 
#    z 0.008730 -0.035870 2.007370 
# 
# From -- ./inp_files/608022.got.cif
#   From: 2010.05.17/outbox.cif.g08.bks.cpg/sg2_305_cif.got.tgz:608022.got - 2010.06.03 11:33:40.
