data_PCOD9080868
_publ_section_title
;
Structure prediction by ZEFSAII (Michael W. Deem and Ramdas Pophale) SiO2 
 PCOD9080868
Probable space group: P -1
;
_chemical_formula_sum "Si O2"
_cell_formula_units_Z 16
_cell_length_a 11.635661
_cell_length_b 5.727281
_cell_length_c 20.868786
_cell_angle_alpha 63.930472
_cell_angle_beta 148.073690
_cell_angle_gamma 106.899843
_cell_volume 650.636941
_symmetry_space_group_name_H-M "P -1"
_symmetry_group_IT_number 2
_symmetry_cell_setting 'triclinic'
loop_
_space_group_symop_operation_xyz
x,y,z
-x,-y,-z
loop_
_atom_site_type_symbol
_atom_site_label
_atom_site_fract_x
_atom_site_fract_y
_atom_site_fract_z
Si Si1 0.304012 0.589692 0.023493
Si Si2 0.693500 0.193870 0.501098
Si Si3 0.673657 0.149623 0.134728
Si Si4 0.646311 0.213660 0.615383
Si Si5 0.593654 0.235761 0.727079
Si Si6 0.859091 0.899643 0.499162
Si Si7 0.256373 0.040450 0.037030
Si Si8 0.785259 0.537648 0.245686
O O1 0.175810 0.830075 0.975942
O O2 0.558342 0.499516 0.180779
O O3 0.174398 0.344664 0.983883
O O4 0.358654 0.706504 0.966368
O O5 0.781009 0.176010 0.617937
O O6 0.540932 0.465886 0.374128
O O7 0.521676 0.989409 0.442632
O O8 0.870370 0.074108 0.546498
O O9 0.783817 0.359175 0.202657
O O10 0.468656 0.101963 0.088570
O O11 0.770403 0.848830 0.198420
O O12 0.500000 0.500000 0.500000
O O13 0.734215 0.206262 0.730732
O O14 0.393257 0.074713 0.642523
O O15 0.705378 0.126735 0.858714
O O16 0.978730 0.596663 0.598444
O O17 0.000000 0.000000 0.500000
#
# Coordination Sequence:
#
# PCOD9080868 Si02
#       8
#     2   2   2   2   2   2   2   2
#     4  10  19  34  50  69  99 137 182 232 267 309
#     4   9  19  33  53  68 104 143 181 218 264 305
#     4  10  19  34  51  67  98 139 185 231 263 308
#     4   8  16  35  54  73  89 138 181 231 266 299
#     4  10  21  32  51  74 110 143 180 223 260 312
#     4  11  23  32  45  73 116 154 180 208 254 324
#     4  10  19  29  50  73  99 132 175 215 272 313
#     4  10  20  31  48  69  96 139 186 211 257 311
#
# _framework density 24.591286
#
# number of rings (size 3 to 8) (size 9 to 14) (size 15 to 20)
#    0.000    2.250    0.000    5.250    8.750    0.500 
#    0.000    0.000    0.000    0.000    0.000    0.000 
#    0.000   11.000    0.000    0.000    0.000    0.000 
#
# Total GULP energy -89157.363716 kJ/mol
# GULP energy per Si atom -5572.335232 kJ/mol
# Density = 2.453532 g / cm^3
# Si number density = 24.591286 Si / 1000 Ang^3
#
#
#
# Elastic Constant Matrix: (Units=GPa)
#
#
# Indices 1 2 3 4 5 6 
#
# 1 111.2616 45.4192 35.3548 -15.5359 -32.0928 -21.5074
# 2 45.4192 180.8395 43.0150 -22.0296 -13.3405 -27.2523
# 3 35.3548 43.0150 47.6009 -26.5104 -22.0016 -6.7272
# 4 -15.5359 -22.0296 -26.5104 28.8478 10.9568 3.6533
# 5 -32.0928 -13.3405 -22.0016 10.9568 43.8651 -3.9376
# 6 -21.5074 -27.2523 -6.7272 3.6533 -3.9376 34.6247
#
#
#
# Elastic Compliance Matrix: (Units=1/GPa)
#
#
# Indices 1 2 3 4 5 6 
#
# 1 0.015491 -0.000469 -0.007575 -0.003605 0.009118 0.009199
# 2 -0.000469 0.007812 -0.007002 -0.000977 -0.000831 0.004505
# 3 -0.007575 -0.007002 0.063283 0.043927 0.013000 -0.001078
# 4 -0.003605 -0.000977 0.043927 0.072269 0.000867 -0.002000
# 5 0.009118 -0.000831 0.013000 0.000867 0.036560 0.011601
# 6 0.009199 0.004505 -0.001078 -0.002000 0.011601 0.039462
#
#
# Mechanical properties :
#
#
# Convention : Reuss Voigt Hill
#
# Bulk Modulus (GPa) = 17.70157 65.25333 41.47745
# Shear Modulus (GPa) = 17.61798 35.86174 26.73986
#
# Velocity S-wave (km/s) = 2.67953 3.82293 3.30111
# Velocity P-wave (km/s) = 4.09721 6.78816 5.60652
#
# Compressibility (1/GPa) = 0.05649216
#
# Stress axis : x y z
#
# Youngs Moduli (GPa) = 64.55276 128.01182 15.80209
#
# Poissons Ratio (x) = 0.06006 0.11971
# Poissons Ratio (y) = 0.03029 0.11065
# Poissons Ratio (z) = 0.48900 0.89638
#
# Static dielectric constant tensor:
#      x y z
#    x 1.965540 -0.028590 0.071280 
#    y -0.028590 2.137670 0.048140 
#    z 0.071280 0.048140 2.222900 
# 
# From -- ./inp_files/66221.got.cif
#   From: 2010.05.17/outbox.cif.g08.bks.cpg/sg2_34_cif.got.tgz:66221.got - 2010.06.03 11:33:40.
