data_PCOD9080570
_publ_section_title
;
Structure prediction by ZEFSAII (Michael W. Deem and Ramdas Pophale) SiO2 
 PCOD9080570
Probable space group: P -1
;
_chemical_formula_sum "Si O2"
_cell_formula_units_Z 15
_cell_length_a 12.171352
_cell_length_b 6.783637
_cell_length_c 11.735141
_cell_angle_alpha 77.529533
_cell_angle_beta 35.039530
_cell_angle_gamma 72.549867
_cell_volume 529.922678
_symmetry_space_group_name_H-M "P -1"
_symmetry_group_IT_number 2
_symmetry_cell_setting 'triclinic'
loop_
_space_group_symop_operation_xyz
x,y,z
-x,-y,-z
loop_
_atom_site_type_symbol
_atom_site_label
_atom_site_fract_x
_atom_site_fract_y
_atom_site_fract_z
Si Si1 0.898396 0.736166 0.418833
Si Si2 0.475763 0.189282 0.152549
Si Si3 0.187229 0.084995 0.980908
Si Si4 0.000000 0.000000 0.500000
Si Si5 0.335318 0.274692 0.605909
Si Si6 0.614865 0.260263 0.779155
Si Si7 0.219950 0.712677 0.757240
Si Si8 0.779860 0.511764 0.980923
O O1 0.754160 0.792629 0.424842
O O2 0.974923 0.911709 0.401640
O O3 0.086527 0.581694 0.226290
O O4 0.736243 0.675378 0.649378
O O5 0.663820 0.124687 0.083587
O O6 0.422076 0.965230 0.201054
O O7 0.551253 0.268663 0.963238
O O8 0.273183 0.170771 0.784806
O O9 0.187899 0.256975 0.055447
O O10 0.959654 0.102748 0.146627
O O11 0.154456 0.780192 0.426031
O O12 0.254930 0.522843 0.661310
O O13 0.570144 0.233600 0.412665
O O14 0.542576 0.558558 0.167730
O O15 0.161161 0.617679 0.937766
#
# Coordination Sequence:
#
# PCOD9080570 Si02
#       8
#     2   2   2   1   2   2   2   2
#     4  11  21  40  62  93 125 174 209 279 314 390
#     4   9  21  38  62  87 131 165 219 260 331 371
#     4  10  18  40  63  95 131 173 202 276 314 395
#     4  10  24  42  64  86 130 168 224 262 334 370
#     4  10  20  36  63  96 136 159 219 259 330 380
#     4   9  20  43  60  89 121 175 215 274 313 387
#     4  10  19  37  63 104 124 170 210 268 317 397
#     4  10  19  37  69  89 132 165 217 264 328 375
#
# _framework density 28.306014000000001
#
# number of rings (size 3 to 8) (size 9 to 14) (size 15 to 20)
#    0.000    2.133    2.667    0.800    0.000    2.667 
#   12.000    2.000    0.000    0.000    0.000    0.000 
#    0.000    0.000    0.000    0.000    0.000    0.000 
#
# Total GULP energy -83853.780570 kJ/mol
# GULP energy per Si atom -5590.252038 kJ/mol
# Density = 2.824159 g / cm^3
# Si number density = 28.306014 Si / 1000 Ang^3
#
#
#
# Elastic Constant Matrix: (Units=GPa)
#
#
# Indices 1 2 3 4 5 6 
#
# 1 132.6950 51.6864 39.6070 20.5335 1.1757 -1.0127
# 2 51.6864 113.9002 53.0070 37.7332 -6.6391 12.1756
# 3 39.6070 53.0070 173.7495 43.0331 -14.8331 11.4179
# 4 20.5335 37.7332 43.0331 57.0635 7.5649 -4.7351
# 5 1.1757 -6.6391 -14.8331 7.5649 44.7039 20.1511
# 6 -1.0127 12.1756 11.4179 -4.7351 20.1511 46.0335
#
#
#
# Elastic Compliance Matrix: (Units=1/GPa)
#
#
# Indices 1 2 3 4 5 6 
#
# 1 0.009688 -0.004738 -0.001703 0.001679 -0.003410 0.003554
# 2 -0.004738 0.015921 0.000280 -0.010947 0.008619 -0.009284
# 3 -0.001703 0.000280 0.009055 -0.007896 0.007295 -0.006363
# 4 0.001679 -0.010947 -0.007896 0.033702 -0.017143 0.015862
# 5 -0.003410 0.008619 0.007295 -0.017143 0.039534 -0.023234
# 6 0.003554 -0.009284 -0.006363 0.015862 -0.023234 0.037637
#
#
# Mechanical properties :
#
#
# Convention : Reuss Voigt Hill
#
# Bulk Modulus (GPa) = 44.76120 78.77173 61.76647
# Shear Modulus (GPa) = 30.24693 47.96315 39.10504
#
# Velocity S-wave (km/s) = 3.27244 4.12084 3.72090
# Velocity P-wave (km/s) = 5.48873 7.10850 6.35047
#
# Compressibility (1/GPa) = 0.02234078
#
# Stress axis : x y z
#
# Youngs Moduli (GPa) = 103.22421 62.81120 110.43894
#
# Poissons Ratio (x) = 0.29762 0.18810
# Poissons Ratio (y) = 0.48910 -0.03095
# Poissons Ratio (z) = 0.17581 -0.01760
#
# Static dielectric constant tensor:
#      x y z
#    x 2.237060 0.122050 -0.065750 
#    y 0.122050 2.287670 -0.071590 
#    z -0.065750 -0.071590 2.205080 
# 
# From -- ./inp_files/212557.got.cif
#   From: 2010.05.17/outbox.cif.g08.bks.cpg/sg2_107_cif.got.tgz:212557.got - 2010.06.03 11:33:40.
