data_PCOD9080431
_publ_section_title
;
Structure prediction by ZEFSAII (Michael W. Deem and Ramdas Pophale) SiO2 
 PCOD9080431
Probable space group: P -1
;
_chemical_formula_sum "Si O2"
_cell_formula_units_Z 14
_cell_length_a 13.919992
_cell_length_b 8.619170
_cell_length_c 6.584338
_cell_angle_alpha 79.944734
_cell_angle_beta 134.173438
_cell_angle_gamma 105.148722
_cell_volume 546.879832
_symmetry_space_group_name_H-M "P -1"
_symmetry_group_IT_number 2
_symmetry_cell_setting 'triclinic'
loop_
_space_group_symop_operation_xyz
x,y,z
-x,-y,-z
loop_
_atom_site_type_symbol
_atom_site_label
_atom_site_fract_x
_atom_site_fract_y
_atom_site_fract_z
Si Si1 0.572961 0.252122 0.080797
Si Si2 0.241349 0.727195 0.024194
Si Si3 0.632414 0.014299 0.554286
Si Si4 0.060624 0.898745 0.444906
Si Si5 0.271863 0.196347 0.526950
Si Si6 0.174963 0.473601 0.515482
Si Si7 0.096352 0.388425 0.886829
O O1 0.624877 0.247074 0.926919
O O2 0.594693 0.097818 0.273942
O O3 0.679944 0.402201 0.297561
O O4 0.412637 0.254553 0.845944
O O5 0.126126 0.765407 0.692055
O O6 0.205469 0.545147 0.090766
O O7 0.254859 0.857280 0.191446
O O8 0.500000 0.000000 0.500000
O O9 0.676663 0.846445 0.609054
O O10 0.955455 0.805775 0.145167
O O11 0.183195 0.027148 0.502821
O O12 0.000000 0.000000 0.500000
O O13 0.180600 0.328163 0.402116
O O14 0.148810 0.404372 0.722362
O O15 0.045732 0.556784 0.275899
#
# Coordination Sequence:
#
# PCOD9080431 Si02
#       7
#     2   2   2   2   2   2   2
#     4  11  22  42  65  90 125 173 207 257 323 372
#     4  11  21  41  67  90 128 170 208 253 320 377
#     4  12  24  40  63  97 130 165 211 261 315 372
#     4  12  20  38  68  97 122 162 212 257 315 377
#     4  12  22  37  64  97 128 164 214 265 309 371
#     4  10  19  38  66  90 124 168 214 250 314 383
#     4  10  18  39  65  90 123 171 204 253 318 378
#
# _framework density 25.599775999999999
#
# number of rings (size 3 to 8) (size 9 to 14) (size 15 to 20)
#    0.000    0.857    8.571    1.714    0.000    0.000 
#    0.000    7.857    0.000    0.000    0.000    0.000 
#    0.000    0.000    0.000    0.000    0.000    0.000 
#
# Total GULP energy -78240.600156 kJ/mol
# GULP energy per Si atom -5588.614297 kJ/mol
# Density = 2.554151 g / cm^3
# Si number density = 25.599776 Si / 1000 Ang^3
#
#
#
# Elastic Constant Matrix: (Units=GPa)
#
#
# Indices 1 2 3 4 5 6 
#
# 1 118.0235 61.5398 25.6514 15.4400 16.2068 -12.4973
# 2 61.5398 110.9560 33.1798 26.2138 -0.1157 -11.6277
# 3 25.6514 33.1798 108.8842 35.3904 6.2385 0.8004
# 4 15.4400 26.2138 35.3904 55.2452 -7.7160 -7.3181
# 5 16.2068 -0.1157 6.2385 -7.7160 39.1666 15.8547
# 6 -12.4973 -11.6277 0.8004 -7.3181 15.8547 57.9891
#
#
#
# Elastic Compliance Matrix: (Units=1/GPa)
#
#
# Indices 1 2 3 4 5 6 
#
# 1 0.013592 -0.006863 -0.000476 -0.000778 -0.007099 0.003402
# 2 -0.006863 0.014161 -0.001767 -0.003295 0.002386 0.000317
# 3 -0.000476 -0.001767 0.012455 -0.007523 -0.002963 -0.000768
# 4 -0.000778 -0.003295 -0.007523 0.025680 0.006242 0.000810
# 5 -0.007099 0.002386 -0.002963 0.006242 0.034035 -0.009529
# 6 0.003402 0.000317 -0.000768 0.000810 -0.009529 0.020759
#
#
# Mechanical properties :
#
#
# Convention : Reuss Voigt Hill
#
# Bulk Modulus (GPa) = 45.46140 64.28951 54.87546
# Shear Modulus (GPa) = 34.19324 44.97970 39.58647
#
# Velocity S-wave (km/s) = 3.65867 4.19625 3.93664
# Velocity P-wave (km/s) = 5.97033 6.97466 6.49194
#
# Compressibility (1/GPa) = 0.02199668
#
# Stress axis : x y z
#
# Youngs Moduli (GPa) = 73.57346 70.61417 80.28746
#
# Poissons Ratio (x) = 0.48464 0.03822
# Poissons Ratio (y) = 0.50495 0.14185
# Poissons Ratio (z) = 0.03502 0.12476
#
# Static dielectric constant tensor:
#      x y z
#    x 2.073840 0.006640 -0.075840 
#    y 0.006640 2.052500 -0.056130 
#    z -0.075840 -0.056130 2.232050 
# 
# From -- ./inp_files/296248.got.cif
#   From: 2010.05.17/outbox.cif.g08.bks.cpg/sg2_149_cif.got.tgz:296248.got - 2010.06.03 11:33:40.
