data_PCOD9080008
_publ_section_title
;
Structure prediction by ZEFSAII (Michael W. Deem and Ramdas Pophale) SiO2 
 PCOD9080008
Probable space group: P -1
;
_chemical_formula_sum "Si O2"
_cell_formula_units_Z 16
_cell_length_a 9.233990
_cell_length_b 14.403493
_cell_length_c 15.576572
_cell_angle_alpha 148.125049
_cell_angle_beta 49.928924
_cell_angle_gamma 114.924879
_cell_volume 795.964370
_symmetry_space_group_name_H-M "P -1"
_symmetry_group_IT_number 2
_symmetry_cell_setting 'triclinic'
loop_
_space_group_symop_operation_xyz
x,y,z
-x,-y,-z
loop_
_atom_site_type_symbol
_atom_site_label
_atom_site_fract_x
_atom_site_fract_y
_atom_site_fract_z
Si Si1 0.164927 0.629807 0.838218
Si Si2 0.119318 0.457866 0.010799
Si Si3 0.535837 0.178757 0.084490
Si Si4 0.297763 0.952687 0.264178
Si Si5 0.848675 0.189955 0.625700
Si Si6 0.501703 0.743451 0.524464
Si Si7 0.695347 0.463191 0.458127
Si Si8 0.457063 0.812297 0.398584
O O1 0.268086 0.788957 0.923249
O O2 0.323691 0.455607 0.690484
O O3 0.137130 0.571290 0.705206
O O4 0.968439 0.675863 0.004841
O O5 0.094730 0.640150 0.219961
O O6 0.348116 0.358956 0.829179
O O7 0.000000 0.500000 0.000000
O O8 0.351718 0.357213 0.322939
O O9 0.500000 0.000000 0.000000
O O10 0.587631 0.165896 0.953199
O O11 0.399348 0.113755 0.360017
O O12 0.059604 0.035511 0.404779
O O13 0.290587 0.862123 0.289074
O O14 0.723139 0.219547 0.610465
O O15 0.316173 0.710370 0.618966
O O16 0.436569 0.808560 0.505311
O O17 0.500000 0.500000 0.500000
O O18 0.500000 0.000000 0.500000
#
# Coordination Sequence:
#
# PCOD9080008 Si02
#       8
#     2   2   2   2   2   2   2   2
#     4  10  19  36  62  90 117 158 206 251 301 365
#     4  12  23  41  66  89 122 165 208 248 309 375
#     4  10  19  30  57  92 122 142 200 263 304 346
#     4  11  20  36  59  91 121 157 211 249 297 363
#     4  11  25  37  58  90 127 164 203 254 307 364
#     4  10  18  38  61  83 122 160 196 251 298 366
#     4   8  18  33  57  91 113 156 200 255 300 351
#     4  12  25  41  59  92 129 162 203 257 315 358
#
# _framework density 20.101403000000001
#
# number of rings (size 3 to 8) (size 9 to 14) (size 15 to 20)
#    0.000    1.750    3.750    3.375    5.250    0.000 
#    0.000    0.000    0.000    3.000    0.000    0.000 
#    0.000    0.000    0.000    0.000    0.000    0.000 
#
# Total GULP energy -89192.394501 kJ/mol
# GULP energy per Si atom -5574.524656 kJ/mol
# Density = 2.005565 g / cm^3
# Si number density = 20.101403 Si / 1000 Ang^3
#
#
#
# Elastic Constant Matrix: (Units=GPa)
#
#
# Indices 1 2 3 4 5 6 
#
# 1 71.0900 15.0697 21.5093 -7.8855 15.1952 -12.2797
# 2 15.0697 127.0469 28.2163 -14.6158 16.6131 -6.2613
# 3 21.5093 28.2163 58.1632 -15.6837 24.3518 -3.7208
# 4 -7.8855 -14.6158 -15.6837 37.1771 0.9570 12.6563
# 5 15.1952 16.6131 24.3518 0.9570 20.4903 1.9282
# 6 -12.2797 -6.2613 -3.7208 12.6563 1.9282 29.2814
#
#
#
# Elastic Compliance Matrix: (Units=1/GPa)
#
#
# Indices 1 2 3 4 5 6 
#
# 1 0.018837 0.000337 0.000485 0.001934 -0.015683 0.008230
# 2 0.000337 0.009367 -0.000627 0.003296 -0.007359 0.001125
# 3 0.000485 -0.000627 0.046356 0.020601 -0.055975 0.000741
# 4 0.001934 0.003296 0.020601 0.042194 -0.029416 -0.012167
# 5 -0.015683 -0.007359 -0.055975 -0.029416 0.135377 -0.011464
# 6 0.008230 0.001125 0.000741 -0.012167 -0.011464 0.043951
#
#
# Mechanical properties :
#
#
# Convention : Reuss Voigt Hill
#
# Bulk Modulus (GPa) = 13.34224 42.87674 28.10949
# Shear Modulus (GPa) = 15.59206 30.15676 22.87441
#
# Velocity S-wave (km/s) = 2.78811 3.87748 3.37701
# Velocity P-wave (km/s) = 4.12512 6.43607 5.40554
#
# Compressibility (1/GPa) = 0.07494993
#
# Stress axis : x y z
#
# Youngs Moduli (GPa) = 53.08705 106.75374 21.57231
#
# Poissons Ratio (x) = -0.03597 -0.01046
# Poissons Ratio (y) = -0.01789 0.01352
# Poissons Ratio (z) = -0.02574 0.06692
#
# Static dielectric constant tensor:
#      x y z
#    x 1.699220 0.017260 0.006770 
#    y 0.017260 1.781630 -0.034120 
#    z 0.006770 -0.034120 1.786350 
# 
# From -- ./inp_files/505711.got.cif
#   From: 2010.05.17/outbox.cif.g08.bks.cpg/sg2_253_cif.got.tgz:505711.got - 2010.06.03 11:33:40.
