data_PCOD9080281
_publ_section_title
;
Structure prediction by ZEFSAII (Michael W. Deem and Ramdas Pophale) SiO2 
 PCOD9080281
Probable space group: P -1
;
_chemical_formula_sum "Si O2"
_cell_formula_units_Z 14
_cell_length_a 11.676233
_cell_length_b 16.318091
_cell_length_c 8.813466
_cell_angle_alpha 36.894095
_cell_angle_beta 56.404034
_cell_angle_gamma 36.256668
_cell_volume 576.040949
_symmetry_space_group_name_H-M "P -1"
_symmetry_group_IT_number 2
_symmetry_cell_setting 'triclinic'
loop_
_space_group_symop_operation_xyz
x,y,z
-x,-y,-z
loop_
_atom_site_type_symbol
_atom_site_label
_atom_site_fract_x
_atom_site_fract_y
_atom_site_fract_z
Si Si1 0.596175 0.746551 0.217263
Si Si2 0.071264 0.731339 0.313068
Si Si3 0.453033 0.183596 0.201920
Si Si4 0.637711 0.242950 0.406411
Si Si5 0.841255 0.049658 0.241082
Si Si6 0.115040 0.278151 0.785595
Si Si7 0.254132 0.532939 0.032785
O O1 0.753086 0.505889 0.460710
O O2 0.396085 0.830694 0.317480
O O3 0.688379 0.804356 0.159847
O O4 0.578691 0.799327 0.978289
O O5 0.882899 0.802212 0.256285
O O6 0.126986 0.822072 0.036628
O O7 0.013241 0.827935 0.378026
O O8 0.640131 0.142423 0.171150
O O9 0.500000 0.000000 0.500000
O O10 0.273859 0.391332 0.113889
O O11 0.801512 0.078888 0.405585
O O12 0.689006 0.361463 0.235860
O O13 0.425679 0.391528 0.248057
O O14 0.000000 0.500000 0.500000
O O15 0.963656 0.311325 0.961640
#
# Coordination Sequence:
#
# PCOD9080281 Si02
#       7
#     2   2   2   2   2   2   2
#     4  11  23  41  72  96 133 176 231 263 336 401
#     4  10  20  40  71 103 134 177 215 272 329 403
#     4  11  27  43  64  96 134 178 222 287 329 391
#     4  10  18  38  69 102 125 177 222 267 324 406
#     4  10  22  40  68  99 142 171 214 275 337 381
#     4  10  19  36  67 101 130 176 213 269 321 413
#     4  10  19  38  66  96 135 173 219 264 331 396
#
# _framework density 24.303826999999998
#
# number of rings (size 3 to 8) (size 9 to 14) (size 15 to 20)
#    0.000    1.714    4.286    1.714    4.000    2.857 
#    0.000    6.429    0.000    6.857    0.000    0.000 
#    0.000    0.000    0.000    0.000    0.000    0.000 
#
# Total GULP energy -78401.147281 kJ/mol
# GULP energy per Si atom -5600.081949 kJ/mol
# Density = 2.424851 g / cm^3
# Si number density = 24.303827 Si / 1000 Ang^3
#
#
#
# Elastic Constant Matrix: (Units=GPa)
#
#
# Indices 1 2 3 4 5 6 
#
# 1 104.2610 30.4959 64.4175 -2.6462 -12.7946 23.6910
# 2 30.4959 145.4674 57.6021 6.4394 -2.1545 23.0242
# 3 64.4175 57.6021 123.0983 11.6599 -4.3572 24.2701
# 4 -2.6462 6.4394 11.6599 29.7292 4.8024 3.9731
# 5 -12.7946 -2.1545 -4.3572 4.8024 36.6821 3.3678
# 6 23.6910 23.0242 24.2701 3.9731 3.3678 36.9479
#
#
#
# Elastic Compliance Matrix: (Units=1/GPa)
#
#
# Indices 1 2 3 4 5 6 
#
# 1 0.016509 0.000581 -0.007840 0.004529 0.004886 -0.006730
# 2 0.000581 0.008778 -0.003705 -0.000031 0.000600 -0.003460
# 3 -0.007840 -0.003705 0.014813 -0.005415 -0.000320 -0.001783
# 4 0.004529 -0.000031 -0.005415 0.037161 -0.003656 -0.002990
# 5 0.004886 0.000600 -0.000320 -0.003656 0.029959 -0.005634
# 6 -0.006730 -0.003460 -0.001783 -0.002990 -0.005634 0.035543
#
#
# Mechanical properties :
#
#
# Convention : Reuss Voigt Hill
#
# Bulk Modulus (GPa) = 55.03231 75.31753 65.17492
# Shear Modulus (GPa) = 29.28287 35.35926 32.32106
#
# Velocity S-wave (km/s) = 3.47488 3.81843 3.65070
# Velocity P-wave (km/s) = 6.22835 7.10618 6.68170
#
# Compressibility (1/GPa) = 0.01817114
#
# Stress axis : x y z
#
# Youngs Moduli (GPa) = 60.57174 113.92653 67.50749
#
# Poissons Ratio (x) = -0.06615 0.52927
# Poissons Ratio (y) = -0.03517 0.25011
# Poissons Ratio (z) = 0.47489 0.42209
#
# Static dielectric constant tensor:
#      x y z
#    x 1.921970 -0.009200 0.006690 
#    y -0.009200 2.026890 -0.005010 
#    z 0.006690 -0.005010 1.933610 
# 
# From -- ./inp_files/278631.got.cif
#   From: 2010.05.17/outbox.cif.g08.bks.cpg/sg2_140_cif.got.tgz:278631.got - 2010.06.03 11:33:40.
