data_PCOD9080517
_publ_section_title
;
Structure prediction by ZEFSAII (Michael W. Deem and Ramdas Pophale) SiO2 
 PCOD9080517
Probable space group: P -1
;
_chemical_formula_sum "Si O2"
_cell_formula_units_Z 16
_cell_length_a 9.777894
_cell_length_b 8.103988
_cell_length_c 12.376433
_cell_angle_alpha 104.462252
_cell_angle_beta 63.143365
_cell_angle_gamma 117.466016
_cell_volume 775.248937
_symmetry_space_group_name_H-M "P -1"
_symmetry_group_IT_number 2
_symmetry_cell_setting 'triclinic'
loop_
_space_group_symop_operation_xyz
x,y,z
-x,-y,-z
loop_
_atom_site_type_symbol
_atom_site_label
_atom_site_fract_x
_atom_site_fract_y
_atom_site_fract_z
Si Si1 0.462018 0.185410 0.047843
Si Si2 0.900948 0.828674 0.787112
Si Si3 0.989426 0.204270 0.041258
Si Si4 0.524839 0.236619 0.790385
Si Si5 0.806042 0.773859 0.218013
Si Si6 0.672828 0.490412 0.408775
Si Si7 0.830666 0.521731 0.590362
Si Si8 0.623944 0.191279 0.201138
O O1 0.265408 0.135854 0.124001
O O2 0.555486 0.277746 0.141061
O O3 0.517862 0.285867 0.928280
O O4 0.500000 0.000000 0.000000
O O5 0.926154 0.712877 0.861341
O O6 0.874188 0.715095 0.668666
O O7 0.069110 0.016601 0.759750
O O8 0.800924 0.186057 0.103470
O O9 0.094650 0.300602 0.914912
O O10 0.000000 0.000000 0.000000
O O11 0.362489 0.236544 0.783618
O O12 0.692782 0.368423 0.691225
O O13 0.501449 0.021778 0.766771
O O14 0.768621 0.654622 0.318887
O O15 0.500000 0.500000 0.500000
O O16 0.756081 0.509232 0.496964
O O17 0.647499 0.306049 0.320815
O O18 0.000000 0.500000 0.500000
#
# Coordination Sequence:
#
# PCOD9080517 Si02
#       8
#     2   2   2   2   2   2   2   2
#     4  10  21  38  69 107 132 156 213 276 335 397
#     4  11  22  42  69  96 134 169 209 273 334 382
#     4  10  18  39  71 102 128 163 214 266 333 412
#     4  11  22  44  72  95 132 174 213 265 339 395
#     4  11  22  42  74  95 129 178 212 264 339 395
#     4  12  27  45  63  95 135 176 234 267 302 388
#     4  12  29  44  63  98 133 172 233 274 302 380
#     4  11  23  41  70 102 133 170 211 275 337 384
#
# _framework density 20.638532000000001
#
# number of rings (size 3 to 8) (size 9 to 14) (size 15 to 20)
#    0.000    1.000    5.000    3.750    0.000    7.000 
#    0.000    0.000    0.000    0.000    0.000    0.000 
#    0.000    0.000    0.000    0.000    0.000    0.000 
#
# Total GULP energy -89379.964199 kJ/mol
# GULP energy per Si atom -5586.247762 kJ/mol
# Density = 2.059156 g / cm^3
# Si number density = 20.638532 Si / 1000 Ang^3
#
#
#
# Elastic Constant Matrix: (Units=GPa)
#
#
# Indices 1 2 3 4 5 6 
#
# 1 234.8973 104.8756 207.6267 -35.2617 7.1198 45.1520
# 2 104.8756 147.7915 192.2137 -32.0120 8.7141 34.2603
# 3 207.6267 192.2137 410.0739 -53.6810 17.5136 54.0219
# 4 -35.2617 -32.0120 -53.6810 48.9385 7.6039 -3.5387
# 5 7.1198 8.7141 17.5136 7.6039 55.8321 -0.4706
# 6 45.1520 34.2603 54.0219 -3.5387 -0.4706 28.6816
#
#
#
# Elastic Compliance Matrix: (Units=1/GPa)
#
#
# Indices 1 2 3 4 5 6 
#
# 1 0.008941 0.000390 -0.003283 0.002606 -0.000594 -0.008045
# 2 0.000390 0.019230 -0.007376 0.004324 -0.001404 -0.009182
# 3 -0.003283 -0.007376 0.007918 0.001618 -0.001140 -0.000753
# 4 0.002606 0.004324 0.001618 0.027079 -0.005279 -0.009060
# 5 -0.000594 -0.001404 -0.001140 -0.005279 0.019320 0.004426
# 6 -0.008045 -0.009182 -0.000753 -0.009060 0.004426 0.058873
#
#
# Mechanical properties :
#
#
# Convention : Reuss Voigt Hill
#
# Bulk Modulus (GPa) = 64.30454 200.24385 132.27419
# Shear Modulus (GPa) = 29.92561 45.89354 37.90958
#
# Velocity S-wave (km/s) = 3.81200 4.72071 4.29048
# Velocity P-wave (km/s) = 7.11339 11.26714 9.42201
#
# Compressibility (1/GPa) = 0.01555100
#
# Stress axis : x y z
#
# Youngs Moduli (GPa) = 111.84575 52.00339 126.29647
#
# Poissons Ratio (x) = -0.02030 0.41469
# Poissons Ratio (y) = -0.04366 0.93150
# Poissons Ratio (z) = 0.36724 0.38355
#
# Static dielectric constant tensor:
#      x y z
#    x 1.740720 -0.003560 0.029430 
#    y -0.003560 1.783900 0.008340 
#    z 0.029430 0.008340 1.747830 
# 
# From -- ./inp_files/382868.got.cif
#   From: 2010.05.17/outbox.cif.g08.bks.cpg/sg2_192_cif.got.tgz:382868.got - 2010.06.03 11:33:40.
