data_PCOD9080501
_publ_section_title
;
Structure prediction by ZEFSAII (Michael W. Deem and Ramdas Pophale) SiO2 
 PCOD9080501
Probable space group: P -1
;
_chemical_formula_sum "Si O2"
_cell_formula_units_Z 14
_cell_length_a 9.684749
_cell_length_b 16.673110
_cell_length_c 9.446058
_cell_angle_alpha 35.798137
_cell_angle_beta 62.142322
_cell_angle_gamma 79.178104
_cell_volume 732.881458
_symmetry_space_group_name_H-M "P -1"
_symmetry_group_IT_number 2
_symmetry_cell_setting 'triclinic'
loop_
_space_group_symop_operation_xyz
x,y,z
-x,-y,-z
loop_
_atom_site_type_symbol
_atom_site_label
_atom_site_fract_x
_atom_site_fract_y
_atom_site_fract_z
Si Si1 0.143665 0.222863 0.380475
Si Si2 0.352395 0.381456 0.321514
Si Si3 0.103640 0.397374 0.624561
Si Si4 0.907123 0.072840 0.052943
Si Si5 0.564911 0.812636 0.206933
Si Si6 0.679844 0.631643 0.196985
Si Si7 0.239017 0.860440 0.245979
O O1 0.221289 0.293702 0.391181
O O2 0.948514 0.209106 0.498618
O O3 0.151195 0.058439 0.616074
O O4 0.255658 0.320615 0.060491
O O5 0.267150 0.458264 0.360335
O O6 0.413445 0.275638 0.539683
O O7 0.500000 0.500000 0.000000
O O8 0.172730 0.401149 0.743871
O O9 0.000000 0.500000 0.500000
O O10 0.012491 0.227095 0.858745
O O11 0.780177 0.108690 0.955886
O O12 0.000000 0.000000 0.000000
O O13 0.652924 0.765409 0.101713
O O14 0.368643 0.778002 0.321360
O O15 0.667264 0.983117 0.947026
O O16 0.500000 0.500000 0.500000
#
# Coordination Sequence:
#
# PCOD9080501 Si02
#       7
#     2   2   2   2   2   2   2
#     4  11  20  39  69  90 115 173 219 248 308 385
#     4  11  21  40  60  86 123 171 209 248 309 383
#     4  11  24  41  63  92 127 164 205 264 314 367
#     4  10  18  39  69  90 119 162 216 256 302 375
#     4  10  22  40  61  91 126 157 202 266 320 354
#     4  11  25  41  58  91 135 164 199 264 324 365
#     4  10  20  38  69  91 117 156 216 266 297 373
#
# _framework density 19.102678999999998
#
# number of rings (size 3 to 8) (size 9 to 14) (size 15 to 20)
#    0.000    1.429    4.286    4.286    2.000    3.429 
#    0.000    4.286    0.000    0.000    0.000    0.000 
#    0.000    0.000    0.000    0.000    0.000    0.000 
#
# Total GULP energy -78048.076918 kJ/mol
# GULP energy per Si atom -5574.862637 kJ/mol
# Density = 1.905920 g / cm^3
# Si number density = 19.102679 Si / 1000 Ang^3
#
#
#
# Elastic Constant Matrix: (Units=GPa)
#
#
# Indices 1 2 3 4 5 6 
#
# 1 155.1438 32.3427 39.5872 12.6518 9.5273 -5.7188
# 2 32.3427 27.8245 18.6989 5.5115 17.3022 1.8599
# 3 39.5872 18.6989 92.0370 22.2590 2.8089 -6.1449
# 4 12.6518 5.5115 22.2590 30.1352 10.1753 1.7355
# 5 9.5273 17.3022 2.8089 10.1753 29.0505 -2.0548
# 6 -5.7188 1.8599 -6.1449 1.7355 -2.0548 30.0853
#
#
#
# Elastic Compliance Matrix: (Units=1/GPa)
#
#
# Indices 1 2 3 4 5 6 
#
# 1 0.009652 -0.015374 -0.000065 -0.003975 0.007639 0.003523
# 2 -0.015374 0.104067 -0.019949 0.025300 -0.065240 -0.019346
# 3 -0.000065 -0.019949 0.018823 -0.016117 0.016230 0.007104
# 4 -0.003975 0.025300 -0.016117 0.053459 -0.031699 -0.010860
# 5 0.007639 -0.065240 0.016230 -0.031699 0.081453 0.016192
# 6 0.003523 -0.019346 0.007104 -0.010860 0.016192 0.038288
#
#
# Mechanical properties :
#
#
# Convention : Reuss Voigt Hill
#
# Bulk Modulus (GPa) = 16.19035 50.69587 33.44311
# Shear Modulus (GPa) = 12.59110 30.14598 21.36854
#
# Velocity S-wave (km/s) = 2.57013 3.97684 3.34820
# Velocity P-wave (km/s) = 4.15948 6.90531 5.70020
#
# Compressibility (1/GPa) = 0.06176519
#
# Stress axis : x y z
#
# Youngs Moduli (GPa) = 103.60463 9.60922 53.12687
#
# Poissons Ratio (x) = 0.14773 0.00343
# Poissons Ratio (y) = 1.59284 1.05985
# Poissons Ratio (z) = 0.00670 0.19170
#
# Static dielectric constant tensor:
#      x y z
#    x 1.697610 0.007050 -0.019000 
#    y 0.007050 1.663260 -0.031230 
#    z -0.019000 -0.031230 1.705850 
# 
# From -- ./inp_files/204989.got.cif
#   From: 2010.05.17/outbox.cif.g08.bks.cpg/sg2_103_cif.got.tgz:204989.got - 2010.06.03 11:33:40.
