data_PCOD9080556
_publ_section_title
;
Structure prediction by ZEFSAII (Michael W. Deem and Ramdas Pophale) SiO2 
 PCOD9080556
Probable space group: P -1
;
_chemical_formula_sum "Si O2"
_cell_formula_units_Z 14
_cell_length_a 15.128817
_cell_length_b 12.460030
_cell_length_c 9.247215
_cell_angle_alpha 57.579913
_cell_angle_beta 123.989349
_cell_angle_gamma 151.726800
_cell_volume 680.346936
_symmetry_space_group_name_H-M "P -1"
_symmetry_group_IT_number 2
_symmetry_cell_setting 'triclinic'
loop_
_space_group_symop_operation_xyz
x,y,z
-x,-y,-z
loop_
_atom_site_type_symbol
_atom_site_label
_atom_site_fract_x
_atom_site_fract_y
_atom_site_fract_z
Si Si1 0.135901 0.831370 0.711399
Si Si2 0.146556 0.841218 0.044362
Si Si3 0.977262 0.991761 0.155111
Si Si4 0.739288 0.563149 0.439997
Si Si5 0.128539 0.588697 0.691064
Si Si6 0.213288 0.186950 0.487032
Si Si7 0.524444 0.164208 0.337055
O O1 0.199702 0.787866 0.688724
O O2 0.915003 0.650516 0.599378
O O3 0.252765 0.078834 0.628045
O O4 0.152322 0.802275 0.912001
O O5 0.993466 0.608612 0.161345
O O6 0.341521 0.019352 0.181842
O O7 0.093720 0.937456 0.924789
O O8 0.833549 0.744158 0.269234
O O9 0.174817 0.170121 0.295503
O O10 0.000000 0.000000 0.000000
O O11 0.668653 0.589857 0.481411
O O12 0.577930 0.315925 0.402024
O O13 0.296075 0.667672 0.727054
O O14 0.000000 0.500000 0.500000
O O15 0.000000 0.000000 0.500000
O O16 0.500000 0.000000 0.500000
#
# Coordination Sequence:
#
# PCOD9080556 Si02
#       7
#     2   2   2   2   2   2   2
#     4  10  19  40  66  91 126 172 207 257 317 374
#     4  12  23  41  66  95 129 166 213 262 320 368
#     4  10  19  33  65 100 122 161 214 258 307 382
#     4  10  18  40  62  89 126 164 209 247 321 383
#     4  12  24  41  67  92 122 174 219 252 316 382
#     4   8  16  34  61  89 119 165 209 243 316 383
#     4  12  26  41  64  97 127 167 214 266 316 369
#
# _framework density 20.577736000000002
#
# number of rings (size 3 to 8) (size 9 to 14) (size 15 to 20)
#    0.000    1.714    7.143    1.286    2.000    1.143 
#    0.000    0.000    0.000    1.714    0.000    1.000 
#    0.000    0.000    0.000    0.000    0.000    0.000 
#
# Total GULP energy -78212.310185 kJ/mol
# GULP energy per Si atom -5586.593585 kJ/mol
# Density = 2.053090 g / cm^3
# Si number density = 20.577736 Si / 1000 Ang^3
#
#
#
# Elastic Constant Matrix: (Units=GPa)
#
#
# Indices 1 2 3 4 5 6 
#
# 1 63.6370 35.7541 18.5584 8.4598 -23.5118 -33.5329
# 2 35.7541 82.0631 43.3669 0.3374 -7.2865 -29.2962
# 3 18.5584 43.3669 123.3682 -2.7260 -25.6930 -14.5842
# 4 8.4598 0.3374 -2.7260 19.8932 -6.2769 -0.5354
# 5 -23.5118 -7.2865 -25.6930 -6.2769 43.1748 7.8408
# 6 -33.5329 -29.2962 -14.5842 -0.5354 7.8408 35.2721
#
#
#
# Elastic Compliance Matrix: (Units=1/GPa)
#
#
# Indices 1 2 3 4 5 6 
#
# 1 0.044578 -0.007636 0.003214 -0.012100 0.017078 0.033387
# 2 -0.007636 0.021912 -0.006698 0.000277 -0.006139 0.009539
# 3 0.003214 -0.006698 0.011766 0.002877 0.007924 0.000640
# 4 -0.012100 0.000277 0.002877 0.057220 0.005379 -0.010411
# 5 0.017078 -0.006139 0.007924 0.005379 0.035734 0.006552
# 6 0.033387 0.009539 0.000640 -0.010411 0.006552 0.066665
#
#
# Mechanical properties :
#
#
# Convention : Reuss Voigt Hill
#
# Bulk Modulus (GPa) = 17.85186 51.60300 34.72743
# Shear Modulus (GPa) = 17.93486 31.09395 24.51440
#
# Velocity S-wave (km/s) = 2.95543 3.89144 3.45528
# Velocity P-wave (km/s) = 4.51002 6.73221 5.72987
#
# Compressibility (1/GPa) = 0.05601658
#
# Stress axis : x y z
#
# Youngs Moduli (GPa) = 22.43259 45.63771 84.98769
#
# Poissons Ratio (x) = 0.34848 -0.27319
# Poissons Ratio (y) = 0.17129 0.56928
# Poissons Ratio (z) = -0.07211 0.30570
#
# Static dielectric constant tensor:
#      x y z
#    x 1.759810 0.002070 -0.014380 
#    y 0.002070 1.774180 0.003690 
#    z -0.014380 0.003690 1.711980 
# 
# From -- ./inp_files/306819.got.cif
#   From: 2010.05.17/outbox.cif.g08.bks.cpg/sg2_154_cif.got.tgz:306819.got - 2010.06.03 11:33:40.
