data_PCOD9080271
_publ_section_title
;
Structure prediction by ZEFSAII (Michael W. Deem and Ramdas Pophale) SiO2 
 PCOD9080271
Probable space group: P -1
;
_chemical_formula_sum "Si O2"
_cell_formula_units_Z 15
_cell_length_a 9.358175
_cell_length_b 14.930157
_cell_length_c 11.408455
_cell_angle_alpha 53.543444
_cell_angle_beta 45.819525
_cell_angle_gamma 89.175361
_cell_volume 662.844418
_symmetry_space_group_name_H-M "P -1"
_symmetry_group_IT_number 2
_symmetry_cell_setting 'triclinic'
loop_
_space_group_symop_operation_xyz
x,y,z
-x,-y,-z
loop_
_atom_site_type_symbol
_atom_site_label
_atom_site_fract_x
_atom_site_fract_y
_atom_site_fract_z
Si Si1 0.184334 0.865500 0.247817
Si Si2 0.447374 0.543779 0.312304
Si Si3 0.000000 0.000000 0.500000
Si Si4 0.859067 0.953749 0.338516
Si Si5 0.238112 0.407830 0.132680
Si Si6 0.661618 0.278984 0.877041
Si Si7 0.762442 0.338894 0.048513
Si Si8 0.135338 0.278842 0.862624
O O1 0.178372 0.758276 0.248779
O O2 0.058001 0.927261 0.216239
O O3 0.995113 0.763734 0.548737
O O4 0.500000 0.000000 0.000000
O O5 0.278338 0.581583 0.329770
O O6 0.265704 0.370470 0.595277
O O7 0.613703 0.649009 0.249116
O O8 0.656473 0.591445 0.053180
O O9 0.904172 0.989916 0.424447
O O10 0.670168 0.867435 0.830695
O O11 0.542092 0.797412 0.618555
O O12 0.940702 0.096986 0.112624
O O13 0.500000 0.500000 0.000000
O O14 0.142827 0.498429 0.109163
O O15 0.722413 0.311335 0.953676
O O16 0.972044 0.322266 0.974855
#
# Coordination Sequence:
#
# PCOD9080271 Si02
#       8
#     2   2   1   2   2   2   2   2
#     4  12  24  39  70 108 132 173 235 289 334 399
#     4  11  24  45  70  95 139 185 226 284 342 413
#     4  10  18  38  68  94 128 174 222 286 326 388
#     4  11  22  42  65  99 140 176 226 286 342 405
#     4  12  24  44  73 100 138 174 232 294 336 395
#     4  11  22  40  72 100 132 176 234 280 336 405
#     4  11  25  42  70 101 133 182 228 283 351 407
#     4  11  25  43  67  99 141 184 223 276 356 416
#
# _framework density 22.629745
#
# number of rings (size 3 to 8) (size 9 to 14) (size 15 to 20)
#    0.000    0.800    5.333    2.000    1.867    2.667 
#    0.000    5.333    0.000    0.000    0.000    0.000 
#    0.000    0.000    0.000    0.000    0.000    0.000 
#
# Total GULP energy -83764.595328 kJ/mol
# GULP energy per Si atom -5584.306355 kJ/mol
# Density = 2.257824 g / cm^3
# Si number density = 22.629745 Si / 1000 Ang^3
#
#
#
# Elastic Constant Matrix: (Units=GPa)
#
#
# Indices 1 2 3 4 5 6 
#
# 1 61.6782 13.1830 22.0650 -2.8736 2.0336 -12.9314
# 2 13.1830 90.4004 16.6829 2.5096 21.3746 -33.1917
# 3 22.0650 16.6829 141.2209 -5.3728 1.2081 -13.2598
# 4 -2.8736 2.5096 -5.3728 36.9202 -5.4389 4.6110
# 5 2.0336 21.3746 1.2081 -5.4389 32.7317 -3.5093
# 6 -12.9314 -33.1917 -13.2598 4.6110 -3.5093 42.9048
#
#
#
# Elastic Compliance Matrix: (Units=1/GPa)
#
#
# Indices 1 2 3 4 5 6 
#
# 1 0.018091 -0.000702 -0.002334 0.000596 -0.000039 0.004121
# 2 -0.000702 0.019509 -0.000956 -0.005052 -0.011984 0.014148
# 3 -0.002334 -0.000956 0.007673 0.001000 0.000747 0.000882
# 4 0.000596 -0.005052 0.001000 0.029469 0.007481 -0.005975
# 5 -0.000039 -0.011984 0.000747 0.007481 0.038879 -0.006676
# 6 0.004121 0.014148 0.000882 -0.005975 -0.006676 0.035863
#
#
# Mechanical properties :
#
#
# Convention : Reuss Voigt Hill
#
# Bulk Modulus (GPa) = 26.81692 44.12904 35.47298
# Shear Modulus (GPa) = 29.42926 38.60258 34.01592
#
# Velocity S-wave (km/s) = 3.61011 4.13465 3.88126
# Velocity P-wave (km/s) = 5.40863 6.50666 5.98289
#
# Compressibility (1/GPa) = 0.03728989
#
# Stress axis : x y z
#
# Youngs Moduli (GPa) = 55.27561 51.25803 130.32421
#
# Poissons Ratio (x) = 0.03597 0.30415
# Poissons Ratio (y) = 0.03879 0.12463
# Poissons Ratio (z) = 0.12900 0.04902
#
# Static dielectric constant tensor:
#      x y z
#    x 1.801120 -0.018630 -0.013600 
#    y -0.018630 1.845470 0.002250 
#    z -0.013600 0.002250 1.846990 
# 
# From -- ./inp_files/338673.got.cif
#   From: 2010.05.17/outbox.cif.g08.bks.cpg/sg2_170_cif.got.tgz:338673.got - 2010.06.03 11:33:40.
