data_PCOD9080119
_publ_section_title
;
Structure prediction by ZEFSAII (Michael W. Deem and Ramdas Pophale) SiO2 
 PCOD9080119
Probable space group: P -1
;
_chemical_formula_sum "Si O2"
_cell_formula_units_Z 16
_cell_length_a 8.351529
_cell_length_b 12.730058
_cell_length_c 14.308461
_cell_angle_alpha 70.476389
_cell_angle_beta 152.609932
_cell_angle_gamma 110.240745
_cell_volume 655.323154
_symmetry_space_group_name_H-M "P -1"
_symmetry_group_IT_number 2
_symmetry_cell_setting 'triclinic'
loop_
_space_group_symop_operation_xyz
x,y,z
-x,-y,-z
loop_
_atom_site_type_symbol
_atom_site_label
_atom_site_fract_x
_atom_site_fract_y
_atom_site_fract_z
Si Si1 0.616782 0.039026 0.944851
Si Si2 0.450572 0.716494 0.184267
Si Si3 0.650455 0.337016 0.206272
Si Si4 0.906264 0.111856 0.365323
Si Si5 0.452840 0.424561 0.889040
Si Si6 0.349473 0.320064 0.256611
Si Si7 0.298893 0.105787 0.372295
Si Si8 0.709343 0.479682 0.708803
O O1 0.440977 0.151018 0.792124
O O2 0.502429 0.931853 0.854697
O O3 0.021749 0.079038 0.152230
O O4 0.500000 0.000000 0.000000
O O5 0.375640 0.646722 0.260786
O O6 0.658729 0.647753 0.238912
O O7 0.069149 0.706063 0.939175
O O8 0.907923 0.239804 0.362900
O O9 0.449962 0.343428 0.001675
O O10 0.432909 0.309338 0.195273
O O11 0.770802 0.470588 0.244199
O O12 0.116682 0.114877 0.375611
O O13 0.000000 0.000000 0.500000
O O14 0.866270 0.483083 0.083985
O O15 0.515683 0.224649 0.427952
O O16 0.428818 0.441809 0.305438
O O17 0.500000 0.000000 0.500000
O O18 0.500000 0.500000 0.500000
#
# Coordination Sequence:
#
# PCOD9080119 Si02
#       8
#     2   2   2   2   2   2   2   2
#     4   9  20  38  63  90 119 160 208 254 311 370
#     4  10  18  38  64  85 119 163 209 251 306 374
#     4  11  20  36  65  88 119 160 210 252 314 376
#     4  11  23  40  62  91 127 165 209 265 317 369
#     4  10  20  37  63  89 118 160 206 252 313 381
#     4  10  19  38  61  86 120 163 206 250 307 377
#     4  10  21  41  64  89 120 168 213 258 310 371
#     4  11  21  37  58  90 125 158 204 259 313 366
#
# _framework density 24.415434000000001
#
# number of rings (size 3 to 8) (size 9 to 14) (size 15 to 20)
#    0.000    1.750    2.500    4.500    0.000    2.000 
#    2.250    6.250    5.500    0.000    0.000    0.000 
#    0.000    0.000    0.000    0.000    0.000    0.000 
#
# Total GULP energy -89235.296315 kJ/mol
# GULP energy per Si atom -5577.206020 kJ/mol
# Density = 2.435986 g / cm^3
# Si number density = 24.415434 Si / 1000 Ang^3
#
#
#
# Elastic Constant Matrix: (Units=GPa)
#
#
# Indices 1 2 3 4 5 6 
#
# 1 108.3585 47.6953 3.9325 -16.2333 -9.7314 0.2150
# 2 47.6953 162.2838 48.6175 -39.5755 4.9060 6.0116
# 3 3.9325 48.6175 57.5667 -18.2205 -1.0276 -1.4441
# 4 -16.2333 -39.5755 -18.2205 52.5955 7.9246 -4.1970
# 5 -9.7314 4.9060 -1.0276 7.9246 23.3055 -19.7090
# 6 0.2150 6.0116 -1.4441 -4.1970 -19.7090 43.1508
#
#
#
# Elastic Compliance Matrix: (Units=1/GPa)
#
#
# Indices 1 2 3 4 5 6 
#
# 1 0.012579 -0.005593 0.004179 -0.000186 0.012035 0.006335
# 2 -0.005593 0.012704 -0.008808 0.006295 -0.014246 -0.007931
# 3 0.004179 -0.008808 0.025706 0.002676 0.009435 0.006636
# 4 -0.000186 0.006295 0.002676 0.026391 -0.014262 -0.004734
# 5 0.012035 -0.014246 0.009435 -0.014262 0.092742 0.043213
# 6 0.006335 -0.007931 0.006636 -0.004734 0.043213 0.043747
#
#
# Mechanical properties :
#
#
# Convention : Reuss Voigt Hill
#
# Bulk Modulus (GPa) = 32.73763 58.74441 45.74102
# Shear Modulus (GPa) = 20.45041 39.00794 29.72918
#
# Velocity S-wave (km/s) = 2.89727 4.00143 3.49325
# Velocity P-wave (km/s) = 4.96286 6.74249 5.91993
#
# Compressibility (1/GPa) = 0.03054589
#
# Stress axis : x y z
#
# Youngs Moduli (GPa) = 79.49702 78.71459 38.90140
#
# Poissons Ratio (x) = 0.44023 -0.16257
# Poissons Ratio (y) = 0.44461 0.34264
# Poissons Ratio (z) = -0.33221 0.69331
#
# Static dielectric constant tensor:
#      x y z
#    x 1.899700 0.002190 -0.034160 
#    y 0.002190 2.032810 -0.005070 
#    z -0.034160 -0.005070 2.006710 
# 
# From -- ./inp_files/461149.got.cif
#   From: 2010.05.17/outbox.cif.g08.bks.cpg/sg2_231_cif.got.tgz:461149.got - 2010.06.03 11:33:40.
