data_PCOD9080248
_publ_section_title
;
Structure prediction by ZEFSAII (Michael W. Deem and Ramdas Pophale) SiO2 
 PCOD9080248
Probable space group: P -1
;
_chemical_formula_sum "Si O2"
_cell_formula_units_Z 14
_cell_length_a 6.951224
_cell_length_b 12.284531
_cell_length_c 10.036819
_cell_angle_alpha 102.829808
_cell_angle_beta 65.806793
_cell_angle_gamma 129.363256
_cell_volume 603.563141
_symmetry_space_group_name_H-M "P -1"
_symmetry_group_IT_number 2
_symmetry_cell_setting 'triclinic'
loop_
_space_group_symop_operation_xyz
x,y,z
-x,-y,-z
loop_
_atom_site_type_symbol
_atom_site_label
_atom_site_fract_x
_atom_site_fract_y
_atom_site_fract_z
Si Si1 0.953502 0.789178 0.744968
Si Si2 0.054265 0.049937 0.650757
Si Si3 0.081665 0.750550 0.179061
Si Si4 0.501365 0.510933 0.161807
Si Si5 0.373745 0.749402 0.552508
Si Si6 0.234986 0.743392 0.863285
Si Si7 0.038177 0.527453 0.287804
O O1 0.652687 0.647033 0.779155
O O2 0.155170 0.776353 0.596547
O O3 0.053937 0.785651 0.863616
O O4 0.988790 0.927124 0.733622
O O5 0.913986 0.119622 0.748782
O O6 0.375240 0.171732 0.590341
O O7 0.000000 0.000000 0.500000
O O8 0.790465 0.627417 0.168030
O O9 0.101544 0.673926 0.276722
O O10 0.287094 0.784292 0.012277
O O11 0.301848 0.547667 0.258768
O O12 0.500000 0.500000 0.000000
O O13 0.453894 0.802306 0.700162
O O14 0.203173 0.580954 0.573883
O O15 0.064384 0.574572 0.842584
#
# Coordination Sequence:
#
# PCOD9080248 Si02
#       7
#     2   2   2   2   2   2   2
#     4   8  19  40  64  80 123 156 203 249 298 365
#     4  12  26  40  54  89 126 171 204 238 301 366
#     4  12  21  38  66  95 125 152 202 259 301 361
#     4  10  18  38  67  98 113 159 198 251 323 349
#     4   7  18  41  60  78 119 165 194 245 308 339
#     4   7  17  36  65  90 112 156 194 253 319 332
#     4   8  19  36  62  94 126 144 198 261 299 365
#
# _framework density 23.195582999999999
#
# number of rings (size 3 to 8) (size 9 to 14) (size 15 to 20)
#    1.714    1.143    2.857    0.857    2.000    1.143 
#    5.143    2.143    0.000    0.000    0.000    0.000 
#    0.000    0.000    0.000    0.000    0.000    0.000 
#
# Total GULP energy -78042.445062 kJ/mol
# GULP energy per Si atom -5574.460362 kJ/mol
# Density = 2.314279 g / cm^3
# Si number density = 23.195583 Si / 1000 Ang^3
#
#
#
# Elastic Constant Matrix: (Units=GPa)
#
#
# Indices 1 2 3 4 5 6 
#
# 1 36.1589 35.3083 13.3554 -13.4681 -6.3192 -13.1274
# 2 35.3083 94.5125 58.1238 -9.7588 47.4735 -41.4270
# 3 13.3554 58.1238 86.3037 5.7848 -9.4208 -6.9617
# 4 -13.4681 -9.7588 5.7848 33.7061 -2.9719 6.4001
# 5 -6.3192 47.4735 -9.4208 -2.9719 -16.6593 -5.1102
# 6 -13.1274 -41.4270 -6.9617 6.4001 -5.1102 46.7089
#
#
#
# Elastic Compliance Matrix: (Units=1/GPa)
#
#
# Indices 1 2 3 4 5 6 
#
# 1 0.035060 0.001109 -0.007654 0.013460 -0.010275 0.006728
# 2 0.001109 0.006587 -0.002365 0.002872 0.016948 0.007262
# 3 -0.007654 -0.002365 0.013555 -0.006462 -0.009613 -0.002394
# 4 0.013460 0.002872 -0.006462 0.036932 0.000048 0.000311
# 5 -0.010275 0.016948 -0.009613 0.000048 -0.005504 0.010102
# 6 0.006728 0.007262 -0.002394 0.000311 0.010102 0.030447
#
#
# Mechanical properties :
#
#
# Convention : Reuss Voigt Hill
#
# Bulk Modulus (GPa) = 26.74975 47.83889 37.29432
# Shear Modulus (GPa) = 33.93133 20.09699 27.01416
#
# Velocity S-wave (km/s) = 3.82885 2.94669 3.41636
# Velocity P-wave (km/s) = 5.57711 5.67857 5.62807
#
# Compressibility (1/GPa) = 0.03738352
#
# Stress axis : x y z
#
# Youngs Moduli (GPa) = 28.52257 151.80821 73.77604
#
# Poissons Ratio (x) = -0.16837 0.56465
# Poissons Ratio (y) = -0.03163 0.17445
# Poissons Ratio (z) = 0.21830 0.35897
#
# Static dielectric constant tensor:
#      x y z
#    x 1.907900 0.038550 0.017960 
#    y 0.038550 1.871940 0.018040 
#    z 0.017960 0.018040 1.905640 
# 
# From -- ./inp_files/390376.got.cif
#   From: 2010.05.17/outbox.cif.g08.bks.cpg/sg2_196_cif.got.tgz:390376.got - 2010.06.03 11:33:40.
