data_PCOD9080035
_publ_section_title
;
Structure prediction by ZEFSAII (Michael W. Deem and Ramdas Pophale) SiO2 
 PCOD9080035
Probable space group: P -1
;
_chemical_formula_sum "Si O2"
_cell_formula_units_Z 16
_cell_length_a 14.477324
_cell_length_b 12.062398
_cell_length_c 6.198801
_cell_angle_alpha 50.866719
_cell_angle_beta 51.309209
_cell_angle_gamma 65.359133
_cell_volume 654.944990
_symmetry_space_group_name_H-M "P -1"
_symmetry_group_IT_number 2
_symmetry_cell_setting 'triclinic'
loop_
_space_group_symop_operation_xyz
x,y,z
-x,-y,-z
loop_
_atom_site_type_symbol
_atom_site_label
_atom_site_fract_x
_atom_site_fract_y
_atom_site_fract_z
Si Si1 0.362004 0.506680 0.844805
Si Si2 0.928548 0.355751 0.568674
Si Si3 0.184832 0.860418 0.707656
Si Si4 0.573837 0.233587 0.307375
Si Si5 0.354747 0.264242 0.844489
Si Si6 0.722860 0.260716 0.667444
Si Si7 0.819433 0.642512 0.391036
Si Si8 0.145835 0.159086 0.544780
O O1 0.424258 0.599707 0.823620
O O2 0.415578 0.378276 0.775847
O O3 0.312271 0.620574 0.603573
O O4 0.259162 0.431660 0.219314
O O5 0.821897 0.318344 0.610488
O O6 0.928312 0.527332 0.352123
O O7 0.052218 0.274521 0.435869
O O8 0.885529 0.278517 0.945922
O O9 0.313518 0.845123 0.650473
O O10 0.213028 0.865393 0.407951
O O11 0.116753 0.998044 0.732510
O O12 0.452132 0.185205 0.647478
O O13 0.606846 0.224855 0.018880
O O14 0.261748 0.340886 0.720736
O O15 0.273819 0.172589 0.229120
O O16 0.848486 0.793282 0.271923
#
# Coordination Sequence:
#
# PCOD9080035 Si02
#       8
#     2   2   2   2   2   2   2   2
#     4  10  18  38  61  95 125 154 201 258 309 363
#     4  11  21  43  68  93 118 164 210 263 302 361
#     4  10  23  44  64  93 121 164 213 254 303 366
#     4  10  21  38  64  91 124 162 205 258 302 364
#     4  11  24  38  59  96 129 162 201 250 318 371
#     4  10  19  37  67  90 120 157 214 251 305 354
#     4  11  22  41  62  96 130 156 205 255 314 368
#     4  11  27  41  62  90 133 167 201 252 314 369
#
# _framework density 24.429534
#
# number of rings (size 3 to 8) (size 9 to 14) (size 15 to 20)
#    0.000    1.500    5.000    1.125    0.000   10.500 
#    0.000    1.250    0.000    0.000    0.000    0.000 
#    0.000    0.000    0.000    0.000    0.000    0.000 
#
# Total GULP energy -89365.220490 kJ/mol
# GULP energy per Si atom -5585.326281 kJ/mol
# Density = 2.437393 g / cm^3
# Si number density = 24.429534 Si / 1000 Ang^3
#
#
#
# Elastic Constant Matrix: (Units=GPa)
#
#
# Indices 1 2 3 4 5 6 
#
# 1 63.7219 27.1668 19.6858 9.3142 2.1937 -9.9480
# 2 27.1668 130.4005 38.7384 21.8104 -1.2372 10.7620
# 3 19.6858 38.7384 64.9434 25.5709 -1.6121 -5.6418
# 4 9.3142 21.8104 25.5709 25.9045 -4.4952 -3.1115
# 5 2.1937 -1.2372 -1.6121 -4.4952 28.6039 13.7116
# 6 -9.9480 10.7620 -5.6418 -3.1115 13.7116 26.4880
#
#
#
# Elastic Compliance Matrix: (Units=1/GPa)
#
#
# Indices 1 2 3 4 5 6 
#
# 1 0.020996 -0.004763 -0.001970 -0.001460 -0.008753 0.013761
# 2 -0.004763 0.011644 -0.004840 -0.003703 0.005111 -0.010632
# 3 -0.001970 -0.004840 0.028707 -0.023648 -0.005778 0.007554
# 4 -0.001460 -0.003703 -0.023648 0.067135 0.009769 -0.001252
# 5 -0.008753 0.005111 -0.005778 0.009769 0.052767 -0.032762
# 6 0.013761 -0.010632 0.007554 -0.001252 -0.032762 0.065662
#
#
# Mechanical properties :
#
#
# Convention : Reuss Voigt Hill
#
# Bulk Modulus (GPa) = 26.17859 47.80531 36.99195
# Shear Modulus (GPa) = 17.68090 27.76425 22.72258
#
# Velocity S-wave (km/s) = 2.69318 3.37486 3.05311
# Velocity P-wave (km/s) = 4.51776 5.89893 5.25393
#
# Compressibility (1/GPa) = 0.03819915
#
# Stress axis : x y z
#
# Youngs Moduli (GPa) = 47.62919 85.87864 34.83513
#
# Poissons Ratio (x) = 0.40907 0.06862
# Poissons Ratio (y) = 0.22687 0.16862
# Poissons Ratio (z) = 0.09382 0.41569
#
# Static dielectric constant tensor:
#      x y z
#    x 1.968400 0.038960 -0.036040 
#    y 0.038960 2.022500 0.041590 
#    z -0.036040 0.041590 1.967690 
# 
# From -- ./inp_files/70132.got.cif
#   From: 2010.05.17/outbox.cif.g08.bks.cpg/sg2_36_cif.got.tgz:70132.got - 2010.06.03 11:33:40.
