data_PCOD9080713
_publ_section_title
;
Structure prediction by ZEFSAII (Michael W. Deem and Ramdas Pophale) SiO2 
 PCOD9080713
Probable space group: P -1
;
_chemical_formula_sum "Si O2"
_cell_formula_units_Z 16
_cell_length_a 9.856827
_cell_length_b 8.214630
_cell_length_c 19.742470
_cell_angle_alpha 150.572048
_cell_angle_beta 59.012144
_cell_angle_gamma 115.787466
_cell_volume 672.976704
_symmetry_space_group_name_H-M "P -1"
_symmetry_group_IT_number 2
_symmetry_cell_setting 'triclinic'
loop_
_space_group_symop_operation_xyz
x,y,z
-x,-y,-z
loop_
_atom_site_type_symbol
_atom_site_label
_atom_site_fract_x
_atom_site_fract_y
_atom_site_fract_z
Si Si1 0.037027 0.508590 0.888418
Si Si2 0.519599 0.646035 0.185580
Si Si3 0.717964 0.683096 0.952720
Si Si4 0.240613 0.977154 0.079739
Si Si5 0.331287 0.675053 0.618351
Si Si6 0.644661 0.392940 0.647711
Si Si7 0.876299 0.229571 0.417638
Si Si8 0.320002 0.604653 0.743259
O O1 0.088303 0.747677 0.023641
O O2 0.176716 0.564818 0.817616
O O3 0.869064 0.595357 0.928204
O O4 0.049279 0.115756 0.752901
O O5 0.406183 0.596554 0.132686
O O6 0.614799 0.299107 0.052468
O O7 0.412875 0.736068 0.311410
O O8 0.641925 0.931020 0.245801
O O9 0.762264 0.802670 0.908456
O O10 0.636716 0.009755 0.123276
O O11 0.275489 0.250302 0.227391
O O12 0.500000 0.500000 0.500000
O O13 0.227682 0.609914 0.556879
O O14 0.266534 0.549980 0.660751
O O15 0.768663 0.180435 0.494280
O O16 0.481730 0.420701 0.657185
O O17 0.000000 0.500000 0.500000
#
# Coordination Sequence:
#
# PCOD9080713 Si02
#       8
#     2   2   2   2   2   2   2   2
#     4  11  24  43  71  95 137 177 215 267 334 399
#     4  11  21  41  71 101 128 170 225 273 325 385
#     4  10  21  39  70 104 131 162 222 280 322 389
#     4  10  18  41  70 103 124 163 228 272 318 390
#     4  12  27  42  64  99 137 171 223 280 316 390
#     4  11  21  42  75  95 126 177 222 271 324 394
#     4  12  29  48  62  97 138 176 217 272 334 391
#     4  11  21  41  71 101 125 171 225 270 328 385
#
# _framework density 23.774967
#
# number of rings (size 3 to 8) (size 9 to 14) (size 15 to 20)
#    0.000    1.000    6.250    2.250    3.500    4.500 
#    2.250    4.375    0.000    0.000    0.000    0.000 
#    0.000    0.000    0.000    0.000    0.000    0.000 
#
# Total GULP energy -89483.147357 kJ/mol
# GULP energy per Si atom -5592.696710 kJ/mol
# Density = 2.372085 g / cm^3
# Si number density = 23.774967 Si / 1000 Ang^3
#
#
#
# Elastic Constant Matrix: (Units=GPa)
#
#
# Indices 1 2 3 4 5 6 
#
# 1 157.2982 15.9355 29.4793 21.0204 20.7323 13.2415
# 2 15.9355 71.7259 17.6372 -7.3607 12.2157 4.2276
# 3 29.4793 17.6372 79.9807 0.7468 7.3573 -7.6035
# 4 21.0204 -7.3607 0.7468 31.4333 -0.2688 8.4195
# 5 20.7323 12.2157 7.3573 -0.2688 39.2938 6.4116
# 6 13.2415 4.2276 -7.6035 8.4195 6.4116 23.8939
#
#
#
# Elastic Compliance Matrix: (Units=1/GPa)
#
#
# Indices 1 2 3 4 5 6 
#
# 1 0.008284 -0.000983 -0.002755 -0.005013 -0.003146 -0.002683
# 2 -0.000983 0.016418 -0.003468 0.005809 -0.003134 -0.004669
# 3 -0.002755 -0.003468 0.015200 -0.001468 -0.001618 0.007929
# 4 -0.005013 0.005809 -0.001468 0.040316 0.003659 -0.013905
# 5 -0.003146 -0.003134 -0.001618 0.003659 0.029628 -0.007457
# 6 -0.002683 -0.004669 0.007929 -0.013905 -0.007457 0.053588
#
#
# Mechanical properties :
#
#
# Convention : Reuss Voigt Hill
#
# Bulk Modulus (GPa) = 39.23345 48.34541 43.78943
# Shear Modulus (GPa) = 26.83217 35.32107 31.07662
#
# Velocity S-wave (km/s) = 3.36309 3.85858 3.61933
# Velocity P-wave (km/s) = 5.62302 6.34273 5.99369
#
# Compressibility (1/GPa) = 0.02548845
#
# Stress axis : x y z
#
# Youngs Moduli (GPa) = 120.71991 60.90771 65.79133
#
# Poissons Ratio (x) = 0.05990 0.18127
# Poissons Ratio (y) = 0.11872 0.22815
# Poissons Ratio (z) = 0.33261 0.21122
#
# Static dielectric constant tensor:
#      x y z
#    x 1.853850 0.002520 0.016210 
#    y 0.002520 1.992380 0.028380 
#    z 0.016210 0.028380 1.891800 
# 
# From -- ./inp_files/262062.got.cif
#   From: 2010.05.17/outbox.cif.g08.bks.cpg/sg2_132_cif.got.tgz:262062.got - 2010.06.03 11:33:40.
