data_PCOD9080418
_publ_section_title
;
Structure prediction by ZEFSAII (Michael W. Deem and Ramdas Pophale) SiO2 
 PCOD9080418
Probable space group: P -1
;
_chemical_formula_sum "Si O2"
_cell_formula_units_Z 16
_cell_length_a 10.129501
_cell_length_b 10.010599
_cell_length_c 15.639386
_cell_angle_alpha 34.187008
_cell_angle_beta 57.358157
_cell_angle_gamma 58.457976
_cell_volume 740.366565
_symmetry_space_group_name_H-M "P -1"
_symmetry_group_IT_number 2
_symmetry_cell_setting 'triclinic'
loop_
_space_group_symop_operation_xyz
x,y,z
-x,-y,-z
loop_
_atom_site_type_symbol
_atom_site_label
_atom_site_fract_x
_atom_site_fract_y
_atom_site_fract_z
Si Si1 0.454699 0.351573 0.870566
Si Si2 0.875674 0.370433 0.477169
Si Si3 0.659847 0.793402 0.399360
Si Si4 0.209172 0.079835 0.544412
Si Si5 0.378018 0.654624 0.898877
Si Si6 0.257549 0.943232 0.163128
Si Si7 0.947455 0.277319 0.086357
Si Si8 0.663878 0.329011 0.411032
O O1 0.439102 0.563910 0.831787
O O2 0.632369 0.239175 0.840879
O O3 0.358611 0.458821 0.763364
O O4 0.369280 0.136052 0.050328
O O5 0.820998 0.639723 0.388814
O O6 0.800204 0.200692 0.660946
O O7 0.794829 0.350212 0.424590
O O8 0.063294 0.278895 0.460009
O O9 0.678106 0.809869 0.487044
O O10 0.512185 0.666744 0.492663
O O11 0.626188 0.063859 0.234693
O O12 0.132592 0.887610 0.731324
O O13 0.292992 0.925344 0.519191
O O14 0.192735 0.623461 0.982714
O O15 0.500000 0.500000 0.000000
O O16 0.101710 0.100956 0.092472
O O17 0.000000 0.500000 0.000000
#
# Coordination Sequence:
#
# PCOD9080418 Si02
#       8
#     2   2   2   2   2   2   2   2
#     4  11  22  40  62  94 126 163 212 261 318 362
#     4  11  24  39  65  97 125 166 216 258 308 374
#     4  11  23  40  62  89 131 166 206 255 321 373
#     4  10  22  39  61  91 129 167 205 258 321 370
#     4  11  25  41  64  93 126 168 210 259 319 379
#     4  10  22  38  67  91 124 162 210 260 312 367
#     4  10  18  39  64  89 121 164 212 254 311 374
#     4  12  22  39  64  96 127 166 214 262 306 369
#
# _framework density 21.610914999999999
#
# number of rings (size 3 to 8) (size 9 to 14) (size 15 to 20)
#    0.000    1.250    5.000    1.500    1.750    1.000 
#    0.000    1.875    0.000    0.000    0.000    0.000 
#    0.000    0.000    0.000    0.000    0.000    0.000 
#
# Total GULP energy -89432.955691 kJ/mol
# GULP energy per Si atom -5589.559731 kJ/mol
# Density = 2.156173 g / cm^3
# Si number density = 21.610915 Si / 1000 Ang^3
#
#
#
# Elastic Constant Matrix: (Units=GPa)
#
#
# Indices 1 2 3 4 5 6 
#
# 1 135.2416 39.3866 32.6440 -4.3722 38.7755 -17.1661
# 2 39.3866 111.8434 10.3975 -22.2517 23.8723 -26.6845
# 3 32.6440 10.3975 64.9240 -23.2752 10.8708 -4.1015
# 4 -4.3722 -22.2517 -23.2752 27.6335 -8.7036 2.7736
# 5 38.7755 23.8723 10.8708 -8.7036 33.3437 -9.4712
# 6 -17.1661 -26.6845 -4.1015 2.7736 -9.4712 45.0949
#
#
#
# Elastic Compliance Matrix: (Units=1/GPa)
#
#
# Indices 1 2 3 4 5 6 
#
# 1 0.014284 -0.003561 -0.008647 -0.012459 -0.014415 0.000283
# 2 -0.003561 0.014598 0.005409 0.014312 -0.002530 0.006363
# 3 -0.008647 0.005409 0.028280 0.028146 0.004810 0.001760
# 4 -0.012459 0.014312 0.028146 0.073916 0.015797 0.005058
# 5 -0.014415 -0.002530 0.004810 0.015797 0.052092 0.003422
# 6 0.000283 0.006363 0.001760 0.005058 0.003422 0.026616
#
#
# Mechanical properties :
#
#
# Convention : Reuss Voigt Hill
#
# Bulk Modulus (GPa) = 22.95457 52.98502 37.96979
# Shear Modulus (GPa) = 21.01661 36.51981 28.76821
#
# Velocity S-wave (km/s) = 3.12188 4.11527 3.65250
# Velocity P-wave (km/s) = 4.86206 6.86670 5.94942
#
# Compressibility (1/GPa) = 0.04356431
#
# Stress axis : x y z
#
# Youngs Moduli (GPa) = 70.00608 68.50287 35.36019
#
# Poissons Ratio (x) = 0.24395 0.30577
# Poissons Ratio (y) = 0.24931 -0.19127
# Poissons Ratio (z) = 0.60536 -0.37055
#
# Static dielectric constant tensor:
#      x y z
#    x 1.794260 -0.016550 -0.002970 
#    y -0.016550 1.784160 -0.005990 
#    z -0.002970 -0.005990 1.811120 
# 
# From -- ./inp_files/279192.got.cif
#   From: 2010.05.17/outbox.cif.g08.bks.cpg/sg2_140_cif.got.tgz:279192.got - 2010.06.03 11:33:40.
