data_PCOD9080322
_publ_section_title
;
Structure prediction by ZEFSAII (Michael W. Deem and Ramdas Pophale) SiO2 
 PCOD9080322
Probable space group: P -1
;
_chemical_formula_sum "Si O2"
_cell_formula_units_Z 15
_cell_length_a 14.687205
_cell_length_b 10.956163
_cell_length_c 8.947684
_cell_angle_alpha 90.226166
_cell_angle_beta 97.594020
_cell_angle_gamma 150.417584
_cell_volume 683.463913
_symmetry_space_group_name_H-M "P -1"
_symmetry_group_IT_number 2
_symmetry_cell_setting 'triclinic'
loop_
_space_group_symop_operation_xyz
x,y,z
-x,-y,-z
loop_
_atom_site_type_symbol
_atom_site_label
_atom_site_fract_x
_atom_site_fract_y
_atom_site_fract_z
Si Si1 0.500000 0.500000 0.000000
Si Si2 0.101701 0.343248 0.369486
Si Si3 0.131099 0.409815 0.869269
Si Si4 0.483204 0.122894 0.534408
Si Si5 0.064110 0.695004 0.925071
Si Si6 0.485708 0.202201 0.884868
Si Si7 0.935081 0.303427 0.571938
Si Si8 0.077288 0.076642 0.848937
O O1 0.530763 0.398240 0.922060
O O2 0.280763 0.247910 0.894412
O O3 0.316685 0.590829 0.479395
O O4 0.072753 0.418190 0.240045
O O5 0.954473 0.211788 0.464257
O O6 0.059519 0.167549 0.279510
O O7 0.104937 0.245300 0.794953
O O8 0.086272 0.457504 0.736139
O O9 0.337968 0.659947 0.992821
O O10 0.967137 0.236177 0.958133
O O11 0.478168 0.150656 0.710414
O O12 0.500000 0.000000 0.500000
O O13 0.283203 0.937555 0.423737
O O14 0.280053 0.937595 0.914838
O O15 0.000000 0.500000 0.000000
O O16 0.000000 0.500000 0.500000
O O17 0.000000 0.000000 0.000000
#
# Coordination Sequence:
#
# PCOD9080322 Si02
#       8
#     1   2   2   2   2   2   2   2
#     4  10  18  38  72  98 132 168 228 284 346 398
#     4  12  23  44  68  98 137 186 223 282 351 406
#     4  11  26  42  70 105 132 177 237 288 343 408
#     4  12  25  42  69  98 135 190 229 272 352 420
#     4  12  24  39  67 100 137 176 226 282 338 411
#     4  11  23  43  70 105 131 180 233 290 341 410
#     4  12  26  46  65  95 143 181 225 284 348 410
#     4  11  20  41  70 101 137 173 229 293 341 404
#
# _framework density 21.947025
#
# number of rings (size 3 to 8) (size 9 to 14) (size 15 to 20)
#    0.000    0.533    6.667    1.600    0.000    3.200 
#    0.000    0.667    0.000    0.000    0.000    0.000 
#    0.000    0.000    0.000    0.000    0.000    0.000 
#
# Total GULP energy -83606.148231 kJ/mol
# GULP energy per Si atom -5573.743215 kJ/mol
# Density = 2.189707 g / cm^3
# Si number density = 21.947025 Si / 1000 Ang^3
#
#
#
# Elastic Constant Matrix: (Units=GPa)
#
#
# Indices 1 2 3 4 5 6 
#
# 1 112.0415 30.1103 40.0247 7.9303 -5.6410 22.0736
# 2 30.1103 74.8483 -3.8961 20.5754 4.3652 13.4324
# 3 40.0247 -3.8961 65.0631 7.5924 3.8749 0.8544
# 4 7.9303 20.5754 7.5924 35.0158 -1.9399 -2.3236
# 5 -5.6410 4.3652 3.8749 -1.9399 52.5840 9.5876
# 6 22.0736 13.4324 0.8544 -2.3236 9.5876 41.7669
#
#
#
# Elastic Compliance Matrix: (Units=1/GPa)
#
#
# Indices 1 2 3 4 5 6 
#
# 1 0.015930 -0.006625 -0.010645 0.002376 0.004398 -0.006948
# 2 -0.006625 0.020575 0.006973 -0.012476 -0.002789 -0.003312
# 3 -0.010645 0.006973 0.023335 -0.006753 -0.004332 0.003524
# 4 0.002376 -0.012476 -0.006753 0.037240 0.002355 0.004426
# 5 0.004398 -0.002789 -0.004332 0.002355 0.021236 -0.006082
# 6 -0.006948 -0.003312 0.003524 0.004426 -0.006082 0.030250
#
#
# Mechanical properties :
#
#
# Convention : Reuss Voigt Hill
#
# Bulk Modulus (GPa) = 25.47930 42.71450 34.09690
# Shear Modulus (GPa) = 27.43606 38.25427 32.84517
#
# Velocity S-wave (km/s) = 3.53952 4.17949 3.87274
# Velocity P-wave (km/s) = 5.32343 6.54184 5.96383
#
# Compressibility (1/GPa) = 0.03924755
#
# Stress axis : x y z
#
# Youngs Moduli (GPa) = 62.77291 48.60213 42.85378
#
# Poissons Ratio (x) = 0.32201 0.45616
# Poissons Ratio (y) = 0.41589 -0.29883
# Poissons Ratio (z) = 0.66819 -0.33891
#
# Static dielectric constant tensor:
#      x y z
#    x 1.841330 -0.010480 -0.013400 
#    y -0.010480 1.813670 -0.022190 
#    z -0.013400 -0.022190 1.833020 
# 
# From -- ./inp_files/307600.got.cif
#   From: 2010.05.17/outbox.cif.g08.bks.cpg/sg2_154_cif.got.tgz:307600.got - 2010.06.03 11:33:40.
