data_PCOD9080090
_publ_section_title
;
Structure prediction by ZEFSAII (Michael W. Deem and Ramdas Pophale) SiO2 
 PCOD9080090
Probable space group: P -1
;
_chemical_formula_sum "Si O2"
_cell_formula_units_Z 16
_cell_length_a 14.010838
_cell_length_b 6.705273
_cell_length_c 17.822281
_cell_angle_alpha 86.331706
_cell_angle_beta 30.321452
_cell_angle_gamma 98.748172
_cell_volume 768.829760
_symmetry_space_group_name_H-M "P -1"
_symmetry_group_IT_number 2
_symmetry_cell_setting 'triclinic'
loop_
_space_group_symop_operation_xyz
x,y,z
-x,-y,-z
loop_
_atom_site_type_symbol
_atom_site_label
_atom_site_fract_x
_atom_site_fract_y
_atom_site_fract_z
Si Si1 0.849679 0.614231 0.814129
Si Si2 0.074374 0.323798 0.640400
Si Si3 0.369240 0.752104 0.359653
Si Si4 0.947181 0.145206 0.093685
Si Si5 0.017482 0.935695 0.574050
Si Si6 0.798589 0.966299 0.352413
Si Si7 0.590873 0.193599 0.269579
Si Si8 0.372369 0.445953 0.882661
O O1 0.893485 0.407207 0.764518
O O2 0.829481 0.744617 0.751087
O O3 0.679453 0.538446 0.996130
O O4 0.056066 0.803165 0.710545
O O5 0.274044 0.548374 0.485764
O O6 0.087823 0.196432 0.708379
O O7 0.062536 0.153568 0.587146
O O8 0.194663 0.840309 0.456980
O O9 0.461424 0.659465 0.233123
O O10 0.549189 0.956211 0.270483
O O11 0.823611 0.279977 0.139991
O O12 0.791069 0.004079 0.268979
O O13 0.159415 0.287888 0.989561
O O14 0.000000 0.000000 0.000000
O O15 0.000000 0.000000 0.500000
O O16 0.582230 0.854156 0.546873
O O17 0.559820 0.336101 0.219431
#
# Coordination Sequence:
#
# PCOD9080090 Si02
#       8
#     2   2   2   2   2   2   2   2
#     4   9  21  36  60  89 117 154 198 240 292 355
#     4  10  18  38  63  87 112 157 197 237 295 352
#     4  11  20  38  62  87 118 153 202 239 293 359
#     4  11  24  37  54  86 124 158 205 257 288 335
#     4  10  21  39  66  95 118 147 191 242 298 362
#     4  10  20  38  57  82 117 158 206 244 292 344
#     4  12  21  39  57  83 118 164 203 245 294 343
#     4  11  23  39  59  84 124 162 200 244 298 342
#
# _framework density 20.810851
#
# number of rings (size 3 to 8) (size 9 to 14) (size 15 to 20)
#    0.000    1.500    6.250    0.750    1.750    3.000 
#    0.000    1.875    0.000    3.750    0.000    0.000 
#    0.000    0.000    0.000    0.000    0.000    0.000 
#
# Total GULP energy -89187.352616 kJ/mol
# GULP energy per Si atom -5574.209538 kJ/mol
# Density = 2.076349 g / cm^3
# Si number density = 20.810851 Si / 1000 Ang^3
#
#
#
# Elastic Constant Matrix: (Units=GPa)
#
#
# Indices 1 2 3 4 5 6 
#
# 1 68.0084 29.3931 22.1893 1.9098 32.7721 -19.6086
# 2 29.3931 123.4801 45.5431 8.2586 18.6322 -21.1806
# 3 22.1893 45.5431 110.4897 12.2047 38.6471 -7.7024
# 4 1.9098 8.2586 12.2047 26.9278 1.2085 1.0895
# 5 32.7721 18.6322 38.6471 1.2085 32.5665 -3.8538
# 6 -19.6086 -21.1806 -7.7024 1.0895 -3.8538 19.4243
#
#
#
# Elastic Compliance Matrix: (Units=1/GPa)
#
#
# Indices 1 2 3 4 5 6 
#
# 1 0.065941 0.000042 0.022109 -0.013287 -0.085115 0.059238
# 2 0.000042 0.011592 -0.003233 -0.002485 -0.001413 0.011259
# 3 0.022109 -0.003233 0.025096 -0.010629 -0.047427 0.019931
# 4 -0.013287 -0.002485 -0.010629 0.043328 0.023659 -0.018073
# 5 -0.085115 -0.001413 -0.047427 0.023659 0.163682 -0.075123
# 6 0.059238 0.011259 0.019931 -0.018073 -0.075123 0.117572
#
#
# Mechanical properties :
#
#
# Convention : Reuss Voigt Hill
#
# Bulk Modulus (GPa) = 7.11926 55.13657 31.12791
# Shear Modulus (GPa) = 11.46277 29.44055 20.45166
#
# Velocity S-wave (km/s) = 2.34947 3.76529 3.13827
# Velocity P-wave (km/s) = 3.28457 6.74203 5.30299
#
# Compressibility (1/GPa) = 0.14046412
#
# Stress axis : x y z
#
# Youngs Moduli (GPa) = 15.16511 86.27002 39.84765
#
# Poissons Ratio (x) = -0.00363 -0.88098
# Poissons Ratio (y) = -0.00064 0.12881
# Poissons Ratio (z) = -0.33528 0.27888
#
# Static dielectric constant tensor:
#      x y z
#    x 1.788950 -0.004490 -0.019550 
#    y -0.004490 1.735090 -0.015930 
#    z -0.019550 -0.015930 1.808010 
# 
# From -- ./inp_files/39009.got.cif
#   From: 2010.05.17/outbox.cif.g08.bks.cpg/sg2_20_cif.got.tgz:39009.got - 2010.06.03 11:33:40.
