data_PCOD9080100
_publ_section_title
;
Structure prediction by ZEFSAII (Michael W. Deem and Ramdas Pophale) SiO2 
 PCOD9080100
Probable space group: P -1
;
_chemical_formula_sum "Si O2"
_cell_formula_units_Z 16
_cell_length_a 14.779420
_cell_length_b 7.945014
_cell_length_c 7.816926
_cell_angle_alpha 100.347817
_cell_angle_beta 77.753570
_cell_angle_gamma 59.116034
_cell_volume 722.829998
_symmetry_space_group_name_H-M "P -1"
_symmetry_group_IT_number 2
_symmetry_cell_setting 'triclinic'
loop_
_space_group_symop_operation_xyz
x,y,z
-x,-y,-z
loop_
_atom_site_type_symbol
_atom_site_label
_atom_site_fract_x
_atom_site_fract_y
_atom_site_fract_z
Si Si1 0.491930 0.754172 0.399771
Si Si2 0.863944 0.561271 0.957555
Si Si3 0.797158 0.366881 0.408720
Si Si4 0.488440 0.654626 0.775591
Si Si5 0.689853 0.795781 0.359712
Si Si6 0.289715 0.525180 0.176643
Si Si7 0.749270 0.188203 0.075763
Si Si8 0.989703 0.755989 0.883688
O O1 0.513659 0.689192 0.579619
O O2 0.495043 0.569885 0.269192
O O3 0.588979 0.787048 0.314364
O O4 0.371699 0.977916 0.489763
O O5 0.786371 0.728841 0.168254
O O6 0.935315 0.339950 0.990435
O O7 0.779136 0.571217 0.858574
O O8 0.950231 0.602091 0.846254
O O9 0.747035 0.609263 0.439795
O O10 0.764421 0.341701 0.604299
O O11 0.742308 0.303014 0.275387
O O12 0.929136 0.247369 0.290233
O O13 0.578470 0.638865 0.864865
O O14 0.356600 0.828301 0.891938
O O15 0.270050 0.668760 0.051038
O O16 0.873530 0.979357 0.986251
#
# Coordination Sequence:
#
# PCOD9080100 Si02
#       8
#     2   2   2   2   2   2   2   2
#     4  10  19  35  66  92 127 174 212 246 321 385
#     4  10  22  43  66  93 128 166 215 265 321 374
#     4  11  22  42  69  92 130 166 212 267 318 370
#     4  11  21  39  61  98 134 165 206 265 317 382
#     4  10  18  38  63  92 124 170 209 256 311 379
#     4  12  24  40  66  96 130 170 207 267 322 371
#     4  12  23  44  66  94 130 170 214 257 316 386
#     4  10  23  44  69  91 123 176 213 264 318 371
#
# _framework density 22.135217999999998
#
# number of rings (size 3 to 8) (size 9 to 14) (size 15 to 20)
#    0.000    1.250    5.000    2.250    0.000    1.000 
#    2.250    2.500    0.000    0.000    0.000    0.000 
#    0.000    0.000    0.000    0.000    0.000    0.000 
#
# Total GULP energy -89448.813309 kJ/mol
# GULP energy per Si atom -5590.550832 kJ/mol
# Density = 2.208484 g / cm^3
# Si number density = 22.135218 Si / 1000 Ang^3
#
#
#
# Elastic Constant Matrix: (Units=GPa)
#
#
# Indices 1 2 3 4 5 6 
#
# 1 121.4946 15.5888 27.4655 -4.4454 -19.1197 -29.1259
# 2 15.5888 74.8813 15.8883 28.8407 3.1634 -26.2567
# 3 27.4655 15.8883 78.6938 -6.1204 -14.1719 -20.0862
# 4 -4.4454 28.8407 -6.1204 32.7884 -7.7202 -12.9732
# 5 -19.1197 3.1634 -14.1719 -7.7202 33.0098 4.6397
# 6 -29.1259 -26.2567 -20.0862 -12.9732 4.6397 30.9990
#
#
#
# Elastic Compliance Matrix: (Units=1/GPa)
#
#
# Indices 1 2 3 4 5 6 
#
# 1 0.014569 -0.004484 0.003598 0.016181 0.011775 0.017231
# 2 -0.004484 0.031014 -0.008783 -0.031321 -0.017491 0.005875
# 3 0.003598 -0.008783 0.022313 0.023018 0.015397 0.017727
# 4 0.016181 -0.031321 0.023018 0.087028 0.037781 0.034355
# 5 0.011775 -0.017491 0.015397 0.037781 0.052238 0.014218
# 6 0.017231 0.005875 0.017727 0.034355 0.014218 0.077162
#
#
# Mechanical properties :
#
#
# Convention : Reuss Voigt Hill
#
# Bulk Modulus (GPa) = 20.59433 43.66164 32.12798
# Shear Modulus (GPa) = 15.63245 33.76792 24.70018
#
# Velocity S-wave (km/s) = 2.66037 3.91004 3.34410
# Velocity P-wave (km/s) = 4.33138 6.33659 5.42739
#
# Compressibility (1/GPa) = 0.04855706
#
# Stress axis : x y z
#
# Youngs Moduli (GPa) = 68.64000 32.24357 44.81726
#
# Poissons Ratio (x) = 0.14458 -0.16124
# Poissons Ratio (y) = 0.30778 0.39363
# Poissons Ratio (z) = -0.24695 0.28320
#
# Static dielectric constant tensor:
#      x y z
#    x 1.861390 0.018430 -0.031130 
#    y 0.018430 1.836710 0.021550 
#    z -0.031130 0.021550 1.818270 
# 
# From -- ./inp_files/298818.got.cif
#   From: 2010.05.17/outbox.cif.g08.bks.cpg/sg2_150_cif.got.tgz:298818.got - 2010.06.03 11:33:40.
