data_PCOD9080432
_publ_section_title
;
Structure prediction by ZEFSAII (Michael W. Deem and Ramdas Pophale) SiO2 
 PCOD9080432
Probable space group: P -1
;
_chemical_formula_sum "Si O2"
_cell_formula_units_Z 12
_cell_length_a 16.345716
_cell_length_b 7.346081
_cell_length_c 9.972444
_cell_angle_alpha 136.891770
_cell_angle_beta 43.175849
_cell_angle_gamma 111.098341
_cell_volume 520.463359
_symmetry_space_group_name_H-M "P -1"
_symmetry_group_IT_number 2
_symmetry_cell_setting 'triclinic'
loop_
_space_group_symop_operation_xyz
x,y,z
-x,-y,-z
loop_
_atom_site_type_symbol
_atom_site_label
_atom_site_fract_x
_atom_site_fract_y
_atom_site_fract_z
Si Si1 0.425069 0.952566 0.738354
Si Si2 0.121830 0.230972 0.660798
Si Si3 0.783923 0.068160 0.859820
Si Si4 0.695892 0.691649 0.181139
Si Si5 0.139517 0.957928 0.756710
Si Si6 0.273583 0.609618 0.645199
O O1 0.575448 0.878389 0.519419
O O2 0.404071 0.663134 0.551187
O O3 0.358295 0.202880 0.845413
O O4 0.339612 0.017415 0.008229
O O5 0.142390 0.973463 0.601407
O O6 0.243357 0.333610 0.571116
O O7 0.110604 0.151733 0.477550
O O8 0.000000 0.500000 0.000000
O O9 0.733179 0.364938 0.999382
O O10 0.819018 0.143540 0.007649
O O11 0.816087 0.784032 0.112839
O O12 0.235640 0.691639 0.581657
O O13 0.000000 0.000000 0.000000
#
# Coordination Sequence:
#
# PCOD9080432 Si02
#       6
#     2   2   2   2   2   2
#     4   8  19  38  65  91 120 161 199 254 303 361
#     4  12  24  41  60  90 128 161 205 254 301 364
#     4  10  22  38  66  92 117 165 206 245 311 360
#     4  10  18  39  65  90 124 159 204 247 307 364
#     4  11  21  40  60  89 123 161 200 259 302 352
#     4   9  21  41  60  89 123 156 203 254 301 360
#
# _framework density 23.056376
#
# number of rings (size 3 to 8) (size 9 to 14) (size 15 to 20)
#    1.000    1.000    3.333    0.500    0.000    2.000 
#    0.000    5.000    0.000    6.000    0.000    0.000 
#    0.000    0.000    0.000    0.000    0.000    0.000 
#
# Total GULP energy -66879.617335 kJ/mol
# GULP energy per Si atom -5573.301445 kJ/mol
# Density = 2.300390 g / cm^3
# Si number density = 23.056376 Si / 1000 Ang^3
#
#
#
# Elastic Constant Matrix: (Units=GPa)
#
#
# Indices 1 2 3 4 5 6 
#
# 1 66.6537 27.1364 16.0065 -11.3890 -5.8781 1.2152
# 2 27.1364 137.4405 32.6272 -34.7033 -5.0780 -13.1574
# 3 16.0065 32.6272 88.8269 -17.4043 6.4060 -3.6733
# 4 -11.3890 -34.7033 -17.4043 25.5143 -4.5760 -0.7925
# 5 -5.8781 -5.0780 6.4060 -4.5760 20.8163 -7.0769
# 6 1.2152 -13.1574 -3.6733 -0.7925 -7.0769 27.9492
#
#
#
# Elastic Compliance Matrix: (Units=1/GPa)
#
#
# Indices 1 2 3 4 5 6 
#
# 1 0.017598 -0.001180 -0.002018 0.006092 0.006741 0.000294
# 2 -0.001180 0.014442 -0.001493 0.020498 0.011615 0.010176
# 3 -0.002018 -0.001493 0.013565 0.005664 -0.003733 0.000383
# 4 0.006092 0.020498 0.005664 0.079503 0.029176 0.019771
# 5 0.006741 0.011615 -0.003733 0.029176 0.068072 0.022748
# 6 0.000294 0.010176 0.000383 0.019771 0.022748 0.046928
#
#
# Mechanical properties :
#
#
# Convention : Reuss Voigt Hill
#
# Bulk Modulus (GPa) = 27.60681 49.38460 38.49571
# Shear Modulus (GPa) = 19.11573 29.33269 24.22421
#
# Velocity S-wave (km/s) = 2.88251 3.57068 3.24489
# Velocity P-wave (km/s) = 4.80397 6.20204 5.54722
#
# Compressibility (1/GPa) = 0.03622295
#
# Stress axis : x y z
#
# Youngs Moduli (GPa) = 56.82441 69.24184 73.72082
#
# Poissons Ratio (x) = 0.08172 0.14878
# Poissons Ratio (y) = 0.06706 0.11004
# Poissons Ratio (z) = 0.11468 0.10336
#
# Static dielectric constant tensor:
#      x y z
#    x 1.927200 0.017530 0.023380 
#    y 0.017530 1.913040 -0.010920 
#    z 0.023380 -0.010920 1.877540 
# 
# From -- ./inp_files/297061.got.cif
#   From: 2010.05.17/outbox.cif.g08.bks.cpg/sg2_149_cif.got.tgz:297061.got - 2010.06.03 11:33:40.
