data_PCOD9080376
_publ_section_title
;
Structure prediction by ZEFSAII (Michael W. Deem and Ramdas Pophale) SiO2 
 PCOD9080376
Probable space group: P -1
;
_chemical_formula_sum "Si O2"
_cell_formula_units_Z 16
_cell_length_a 16.434158
_cell_length_b 9.140628
_cell_length_c 13.857744
_cell_angle_alpha 63.797492
_cell_angle_beta 148.587982
_cell_angle_gamma 91.654012
_cell_volume 650.327903
_symmetry_space_group_name_H-M "P -1"
_symmetry_group_IT_number 2
_symmetry_cell_setting 'triclinic'
loop_
_space_group_symop_operation_xyz
x,y,z
-x,-y,-z
loop_
_atom_site_type_symbol
_atom_site_label
_atom_site_fract_x
_atom_site_fract_y
_atom_site_fract_z
Si Si1 0.886743 0.649848 0.228535
Si Si2 0.681178 0.163190 0.241643
Si Si3 0.384672 0.110545 0.652673
Si Si4 0.927891 0.837422 0.036649
Si Si5 0.290127 0.215879 0.299406
Si Si6 0.567893 0.579797 0.289473
Si Si7 0.476284 0.412022 0.405848
Si Si8 0.192877 0.597814 0.699713
O O1 0.846597 0.770563 0.053957
O O2 0.905734 0.439911 0.304457
O O3 0.097328 0.577157 0.515660
O O4 0.662046 0.857597 0.007036
O O5 0.564792 0.274607 0.985678
O O6 0.474390 0.368400 0.050022
O O7 0.867349 0.165389 0.433689
O O8 0.740684 0.934122 0.400090
O O9 0.324253 0.157105 0.464535
O O10 0.370048 0.297048 0.632930
O O11 0.174992 0.703989 0.367976
O O12 0.924237 0.730444 0.967574
O O13 0.732331 0.126707 0.741699
O O14 0.290310 0.410338 0.228342
O O15 0.500000 0.000000 0.500000
O O16 0.427422 0.568538 0.221085
O O17 0.500000 0.500000 0.500000
#
# Coordination Sequence:
#
# PCOD9080376 Si02
#       8
#     2   2   2   2   2   2   2   2
#     4  10  18  39  62  89 122 164 211 265 311 380
#     4  10  22  39  63  95 125 166 211 265 323 374
#     4  11  22  42  63  89 132 172 209 267 318 377
#     4  11  23  39  64  96 126 168 214 257 324 384
#     4  10  21  40  65  91 121 170 217 256 314 381
#     4  12  24  41  62  94 133 167 210 266 323 375
#     4  11  22  43  64  93 126 169 214 262 318 374
#     4   9  20  35  63  91 121 164 218 261 313 376
#
# _framework density 24.602972999999999
#
# number of rings (size 3 to 8) (size 9 to 14) (size 15 to 20)
#    0.000    1.500    5.000    0.750    1.750    3.500 
#    2.250    1.875    0.000    0.000    0.000    0.000 
#    0.000    0.000    0.000    0.000    0.000    0.000 
#
# Total GULP energy -89320.083698 kJ/mol
# GULP energy per Si atom -5582.505231 kJ/mol
# Density = 2.454698 g / cm^3
# Si number density = 24.602973 Si / 1000 Ang^3
#
#
#
# Elastic Constant Matrix: (Units=GPa)
#
#
# Indices 1 2 3 4 5 6 
#
# 1 132.6998 66.1791 32.5649 -13.3916 -42.3860 31.7932
# 2 66.1791 135.8666 22.2889 5.1131 -20.3496 34.0493
# 3 32.5649 22.2889 63.1805 4.4837 -20.7073 4.7605
# 4 -13.3916 5.1131 4.4837 19.4364 2.4037 -7.9442
# 5 -42.3860 -20.3496 -20.7073 2.4037 43.2162 -9.3555
# 6 31.7932 34.0493 4.7605 -7.9442 -9.3555 49.5164
#
#
#
# Elastic Compliance Matrix: (Units=1/GPa)
#
#
# Indices 1 2 3 4 5 6 
#
# 1 0.016250 -0.005555 -0.003601 0.011174 0.010433 -0.002504
# 2 -0.005555 0.011929 -0.000515 -0.009288 -0.000914 -0.006250
# 3 -0.003601 -0.000515 0.020527 -0.007605 0.006642 0.000727
# 4 0.011174 -0.009288 -0.007605 0.067689 0.001581 0.011101
# 5 0.010433 -0.000914 0.006642 0.001581 0.036116 0.000368
# 6 -0.002504 -0.006250 0.000727 0.011101 0.000368 0.027881
#
#
# Mechanical properties :
#
#
# Convention : Reuss Voigt Hill
#
# Bulk Modulus (GPa) = 34.05412 63.75698 48.90555
# Shear Modulus (GPa) = 23.86396 36.48141 30.17268
#
# Velocity S-wave (km/s) = 3.11780 3.85490 3.50578
# Velocity P-wave (km/s) = 5.18000 6.76641 6.02564
#
# Compressibility (1/GPa) = 0.02936502
#
# Stress axis : x y z
#
# Youngs Moduli (GPa) = 61.53969 83.82824 48.71623
#
# Poissons Ratio (x) = 0.46565 0.17542
# Poissons Ratio (y) = 0.34184 0.02508
# Poissons Ratio (z) = 0.22160 0.04315
#
# Static dielectric constant tensor:
#      x y z
#    x 1.994950 0.045000 0.035360 
#    y 0.045000 2.026270 -0.078140 
#    z 0.035360 -0.078140 2.135060 
# 
# From -- ./inp_files/507997.got.cif
#   From: 2010.05.17/outbox.cif.g08.bks.cpg/sg2_254_cif.got.tgz:507997.got - 2010.06.03 11:33:40.
