data_PCOD9080102
_publ_section_title
;
Structure prediction by ZEFSAII (Michael W. Deem and Ramdas Pophale) SiO2 
 PCOD9080102
Probable space group: P -1
;
_chemical_formula_sum "Si O2"
_cell_formula_units_Z 14
_cell_length_a 15.854215
_cell_length_b 10.274518
_cell_length_c 11.500205
_cell_angle_alpha 94.023299
_cell_angle_beta 153.267570
_cell_angle_gamma 76.478281
_cell_volume 777.040133
_symmetry_space_group_name_H-M "P -1"
_symmetry_group_IT_number 2
_symmetry_cell_setting 'triclinic'
loop_
_space_group_symop_operation_xyz
x,y,z
-x,-y,-z
loop_
_atom_site_type_symbol
_atom_site_label
_atom_site_fract_x
_atom_site_fract_y
_atom_site_fract_z
Si Si1 0.092494 0.664768 0.390487
Si Si2 0.560990 0.811144 0.451422
Si Si3 0.546290 0.328851 0.305211
Si Si4 0.804464 0.459312 0.248719
Si Si5 0.694520 0.381273 0.870264
Si Si6 0.356909 0.134816 0.180051
Si Si7 0.956933 0.582760 0.830871
O O1 0.230915 0.704310 0.470875
O O2 0.203861 0.618528 0.647703
O O3 0.059288 0.527547 0.291160
O O4 0.872099 0.786644 0.141420
O O5 0.411564 0.728630 0.278538
O O6 0.644456 0.828150 0.682443
O O7 0.747605 0.715372 0.595889
O O8 0.444673 0.966833 0.267611
O O9 0.475978 0.459240 0.318999
O O10 0.498148 0.202542 0.293063
O O11 0.390376 0.399364 0.011249
O O12 0.000000 0.500000 0.500000
O O13 0.807788 0.365387 0.133745
O O14 0.857642 0.374241 0.973842
O O15 0.000000 0.500000 0.000000
#
# Coordination Sequence:
#
# PCOD9080102 Si02
#       7
#     2   2   2   2   2   2   2
#     4  12  20  38  66  91 118 156 209 241 303 354
#     4  11  25  40  57  88 132 158 198 244 310 348
#     4  10  21  35  64  92 112 158 201 249 293 351
#     4  10  18  38  63  93 119 150 204 257 291 343
#     4  10  22  37  62  90 119 158 196 253 295 349
#     4  11  24  41  57  88 128 164 191 253 298 366
#     4  12  21  35  61  94 115 154 202 252 287 355
#
# _framework density 18.017088000000001
#
# number of rings (size 3 to 8) (size 9 to 14) (size 15 to 20)
#    0.857    0.286    7.143    0.429    2.000    2.286 
#    0.000    3.571    0.000    4.286    0.000    0.000 
#    0.000    0.000    0.000    0.000    0.000    0.000 
#
# Total GULP energy -78130.632488 kJ/mol
# GULP energy per Si atom -5580.759463 kJ/mol
# Density = 1.797608 g / cm^3
# Si number density = 18.017088 Si / 1000 Ang^3
#
#
#
# Elastic Constant Matrix: (Units=GPa)
#
#
# Indices 1 2 3 4 5 6 
#
# 1 80.6119 39.5458 22.3913 -12.2521 16.3437 19.2319
# 2 39.5458 115.4859 38.3835 -13.3603 19.8958 19.5140
# 3 22.3913 38.3835 54.1432 -5.5165 9.0964 0.2927
# 4 -12.2521 -13.3603 -5.5165 25.4563 4.7704 3.0866
# 5 16.3437 19.8958 9.0964 4.7704 39.7290 11.2797
# 6 19.2319 19.5140 0.2927 3.0866 11.2797 28.7640
#
#
#
# Elastic Compliance Matrix: (Units=1/GPa)
#
#
# Indices 1 2 3 4 5 6 
#
# 1 0.019625 -0.000984 -0.005653 0.009911 -0.004112 -0.011847
# 2 -0.000984 0.014767 -0.008728 0.007072 -0.003368 -0.008709
# 3 -0.005653 -0.008728 0.027077 -0.002296 -0.002221 0.010543
# 4 0.009911 0.007072 -0.002296 0.050629 -0.009444 -0.013130
# 5 -0.004112 -0.003368 -0.002221 -0.009444 0.032035 -0.006491
# 6 -0.011847 -0.008709 0.010543 -0.013130 -0.006491 0.052443
#
#
# Mechanical properties :
#
#
# Convention : Reuss Voigt Hill
#
# Bulk Modulus (GPa) = 32.53362 50.09803 41.31582
# Shear Modulus (GPa) = 21.04789 28.78455 24.91622
#
# Velocity S-wave (km/s) = 3.42163 4.00137 3.72280
# Velocity P-wave (km/s) = 5.80572 7.01528 6.43896
#
# Compressibility (1/GPa) = 0.03073744
#
# Stress axis : x y z
#
# Youngs Moduli (GPa) = 50.95601 67.71765 36.93121
#
# Poissons Ratio (x) = 0.06665 0.20879
# Poissons Ratio (y) = 0.05015 0.32234
# Poissons Ratio (z) = 0.28808 0.59106
#
# Static dielectric constant tensor:
#      x y z
#    x 1.635900 -0.003060 -0.016190 
#    y -0.003060 1.588940 0.006710 
#    z -0.016190 0.006710 1.631200 
# 
# From -- ./inp_files/447387.got.cif
#   From: 2010.05.17/outbox.cif.g08.bks.cpg/sg2_224_cif.got.tgz:447387.got - 2010.06.03 11:33:40.
