data_PCOD9080666
_publ_section_title
;
Structure prediction by ZEFSAII (Michael W. Deem and Ramdas Pophale) SiO2 
 PCOD9080666
Probable space group: P -1
;
_chemical_formula_sum "Si O2"
_cell_formula_units_Z 14
_cell_length_a 9.025871
_cell_length_b 9.481933
_cell_length_c 16.744542
_cell_angle_alpha 69.829102
_cell_angle_beta 123.198318
_cell_angle_gamma 148.440875
_cell_volume 602.871363
_symmetry_space_group_name_H-M "P -1"
_symmetry_group_IT_number 2
_symmetry_cell_setting 'triclinic'
loop_
_space_group_symop_operation_xyz
x,y,z
-x,-y,-z
loop_
_atom_site_type_symbol
_atom_site_label
_atom_site_fract_x
_atom_site_fract_y
_atom_site_fract_z
Si Si1 0.479413 0.966319 0.643570
Si Si2 0.761443 0.495418 0.277354
Si Si3 0.593548 0.321801 0.436175
Si Si4 0.361724 0.872907 0.893689
Si Si5 0.388327 0.276516 0.058733
Si Si6 0.412926 0.720611 0.250662
Si Si7 0.080137 0.158261 0.568197
O O1 0.534916 0.159372 0.670652
O O2 0.862811 0.197375 0.692301
O O3 0.295719 0.725480 0.698831
O O4 0.322278 0.787705 0.547835
O O5 0.624265 0.426264 0.338652
O O6 0.528633 0.401649 0.163534
O O7 0.822776 0.610539 0.489661
O O8 0.253348 0.070161 0.432649
O O9 0.477520 0.786974 0.920927
O O10 0.965284 0.592380 0.819389
O O11 0.494580 0.094111 0.827894
O O12 0.500000 0.000000 0.000000
O O13 0.500000 0.500000 0.000000
O O14 0.000000 0.000000 0.000000
O O15 0.647308 0.743207 0.321957
O O16 0.000000 0.000000 0.500000
#
# Coordination Sequence:
#
# PCOD9080666 Si02
#       7
#     2   2   2   2   2   2   2
#     4  10  18  40  70  85 122 173 223 267 320 392
#     4  10  19  38  66  87 124 165 223 263 322 377
#     4  10  21  42  67  93 128 165 217 277 317 401
#     4  12  26  46  62  99 140 178 226 266 330 414
#     4  12  24  38  63  95 130 170 223 282 322 376
#     4  12  24  46  69  93 136 187 212 280 341 385
#     4  12  26  44  69 103 136 170 221 277 342 405
#
# _framework density 23.222200999999998
#
# number of rings (size 3 to 8) (size 9 to 14) (size 15 to 20)
#    0.857    0.000    4.286    3.429    0.000    3.429 
#    0.000    1.429    0.000    0.000    0.000    0.000 
#    0.000    0.000    0.000    0.000    0.000    0.000 
#
# Total GULP energy -78006.488858 kJ/mol
# GULP energy per Si atom -5571.892061 kJ/mol
# Density = 2.316935 g / cm^3
# Si number density = 23.222201 Si / 1000 Ang^3
#
#
#
# Elastic Constant Matrix: (Units=GPa)
#
#
# Indices 1 2 3 4 5 6 
#
# 1 123.5396 40.7415 41.1975 1.8968 10.5858 -7.7213
# 2 40.7415 158.5875 32.2280 12.2857 24.7290 9.1610
# 3 41.1975 32.2280 103.4156 -5.3018 8.5943 -6.5866
# 4 1.8968 12.2857 -5.3018 43.5143 -9.0060 -0.0011
# 5 10.5858 24.7290 8.5943 -9.0060 37.4047 2.1470
# 6 -7.7213 9.1610 -6.5866 -0.0011 2.1470 34.4038
#
#
#
# Elastic Compliance Matrix: (Units=1/GPa)
#
#
# Indices 1 2 3 4 5 6 
#
# 1 0.010011 -0.001824 -0.003213 -0.000550 -0.001147 0.002189
# 2 -0.001824 0.008409 -0.001805 -0.003621 -0.005348 -0.002660
# 3 -0.003213 -0.001805 0.011764 0.002036 -0.000227 0.002026
# 4 -0.000550 -0.003621 0.002036 0.025993 0.008300 0.000714
# 5 -0.001147 -0.005348 -0.000227 0.008300 0.032698 -0.000917
# 6 0.002189 -0.002660 0.002026 0.000714 -0.000917 0.030711
#
#
# Mechanical properties :
#
#
# Convention : Reuss Voigt Hill
#
# Bulk Modulus (GPa) = 60.60156 68.20851 64.40503
# Shear Modulus (GPa) = 36.03057 41.15627 38.59342
#
# Velocity S-wave (km/s) = 3.94325 4.21441 4.08109
# Velocity P-wave (km/s) = 6.84729 7.28818 7.07117
#
# Compressibility (1/GPa) = 0.01650123
#
# Stress axis : x y z
#
# Youngs Moduli (GPa) = 99.88890 118.91888 85.00202
#
# Poissons Ratio (x) = 0.21688 0.27313
# Poissons Ratio (y) = 0.18218 0.15340
# Poissons Ratio (z) = 0.32096 0.21461
#
# Static dielectric constant tensor:
#      x y z
#    x 2.411270 -0.223240 -0.247010 
#    y -0.223240 1.834760 0.204810 
#    z -0.247010 0.204810 1.980550 
# 
# From -- ./inp_files/557131.got.cif
#   From: 2010.05.17/outbox.cif.g08.bks.cpg/sg2_279_cif.got.tgz:557131.got - 2010.06.03 11:33:40.
