data_PCOD9080721
_publ_section_title
;
Structure prediction by ZEFSAII (Michael W. Deem and Ramdas Pophale) SiO2 
 PCOD9080721
Probable space group: P -1
;
_chemical_formula_sum "Si O2"
_cell_formula_units_Z 16
_cell_length_a 11.787991
_cell_length_b 18.937292
_cell_length_c 11.590260
_cell_angle_alpha 155.325224
_cell_angle_beta 134.846440
_cell_angle_gamma 33.595811
_cell_volume 582.505629
_symmetry_space_group_name_H-M "P -1"
_symmetry_group_IT_number 2
_symmetry_cell_setting 'triclinic'
loop_
_space_group_symop_operation_xyz
x,y,z
-x,-y,-z
loop_
_atom_site_type_symbol
_atom_site_label
_atom_site_fract_x
_atom_site_fract_y
_atom_site_fract_z
Si Si1 0.804563 0.835804 0.429464
Si Si2 0.492076 0.655077 0.579022
Si Si3 0.891176 0.248890 0.831953
Si Si4 0.398891 0.229646 0.402019
Si Si5 0.585876 0.690286 0.203918
Si Si6 0.137072 0.733391 0.686736
Si Si7 0.219870 0.272605 0.005967
Si Si8 0.920682 0.843956 0.932924
O O1 0.706136 0.765313 0.341709
O O2 0.021841 0.746316 0.505443
O O3 0.816129 0.735252 0.165759
O O4 0.650690 0.100865 0.690805
O O5 0.533309 0.698989 0.547152
O O6 0.608242 0.396404 0.303062
O O7 0.267131 0.882698 0.796137
O O8 0.690998 0.605544 0.718256
O O9 0.025751 0.322277 0.004184
O O10 0.912420 0.224069 0.948725
O O11 0.000000 0.000000 0.500000
O O12 0.686625 0.434876 0.882742
O O13 0.385797 0.320684 0.653532
O O14 0.588675 0.970837 0.173568
O O15 0.203153 0.243776 0.255210
O O16 0.038709 0.720586 0.716286
O O17 0.000000 0.000000 0.000000
#
# Coordination Sequence:
#
# PCOD9080721 Si02
#       8
#     2   2   2   2   2   2   2   2
#     4  10  23  44  62  92 127 166 220 262 311 381
#     4  11  22  42  73  95 123 166 215 281 320 360
#     4  12  25  39  61  97 130 169 208 259 333 388
#     4  10  18  41  71  95 116 155 220 279 316 358
#     4  10  22  40  68  91 123 169 213 267 316 373
#     4  12  28  43  62  95 132 176 215 252 321 398
#     4  10  21  40  65  94 124 157 215 268 315 379
#     4  11  23  44  68  96 127 161 219 272 319 379
#
# _framework density 27.467547
#
# number of rings (size 3 to 8) (size 9 to 14) (size 15 to 20)
#    0.000    1.250    3.750    2.250    3.500    4.500 
#    0.000    1.250    0.000    0.000    0.000    0.000 
#    0.000    0.000    0.000    0.000    0.000    0.000 
#
# Total GULP energy -89393.998889 kJ/mol
# GULP energy per Si atom -5587.124931 kJ/mol
# Density = 2.740503 g / cm^3
# Si number density = 27.467547 Si / 1000 Ang^3
#
#
#
# Elastic Constant Matrix: (Units=GPa)
#
#
# Indices 1 2 3 4 5 6 
#
# 1 82.7990 48.0367 27.1442 -0.7651 -16.4244 -5.5550
# 2 48.0367 202.7979 58.9412 41.7152 -1.5296 36.4312
# 3 27.1442 58.9412 57.5744 30.1725 -11.8362 16.4600
# 4 -0.7651 41.7152 30.1725 70.9864 -2.4548 -1.1911
# 5 -16.4244 -1.5296 -11.8362 -2.4548 33.7314 -2.4992
# 6 -5.5550 36.4312 16.4600 -1.1911 -2.4992 25.9264
#
#
#
# Elastic Compliance Matrix: (Units=1/GPa)
#
#
# Indices 1 2 3 4 5 6 
#
# 1 0.029223 -0.011004 -0.018526 0.015627 0.010979 0.035261
# 2 -0.011004 0.012882 0.001963 -0.009127 -0.006434 -0.022745
# 3 -0.018526 0.001963 0.046730 -0.021730 0.003136 -0.037092
# 4 0.015627 -0.009127 -0.021730 0.029528 0.004069 0.031718
# 5 0.010979 -0.006434 0.003136 0.004069 0.037072 0.013163
# 6 0.035261 -0.022745 -0.037092 0.031718 0.013163 0.104361
#
#
# Mechanical properties :
#
#
# Convention : Reuss Voigt Hill
#
# Bulk Modulus (GPa) = 29.67200 67.93504 48.80352
# Shear Modulus (GPa) = 15.32983 40.06546 27.69764
#
# Velocity S-wave (km/s) = 2.36499 3.82337 3.17894
# Velocity P-wave (km/s) = 4.27593 6.65413 5.59290
#
# Compressibility (1/GPa) = 0.03370181
#
# Stress axis : x y z
#
# Youngs Moduli (GPa) = 34.22004 77.62931 21.39975
#
# Poissons Ratio (x) = 0.85421 0.39644
# Poissons Ratio (y) = 0.37655 -0.04201
# Poissons Ratio (z) = 0.63395 -0.15241
#
# Static dielectric constant tensor:
#      x y z
#    x 2.268790 -0.046670 0.086290 
#    y -0.046670 2.209210 0.095560 
#    z 0.086290 0.095560 3.188990 
# 
# From -- ./inp_files/425547.got.cif
#   From: 2010.05.17/outbox.cif.g08.bks.cpg/sg2_213_cif.got.tgz:425547.got - 2010.06.03 11:33:40.
