data_PCOD9080690
_publ_section_title
;
Structure prediction by ZEFSAII (Michael W. Deem and Ramdas Pophale) SiO2 
 PCOD9080690
Probable space group: P -1
;
_chemical_formula_sum "Si O2"
_cell_formula_units_Z 14
_cell_length_a 15.038694
_cell_length_b 18.353765
_cell_length_c 8.905451
_cell_angle_alpha 69.963190
_cell_angle_beta 119.685086
_cell_angle_gamma 158.809915
_cell_volume 714.194743
_symmetry_space_group_name_H-M "P -1"
_symmetry_group_IT_number 2
_symmetry_cell_setting 'triclinic'
loop_
_space_group_symop_operation_xyz
x,y,z
-x,-y,-z
loop_
_atom_site_type_symbol
_atom_site_label
_atom_site_fract_x
_atom_site_fract_y
_atom_site_fract_z
Si Si1 0.427898 0.358740 0.558599
Si Si2 0.293760 0.703131 0.703817
Si Si3 0.205637 0.479636 0.463104
Si Si4 0.293848 0.124187 0.194746
Si Si5 0.586375 0.043693 0.368283
Si Si6 0.898364 0.919047 0.227729
Si Si7 0.104776 0.585444 0.193529
O O1 0.500000 0.500000 0.500000
O O2 0.690551 0.495283 0.611563
O O3 0.342567 0.277664 0.715955
O O4 0.149051 0.137252 0.381799
O O5 0.552024 0.847763 0.728630
O O6 0.000000 0.500000 0.500000
O O7 0.161543 0.564997 0.831413
O O8 0.407086 0.863911 0.751926
O O9 0.451162 0.646083 0.677123
O O10 0.182060 0.553957 0.343203
O O11 0.908620 0.244620 0.458395
O O12 0.201659 0.094812 0.979525
O O13 0.041885 0.949960 0.230548
O O14 0.368680 0.829799 0.264749
O O15 0.500000 0.000000 0.500000
O O16 0.000000 0.500000 0.000000
#
# Coordination Sequence:
#
# PCOD9080690 Si02
#       7
#     2   2   2   2   2   2   2
#     4  10  22  43  59  91 121 159 211 254 316 375
#     4  11  20  38  61  93 126 157 206 257 301 381
#     4  10  22  39  62  87 127 159 205 262 305 374
#     4  10  18  41  63  91 121 162 209 257 311 365
#     4  11  20  38  64  89 120 172 205 245 319 364
#     4   9  22  39  66  85 122 165 201 261 315 363
#     4  11  24  40  59  92 130 166 205 255 313 372
#
# _framework density 19.602497
#
# number of rings (size 3 to 8) (size 9 to 14) (size 15 to 20)
#    0.000    1.714    4.286    0.000    2.000    6.857 
#    2.571    7.857    0.000    0.000    0.000    0.000 
#    0.000    0.000    0.000    0.000    0.000    0.000 
#
# Total GULP energy -77957.793025 kJ/mol
# GULP energy per Si atom -5568.413788 kJ/mol
# Density = 1.955788 g / cm^3
# Si number density = 19.602497 Si / 1000 Ang^3
#
#
#
# Elastic Constant Matrix: (Units=GPa)
#
#
# Indices 1 2 3 4 5 6 
#
# 1 135.5253 51.0750 23.1815 -0.1167 -12.5193 22.8415
# 2 51.0750 113.1479 28.4905 4.3668 -18.2981 16.6275
# 3 23.1815 28.4905 92.3925 -10.5282 -22.0392 13.0250
# 4 -0.1167 4.3668 -10.5282 20.4619 4.6786 -8.8103
# 5 -12.5193 -18.2981 -22.0392 4.6786 26.4761 -3.4236
# 6 22.8415 16.6275 13.0250 -8.8103 -3.4236 42.3018
#
#
#
# Elastic Compliance Matrix: (Units=1/GPa)
#
#
# Indices 1 2 3 4 5 6 
#
# 1 0.009505 -0.003256 -0.000667 -0.001592 0.001471 -0.003860
# 2 -0.003256 0.012552 -0.001797 -0.006571 0.006351 -0.003477
# 3 -0.000667 -0.001797 0.014614 0.005029 0.009510 -0.001616
# 4 -0.001592 -0.006571 0.005029 0.061109 -0.010122 0.013802
# 5 0.001471 0.006351 0.009510 -0.010122 0.052027 -0.004116
# 6 -0.003860 -0.003477 -0.001616 0.013802 -0.004116 0.030130
#
#
# Mechanical properties :
#
#
# Convention : Reuss Voigt Hill
#
# Bulk Modulus (GPa) = 39.63523 60.72885 50.18204
# Shear Modulus (GPa) = 25.02647 33.73588 29.38118
#
# Velocity S-wave (km/s) = 3.57697 4.15299 3.87570
# Velocity P-wave (km/s) = 6.10925 7.35145 6.75895
#
# Compressibility (1/GPa) = 0.02523008
#
# Stress axis : x y z
#
# Youngs Moduli (GPa) = 105.20864 79.66951 68.42560
#
# Poissons Ratio (x) = 0.25940 0.04566
# Poissons Ratio (y) = 0.34256 0.12299
# Poissons Ratio (z) = 0.07020 0.14319
#
# Static dielectric constant tensor:
#      x y z
#    x 1.753820 0.035060 0.035870 
#    y 0.035060 1.733740 -0.034540 
#    z 0.035870 -0.034540 1.680940 
# 
# From -- ./inp_files/317663.got.cif
#   From: 2010.05.17/outbox.cif.g08.bks.cpg/sg2_159_cif.got.tgz:317663.got - 2010.06.03 11:33:40.
