data_PCOD9080229
_publ_section_title
;
Structure prediction by ZEFSAII (Michael W. Deem and Ramdas Pophale) SiO2 
 PCOD9080229
Probable space group: P -1
;
_chemical_formula_sum "Si O2"
_cell_formula_units_Z 14
_cell_length_a 8.704517
_cell_length_b 9.007876
_cell_length_c 12.217990
_cell_angle_alpha 109.263418
_cell_angle_beta 98.638601
_cell_angle_gamma 130.743053
_cell_volume 588.948858
_symmetry_space_group_name_H-M "P -1"
_symmetry_group_IT_number 2
_symmetry_cell_setting 'triclinic'
loop_
_space_group_symop_operation_xyz
x,y,z
-x,-y,-z
loop_
_atom_site_type_symbol
_atom_site_label
_atom_site_fract_x
_atom_site_fract_y
_atom_site_fract_z
Si Si1 0.927253 0.290759 0.876802
Si Si2 0.180982 0.755911 0.383256
Si Si3 0.321569 0.093951 0.660410
Si Si4 0.451342 0.646246 0.034499
Si Si5 0.106682 0.424444 0.433333
Si Si6 0.694655 0.570438 0.348280
Si Si7 0.244164 0.091627 0.064847
O O1 0.777014 0.185638 0.725671
O O2 0.810090 0.090357 0.903912
O O3 0.000000 0.500000 0.000000
O O4 0.190494 0.443731 0.909548
O O5 0.658251 0.023439 0.460389
O O6 0.173390 0.562368 0.361743
O O7 0.922608 0.642471 0.350372
O O8 0.518948 0.270994 0.817831
O O9 0.267407 0.216678 0.622491
O O10 0.098513 0.861789 0.652392
O O11 0.500000 0.500000 0.000000
O O12 0.637885 0.870062 0.027800
O O13 0.312862 0.497991 0.543112
O O14 0.000000 0.500000 0.500000
O O15 0.450672 0.346475 0.207934
O O16 0.000000 0.000000 0.000000
#
# Coordination Sequence:
#
# PCOD9080229 Si02
#       7
#     2   2   2   2   2   2   2
#     4  12  28  45  68 107 141 182 236 286 345 419
#     4  10  21  43  65  96 141 182 224 281 344 417
#     4  10  19  36  72  99 125 186 230 272 349 406
#     4  12  23  46  74 100 143 184 226 291 350 406
#     4   8  18  33  61  95 129 173 223 266 339 408
#     4  10  18  38  67 101 129 172 230 282 339 401
#     4  12  25  44  72 101 139 183 237 282 347 417
#
# _framework density 23.771163000000001
#
# number of rings (size 3 to 8) (size 9 to 14) (size 15 to 20)
#    0.000    1.714    4.286    1.714    2.000    4.000 
#    0.000    3.571    0.000    0.000    0.000    0.000 
#    0.000    0.000    0.000    0.000    0.000    0.000 
#
# Total GULP energy -78109.179058 kJ/mol
# GULP energy per Si atom -5579.227076 kJ/mol
# Density = 2.371706 g / cm^3
# Si number density = 23.771163 Si / 1000 Ang^3
#
#
#
# Elastic Constant Matrix: (Units=GPa)
#
#
# Indices 1 2 3 4 5 6 
#
# 1 66.3449 46.4574 40.7684 -5.9055 9.0747 -12.0093
# 2 46.4574 193.5402 54.9437 -27.9381 -2.9319 -35.0879
# 3 40.7684 54.9437 177.3820 -14.1020 8.2393 -17.9542
# 4 -5.9055 -27.9381 -14.1020 53.0083 3.1979 4.5242
# 5 9.0747 -2.9319 8.2393 3.1979 34.0932 0.8766
# 6 -12.0093 -35.0879 -17.9542 4.5242 0.8766 39.9306
#
#
#
# Elastic Compliance Matrix: (Units=1/GPa)
#
#
# Indices 1 2 3 4 5 6 
#
# 1 0.020715 -0.003935 -0.003189 -0.000436 -0.005079 0.001499
# 2 -0.003935 0.007656 -0.000821 0.002876 0.001511 0.004815
# 3 -0.003189 -0.000821 0.006885 0.000992 -0.001013 0.001325
# 4 -0.000436 0.002876 0.000992 0.020660 -0.001828 0.000541
# 5 -0.005079 0.001511 -0.001013 -0.001828 0.031259 -0.001135
# 6 0.001499 0.004815 0.001325 0.000541 -0.001135 0.030285
#
#
# Mechanical properties :
#
#
# Convention : Reuss Voigt Hill
#
# Bulk Modulus (GPa) = 51.63961 80.17848 65.90904
# Shear Modulus (GPa) = 35.76400 45.07961 40.42180
#
# Velocity S-wave (km/s) = 3.88301 4.35949 4.12813
# Velocity P-wave (km/s) = 6.47105 7.69043 7.10694
#
# Compressibility (1/GPa) = 0.01936498
#
# Stress axis : x y z
#
# Youngs Moduli (GPa) = 48.27329 130.62274 145.24743
#
# Poissons Ratio (x) = 0.51404 0.46322
# Poissons Ratio (y) = 0.18997 0.11924
# Poissons Ratio (z) = 0.15395 0.10724
#
# Static dielectric constant tensor:
#      x y z
#    x 1.705070 0.054150 -0.044010 
#    y 0.054150 1.995270 -0.053980 
#    z -0.044010 -0.053980 1.902370 
# 
# From -- ./inp_files/227297.got.cif
#   From: 2010.05.17/outbox.cif.g08.bks.cpg/sg2_114_cif.got.tgz:227297.got - 2010.06.03 11:33:40.
