data_PCOD9080179
_publ_section_title
;
Structure prediction by ZEFSAII (Michael W. Deem and Ramdas Pophale) SiO2 
 PCOD9080179
Probable space group: P -1
;
_chemical_formula_sum "Si O2"
_cell_formula_units_Z 16
_cell_length_a 7.896053
_cell_length_b 20.098521
_cell_length_c 14.201676
_cell_angle_alpha 156.623695
_cell_angle_beta 125.664157
_cell_angle_gamma 54.118111
_cell_volume 717.389891
_symmetry_space_group_name_H-M "P -1"
_symmetry_group_IT_number 2
_symmetry_cell_setting 'triclinic'
loop_
_space_group_symop_operation_xyz
x,y,z
-x,-y,-z
loop_
_atom_site_type_symbol
_atom_site_label
_atom_site_fract_x
_atom_site_fract_y
_atom_site_fract_z
Si Si1 0.263551 0.460681 0.367497
Si Si2 0.228449 0.009210 0.544595
Si Si3 0.882257 0.634189 0.361375
Si Si4 0.811364 0.655345 0.159205
Si Si5 0.180242 0.102029 0.151946
Si Si6 0.849318 0.309866 0.202913
Si Si7 0.484432 0.123292 0.938289
Si Si8 0.664776 0.345387 0.984726
O O1 0.500000 0.500000 0.500000
O O2 0.163562 0.527621 0.521161
O O3 0.124818 0.567391 0.380797
O O4 0.294347 0.264885 0.095466
O O5 0.207837 0.187540 0.714410
O O6 0.391568 0.009183 0.683271
O O7 0.301779 0.846657 0.291816
O O8 0.000000 0.000000 0.500000
O O9 0.851053 0.719216 0.360527
O O10 0.797138 0.756531 0.578221
O O11 0.763292 0.471095 0.110962
O O12 0.583524 0.595233 0.004140
O O13 0.000000 0.500000 0.000000
O O14 0.073364 0.191709 0.141328
O O15 0.398260 0.975006 0.062554
O O16 0.000000 0.000000 0.000000
O O17 0.663253 0.211227 0.056284
O O18 0.788514 0.350153 0.128966
#
# Coordination Sequence:
#
# PCOD9080179 Si02
#       8
#     2   2   2   2   2   2   2   2
#     4   9  19  37  64  94 127 181 215 273 327 402
#     4  12  26  44  70  98 136 181 229 278 343 411
#     4  11  24  42  67  95 137 175 225 280 333 401
#     4  12  26  43  68 102 133 180 227 281 346 402
#     4   9  20  36  63  98 125 169 218 269 327 396
#     4   9  20  37  64  94 126 176 220 263 339 397
#     4  10  18  38  65  91 130 170 221 273 332 390
#     4  12  25  44  68 100 138 180 227 281 339 414
#
# _framework density 22.303073000000001
#
# number of rings (size 3 to 8) (size 9 to 14) (size 15 to 20)
#    0.000    1.500    1.250    4.500    5.250    3.000 
#    0.000    0.000    2.750    2.250    0.000    0.000 
#    0.000    0.000    0.000    0.000    0.000    0.000 
#
# Total GULP energy -89475.339207 kJ/mol
# GULP energy per Si atom -5592.208700 kJ/mol
# Density = 2.225231 g / cm^3
# Si number density = 22.303073 Si / 1000 Ang^3
#
#
#
# Elastic Constant Matrix: (Units=GPa)
#
#
# Indices 1 2 3 4 5 6 
#
# 1 57.2152 31.3694 -0.4911 -2.9696 8.6404 -9.4503
# 2 31.3694 136.6730 11.5680 -17.4844 1.8358 -13.0043
# 3 -0.4911 11.5680 77.9839 -13.5452 -2.0626 -6.8002
# 4 -2.9696 -17.4844 -13.5452 36.9876 0.0949 -3.6325
# 5 8.6404 1.8358 -2.0626 0.0949 34.0797 0.5351
# 6 -9.4503 -13.0043 -6.8002 -3.6325 0.5351 30.6356
#
#
#
# Elastic Compliance Matrix: (Units=1/GPa)
#
#
# Indices 1 2 3 4 5 6 
#
# 1 0.021595 -0.004413 0.001215 0.000619 -0.005248 0.005223
# 2 -0.004413 0.009160 -0.000404 0.004113 0.000544 0.002916
# 3 0.001215 -0.000404 0.014208 0.005502 0.000496 0.004001
# 4 0.000619 0.004113 0.005502 0.031725 -0.000243 0.006924
# 5 -0.005248 0.000544 0.000496 -0.000243 0.030704 -0.001843
# 6 0.005223 0.002916 0.004001 0.006924 -0.001843 0.037232
#
#
# Mechanical properties :
#
#
# Convention : Reuss Voigt Hill
#
# Bulk Modulus (GPa) = 26.48289 39.64054 33.06171
# Shear Modulus (GPa) = 30.41109 35.63565 33.02337
#
# Velocity S-wave (km/s) = 3.69662 4.00157 3.85212
# Velocity P-wave (km/s) = 5.48816 6.25798 5.88567
#
# Compressibility (1/GPa) = 0.03776023
#
# Stress axis : x y z
#
# Youngs Moduli (GPa) = 46.30712 109.17069 70.38167
#
# Poissons Ratio (x) = 0.48173 -0.08550
# Poissons Ratio (y) = 0.20434 0.02840
# Poissons Ratio (z) = -0.05625 0.04406
#
# Static dielectric constant tensor:
#      x y z
#    x 1.833050 0.002680 -0.000710 
#    y 0.002680 1.793970 0.022590 
#    z -0.000710 0.022590 1.853090 
# 
# From -- ./inp_files/221668.got.cif
#   From: 2010.05.17/outbox.cif.g08.bks.cpg/sg2_111_cif.got.tgz:221668.got - 2010.06.03 11:33:40.
