data_PCOD9080706
_publ_section_title
;
Structure prediction by ZEFSAII (Michael W. Deem and Ramdas Pophale) SiO2 
 PCOD9080706
Probable space group: P -1
;
_chemical_formula_sum "Si O2"
_cell_formula_units_Z 16
_cell_length_a 10.756888
_cell_length_b 7.919074
_cell_length_c 13.999994
_cell_angle_alpha 121.693211
_cell_angle_beta 42.020658
_cell_angle_gamma 105.168463
_cell_volume 661.712156
_symmetry_space_group_name_H-M "P -1"
_symmetry_group_IT_number 2
_symmetry_cell_setting 'triclinic'
loop_
_space_group_symop_operation_xyz
x,y,z
-x,-y,-z
loop_
_atom_site_type_symbol
_atom_site_label
_atom_site_fract_x
_atom_site_fract_y
_atom_site_fract_z
Si Si1 0.044343 0.904240 0.209059
Si Si2 0.603868 0.408443 0.567139
Si Si3 0.908361 0.632722 0.475108
Si Si4 0.749560 0.227867 0.600343
Si Si5 0.672057 0.250216 0.280541
Si Si6 0.766978 0.876214 0.988521
Si Si7 0.652786 0.050386 0.804233
Si Si8 0.984418 0.520096 0.194056
O O1 0.237136 0.858455 0.149370
O O2 0.003350 0.680729 0.149105
O O3 0.879008 0.050548 0.408738
O O4 0.085185 0.029841 0.130899
O O5 0.819391 0.436461 0.466687
O O6 0.569349 0.328481 0.666932
O O7 0.596056 0.269551 0.438264
O O8 0.485450 0.626922 0.665866
O O9 0.115115 0.622695 0.397636
O O10 0.918258 0.668429 0.366903
O O11 0.764250 0.814231 0.664898
O O12 0.690988 0.138476 0.705251
O O13 0.833450 0.381237 0.220618
O O14 0.730714 0.022050 0.144526
O O15 0.573639 0.907654 0.046566
O O16 0.837029 0.646063 0.915957
#
# Coordination Sequence:
#
# PCOD9080706 Si02
#       8
#     2   2   2   2   2   2   2   2
#     4  11  23  44  67 102 136 178 217 275 339 401
#     4  10  21  38  70  97 127 172 231 274 328 388
#     4  10  18  41  67  95 132 170 216 279 329 391
#     4  11  21  39  71 103 126 172 228 273 331 398
#     4  10  23  44  63  95 138 176 222 281 320 394
#     4  12  26  43  66  99 139 179 219 272 343 391
#     4  11  22  43  67  97 141 166 220 286 326 387
#     4  11  23  43  70  93 137 180 219 271 334 397
#
# _framework density 24.179696
#
# number of rings (size 3 to 8) (size 9 to 14) (size 15 to 20)
#    0.000    1.250    3.750    3.375    0.000    3.000 
#    2.250    3.750    0.000    0.000    0.000    0.000 
#    0.000    0.000    0.000    0.000    0.000    0.000 
#
# Total GULP energy -89406.463011 kJ/mol
# GULP energy per Si atom -5587.903938 kJ/mol
# Density = 2.412466 g / cm^3
# Si number density = 24.179696 Si / 1000 Ang^3
#
#
#
# Elastic Constant Matrix: (Units=GPa)
#
#
# Indices 1 2 3 4 5 6 
#
# 1 70.9526 15.8662 -13.6559 5.1891 -3.8043 -5.7466
# 2 15.8662 81.5523 15.0275 15.7910 -3.6062 -17.5237
# 3 -13.6559 15.0275 36.8485 9.4118 -4.5236 -1.1509
# 4 5.1891 15.7910 9.4118 28.2302 0.6577 6.8573
# 5 -3.8043 -3.6062 -4.5236 0.6577 21.9986 -1.1650
# 6 -5.7466 -17.5237 -1.1509 6.8573 -1.1650 35.0334
#
#
#
# Elastic Compliance Matrix: (Units=1/GPa)
#
#
# Indices 1 2 3 4 5 6 
#
# 1 0.017670 -0.003423 0.010020 -0.005454 0.004863 0.002744
# 2 -0.003423 0.018306 -0.005489 -0.010385 0.002148 0.010519
# 3 0.010020 -0.005489 0.037383 -0.012125 0.009031 0.002800
# 4 -0.005454 -0.010385 -0.012125 0.050490 -0.007529 -0.016621
# 5 0.004863 0.002148 0.009031 -0.007529 0.049012 0.005272
# 6 0.002744 0.010519 0.002800 -0.016621 0.005272 0.037776
#
#
# Mechanical properties :
#
#
# Convention : Reuss Voigt Hill
#
# Bulk Modulus (GPa) = 13.23205 24.86990 19.05098
# Shear Modulus (GPa) = 21.40288 28.52680 24.96484
#
# Velocity S-wave (km/s) = 2.97839 3.43852 3.21669
# Velocity P-wave (km/s) = 4.16077 5.10611 4.65749
#
# Compressibility (1/GPa) = 0.07557405
#
# Stress axis : x y z
#
# Youngs Moduli (GPa) = 56.59351 54.62762 26.74990
#
# Poissons Ratio (x) = 0.18701 -0.26804
# Poissons Ratio (y) = 0.19374 0.14684
# Poissons Ratio (z) = -0.56708 0.29987
#
# Static dielectric constant tensor:
#      x y z
#    x 1.970690 -0.071010 -0.013150 
#    y -0.071010 2.047380 -0.080780 
#    z -0.013150 -0.080780 1.975720 
# 
# From -- ./inp_files/514570.got.cif
#   From: 2010.05.17/outbox.cif.g08.bks.cpg/sg2_258_cif.got.tgz:514570.got - 2010.06.03 11:33:40.
