data_PCOD9080668
_publ_section_title
;
Structure prediction by ZEFSAII (Michael W. Deem and Ramdas Pophale) SiO2 
 PCOD9080668
Probable space group: P -1
;
_chemical_formula_sum "Si O2"
_cell_formula_units_Z 13
_cell_length_a 11.759899
_cell_length_b 16.045399
_cell_length_c 12.943880
_cell_angle_alpha 36.374650
_cell_angle_beta 31.220166
_cell_angle_gamma 23.477225
_cell_volume 501.785532
_symmetry_space_group_name_H-M "P -1"
_symmetry_group_IT_number 2
_symmetry_cell_setting 'triclinic'
loop_
_space_group_symop_operation_xyz
x,y,z
-x,-y,-z
loop_
_atom_site_type_symbol
_atom_site_label
_atom_site_fract_x
_atom_site_fract_y
_atom_site_fract_z
Si Si1 0.817725 0.686386 0.588558
Si Si2 0.565546 0.442154 0.751056
Si Si3 0.639305 0.086274 0.090132
Si Si4 0.311769 0.066603 0.186512
Si Si5 0.648781 0.638993 0.352195
Si Si6 0.000000 0.500000 0.000000
Si Si7 0.643737 0.304277 0.150607
O O1 0.620922 0.695896 0.645195
O O2 0.063675 0.694370 0.356928
O O3 0.063502 0.465283 0.682369
O O4 0.541917 0.858006 0.716873
O O5 0.512998 0.301102 0.935374
O O6 0.596109 0.502334 0.557824
O O7 0.325410 0.645778 0.808854
O O8 0.513218 0.035700 0.156151
O O9 0.029101 0.901529 0.956576
O O10 0.338820 0.887124 0.362193
O O11 0.015508 0.316215 0.163345
O O12 0.500000 0.000000 0.000000
O O13 0.785399 0.590954 0.181077
O O14 0.500000 0.500000 0.000000
#
# Coordination Sequence:
#
# PCOD9080668 Si02
#       7
#     2   2   2   2   2   1   2
#     4  10  22  44  65  95 140 176 219 272 326 394
#     4  10  25  42  65 100 137 176 223 272 327 398
#     4  12  24  43  69  98 135 175 227 276 326 399
#     4  10  21  38  69  95 124 174 214 273 335 390
#     4   9  21  41  66  95 127 173 218 268 334 386
#     4  10  18  40  70  92 122 170 226 264 336 390
#     4  12  24  41  67  99 138 181 222 268 332 393
#
# _framework density 25.907484
#
# number of rings (size 3 to 8) (size 9 to 14) (size 15 to 20)
#    0.923    0.615    3.077    1.846    0.000    3.077 
#    0.000    3.077    0.000    9.231    0.000    0.000 
#    0.000    0.000    0.000    0.000    0.000    0.000 
#
# Total GULP energy -72403.235388 kJ/mol
# GULP energy per Si atom -5569.479645 kJ/mol
# Density = 2.584852 g / cm^3
# Si number density = 25.907484 Si / 1000 Ang^3
#
#
#
# Elastic Constant Matrix: (Units=GPa)
#
#
# Indices 1 2 3 4 5 6 
#
# 1 53.7571 16.1168 3.4467 16.2314 1.3019 22.8691
# 2 16.1168 165.2503 33.9374 -3.7345 -3.3062 14.3267
# 3 3.4467 33.9374 59.7154 11.6614 -0.2775 1.9973
# 4 16.2314 -3.7345 11.6614 34.9546 -8.0203 -1.1801
# 5 1.3019 -3.3062 -0.2775 -8.0203 31.4061 11.0404
# 6 22.8691 14.3267 1.9973 -1.1801 11.0404 38.4244
#
#
#
# Elastic Compliance Matrix: (Units=1/GPa)
#
#
# Indices 1 2 3 4 5 6 
#
# 1 0.032486 -0.002593 0.003571 -0.017008 0.000861 -0.019323
# 2 -0.002593 0.007600 -0.004919 0.004177 0.002502 -0.001625
# 3 0.003571 -0.004919 0.021295 -0.009936 -0.002688 -0.000931
# 4 -0.017008 0.004177 -0.009936 0.042646 0.009226 0.007741
# 5 0.000861 0.002502 -0.002688 0.009226 0.038666 -0.012132
# 6 -0.019323 -0.001625 -0.000931 0.007741 -0.012132 0.041904
#
#
# Mechanical properties :
#
#
# Convention : Reuss Voigt Hill
#
# Bulk Modulus (GPa) = 18.69300 42.85827 30.77564
# Shear Modulus (GPa) = 23.77428 35.97181 29.87305
#
# Velocity S-wave (km/s) = 3.03258 3.73026 3.39937
# Velocity P-wave (km/s) = 4.41509 5.92721 5.22613
#
# Compressibility (1/GPa) = 0.05349596
#
# Stress axis : x y z
#
# Youngs Moduli (GPa) = 30.78288 131.58009 46.96028
#
# Poissons Ratio (x) = 0.34125 -0.16767
# Poissons Ratio (y) = 0.07983 0.23100
# Poissons Ratio (z) = -0.10991 0.64726
#
# Static dielectric constant tensor:
#      x y z
#    x 2.032450 -0.143660 -0.051160 
#    y -0.143660 2.058930 -0.046650 
#    z -0.051160 -0.046650 1.892600 
# 
# From -- ./inp_files/534834.got.cif
#   From: 2010.05.17/outbox.cif.g08.bks.cpg/sg2_268_cif.got.tgz:534834.got - 2010.06.03 11:33:40.
