data_PCOD9080598
_publ_section_title
;
Structure prediction by ZEFSAII (Michael W. Deem and Ramdas Pophale) SiO2 
 PCOD9080598
Probable space group: P -1
;
_chemical_formula_sum "Si O2"
_cell_formula_units_Z 14
_cell_length_a 12.575271
_cell_length_b 12.140526
_cell_length_c 8.182603
_cell_angle_alpha 57.139004
_cell_angle_beta 132.889461
_cell_angle_gamma 142.195791
_cell_volume 561.001320
_symmetry_space_group_name_H-M "P -1"
_symmetry_group_IT_number 2
_symmetry_cell_setting 'triclinic'
loop_
_space_group_symop_operation_xyz
x,y,z
-x,-y,-z
loop_
_atom_site_type_symbol
_atom_site_label
_atom_site_fract_x
_atom_site_fract_y
_atom_site_fract_z
Si Si1 0.708958 0.393911 0.166483
Si Si2 0.453441 0.355835 0.696840
Si Si3 0.958162 0.591218 0.601406
Si Si4 0.618264 0.279366 0.679536
Si Si5 0.368850 0.987047 0.235752
Si Si6 0.918929 0.854924 0.292827
Si Si7 0.749313 0.866777 0.801349
O O1 0.819438 0.483063 0.382629
O O2 0.512885 0.183870 0.152049
O O3 0.867871 0.406570 0.222109
O O4 0.622372 0.466147 0.925297
O O5 0.500000 0.500000 0.500000
O O6 0.504927 0.251034 0.745477
O O7 0.234759 0.217357 0.661104
O O8 0.819478 0.484171 0.698234
O O9 0.022038 0.780006 0.498614
O O10 0.466467 0.240297 0.412647
O O11 0.674686 0.161669 0.808506
O O12 0.205720 0.968559 0.181534
O O13 0.500000 0.000000 0.500000
O O14 0.781204 0.779951 0.045955
O O15 0.102481 0.056658 0.258644
#
# Coordination Sequence:
#
# PCOD9080598 Si02
#       7
#     2   2   2   2   2   2   2
#     4  11  24  41  68  98 130 169 227 272 321 380
#     4  12  26  45  62  98 142 176 208 267 333 402
#     4  11  22  40  71  99 121 175 225 275 320 377
#     4  11  23  39  67  94 134 176 212 264 338 387
#     4  10  18  40  65  95 127 163 223 279 310 380
#     4  11  23  42  68  97 130 169 223 275 323 381
#     4  10  22  41  69  97 125 169 227 281 313 377
#
# _framework density 24.955378
#
# number of rings (size 3 to 8) (size 9 to 14) (size 15 to 20)
#    0.000    1.143    5.714    1.714    4.000    2.857 
#    0.000    0.000    0.000    0.000    0.000    0.000 
#    0.000    0.000    0.000    0.000    0.000    0.000 
#
# Total GULP energy -78140.139897 kJ/mol
# GULP energy per Si atom -5581.438564 kJ/mol
# Density = 2.489858 g / cm^3
# Si number density = 24.955378 Si / 1000 Ang^3
#
#
#
# Elastic Constant Matrix: (Units=GPa)
#
#
# Indices 1 2 3 4 5 6 
#
# 1 141.1181 19.3446 7.1390 -5.0197 -6.2184 37.8741
# 2 19.3446 34.6221 8.9262 -16.2395 -9.6161 15.4423
# 3 7.1390 8.9262 96.4927 -14.7678 6.9533 19.7135
# 4 -5.0197 -16.2395 -14.7678 24.4128 10.1166 -3.2641
# 5 -6.2184 -9.6161 6.9533 10.1166 35.5503 -1.2197
# 6 37.8741 15.4423 19.7135 -3.2641 -1.2197 48.4000
#
#
#
# Elastic Compliance Matrix: (Units=1/GPa)
#
#
# Indices 1 2 3 4 5 6 
#
# 1 0.009205 -0.002272 0.000823 -0.000319 0.000691 -0.006818
# 2 -0.002272 0.051591 0.002896 0.032419 0.003299 -0.013593
# 3 0.000823 0.002896 0.013491 0.011563 -0.005222 -0.006415
# 4 -0.000319 0.032419 0.011563 0.074334 -0.015051 -0.010170
# 5 0.000691 0.003299 -0.005222 -0.015051 0.034460 0.000387
# 6 -0.006818 -0.013593 -0.006415 -0.010170 0.000387 0.032270
#
#
# Mechanical properties :
#
#
# Convention : Reuss Voigt Hill
#
# Bulk Modulus (GPa) = 12.95620 38.11696 25.53658
# Shear Modulus (GPa) = 20.99222 37.46083 29.22652
#
# Velocity S-wave (km/s) = 2.90347 3.87862 3.42592
# Velocity P-wave (km/s) = 4.05503 5.94689 5.08963
#
# Compressibility (1/GPa) = 0.07718310
#
# Stress axis : x y z
#
# Youngs Moduli (GPa) = 108.63730 19.38318 74.12181
#
# Poissons Ratio (x) = 0.04404 -0.06103
# Poissons Ratio (y) = 0.24682 -0.21469
# Poissons Ratio (z) = -0.08945 -0.05614
#
# Static dielectric constant tensor:
#      x y z
#    x 2.058240 -0.098380 -0.019600 
#    y -0.098380 2.137630 -0.032290 
#    z -0.019600 -0.032290 2.036870 
# 
# From -- ./inp_files/184223.got.cif
#   From: 2010.05.17/outbox.cif.g08.bks.cpg/sg2_93_cif.got.tgz:184223.got - 2010.06.03 11:33:40.
