data_PCOD9080222
_publ_section_title
;
Structure prediction by ZEFSAII (Michael W. Deem and Ramdas Pophale) SiO2 
 PCOD9080222
Probable space group: P -1
;
_chemical_formula_sum "Si O2"
_cell_formula_units_Z 14
_cell_length_a 19.663985
_cell_length_b 12.718502
_cell_length_c 16.287031
_cell_angle_alpha 24.979468
_cell_angle_beta 160.249242
_cell_angle_gamma 154.420513
_cell_volume 546.162154
_symmetry_space_group_name_H-M "P -1"
_symmetry_group_IT_number 2
_symmetry_cell_setting 'triclinic'
loop_
_space_group_symop_operation_xyz
x,y,z
-x,-y,-z
loop_
_atom_site_type_symbol
_atom_site_label
_atom_site_fract_x
_atom_site_fract_y
_atom_site_fract_z
Si Si1 0.178461 0.000095 0.607016
Si Si2 0.709344 0.540767 0.069741
Si Si3 0.694969 0.422276 0.647616
Si Si4 0.867518 0.404364 0.679336
Si Si5 0.800712 0.385564 0.440397
Si Si6 0.570505 0.986635 0.951396
Si Si7 0.255094 0.196180 0.240016
O O1 0.151880 0.283393 0.364506
O O2 0.358473 0.003109 0.743191
O O3 0.989109 0.721731 0.585011
O O4 0.273493 0.012428 0.797663
O O5 0.718850 0.569723 0.157992
O O6 0.939800 0.502234 0.341154
O O7 0.512607 0.288074 0.997287
O O8 0.717359 0.763130 0.855574
O O9 0.761061 0.341553 0.691591
O O10 0.672123 0.222043 0.837151
O O11 0.449914 0.407096 0.360822
O O12 0.725188 0.340946 0.479874
O O13 0.041031 0.254680 0.977383
O O14 0.746789 0.098920 0.538151
#
# Coordination Sequence:
#
# PCOD9080222 Si02
#       7
#     2   2   2   2   2   2   2
#     4  11  22  44  65  90 136 171 211 270 318 379
#     4  10  18  38  66  95 123 168 220 254 314 394
#     4  12  25  41  68 100 128 171 217 264 326 377
#     4  11  24  43  66  99 133 167 216 267 318 389
#     4  10  21  39  68  93 129 171 211 263 323 379
#     4  11  21  41  68  97 126 171 221 263 315 391
#     4  11  21  43  68  90 132 171 211 264 321 376
#
# _framework density 25.633413000000001
#
# number of rings (size 3 to 8) (size 9 to 14) (size 15 to 20)
#    0.000    1.143    5.714    3.429    0.000    1.143 
#    0.000    9.286    0.000    0.000    0.000    0.000 
#    0.000    0.000    0.000    0.000    0.000    0.000 
#
# Total GULP energy -78418.526042 kJ/mol
# GULP energy per Si atom -5601.323289 kJ/mol
# Density = 2.557507 g / cm^3
# Si number density = 25.633413 Si / 1000 Ang^3
#
#
#
# Elastic Constant Matrix: (Units=GPa)
#
#
# Indices 1 2 3 4 5 6 
#
# 1 126.6223 14.0471 33.6188 -17.5875 -10.8745 24.2732
# 2 14.0471 87.2352 23.0287 -12.5260 -15.4104 -3.1515
# 3 33.6188 23.0287 58.1292 -6.1859 -14.6545 13.0083
# 4 -17.5875 -12.5260 -6.1859 38.8257 8.6652 -9.9948
# 5 -10.8745 -15.4104 -14.6545 8.6652 43.0724 -9.0716
# 6 24.2732 -3.1515 13.0083 -9.9948 -9.0716 37.6479
#
#
#
# Elastic Compliance Matrix: (Units=1/GPa)
#
#
# Indices 1 2 3 4 5 6 
#
# 1 0.010389 -0.000280 -0.004747 0.002843 -0.000606 -0.004473
# 2 -0.000280 0.014325 -0.005348 0.004200 0.003481 0.005182
# 3 -0.004747 -0.005348 0.024120 -0.002388 0.004463 -0.005280
# 4 0.002843 0.004200 -0.002388 0.030468 -0.003325 0.006631
# 5 -0.000606 0.003481 0.004463 -0.003325 0.027526 0.004890
# 6 -0.004473 0.005182 -0.005280 0.006631 0.004890 0.034643
#
#
# Mechanical properties :
#
#
# Convention : Reuss Voigt Hill
#
# Bulk Modulus (GPa) = 35.60777 45.93065 40.76921
# Shear Modulus (GPa) = 29.14049 37.32866 33.23458
#
# Velocity S-wave (km/s) = 3.37533 3.82022 3.60465
# Velocity P-wave (km/s) = 5.39553 6.11686 5.76748
#
# Compressibility (1/GPa) = 0.02808376
#
# Stress axis : x y z
#
# Youngs Moduli (GPa) = 96.25363 69.80601 41.46009
#
# Poissons Ratio (x) = 0.01957 0.19681
# Poissons Ratio (y) = 0.02698 0.22173
# Poissons Ratio (z) = 0.45690 0.37333
#
# Static dielectric constant tensor:
#      x y z
#    x 2.037900 0.018280 0.043920 
#    y 0.018280 1.998870 0.028320 
#    z 0.043920 0.028320 2.005660 
# 
# From -- ./inp_files/538166.got.cif
#   From: 2010.05.17/outbox.cif.g08.bks.cpg/sg2_270_cif.got.tgz:538166.got - 2010.06.03 11:33:40.
