data_PCOD9080744
_publ_section_title
;
Structure prediction by ZEFSAII (Michael W. Deem and Ramdas Pophale) SiO2 
 PCOD9080744
Probable space group: P -1
;
_chemical_formula_sum "Si O2"
_cell_formula_units_Z 16
_cell_length_a 23.069846
_cell_length_b 21.337723
_cell_length_c 5.836531
_cell_angle_alpha 60.734521
_cell_angle_beta 125.057296
_cell_angle_gamma 162.132591
_cell_volume 702.187776
_symmetry_space_group_name_H-M "P -1"
_symmetry_group_IT_number 2
_symmetry_cell_setting 'triclinic'
loop_
_space_group_symop_operation_xyz
x,y,z
-x,-y,-z
loop_
_atom_site_type_symbol
_atom_site_label
_atom_site_fract_x
_atom_site_fract_y
_atom_site_fract_z
Si Si1 0.368699 0.211247 0.825301
Si Si2 0.683663 0.984864 0.187346
Si Si3 0.125103 0.414653 0.158925
Si Si4 0.894131 0.439829 0.152241
Si Si5 0.228467 0.382533 0.732321
Si Si6 0.098059 0.879888 0.186975
Si Si7 0.015064 0.975087 0.328767
Si Si8 0.655540 0.120036 0.838570
O O1 0.416248 0.182203 0.848652
O O2 0.233912 0.141765 0.515044
O O3 0.575917 0.442418 0.979100
O O4 0.217768 0.043767 0.990094
O O5 0.738308 0.018264 0.511927
O O6 0.903237 0.200140 0.167922
O O7 0.591568 0.976139 0.979930
O O8 0.261345 0.488781 0.480854
O O9 0.184936 0.553778 0.012264
O O10 0.076875 0.333030 0.953938
O O11 0.000000 0.500000 0.500000
O O12 0.104517 0.651182 0.107159
O O13 0.705665 0.215391 0.010180
O O14 0.023392 0.195329 0.756234
O O15 0.169780 0.260207 0.659250
O O16 0.000000 0.000000 0.500000
O O17 0.000000 0.000000 0.000000
O O18 0.500000 0.000000 0.500000
#
# Coordination Sequence:
#
# PCOD9080744 Si02
#       8
#     2   2   2   2   2   2   2   2
#     4  11  24  43  70 102 133 176 234 274 337 423
#     4   9  19  38  63  91 130 179 220 283 335 402
#     4   9  19  37  64  90 129 172 227 283 330 407
#     4  10  21  39  58  89 128 177 224 276 346 399
#     4  11  24  43  70 102 132 178 227 277 344 415
#     4  10  18  42  67  94 137 174 229 287 338 394
#     4  12  27  50  75 104 148 183 223 294 361 427
#     4  10  22  38  59  89 136 171 222 284 342 397
#
# _framework density 22.785927999999998
#
# number of rings (size 3 to 8) (size 9 to 14) (size 15 to 20)
#    0.000    1.750    3.750    1.500    1.750    3.500 
#    2.250    0.000    0.000    0.000    0.000    0.000 
#    0.000    0.000    0.000    0.000    0.000    0.000 
#
# Total GULP energy -89218.424737 kJ/mol
# GULP energy per Si atom -5576.151546 kJ/mol
# Density = 2.273407 g / cm^3
# Si number density = 22.785928 Si / 1000 Ang^3
#
#
#
# Elastic Constant Matrix: (Units=GPa)
#
#
# Indices 1 2 3 4 5 6 
#
# 1 61.8200 8.9131 38.8553 -8.5877 5.0987 -16.6338
# 2 8.9131 50.1398 19.5526 8.7282 22.3909 13.3907
# 3 38.8553 19.5526 171.6060 4.0554 22.3661 -19.4401
# 4 -8.5877 8.7282 4.0554 39.0168 0.1148 -1.7373
# 5 5.0987 22.3909 22.3661 0.1148 29.6700 -9.1405
# 6 -16.6338 13.3907 -19.4401 -1.7373 -9.1405 16.9271
#
#
#
# Elastic Compliance Matrix: (Units=1/GPa)
#
#
# Indices 1 2 3 4 5 6 
#
# 1 0.002422 0.034089 -0.005133 -0.008764 -0.038273 -0.052049
# 2 0.034089 -0.049489 0.001612 0.023193 0.064618 0.111772
# 3 -0.005133 0.001612 0.007544 -0.002317 -0.006434 -0.001367
# 4 -0.008764 0.023193 -0.002317 0.016932 -0.027477 -0.042720
# 5 -0.038273 0.064618 -0.006434 -0.027477 -0.040793 -0.120965
# 6 -0.052049 0.111772 -0.001367 -0.042720 -0.120965 -0.151765
#
#
# Mechanical properties :
#
#
# Convention : Reuss Voigt Hill
#
# Bulk Modulus (GPa) = 46.26877 46.46754 46.36815
# Shear Modulus (GPa) = -18.58188 31.53910 6.47861
#
# Velocity S-wave (km/s) = -2.85879 3.72445 1.68802
# Velocity P-wave (km/s) = 3.07458 6.23961 4.91863
#
# Compressibility (1/GPa) = 0.02161285
#
# Stress axis : x y z
#
# Youngs Moduli (GPa) = 412.87518 -20.20661 132.55024
#
# Poissons Ratio (x) = 0.68882 0.68042
# Poissons Ratio (y) = -14.07441 -0.21369
# Poissons Ratio (z) = 2.11941 0.03258
#
# Static dielectric constant tensor:
#      x y z
#    x 1.968250 -0.052110 0.020080 
#    y -0.052110 1.969820 -0.092380 
#    z 0.020080 -0.092380 1.893780 
# 
# From -- ./inp_files/116511.got.cif
#   From: 2010.05.17/outbox.cif.g08.bks.cpg/sg2_59_cif.got.tgz:116511.got - 2010.06.03 11:33:40.
