data_PCOD9080876
_publ_section_title
;
Structure prediction by ZEFSAII (Michael W. Deem and Ramdas Pophale) SiO2 
 PCOD9080876
Probable space group: P -1
;
_chemical_formula_sum "Si O2"
_cell_formula_units_Z 16
_cell_length_a 18.889610
_cell_length_b 15.191953
_cell_length_c 11.338422
_cell_angle_alpha 151.207140
_cell_angle_beta 38.657525
_cell_angle_gamma 145.388036
_cell_volume 868.775598
_symmetry_space_group_name_H-M "P -1"
_symmetry_group_IT_number 2
_symmetry_cell_setting 'triclinic'
loop_
_space_group_symop_operation_xyz
x,y,z
-x,-y,-z
loop_
_atom_site_type_symbol
_atom_site_label
_atom_site_fract_x
_atom_site_fract_y
_atom_site_fract_z
Si Si1 0.837311 0.622394 0.066732
Si Si2 0.510277 0.817401 0.341453
Si Si3 0.255540 0.506158 0.228787
Si Si4 0.074803 0.678010 0.707762
Si Si5 0.800010 0.927455 0.139276
Si Si6 0.498029 0.851067 0.670405
Si Si7 0.228777 0.037117 0.511228
Si Si8 0.317270 0.731602 0.973677
O O1 0.772682 0.516658 0.901099
O O2 0.754057 0.479823 0.112771
O O3 0.979226 0.643809 0.899076
O O4 0.838638 0.842650 0.319734
O O5 0.406368 0.606477 0.171712
O O6 0.655990 0.859509 0.203501
O O7 0.473062 0.816988 0.525773
O O8 0.500000 0.000000 0.500000
O O9 0.201536 0.651403 0.527992
O O10 0.185531 0.278665 0.108236
O O11 0.000000 0.500000 0.500000
O O12 0.107850 0.895028 0.858542
O O13 0.812971 0.014438 0.358330
O O14 0.617905 0.809037 0.498464
O O15 0.561837 0.096357 0.906664
O O16 0.377262 0.729426 0.767412
O O17 0.224596 0.840174 0.220163
#
# Coordination Sequence:
#
# PCOD9080876 Si02
#       8
#     2   2   2   2   2   2   2   2
#     4  10  19  29  51  73  98 131 164 195 244 290
#     4  11  18  32  56  73 103 131 160 204 250 299
#     4  10  20  32  49  75 104 132 163 200 250 295
#     4  10  20  31  46  74 102 136 166 199 242 291
#     4  10  19  32  48  75 105 129 163 201 248 299
#     4   8  18  31  49  73 100 126 159 200 253 290
#     4   8  16  29  46  71  97 125 156 200 242 288
#     4   9  16  33  48  69 104 123 160 205 243 291
#
# _framework density 18.416723000000001
#
# number of rings (size 3 to 8) (size 9 to 14) (size 15 to 20)
#    0.750    1.750    1.250    2.625    0.000    6.000 
#    0.000    0.000    0.000    0.750    0.000    1.750 
#    0.000    0.000    0.000    0.000    0.000    0.000 
#
# Total GULP energy -89093.128208 kJ/mol
# GULP energy per Si atom -5568.320513 kJ/mol
# Density = 1.837481 g / cm^3
# Si number density = 18.416723 Si / 1000 Ang^3
#
#
#
# Elastic Constant Matrix: (Units=GPa)
#
#
# Indices 1 2 3 4 5 6 
#
# 1 28.3440 11.4731 8.9623 -2.9441 -10.5241 -0.9822
# 2 11.4731 101.9844 7.6393 -0.6500 -2.9995 -18.1397
# 3 8.9623 7.6393 28.7089 -3.6490 -9.8806 -11.5728
# 4 -2.9441 -0.6500 -3.6490 22.9532 -0.3088 0.7787
# 5 -10.5241 -2.9995 -9.8806 -0.3088 20.3346 5.1543
# 6 -0.9822 -18.1397 -11.5728 0.7787 5.1543 20.3088
#
#
#
# Elastic Compliance Matrix: (Units=1/GPa)
#
#
# Indices 1 2 3 4 5 6 
#
# 1 0.050705 -0.007085 -0.011895 0.005305 0.023780 -0.016892
# 2 -0.007085 0.012697 0.002950 -0.000596 -0.003836 0.013676
# 3 -0.011895 0.002950 0.055346 0.006527 0.013699 0.029871
# 4 0.005305 -0.000596 0.006527 0.045354 0.006504 0.000054
# 5 0.023780 -0.003836 0.013699 0.006504 0.070896 -0.012712
# 6 -0.016892 0.013676 0.029871 0.000054 -0.012712 0.080884
#
#
# Mechanical properties :
#
#
# Convention : Reuss Voigt Hill
#
# Bulk Modulus (GPa) = 11.53543 23.90963 17.72253
# Shear Modulus (GPa) = 13.26832 21.45016 17.35924
#
# Velocity S-wave (km/s) = 2.68703 3.41649 3.07348
# Velocity P-wave (km/s) = 3.98798 5.34546 4.71582
#
# Compressibility (1/GPa) = 0.08668946
#
# Stress axis : x y z
#
# Youngs Moduli (GPa) = 19.72211 78.75674 18.06802
#
# Poissons Ratio (x) = 0.55796 0.21491
# Poissons Ratio (y) = 0.13972 -0.05330
# Poissons Ratio (z) = 0.23459 -0.23233
#
# Static dielectric constant tensor:
#      x y z
#    x 1.641550 0.029760 -0.045990 
#    y 0.029760 1.641340 -0.010010 
#    z -0.045990 -0.010010 1.682260 
# 
# From -- ./inp_files/471627.got.cif
#   From: 2010.05.17/outbox.cif.g08.bks.cpg/sg2_236_cif.got.tgz:471627.got - 2010.06.03 11:33:40.
