data_PCOD9080068
_publ_section_title
;
Structure prediction by ZEFSAII (Michael W. Deem and Ramdas Pophale) SiO2 
 PCOD9080068
Probable space group: P -1
;
_chemical_formula_sum "Si O2"
_cell_formula_units_Z 16
_cell_length_a 21.656342
_cell_length_b 21.494100
_cell_length_c 7.753169
_cell_angle_alpha 36.521026
_cell_angle_beta 33.095040
_cell_angle_gamma 19.694512
_cell_volume 661.929397
_symmetry_space_group_name_H-M "P -1"
_symmetry_group_IT_number 2
_symmetry_cell_setting 'triclinic'
loop_
_space_group_symop_operation_xyz
x,y,z
-x,-y,-z
loop_
_atom_site_type_symbol
_atom_site_label
_atom_site_fract_x
_atom_site_fract_y
_atom_site_fract_z
Si Si1 0.042033 0.841829 0.925242
Si Si2 0.124418 0.555668 0.457264
Si Si3 0.565105 0.419960 0.277769
Si Si4 0.286918 0.788239 0.941484
Si Si5 0.361612 0.366677 0.966730
Si Si6 0.715699 0.984086 0.168567
Si Si7 0.240489 0.268623 0.260025
Si Si8 0.509811 0.819561 0.376421
O O1 0.048848 0.731198 0.273941
O O2 0.917901 0.028567 0.891347
O O3 0.916355 0.897836 0.928865
O O4 0.272994 0.697765 0.686041
O O5 0.273860 0.395380 0.604572
O O6 0.938317 0.625053 0.687646
O O7 0.251903 0.466742 0.181284
O O8 0.700044 0.295884 0.066905
O O9 0.413911 0.439067 0.605785
O O10 0.443002 0.618576 0.089206
O O11 0.375787 0.831758 0.579121
O O12 0.570245 0.148023 0.007577
O O13 0.229560 0.387786 0.116214
O O14 0.599858 0.073598 0.425320
O O15 0.753878 0.831823 0.394031
O O16 0.442019 0.126468 0.990704
#
# Coordination Sequence:
#
# PCOD9080068 Si02
#       8
#     2   2   2   2   2   2   2   2
#     4  10  21  41  63  88 123 163 204 253 303 356
#     4  10  22  39  60  91 126 158 208 255 302 368
#     4  11  22  40  66  90 128 163 201 254 312 364
#     4  10  21  40  64  95 126 156 206 261 299 367
#     4  11  23  40  60  89 127 171 197 249 319 362
#     4   9  22  38  60  89 126 156 207 256 301 368
#     4  11  20  38  63  87 124 164 207 252 307 362
#     4  10  18  38  62  92 119 164 203 254 310 356
#
# _framework density 24.171762999999999
#
# number of rings (size 3 to 8) (size 9 to 14) (size 15 to 20)
#    0.000    1.750    2.500    1.875    0.000    1.000 
#    4.500    0.000    0.000    0.000    0.000    0.000 
#    0.000    0.000    0.000    0.000    0.000    0.000 
#
# Total GULP energy -89456.945546 kJ/mol
# GULP energy per Si atom -5591.059097 kJ/mol
# Density = 2.411675 g / cm^3
# Si number density = 24.171763 Si / 1000 Ang^3
#
#
#
# Elastic Constant Matrix: (Units=GPa)
#
#
# Indices 1 2 3 4 5 6 
#
# 1 65.3080 18.4762 16.0025 2.0672 -10.0219 7.4962
# 2 18.4762 94.4070 16.0103 -8.8638 -14.0097 -7.2402
# 3 16.0025 16.0103 71.9378 2.8153 -12.5594 8.6884
# 4 2.0672 -8.8638 2.8153 21.7017 -0.1477 -5.6695
# 5 -10.0219 -14.0097 -12.5594 -0.1477 29.5755 1.8246
# 6 7.4962 -7.2402 8.6884 -5.6695 1.8246 31.8032
#
#
#
# Elastic Compliance Matrix: (Units=1/GPa)
#
#
# Indices 1 2 3 4 5 6 
#
# 1 0.018127 -0.003496 -0.001689 -0.004376 0.004094 -0.005622
# 2 -0.003496 0.013428 -0.002542 0.007669 0.003782 0.005726
# 3 -0.001689 -0.002542 0.016720 -0.004545 0.005664 -0.005883
# 4 -0.004376 0.007669 -0.004545 0.053775 -0.000352 0.013626
# 5 0.004094 0.003782 0.005664 -0.000352 0.039640 -0.003988
# 6 -0.005622 0.005726 -0.005883 0.013626 -0.003988 0.038337
#
#
# Mechanical properties :
#
#
# Convention : Reuss Voigt Hill
#
# Bulk Modulus (GPa) = 30.46890 36.95899 33.71394
# Shear Modulus (GPa) = 24.22227 28.69368 26.45798
#
# Velocity S-wave (km/s) = 3.16901 3.44913 3.31204
# Velocity P-wave (km/s) = 5.10125 5.58439 5.34827
#
# Compressibility (1/GPa) = 0.03282036
#
# Stress axis : x y z
#
# Youngs Moduli (GPa) = 55.16625 74.47110 59.80950
#
# Poissons Ratio (x) = 0.26032 0.10104
# Poissons Ratio (y) = 0.19284 0.15206
# Poissons Ratio (z) = 0.09319 0.18933
#
# Static dielectric constant tensor:
#      x y z
#    x 1.969280 0.014080 -0.010880 
#    y 0.014080 1.954210 -0.004950 
#    z -0.010880 -0.004950 1.902930 
# 
# From -- ./inp_files/203722.got.cif
#   From: 2010.05.17/outbox.cif.g08.bks.cpg/sg2_102_cif.got.tgz:203722.got - 2010.06.03 11:33:40.
