data_PCOD9080951
_publ_section_title
;
Structure prediction by ZEFSAII (Michael W. Deem and Ramdas Pophale) SiO2 
 PCOD9080951
Probable space group: P -1
;
_chemical_formula_sum "Si O2"
_cell_formula_units_Z 14
_cell_length_a 9.570263
_cell_length_b 16.881829
_cell_length_c 15.451580
_cell_angle_alpha 147.700388
_cell_angle_beta 44.320552
_cell_angle_gamma 153.731464
_cell_volume 580.751243
_symmetry_space_group_name_H-M "P -1"
_symmetry_group_IT_number 2
_symmetry_cell_setting 'triclinic'
loop_
_space_group_symop_operation_xyz
x,y,z
-x,-y,-z
loop_
_atom_site_type_symbol
_atom_site_label
_atom_site_fract_x
_atom_site_fract_y
_atom_site_fract_z
Si Si1 0.006979 0.088737 0.216230
Si Si2 0.721696 0.757342 0.593050
Si Si3 0.423112 0.906527 0.848971
Si Si4 0.453320 0.947693 0.572066
Si Si5 0.607192 0.236449 0.916332
Si Si6 0.793160 0.475616 0.639260
Si Si7 0.358960 0.471573 0.739981
O O1 0.010194 0.036415 0.265607
O O2 0.368066 0.274077 0.196611
O O3 0.906026 0.201912 0.381370
O O4 0.739829 0.893194 0.083947
O O5 0.500000 0.500000 0.500000
O O6 0.542675 0.805637 0.692865
O O7 0.830159 0.733743 0.437062
O O8 0.044812 0.684496 0.790222
O O9 0.561145 0.093816 0.884435
O O10 0.500000 0.000000 0.000000
O O11 0.452365 0.779552 0.444212
O O12 0.500000 0.000000 0.500000
O O13 0.669198 0.180637 0.749443
O O14 0.794425 0.494606 0.097960
O O15 0.580201 0.481390 0.699465
O O16 0.000000 0.500000 0.500000
#
# Coordination Sequence:
#
# PCOD9080951 Si02
#       7
#     2   2   2   2   2   2   2
#     4   9  18  32  55  77 114 145 186 223 291 327
#     4  10  19  30  48  83 113 145 182 238 290 334
#     4  12  22  32  55  89 121 144 190 242 295 336
#     4  10  21  37  60  81 116 159 194 226 283 352
#     4  10  21  35  55  82 114 151 187 232 292 334
#     4  12  18  37  58  88 111 152 194 239 281 341
#     4  11  18  31  59  84 116 139 189 250 288 330
#
# _framework density 24.106707
#
# number of rings (size 3 to 8) (size 9 to 14) (size 15 to 20)
#    0.857    0.571    5.714    3.000    2.000    0.000 
#    0.000    0.714    0.000    6.857    0.000    0.000 
#    0.000    0.000    0.000    0.000    0.000    0.000 
#
# Total GULP energy -78016.629398 kJ/mol
# GULP energy per Si atom -5572.616386 kJ/mol
# Density = 2.405184 g / cm^3
# Si number density = 24.106707 Si / 1000 Ang^3
#
#
#
# Elastic Constant Matrix: (Units=GPa)
#
#
# Indices 1 2 3 4 5 6 
#
# 1 127.1567 23.3292 72.0139 -7.6588 10.4351 -31.6785
# 2 23.3292 58.2066 58.6390 -5.7016 0.5447 -10.7694
# 3 72.0139 58.6390 189.1084 -25.7803 19.8097 -27.5131
# 4 -7.6588 -5.7016 -25.7803 33.9319 3.5189 5.2936
# 5 10.4351 0.5447 19.8097 3.5189 72.7346 -1.6302
# 6 -31.6785 -10.7694 -27.5131 5.2936 -1.6302 27.2400
#
#
#
# Elastic Compliance Matrix: (Units=1/GPa)
#
#
# Indices 1 2 3 4 5 6 
#
# 1 0.012534 0.000335 -0.003320 -0.001386 -0.000570 0.011591
# 2 0.000335 0.025586 -0.008227 -0.002542 0.002187 0.002821
# 3 -0.003320 -0.008227 0.010472 0.005746 -0.002543 0.002195
# 4 -0.001386 -0.002542 0.005746 0.033977 -0.003072 -0.003600
# 5 -0.000570 0.002187 -0.002543 -0.003072 0.014635 -0.000894
# 6 0.011591 0.002821 0.002195 -0.003600 -0.000894 0.054169
#
#
# Mechanical properties :
#
#
# Convention : Reuss Voigt Hill
#
# Bulk Modulus (GPa) = 38.21276 75.82621 57.01949
# Shear Modulus (GPa) = 27.39448 41.48060 34.43754
#
# Velocity S-wave (km/s) = 3.37469 4.15264 3.78371
# Velocity P-wave (km/s) = 5.57410 7.38345 6.54163
#
# Compressibility (1/GPa) = 0.02616927
#
# Stress axis : x y z
#
# Youngs Moduli (GPa) = 79.78392 39.08370 95.49067
#
# Poissons Ratio (x) = -0.01309 0.31701
# Poissons Ratio (y) = -0.02673 0.78557
# Poissons Ratio (z) = 0.26487 0.32153
#
# Static dielectric constant tensor:
#      x y z
#    x 2.042580 0.150100 0.013480 
#    y 0.150100 1.716300 -0.054390 
#    z 0.013480 -0.054390 1.985280 
# 
# From -- ./inp_files/502131.got.cif
#   From: 2010.05.17/outbox.cif.g08.bks.cpg/sg2_252_cif.got.tgz:502131.got - 2010.06.03 11:33:40.
