data_PCOD9080705
_publ_section_title
;
Structure prediction by ZEFSAII (Michael W. Deem and Ramdas Pophale) SiO2 
 PCOD9080705
Probable space group: P -1
;
_chemical_formula_sum "Si O2"
_cell_formula_units_Z 16
_cell_length_a 14.019982
_cell_length_b 8.425874
_cell_length_c 9.051752
_cell_angle_alpha 117.147674
_cell_angle_beta 123.208685
_cell_angle_gamma 60.770517
_cell_volume 754.173481
_symmetry_space_group_name_H-M "P -1"
_symmetry_group_IT_number 2
_symmetry_cell_setting 'triclinic'
loop_
_space_group_symop_operation_xyz
x,y,z
-x,-y,-z
loop_
_atom_site_type_symbol
_atom_site_label
_atom_site_fract_x
_atom_site_fract_y
_atom_site_fract_z
Si Si1 0.067423 0.845870 0.873827
Si Si2 0.751044 0.605880 0.527019
Si Si3 0.020386 0.484491 0.689125
Si Si4 0.333862 0.041088 0.611546
Si Si5 0.442739 0.295947 0.011685
Si Si6 0.908799 0.923532 0.479404
Si Si7 0.313571 0.669452 0.878968
Si Si8 0.455533 0.319409 0.378211
O O1 0.199441 0.830097 0.918811
O O2 0.082478 0.635007 0.853205
O O3 0.975028 0.880278 0.674369
O O4 0.000000 0.000000 0.000000
O O5 0.888152 0.537496 0.666822
O O6 0.726472 0.795960 0.489968
O O7 0.732855 0.443399 0.335653
O O8 0.657564 0.645535 0.596702
O O9 0.000000 0.500000 0.500000
O O10 0.093108 0.268409 0.682534
O O11 0.230598 0.966551 0.562656
O O12 0.438114 0.866402 0.559966
O O13 0.390955 0.148001 0.824221
O O14 0.581719 0.258633 0.066538
O O15 0.430411 0.289505 0.173347
O O16 0.374142 0.506472 0.981341
O O17 0.000000 0.000000 0.500000
O O18 0.500000 0.500000 0.500000
#
# Coordination Sequence:
#
# PCOD9080705 Si02
#       8
#     2   2   2   2   2   2   2   2
#     4  11  23  42  68 100 129 167 216 270 324 395
#     4  11  20  42  70  92 129 175 217 264 321 397
#     4  10  18  41  67  91 125 172 215 252 324 394
#     4  11  24  44  66  93 133 175 219 259 332 395
#     4  10  23  43  65  97 126 176 213 268 321 385
#     4  11  24  43  71  97 126 175 219 269 326 393
#     4  10  20  41  71  90 130 174 214 255 332 391
#     4  12  26  39  63 100 133 167 219 277 321 371
#
# _framework density 21.215278999999999
#
# number of rings (size 3 to 8) (size 9 to 14) (size 15 to 20)
#    0.000    1.250    6.250    1.500    3.500    2.000 
#    2.250    0.625    0.000    0.000    0.000    0.000 
#    0.000    0.000    0.000    0.000    0.000    0.000 
#
# Total GULP energy -89426.023776 kJ/mol
# GULP energy per Si atom -5589.126486 kJ/mol
# Density = 2.116699 g / cm^3
# Si number density = 21.215279 Si / 1000 Ang^3
#
#
#
# Elastic Constant Matrix: (Units=GPa)
#
#
# Indices 1 2 3 4 5 6 
#
# 1 177.8976 18.5613 32.8320 8.7910 -13.9830 -29.5499
# 2 18.5613 41.6876 19.9003 16.6420 -14.9411 -15.1885
# 3 32.8320 19.9003 43.5051 8.9779 -10.0083 -3.9899
# 4 8.7910 16.6420 8.9779 24.4899 -8.0235 -0.4682
# 5 -13.9830 -14.9411 -10.0083 -8.0235 29.6149 6.8962
# 6 -29.5499 -15.1885 -3.9899 -0.4682 6.8962 43.1416
#
#
#
# Elastic Compliance Matrix: (Units=1/GPa)
#
#
# Indices 1 2 3 4 5 6 
#
# 1 0.007451 0.002364 -0.005604 -0.001758 0.001125 0.005219
# 2 0.002364 0.050053 -0.015560 -0.025402 0.010539 0.015842
# 3 -0.005604 -0.015560 0.034204 0.000847 0.002828 -0.006596
# 4 -0.001758 -0.025402 0.000847 0.059946 0.005271 -0.010261
# 5 0.001125 0.010539 0.002828 0.005271 0.042462 -0.001988
# 6 0.005219 0.015842 -0.006596 -0.010261 -0.001988 0.031928
#
#
# Mechanical properties :
#
#
# Convention : Reuss Voigt Hill
#
# Bulk Modulus (GPa) = 18.48183 45.07528 31.77855
# Shear Modulus (GPa) = 17.75066 32.23573 24.99320
#
# Velocity S-wave (km/s) = 2.89570 3.90225 3.43603
# Velocity P-wave (km/s) = 4.46213 6.44951 5.54557
#
# Compressibility (1/GPa) = 0.05410721
#
# Stress axis : x y z
#
# Youngs Moduli (GPa) = 134.20968 19.97884 29.23661
#
# Poissons Ratio (x) = -0.04724 0.16385
# Poissons Ratio (y) = -0.31734 0.45493
# Poissons Ratio (z) = 0.75214 0.31088
#
# Static dielectric constant tensor:
#      x y z
#    x 1.769250 0.026780 -0.000630 
#    y 0.026780 1.818200 -0.009730 
#    z -0.000630 -0.009730 1.744090 
# 
# From -- ./inp_files/225182.got.cif
#   From: 2010.05.17/outbox.cif.g08.bks.cpg/sg2_113_cif.got.tgz:225182.got - 2010.06.03 11:33:40.
