data_PCOD9080742
_publ_section_title
;
Structure prediction by ZEFSAII (Michael W. Deem and Ramdas Pophale) SiO2 
 PCOD9080742
Probable space group: P -1
;
_chemical_formula_sum "Si O2"
_cell_formula_units_Z 16
_cell_length_a 10.292613
_cell_length_b 9.623586
_cell_length_c 12.240529
_cell_angle_alpha 100.698907
_cell_angle_beta 103.778894
_cell_angle_gamma 137.423284
_cell_volume 665.680090
_symmetry_space_group_name_H-M "P -1"
_symmetry_group_IT_number 2
_symmetry_cell_setting 'triclinic'
loop_
_space_group_symop_operation_xyz
x,y,z
-x,-y,-z
loop_
_atom_site_type_symbol
_atom_site_label
_atom_site_fract_x
_atom_site_fract_y
_atom_site_fract_z
Si Si1 0.130307 0.908749 0.443889
Si Si2 0.989671 0.322509 0.989811
Si Si3 0.206896 0.801868 0.661408
Si Si4 0.146747 0.492729 0.268302
Si Si5 0.512537 0.560639 0.387949
Si Si6 0.627634 0.020205 0.694861
Si Si7 0.624497 0.516814 0.193998
Si Si8 0.488176 0.288155 0.914038
O O1 0.322952 0.020530 0.411771
O O2 0.885586 0.696035 0.301834
O O3 0.127028 0.813544 0.538427
O O4 0.234213 0.149832 0.533655
O O5 0.792419 0.104016 0.835589
O O6 0.964617 0.285918 0.108785
O O7 0.240479 0.476503 0.032215
O O8 0.000000 0.500000 0.000000
O O9 0.368883 0.812460 0.658140
O O10 0.366941 0.047850 0.800744
O O11 0.991858 0.580306 0.663396
O O12 0.316122 0.508271 0.322991
O O13 0.291027 0.749617 0.287248
O O14 0.500000 0.500000 0.500000
O O15 0.495088 0.429636 0.270240
O O16 0.627886 0.672351 0.155564
O O17 0.500218 0.308607 0.050687
#
# Coordination Sequence:
#
# PCOD9080742 Si02
#       8
#     2   2   2   2   2   2   2   2
#     4  12  24  44  71  98 135 187 226 278 349 402
#     4  10  18  42  67  90 136 174 211 284 339 384
#     4  12  24  43  72  99 138 179 223 281 349 400
#     4  11  24  43  70 101 138 178 226 284 340 406
#     4  12  25  45  65  98 144 179 230 285 331 407
#     4  11  23  45  70 100 140 175 226 285 342 406
#     4  11  23  41  70  95 130 184 232 268 341 401
#     4  11  21  42  68  97 132 178 223 284 333 403
#
# _framework density 24.035568000000001
#
# number of rings (size 3 to 8) (size 9 to 14) (size 15 to 20)
#    0.000    0.750    7.500    1.500    1.750    1.000 
#    4.500    0.625    0.000    0.000    0.000    0.000 
#    0.000    0.000    0.000    0.000    0.000    0.000 
#
# Total GULP energy -89619.219298 kJ/mol
# GULP energy per Si atom -5601.201206 kJ/mol
# Density = 2.398086 g / cm^3
# Si number density = 24.035568 Si / 1000 Ang^3
#
#
#
# Elastic Constant Matrix: (Units=GPa)
#
#
# Indices 1 2 3 4 5 6 
#
# 1 104.7346 33.6593 56.2321 -5.3250 1.2922 28.8726
# 2 33.6593 68.6197 49.5142 -6.9132 -4.4465 21.7092
# 3 56.2321 49.5142 209.8218 -24.4549 -0.7675 9.5270
# 4 -5.3250 -6.9132 -24.4549 35.0892 5.8225 -11.5836
# 5 1.2922 -4.4465 -0.7675 5.8225 51.8384 -4.6380
# 6 28.8726 21.7092 9.5270 -11.5836 -4.6380 34.5519
#
#
#
# Elastic Compliance Matrix: (Units=1/GPa)
#
#
# Indices 1 2 3 4 5 6 
#
# 1 0.015208 -0.001354 -0.003715 -0.004478 -0.001165 -0.012491
# 2 -0.001354 0.022382 -0.004745 -0.003462 0.001142 -0.012630
# 3 -0.003715 -0.004745 0.007260 0.005562 -0.000303 0.005908
# 4 -0.004478 -0.003462 0.005562 0.036880 -0.002780 0.016374
# 5 -0.001165 0.001142 -0.000303 -0.002780 0.019912 0.002080
# 6 -0.012491 -0.012630 0.005908 0.016374 0.002080 0.051455
#
#
# Mechanical properties :
#
#
# Convention : Reuss Voigt Hill
#
# Bulk Modulus (GPa) = 39.64743 73.55412 56.60078
# Shear Modulus (GPa) = 27.60421 40.54728 34.07574
#
# Velocity S-wave (km/s) = 3.39259 4.11173 3.76935
# Velocity P-wave (km/s) = 5.64600 7.29455 6.52257
#
# Compressibility (1/GPa) = 0.02522232
#
# Stress axis : x y z
#
# Youngs Moduli (GPa) = 65.75564 44.67898 137.73772
#
# Poissons Ratio (x) = 0.06049 0.51173
# Poissons Ratio (y) = 0.08902 0.65352
# Poissons Ratio (z) = 0.24430 0.21199
#
# Static dielectric constant tensor:
#      x y z
#    x 1.812080 -0.163940 -0.044540 
#    y -0.163940 1.632430 -0.004580 
#    z -0.044540 -0.004580 1.934420 
# 
# From -- ./inp_files/423802.got.cif
#   From: 2010.05.17/outbox.cif.g08.bks.cpg/sg2_212_cif.got.tgz:423802.got - 2010.06.03 11:33:40.
