data_PCOD9080628
_publ_section_title
;
Structure prediction by ZEFSAII (Michael W. Deem and Ramdas Pophale) SiO2 
 PCOD9080628
Probable space group: P -1
;
_chemical_formula_sum "Si O2"
_cell_formula_units_Z 16
_cell_length_a 9.884333
_cell_length_b 15.507178
_cell_length_c 9.348330
_cell_angle_alpha 118.654266
_cell_angle_beta 123.102315
_cell_angle_gamma 100.701905
_cell_volume 835.569494
_symmetry_space_group_name_H-M "P -1"
_symmetry_group_IT_number 2
_symmetry_cell_setting 'triclinic'
loop_
_space_group_symop_operation_xyz
x,y,z
-x,-y,-z
loop_
_atom_site_type_symbol
_atom_site_label
_atom_site_fract_x
_atom_site_fract_y
_atom_site_fract_z
Si Si1 0.663569 0.637003 0.635036
Si Si2 0.626558 0.123245 0.477456
Si Si3 0.784493 0.871829 0.263463
Si Si4 0.105436 0.302289 0.914472
Si Si5 0.472081 0.847033 0.239682
Si Si6 0.483229 0.508231 0.828499
Si Si7 0.497353 0.215160 0.231094
Si Si8 0.233457 0.618404 0.719560
O O1 0.500000 0.500000 0.500000
O O2 0.666430 0.615215 0.451633
O O3 0.588660 0.718796 0.690533
O O4 0.862437 0.690611 0.889421
O O5 0.574543 0.155512 0.623772
O O6 0.521736 0.138740 0.297596
O O7 0.870171 0.226346 0.682199
O O8 0.547064 0.981493 0.331716
O O9 0.824792 0.775481 0.171276
O O10 0.661417 0.845446 0.315731
O O11 0.652000 0.865719 0.051109
O O12 0.000000 0.000000 0.500000
O O13 0.290033 0.433798 0.057640
O O14 0.291875 0.726350 0.951550
O O15 0.386079 0.581405 0.803343
O O16 0.500000 0.500000 0.000000
O O17 0.706934 0.320688 0.355275
O O18 0.000000 0.500000 0.500000
#
# Coordination Sequence:
#
# PCOD9080628 Si02
#       8
#     2   2   2   2   2   2   2   2
#     4   9  18  39  60  81 125 162 199 258 309 371
#     4  11  24  39  66  95 126 168 211 262 327 368
#     4  10  18  40  67  83 119 167 202 253 314 370
#     4  10  20  39  63  88 119 171 208 248 320 376
#     4  10  23  43  62  90 137 158 210 270 314 376
#     4  11  23  38  60  93 124 162 217 263 308 373
#     4  10  22  40  63  94 122 161 214 257 314 384
#     4  11  24  41  61  90 131 167 207 263 326 372
#
# _framework density 19.148617000000002
#
# number of rings (size 3 to 8) (size 9 to 14) (size 15 to 20)
#    0.000    1.750    6.250    0.000    5.250    2.000 
#    0.000    3.750    0.000    0.000    0.000    0.000 
#    0.000    0.000    0.000    0.000    0.000    0.000 
#
# Total GULP energy -89119.697416 kJ/mol
# GULP energy per Si atom -5569.981088 kJ/mol
# Density = 1.910503 g / cm^3
# Si number density = 19.148617 Si / 1000 Ang^3
#
#
#
# Elastic Constant Matrix: (Units=GPa)
#
#
# Indices 1 2 3 4 5 6 
#
# 1 87.2211 19.7829 43.9439 -8.8371 -9.3443 10.7849
# 2 19.7829 43.6367 4.1118 -12.1770 -0.3338 11.3726
# 3 43.9439 4.1118 82.6597 13.9235 -3.1285 4.1520
# 4 -8.8371 -12.1770 13.9235 25.5374 5.9736 -0.9233
# 5 -9.3443 -0.3338 -3.1285 5.9736 44.5644 0.6739
# 6 10.7849 11.3726 4.1520 -0.9233 0.6739 20.2463
#
#
#
# Elastic Compliance Matrix: (Units=1/GPa)
#
#
# Indices 1 2 3 4 5 6 
#
# 1 0.020578 -0.003329 -0.012345 0.011585 0.001963 -0.006097
# 2 -0.003329 0.032983 -0.001801 0.015561 -0.002428 -0.015594
# 3 -0.012345 -0.001801 0.021551 -0.017068 0.001163 0.002351
# 4 0.011585 0.015561 -0.017068 0.061162 -0.006724 -0.008399
# 5 0.001963 -0.002428 0.001163 -0.006724 0.023831 -0.001020
# 6 -0.006097 -0.015594 0.002351 -0.008399 -0.001020 0.060568
#
#
# Mechanical properties :
#
#
# Convention : Reuss Voigt Hill
#
# Bulk Modulus (GPa) = 24.89848 38.79942 31.84895
# Shear Modulus (GPa) = 18.58668 27.78155 23.18411
#
# Velocity S-wave (km/s) = 3.11891 3.81312 3.48335
# Velocity P-wave (km/s) = 5.09913 6.30022 5.73123
#
# Compressibility (1/GPa) = 0.04016309
#
# Stress axis : x y z
#
# Youngs Moduli (GPa) = 48.59646 30.31819 46.40152
#
# Poissons Ratio (x) = 0.10093 0.57282
# Poissons Ratio (y) = 0.16178 0.08356
# Poissons Ratio (z) = 0.59991 0.05459
#
# Static dielectric constant tensor:
#      x y z
#    x 1.680230 -0.009030 -0.023360 
#    y -0.009030 1.629940 -0.060210 
#    z -0.023360 -0.060210 1.588240 
# 
# From -- ./inp_files/208852.got.cif
#   From: 2010.05.17/outbox.cif.g08.bks.cpg/sg2_105_cif.got.tgz:208852.got - 2010.06.03 11:33:40.
