data_PCOD9080756
_publ_section_title
;
Structure prediction by ZEFSAII (Michael W. Deem and Ramdas Pophale) SiO2 
 PCOD9080756
Probable space group: P -1
;
_chemical_formula_sum "Si O2"
_cell_formula_units_Z 15
_cell_length_a 10.275958
_cell_length_b 8.571967
_cell_length_c 8.407305
_cell_angle_alpha 78.530210
_cell_angle_beta 119.246872
_cell_angle_gamma 117.874440
_cell_volume 570.763869
_symmetry_space_group_name_H-M "P -1"
_symmetry_group_IT_number 2
_symmetry_cell_setting 'triclinic'
loop_
_space_group_symop_operation_xyz
x,y,z
-x,-y,-z
loop_
_atom_site_type_symbol
_atom_site_label
_atom_site_fract_x
_atom_site_fract_y
_atom_site_fract_z
Si Si1 0.976263 0.751909 0.941178
Si Si2 0.000000 0.500000 0.500000
Si Si3 0.202134 0.599886 0.926032
Si Si4 0.702141 0.990152 0.792188
Si Si5 0.491016 0.311954 0.071143
Si Si6 0.140372 0.178736 0.476775
Si Si7 0.282112 0.576481 0.512823
Si Si8 0.528401 0.816698 0.391269
O O1 0.101601 0.683309 0.946778
O O2 0.899162 0.811130 0.734902
O O3 0.102071 0.892202 0.108578
O O4 0.834859 0.586557 0.977858
O O5 0.873807 0.434902 0.287547
O O6 0.851394 0.348046 0.561316
O O7 0.395959 0.717940 0.989057
O O8 0.577926 0.079476 0.743174
O O9 0.676381 0.852012 0.949581
O O10 0.632651 0.913929 0.592218
O O11 0.582190 0.348352 0.288299
O O12 0.500000 0.500000 0.000000
O O13 0.153210 0.369187 0.511384
O O14 0.324207 0.195731 0.617209
O O15 0.000000 0.000000 0.500000
O O16 0.383917 0.626112 0.400762
#
# Coordination Sequence:
#
# PCOD9080756 Si02
#       8
#     2   1   2   2   2   2   2   2
#     4  11  25  44  67 106 136 176 228 288 345 405
#     4  10  18  42  72 100 128 172 230 272 336 418
#     4  10  23  41  71  97 135 178 221 279 346 413
#     4  10  24  44  70  98 132 176 234 283 345 410
#     4  10  24  41  67  95 131 176 228 276 341 410
#     4  12  28  42  66 102 144 181 233 287 350 403
#     4  10  22  42  70  95 132 183 225 277 342 414
#     4  10  24  46  69  97 135 188 228 284 347 413
#
# _framework density 26.280567999999999
#
# number of rings (size 3 to 8) (size 9 to 14) (size 15 to 20)
#    0.000    1.600    1.333    1.200    9.333    7.467 
#    0.000    0.000    0.000    0.000    0.000    0.000 
#    0.000    0.000    0.000    0.000    0.000    0.000 
#
# Total GULP energy -83621.480666 kJ/mol
# GULP energy per Si atom -5574.765378 kJ/mol
# Density = 2.622075 g / cm^3
# Si number density = 26.280568 Si / 1000 Ang^3
#
#
#
# Elastic Constant Matrix: (Units=GPa)
#
#
# Indices 1 2 3 4 5 6 
#
# 1 66.4433 14.8041 19.6021 -15.7447 13.3453 8.0730
# 2 14.8041 85.0953 24.6317 -7.4841 -4.9897 19.7767
# 3 19.6021 24.6317 55.3204 10.9922 16.4248 5.0205
# 4 -15.7447 -7.4841 10.9922 44.9570 -2.8490 2.2120
# 5 13.3453 -4.9897 16.4248 -2.8490 37.9254 2.6574
# 6 8.0730 19.7767 5.0205 2.2120 2.6574 33.7329
#
#
#
# Elastic Compliance Matrix: (Units=1/GPa)
#
#
# Indices 1 2 3 4 5 6 
#
# 1 0.020651 0.000477 -0.008208 0.009368 -0.002636 -0.004407
# 2 0.000477 0.018495 -0.011376 0.007074 0.008452 -0.010394
# 3 -0.008208 -0.011376 0.032475 -0.013890 -0.014124 0.005824
# 4 0.009368 0.007074 -0.013890 0.030844 0.006447 -0.006853
# 5 -0.002636 0.008452 -0.014124 0.006447 0.035389 -0.005433
# 6 -0.004407 -0.010394 0.005824 -0.006853 -0.005433 0.036803
#
#
# Mechanical properties :
#
#
# Convention : Reuss Voigt Hill
#
# Bulk Modulus (GPa) = 29.93453 36.10386 33.01920
# Shear Modulus (GPa) = 22.32076 33.17780 27.74928
#
# Velocity S-wave (km/s) = 2.91748 3.55695 3.25296
# Velocity P-wave (km/s) = 4.77117 5.53505 5.16725
#
# Compressibility (1/GPa) = 0.03340623
#
# Stress axis : x y z
#
# Youngs Moduli (GPa) = 48.42438 54.06962 30.79287
#
# Poissons Ratio (x) = -0.02579 0.25276
# Poissons Ratio (y) = -0.02309 0.35029
# Poissons Ratio (z) = 0.39749 0.61507
#
# Static dielectric constant tensor:
#      x y z
#    x 1.773920 0.151470 -0.149740 
#    y 0.151470 2.107160 0.048630 
#    z -0.149740 0.048630 1.966540 
# 
# From -- ./inp_files/243182.got.cif
#   From: 2010.05.17/outbox.cif.g08.bks.cpg/sg2_122_cif.got.tgz:243182.got - 2010.06.03 11:33:40.
