data_PCOD9080240
_publ_section_title
;
Structure prediction by ZEFSAII (Michael W. Deem and Ramdas Pophale) SiO2 
 PCOD9080240
Probable space group: P -1
;
_chemical_formula_sum "Si O2"
_cell_formula_units_Z 16
_cell_length_a 13.348873
_cell_length_b 20.771413
_cell_length_c 17.707444
_cell_angle_alpha 28.865613
_cell_angle_beta 152.041243
_cell_angle_gamma 159.215623
_cell_volume 779.148289
_symmetry_space_group_name_H-M "P -1"
_symmetry_group_IT_number 2
_symmetry_cell_setting 'triclinic'
loop_
_space_group_symop_operation_xyz
x,y,z
-x,-y,-z
loop_
_atom_site_type_symbol
_atom_site_label
_atom_site_fract_x
_atom_site_fract_y
_atom_site_fract_z
Si Si1 0.926406 0.438976 0.643912
Si Si2 0.601011 0.126275 0.248699
Si Si3 0.277393 0.039055 0.612640
Si Si4 0.194475 0.076256 0.903237
Si Si5 0.602663 0.128697 0.008000
Si Si6 0.880668 0.499408 0.118067
Si Si7 0.794837 0.144740 0.602257
Si Si8 0.694973 0.631202 0.067577
O O1 0.571599 0.264636 0.568791
O O2 0.973483 0.422406 0.781388
O O3 0.077332 0.649666 0.519574
O O4 0.101366 0.407635 0.741393
O O5 0.821983 0.318665 0.246298
O O6 0.756570 0.065191 0.378438
O O7 0.326003 0.957225 0.292459
O O8 0.452720 0.153900 0.056846
O O9 0.345122 0.956196 0.805042
O O10 0.000000 0.000000 0.500000
O O11 0.056987 0.161039 0.732718
O O12 0.342935 0.110754 0.885782
O O13 0.918268 0.850587 0.967698
O O14 0.902085 0.341087 0.963864
O O15 0.500000 0.000000 0.000000
O O16 0.552173 0.426665 0.977989
O O17 0.500000 0.000000 0.500000
O O18 0.500000 0.500000 0.000000
#
# Coordination Sequence:
#
# PCOD9080240 Si02
#       8
#     2   2   2   2   2   2   2   2
#     4  11  22  43  65  98 138 174 225 280 333 398
#     4  11  24  44  66  96 136 172 225 278 330 399
#     4  11  26  45  64  97 143 174 221 288 338 390
#     4  11  23  42  67  95 136 176 219 283 325 390
#     4  11  22  43  70  93 129 183 232 260 328 410
#     4  11  22  39  72  98 128 177 231 268 329 411
#     4  12  24  41  68 103 134 173 225 280 342 396
#     4  10  18  38  67  93 128 174 220 271 320 394
#
# _framework density 20.535242
#
# number of rings (size 3 to 8) (size 9 to 14) (size 15 to 20)
#    0.000    1.000    6.250    1.875    0.000    6.500 
#    0.000    1.250    0.000    0.000    0.000    0.000 
#    0.000    0.000    0.000    0.000    0.000    0.000 
#
# Total GULP energy -89417.592270 kJ/mol
# GULP energy per Si atom -5588.599517 kJ/mol
# Density = 2.048850 g / cm^3
# Si number density = 20.535242 Si / 1000 Ang^3
#
#
#
# Elastic Constant Matrix: (Units=GPa)
#
#
# Indices 1 2 3 4 5 6 
#
# 1 119.3968 32.2738 25.3439 4.2578 33.2062 17.5957
# 2 32.2738 120.2107 21.4686 -19.7287 31.7416 14.4591
# 3 25.3439 21.4686 49.1726 -4.1603 30.4503 6.1833
# 4 4.2578 -19.7287 -4.1603 41.2626 6.6030 2.2728
# 5 33.2062 31.7416 30.4503 6.6030 40.3621 5.1370
# 6 17.5957 14.4591 6.1833 2.2728 5.1370 40.1988
#
#
#
# Elastic Compliance Matrix: (Units=1/GPa)
#
#
# Indices 1 2 3 4 5 6 
#
# 1 0.011437 -0.000198 0.000342 0.000426 -0.009091 -0.003850
# 2 -0.000198 0.013656 0.005070 0.009766 -0.015467 -0.004181
# 3 0.000342 0.005070 0.043660 0.013247 -0.038804 -0.004479
# 4 0.000426 0.009766 0.013247 0.034138 -0.023008 -0.004727
# 5 -0.009091 -0.015467 -0.038804 -0.023008 0.076563 0.007028
# 6 -0.003850 -0.004181 -0.004479 -0.004727 0.007028 0.028123
#
#
# Mechanical properties :
#
#
# Convention : Reuss Voigt Hill
#
# Bulk Modulus (GPa) = 12.62944 49.66142 31.14543
# Shear Modulus (GPa) = 22.36693 38.34430 30.35561
#
# Velocity S-wave (km/s) = 3.30388 4.32585 3.84893
# Velocity P-wave (km/s) = 4.55166 7.01332 5.91203
#
# Compressibility (1/GPa) = 0.07918008
#
# Stress axis : x y z
#
# Youngs Moduli (GPa) = 87.43585 73.22665 22.90415
#
# Poissons Ratio (x) = 0.01450 -0.00782
# Poissons Ratio (y) = 0.01732 -0.11612
# Poissons Ratio (z) = -0.02987 -0.37124
#
# Static dielectric constant tensor:
#      x y z
#    x 1.791270 -0.009650 -0.006190 
#    y -0.009650 1.721730 0.019930 
#    z -0.006190 0.019930 1.748220 
# 
# From -- ./inp_files/343384.got.cif
#   From: 2010.05.17/outbox.cif.g08.bks.cpg/sg2_172_cif.got.tgz:343384.got - 2010.06.03 11:33:40.
