data_PCOD9080925
_publ_section_title
;
Structure prediction by ZEFSAII (Michael W. Deem and Ramdas Pophale) SiO2 
 PCOD9080925
Probable space group: P -1
;
_chemical_formula_sum "Si O2"
_cell_formula_units_Z 14
_cell_length_a 14.180941
_cell_length_b 9.324748
_cell_length_c 11.935538
_cell_angle_alpha 87.606447
_cell_angle_beta 149.330115
_cell_angle_gamma 108.611656
_cell_volume 668.712903
_symmetry_space_group_name_H-M "P -1"
_symmetry_group_IT_number 2
_symmetry_cell_setting 'triclinic'
loop_
_space_group_symop_operation_xyz
x,y,z
-x,-y,-z
loop_
_atom_site_type_symbol
_atom_site_label
_atom_site_fract_x
_atom_site_fract_y
_atom_site_fract_z
Si Si1 0.559562 0.541501 0.427574
Si Si2 0.905091 0.923451 0.526069
Si Si3 0.973048 0.286264 0.196515
Si Si4 0.741843 0.961952 0.802376
Si Si5 0.519719 0.209406 0.788168
Si Si6 0.889671 0.773208 0.086870
Si Si7 0.669367 0.128656 0.511737
O O1 0.500000 0.500000 0.500000
O O2 0.569252 0.714726 0.398036
O O3 0.792599 0.571965 0.626369
O O4 0.353186 0.396970 0.146511
O O5 0.636064 0.817594 0.264716
O O6 0.970843 0.793930 0.639903
O O7 0.000000 0.000000 0.500000
O O8 0.019493 0.084114 0.726761
O O9 0.786255 0.318287 0.045339
O O10 0.858201 0.134780 0.990427
O O11 0.499753 0.828219 0.616573
O O12 0.688275 0.015944 0.631153
O O13 0.871094 0.869662 0.955153
O O14 0.448017 0.012740 0.700887
O O15 0.076541 0.732516 0.261909
#
# Coordination Sequence:
#
# PCOD9080925 Si02
#       7
#     2   2   2   2   2   2   2
#     4  11  21  31  48  76 110 141 159 185 240 304
#     4   9  19  37  58  74  90 123 173 221 256 282
#     4   9  19  34  50  72 102 132 165 204 245 294
#     4   9  16  28  47  68  92 126 165 202 239 283
#     4   9  19  34  50  72 102 132 165 204 245 294
#     4  10  19  30  47  72  98 124 162 204 240 288
#     4   9  16  28  47  68  92 126 165 202 239 283
#
# _framework density 20.935739999999999
#
# number of rings (size 3 to 8) (size 9 to 14) (size 15 to 20)
#    0.000    2.571    0.000    3.000    0.000    2.286 
#    0.000    2.857    0.000    1.714    0.000    0.000 
#    0.000    0.000    0.000    0.000    0.000    0.000 
#
# Total GULP energy -77935.184662 kJ/mol
# GULP energy per Si atom -5566.798904 kJ/mol
# Density = 2.088809 g / cm^3
# Si number density = 20.935740 Si / 1000 Ang^3
#
#
#
# Elastic Constant Matrix: (Units=GPa)
#
#
# Indices 1 2 3 4 5 6 
#
# 1 78.0247 25.9048 41.7384 -4.4525 36.3787 24.1883
# 2 25.9048 45.3833 13.4419 7.9109 8.6575 15.8919
# 3 41.7384 13.4419 111.7969 20.8219 48.6613 1.0039
# 4 -4.4525 7.9109 20.8219 31.2809 -0.4480 5.9379
# 5 36.3787 8.6575 48.6613 -0.4480 46.4330 -0.6235
# 6 24.1883 15.8919 1.0039 5.9379 -0.6235 31.7277
#
#
#
# Elastic Compliance Matrix: (Units=1/GPa)
#
#
# Indices 1 2 3 4 5 6 
#
# 1 0.040986 -0.009527 -0.007442 0.018597 -0.022762 -0.030168
# 2 -0.009527 0.030900 0.001696 -0.009054 -0.000250 -0.006578
# 3 -0.007442 0.001696 0.023033 -0.018451 -0.018706 0.007181
# 4 0.018597 -0.009054 -0.018451 0.052856 0.006711 -0.018819
# 5 -0.022762 -0.000250 -0.018706 0.006711 0.059326 0.017980
# 6 -0.030168 -0.006578 0.007181 -0.018819 0.017980 0.061460
#
#
# Mechanical properties :
#
#
# Convention : Reuss Voigt Hill
#
# Bulk Modulus (GPa) = 15.53423 44.15277 29.84350
# Shear Modulus (GPa) = 15.59747 32.16299 23.88023
#
# Velocity S-wave (km/s) = 2.73246 3.92378 3.38101
# Velocity P-wave (km/s) = 4.17027 6.45473 5.43391
#
# Compressibility (1/GPa) = 0.06437397
#
# Stress axis : x y z
#
# Youngs Moduli (GPa) = 24.39833 32.36277 43.41543
#
# Poissons Ratio (x) = 0.30831 0.32309
# Poissons Ratio (y) = 0.23244 -0.07363
# Poissons Ratio (z) = 0.18157 -0.05488
#
# Static dielectric constant tensor:
#      x y z
#    x 1.796400 0.008180 0.041550 
#    y 0.008180 1.760910 0.056790 
#    z 0.041550 0.056790 1.832430 
# 
# From -- ./inp_files/202283.got.cif
#   From: 2010.05.17/outbox.cif.g08.bks.cpg/sg2_102_cif.got.tgz:202283.got - 2010.06.03 11:33:40.
