data_PCOD9080073
_publ_section_title
;
Structure prediction by ZEFSAII (Michael W. Deem and Ramdas Pophale) SiO2 
 PCOD9080073
Probable space group: P -1
;
_chemical_formula_sum "Si O2"
_cell_formula_units_Z 16
_cell_length_a 20.927096
_cell_length_b 9.261917
_cell_length_c 11.249721
_cell_angle_alpha 74.925577
_cell_angle_beta 139.485382
_cell_angle_gamma 135.556667
_cell_volume 777.060669
_symmetry_space_group_name_H-M "P -1"
_symmetry_group_IT_number 2
_symmetry_cell_setting 'triclinic'
loop_
_space_group_symop_operation_xyz
x,y,z
-x,-y,-z
loop_
_atom_site_type_symbol
_atom_site_label
_atom_site_fract_x
_atom_site_fract_y
_atom_site_fract_z
Si Si1 0.559013 0.206534 0.623132
Si Si2 0.338832 0.447573 0.516001
Si Si3 0.861798 0.254141 0.446739
Si Si4 0.840570 0.578976 0.122527
Si Si5 0.039014 0.983242 0.926427
Si Si6 0.682874 0.309822 0.213437
Si Si7 0.649382 0.789731 0.588384
Si Si8 0.524571 0.702274 0.954560
O O1 0.639181 0.425726 0.597521
O O2 0.415403 0.121818 0.511001
O O3 0.500000 0.000000 0.500000
O O4 0.700821 0.329829 0.891242
O O5 0.334555 0.268489 0.505826
O O6 0.497868 0.673318 0.781196
O O7 0.153893 0.269009 0.344816
O O8 0.797778 0.314546 0.421874
O O9 0.000000 0.500000 0.500000
O O10 0.972973 0.264473 0.663101
O O11 0.702030 0.986990 0.201724
O O12 0.858347 0.770897 0.062698
O O13 0.770410 0.473467 0.179229
O O14 0.169206 0.009791 0.129675
O O15 0.000000 0.000000 0.000000
O O16 0.631378 0.389624 0.197822
O O17 0.500000 0.000000 0.000000
O O18 0.500000 0.500000 0.500000
O O19 0.500000 0.500000 0.000000
#
# Coordination Sequence:
#
# PCOD9080073 Si02
#       8
#     2   2   2   2   2   2   2   2
#     4  11  24  38  63  99 120 165 210 259 315 380
#     4  10  22  40  64  90 134 155 205 271 311 370
#     4   9  21  42  64  87 124 175 206 259 318 374
#     4  11  20  40  69  87 123 168 215 248 317 381
#     4  10  18  38  62  94 124 162 205 251 317 381
#     4   9  22  41  61  89 125 171 209 251 313 376
#     4   9  18  39  60  88 127 168 197 248 325 370
#     4  11  23  40  63  99 123 164 220 262 308 374
#
# _framework density 20.590415
#
# number of rings (size 3 to 8) (size 9 to 14) (size 15 to 20)
#    0.000    2.000    3.750    0.750    7.000    0.000 
#    4.500    7.500    0.000    0.000    0.000    0.000 
#    0.000    0.000    0.000    0.000    0.000    0.000 
#
# Total GULP energy -89135.593182 kJ/mol
# GULP energy per Si atom -5570.974574 kJ/mol
# Density = 2.054355 g / cm^3
# Si number density = 20.590415 Si / 1000 Ang^3
#
#
#
# Elastic Constant Matrix: (Units=GPa)
#
#
# Indices 1 2 3 4 5 6 
#
# 1 91.9277 28.1593 51.9411 -1.4386 12.8223 -24.9228
# 2 28.1593 53.2255 12.3947 7.9255 1.3372 -6.1847
# 3 51.9411 12.3947 142.8825 -3.8588 8.9211 -24.3576
# 4 -1.4386 7.9255 -3.8588 25.0255 1.8087 1.4477
# 5 12.8223 1.3372 8.9211 1.8087 31.9541 -3.0333
# 6 -24.9228 -6.1847 -24.3576 1.4477 -3.0333 37.3602
#
#
#
# Elastic Compliance Matrix: (Units=1/GPa)
#
#
# Indices 1 2 3 4 5 6 
#
# 1 0.018809 -0.008340 -0.004372 0.002991 -0.005410 0.007761
# 2 -0.008340 0.024172 0.000421 -0.008215 0.002611 -0.000758
# 3 -0.004372 0.000421 0.009127 0.000889 -0.000575 0.003022
# 4 0.002991 -0.008215 0.000889 0.043175 -0.003620 -0.000752
# 5 -0.005410 0.002611 -0.000575 -0.003620 0.033658 -0.000679
# 6 0.007761 -0.000758 0.003022 -0.000752 -0.000679 0.033763
#
#
# Mechanical properties :
#
#
# Convention : Reuss Voigt Hill
#
# Bulk Modulus (GPa) = 36.33143 52.55842 44.44493
# Shear Modulus (GPa) = 25.45031 31.90399 28.67715
#
# Velocity S-wave (km/s) = 3.51953 3.94059 3.73600
# Velocity P-wave (km/s) = 5.84801 6.80334 6.34368
#
# Compressibility (1/GPa) = 0.02752438
#
# Stress axis : x y z
#
# Youngs Moduli (GPa) = 53.16612 41.37011 109.56751
#
# Poissons Ratio (x) = 0.34504 0.47907
# Poissons Ratio (y) = 0.44342 -0.04613
# Poissons Ratio (z) = 0.23246 -0.01742
#
# Static dielectric constant tensor:
#      x y z
#    x 1.772870 -0.013380 0.020600 
#    y -0.013380 1.775330 -0.005350 
#    z 0.020600 -0.005350 1.788820 
# 
# From -- ./inp_files/346119.got.cif
#   From: 2010.05.17/outbox.cif.g08.bks.cpg/sg2_174_cif.got.tgz:346119.got - 2010.06.03 11:33:40.
