data_PCOD9080148
_publ_section_title
;
Structure prediction by ZEFSAII (Michael W. Deem and Ramdas Pophale) SiO2 
 PCOD9080148
Probable space group: P -1
;
_chemical_formula_sum "Si O2"
_cell_formula_units_Z 16
_cell_length_a 11.926571
_cell_length_b 8.771938
_cell_length_c 9.074703
_cell_angle_alpha 114.165305
_cell_angle_beta 131.642116
_cell_angle_gamma 78.807384
_cell_volume 643.073360
_symmetry_space_group_name_H-M "P -1"
_symmetry_group_IT_number 2
_symmetry_cell_setting 'triclinic'
loop_
_space_group_symop_operation_xyz
x,y,z
-x,-y,-z
loop_
_atom_site_type_symbol
_atom_site_label
_atom_site_fract_x
_atom_site_fract_y
_atom_site_fract_z
Si Si1 0.354984 0.390055 0.529911
Si Si2 0.759046 0.253621 0.475962
Si Si3 0.637339 0.040125 0.016301
Si Si4 0.123036 0.707562 0.828666
Si Si5 0.464310 0.855823 0.535396
Si Si6 0.813273 0.658423 0.358116
Si Si7 0.938002 0.834218 0.291979
Si Si8 0.939508 0.821350 0.947109
O O1 0.327609 0.583162 0.558959
O O2 0.505371 0.323099 0.576499
O O3 0.328337 0.344739 0.660075
O O4 0.216714 0.274939 0.285721
O O5 0.742628 0.130527 0.273860
O O6 0.699051 0.157784 0.534163
O O7 0.938748 0.299010 0.655306
O O8 0.726865 0.165677 0.019553
O O9 0.500000 0.000000 0.000000
O O10 0.574922 0.896066 0.787951
O O11 0.163555 0.529363 0.738468
O O12 0.968058 0.732876 0.609383
O O13 0.066844 0.711341 0.950409
O O14 0.500000 0.000000 0.500000
O O15 0.795441 0.758127 0.231584
O O16 0.000000 0.000000 0.500000
O O17 0.913286 0.860408 0.110320
O O18 0.000000 0.000000 0.000000
#
# Coordination Sequence:
#
# PCOD9080148 Si02
#       8
#     2   2   2   2   2   2   2   2
#     4  11  23  45  71  98 139 179 225 278 350 403
#     4  11  24  45  69  98 135 185 225 278 344 403
#     4  10  21  41  66  92 129 179 226 273 333 398
#     4  10  18  38  64  92 132 171 212 267 343 400
#     4  11  27  44  69  97 133 183 237 283 327 403
#     4  10  20  37  67  96 131 168 211 278 336 403
#     4  12  25  39  66 104 139 171 227 280 338 419
#     4  11  25  38  65 101 138 177 217 278 350 408
#
# _framework density 24.880519
#
# number of rings (size 3 to 8) (size 9 to 14) (size 15 to 20)
#    0.000    1.250    2.500    4.125    7.000    2.000 
#    0.000    0.625    0.000    0.000    0.000    0.000 
#    0.000    0.000    0.000    0.000    0.000    0.000 
#
# Total GULP energy -89080.397114 kJ/mol
# GULP energy per Si atom -5567.524820 kJ/mol
# Density = 2.482389 g / cm^3
# Si number density = 24.880519 Si / 1000 Ang^3
#
#
#
# Elastic Constant Matrix: (Units=GPa)
#
#
# Indices 1 2 3 4 5 6 
#
# 1 118.8184 16.4449 34.3040 -7.0055 -43.9322 24.1207
# 2 16.4449 55.0093 15.3534 1.0303 -14.1704 0.6173
# 3 34.3040 15.3534 84.8613 7.3276 -31.1466 0.4955
# 4 -7.0055 1.0303 7.3276 25.8236 12.9573 -7.5512
# 5 -43.9322 -14.1704 -31.1466 12.9573 55.0547 -1.9406
# 6 24.1207 0.6173 0.4955 -7.5512 -1.9406 44.9264
#
#
#
# Elastic Compliance Matrix: (Units=1/GPa)
#
#
# Indices 1 2 3 4 5 6 
#
# 1 0.014382 -0.000944 -0.001207 -0.003583 0.011118 -0.007817
# 2 -0.000944 0.020007 -0.001445 -0.002778 0.004232 -0.000037
# 3 -0.001207 -0.001445 0.017628 -0.011179 0.011236 -0.000920
# 4 -0.003583 -0.002778 -0.011179 0.055409 -0.022572 0.010423
# 5 0.011118 0.004232 0.011236 -0.022572 0.039504 -0.008239
# 6 -0.007817 -0.000037 -0.000920 0.010423 -0.008239 0.027862
#
#
# Mechanical properties :
#
#
# Convention : Reuss Voigt Hill
#
# Bulk Modulus (GPa) = 22.30907 43.43261 32.87084
# Shear Modulus (GPa) = 25.39044 38.00005 31.69524
#
# Velocity S-wave (km/s) = 3.19798 3.91231 3.57304
# Velocity P-wave (km/s) = 4.75627 6.15651 5.50112
#
# Compressibility (1/GPa) = 0.04482481
#
# Stress axis : x y z
#
# Youngs Moduli (GPa) = 69.53187 49.98341 56.72790
#
# Poissons Ratio (x) = 0.04716 0.06848
# Poissons Ratio (y) = 0.06561 0.08197
# Poissons Ratio (z) = 0.08394 0.07223
#
# Static dielectric constant tensor:
#      x y z
#    x 1.954880 0.008090 -0.031750 
#    y 0.008090 2.046990 -0.026590 
#    z -0.031750 -0.026590 1.908890 
# 
# From -- ./inp_files/245681.got.cif
#   From: 2010.05.17/outbox.cif.g08.bks.cpg/sg2_123_cif.got.tgz:245681.got - 2010.06.03 11:33:40.
