data_PCOD9080476
_publ_section_title
;
Structure prediction by ZEFSAII (Michael W. Deem and Ramdas Pophale) SiO2 
 PCOD9080476
Probable space group: P -1
;
_chemical_formula_sum "Si O2"
_cell_formula_units_Z 16
_cell_length_a 10.810943
_cell_length_b 8.715958
_cell_length_c 16.588437
_cell_angle_alpha 71.996396
_cell_angle_beta 42.432527
_cell_angle_gamma 105.789581
_cell_volume 628.225298
_symmetry_space_group_name_H-M "P -1"
_symmetry_group_IT_number 2
_symmetry_cell_setting 'triclinic'
loop_
_space_group_symop_operation_xyz
x,y,z
-x,-y,-z
loop_
_atom_site_type_symbol
_atom_site_label
_atom_site_fract_x
_atom_site_fract_y
_atom_site_fract_z
Si Si1 0.289459 0.389739 0.193281
Si Si2 0.487690 0.554459 0.626049
Si Si3 0.348762 0.074372 0.243078
Si Si4 0.374310 0.286973 0.874223
Si Si5 0.123506 0.779632 0.059661
Si Si6 0.274170 0.107028 0.692018
Si Si7 0.838831 0.205051 0.781026
Si Si8 0.765594 0.219770 0.498500
O O1 0.282293 0.213054 0.269318
O O2 0.442237 0.610171 0.149480
O O3 0.985284 0.259373 0.334411
O O4 0.500000 0.500000 0.000000
O O5 0.542512 0.517741 0.693601
O O6 0.407166 0.340138 0.646998
O O7 0.691184 0.804072 0.430938
O O8 0.181241 0.440105 0.803112
O O9 0.171735 0.912529 0.272959
O O10 0.284374 0.920780 0.375653
O O11 0.682225 0.247035 0.034392
O O12 0.306328 0.065879 0.902050
O O13 0.060103 0.142418 0.077269
O O14 0.039576 0.761736 0.195788
O O15 0.478057 0.091057 0.613940
O O16 0.038576 0.493209 0.616968
O O17 0.500000 0.000000 0.000000
#
# Coordination Sequence:
#
# PCOD9080476 Si02
#       8
#     2   2   2   2   2   2   2   2
#     4  12  27  48  66  91 140 186 225 277 344 405
#     4  10  20  39  68 102 142 169 221 282 345 402
#     4  11  23  39  66  99 134 180 225 278 330 407
#     4  11  23  44  71 103 136 181 224 277 343 409
#     4  10  18  39  67  98 134 172 218 274 346 397
#     4  10  22  41  71 108 134 175 222 287 339 404
#     4  10  20  36  65  97 130 173 212 268 340 399
#     4  12  23  44  67 101 135 170 228 285 339 399
#
# _framework density 25.468572000000002
#
# number of rings (size 3 to 8) (size 9 to 14) (size 15 to 20)
#    0.000    1.250    1.250    7.500    0.000    1.000 
#    4.500    3.125    0.000    0.000    0.000    0.000 
#    0.000    0.000    0.000    0.000    0.000    0.000 
#
# Total GULP energy -89533.740470 kJ/mol
# GULP energy per Si atom -5595.858779 kJ/mol
# Density = 2.541060 g / cm^3
# Si number density = 25.468572 Si / 1000 Ang^3
#
#
#
# Elastic Constant Matrix: (Units=GPa)
#
#
# Indices 1 2 3 4 5 6 
#
# 1 98.8090 5.5410 45.1144 8.0874 5.3606 -23.7913
# 2 5.5410 44.6827 16.0061 3.4811 -9.6056 -16.7880
# 3 45.1144 16.0061 126.3680 13.6027 0.1273 -17.2283
# 4 8.0874 3.4811 13.6027 26.5223 -18.4181 -0.6433
# 5 5.3606 -9.6056 0.1273 -18.4181 63.5465 14.5529
# 6 -23.7913 -16.7880 -17.2283 -0.6433 14.5529 40.6212
#
#
#
# Elastic Compliance Matrix: (Units=1/GPa)
#
#
# Indices 1 2 3 4 5 6 
#
# 1 0.014749 0.002580 -0.003584 -0.006149 -0.004882 0.009836
# 2 0.002580 0.027659 -0.002591 -0.002370 0.000630 0.011580
# 3 -0.003584 -0.002591 0.010345 -0.005260 -0.002064 0.001873
# 4 -0.006149 -0.002370 -0.005260 0.055632 0.019231 -0.012821
# 5 -0.004882 0.000630 -0.002064 0.019231 0.024563 -0.011969
# 6 0.009836 0.011580 0.001873 -0.012821 -0.011969 0.040044
#
#
# Mechanical properties :
#
#
# Convention : Reuss Voigt Hill
#
# Bulk Modulus (GPa) = 21.94825 44.79809 33.37317
# Shear Modulus (GPa) = 25.59247 39.68456 32.63851
#
# Velocity S-wave (km/s) = 3.17340 3.95166 3.58372
# Velocity P-wave (km/s) = 4.69721 6.20069 5.50056
#
# Compressibility (1/GPa) = 0.04556173
#
# Stress axis : x y z
#
# Youngs Moduli (GPa) = 67.80174 36.15449 96.66510
#
# Poissons Ratio (x) = -0.09328 0.34650
# Poissons Ratio (y) = -0.17494 0.25048
# Poissons Ratio (z) = 0.24304 0.09369
#
# Static dielectric constant tensor:
#      x y z
#    x 2.078460 -0.035870 -0.012220 
#    y -0.035870 2.004680 -0.010630 
#    z -0.012220 -0.010630 2.090450 
# 
# From -- ./inp_files/565878.got.cif
#   From: 2010.05.17/outbox.cif.g08.bks.cpg/sg2_283_cif.got.tgz:565878.got - 2010.06.03 11:33:40.
