data_PCOD9080026
_publ_section_title
;
Structure prediction by ZEFSAII (Michael W. Deem and Ramdas Pophale) SiO2 
 PCOD9080026
Probable space group: P -1
;
_chemical_formula_sum "Si O2"
_cell_formula_units_Z 16
_cell_length_a 8.047700
_cell_length_b 18.415903
_cell_length_c 8.247726
_cell_angle_alpha 42.909706
_cell_angle_beta 128.869957
_cell_angle_gamma 106.163529
_cell_volume 608.898988
_symmetry_space_group_name_H-M "P -1"
_symmetry_group_IT_number 2
_symmetry_cell_setting 'triclinic'
loop_
_space_group_symop_operation_xyz
x,y,z
-x,-y,-z
loop_
_atom_site_type_symbol
_atom_site_label
_atom_site_fract_x
_atom_site_fract_y
_atom_site_fract_z
Si Si1 0.831743 0.048190 0.666050
Si Si2 0.244443 0.736802 0.158372
Si Si3 0.978757 0.375600 0.361795
Si Si4 0.336731 0.148621 0.116365
Si Si5 0.032692 0.225077 0.350224
Si Si6 0.490053 0.891697 0.076420
Si Si7 0.751928 0.493397 0.310085
Si Si8 0.582610 0.600428 0.339519
O O1 0.566250 0.133931 0.385096
O O2 0.961346 0.116366 0.530141
O O3 0.786327 0.936374 0.755726
O O4 0.000000 0.000000 0.000000
O O5 0.280188 0.850156 0.056194
O O6 0.289922 0.622871 0.472377
O O7 0.413167 0.708197 0.150416
O O8 0.009694 0.753914 0.898688
O O9 0.914059 0.321253 0.252744
O O10 0.174948 0.428757 0.376403
O O11 0.773205 0.471380 0.167496
O O12 0.133371 0.267490 0.751040
O O13 0.447779 0.100388 0.086770
O O14 0.292329 0.209090 0.563050
O O15 0.500000 0.000000 0.000000
O O16 0.601222 0.595014 0.165007
O O17 0.000000 0.500000 0.500000
O O18 0.500000 0.500000 0.500000
#
# Coordination Sequence:
#
# PCOD9080026 Si02
#       8
#     2   2   2   2   2   2   2   2
#     4  11  19  35  59  86 117 164 215 244 296 367
#     4  11  21  42  66  88 130 170 200 261 322 364
#     4  10  18  38  61  90 126 155 212 258 305 377
#     4  10  21  36  57  84 123 167 205 251 308 359
#     4  11  22  38  62  91 122 170 210 250 314 376
#     4  11  23  39  59  92 126 165 216 256 301 379
#     4   9  21  38  67  96 119 162 208 260 320 373
#     4   9  17  36  65  87 119 161 196 252 319 370
#
# _framework density 26.276935999999999
#
# number of rings (size 3 to 8) (size 9 to 14) (size 15 to 20)
#    0.000    1.750    6.250    0.000    0.000    2.500 
#    4.500    6.250    5.500    0.000    0.000    0.000 
#    0.000    0.000    0.000    0.000    0.000    0.000 
#
# Total GULP energy -89217.363169 kJ/mol
# GULP energy per Si atom -5576.085198 kJ/mol
# Density = 2.621713 g / cm^3
# Si number density = 26.276936 Si / 1000 Ang^3
#
#
#
# Elastic Constant Matrix: (Units=GPa)
#
#
# Indices 1 2 3 4 5 6 
#
# 1 69.1499 35.2264 6.1358 -8.8943 10.7436 6.8936
# 2 35.2264 155.5181 13.9114 -6.4451 -7.1915 16.3984
# 3 6.1358 13.9114 94.7029 12.2751 10.6142 11.2048
# 4 -8.8943 -6.4451 12.2751 38.4670 11.3353 3.8157
# 5 10.7436 -7.1915 10.6142 11.3353 23.7573 -6.2659
# 6 6.8936 16.3984 11.2048 3.8157 -6.2659 38.0104
#
#
#
# Elastic Compliance Matrix: (Units=1/GPa)
#
#
# Indices 1 2 3 4 5 6 
#
# 1 0.021357 -0.004688 0.000722 0.009695 -0.017592 -0.005937
# 2 -0.004688 0.007940 -0.001177 -0.000736 0.005052 -0.001322
# 3 0.000722 -0.001177 0.012093 -0.001598 -0.006400 -0.004083
# 4 0.009695 -0.000736 -0.001598 0.036392 -0.023497 -0.008496
# 5 -0.017592 0.005052 -0.006400 -0.023497 0.070081 0.016809
# 6 -0.005937 -0.001322 -0.004083 -0.008496 0.016809 0.032783
#
#
# Mechanical properties :
#
#
# Convention : Reuss Voigt Hill
#
# Bulk Modulus (GPa) = 32.14934 47.76868 39.95901
# Shear Modulus (GPa) = 24.83867 37.65344 31.24605
#
# Velocity S-wave (km/s) = 3.07785 3.78953 3.45208
# Velocity P-wave (km/s) = 4.98921 6.11276 5.57934
#
# Compressibility (1/GPa) = 0.03110484
#
# Stress axis : x y z
#
# Youngs Moduli (GPa) = 46.82200 125.94855 82.69293
#
# Poissons Ratio (x) = 0.59044 -0.05974
# Poissons Ratio (y) = 0.21950 0.09734
# Poissons Ratio (z) = -0.03382 0.14825
#
# Static dielectric constant tensor:
#      x y z
#    x 2.193060 -0.079620 0.029910 
#    y -0.079620 2.155190 0.049130 
#    z 0.029910 0.049130 2.199180 
# 
# From -- ./inp_files/216847.got.cif
#   From: 2010.05.17/outbox.cif.g08.bks.cpg/sg2_109_cif.got.tgz:216847.got - 2010.06.03 11:33:40.
