data_PCOD9080594
_publ_section_title
;
Structure prediction by ZEFSAII (Michael W. Deem and Ramdas Pophale) SiO2 
 PCOD9080594
Probable space group: P -1
;
_chemical_formula_sum "Si O2"
_cell_formula_units_Z 14
_cell_length_a 11.585798
_cell_length_b 17.893155
_cell_length_c 7.390767
_cell_angle_alpha 54.672800
_cell_angle_beta 114.330315
_cell_angle_gamma 154.353026
_cell_volume 514.484691
_symmetry_space_group_name_H-M "P -1"
_symmetry_group_IT_number 2
_symmetry_cell_setting 'triclinic'
loop_
_space_group_symop_operation_xyz
x,y,z
-x,-y,-z
loop_
_atom_site_type_symbol
_atom_site_label
_atom_site_fract_x
_atom_site_fract_y
_atom_site_fract_z
Si Si1 0.520113 0.857343 0.459062
Si Si2 0.651712 0.884582 0.899729
Si Si3 0.310759 0.842754 0.841526
Si Si4 0.953637 0.060809 0.182655
Si Si5 0.137467 0.444971 0.762356
Si Si6 0.371094 0.333614 0.382221
Si Si7 0.732438 0.530500 0.794295
O O1 0.253831 0.623067 0.576286
O O2 0.667904 0.910260 0.659686
O O3 0.478526 0.937076 0.354993
O O4 0.734735 0.983969 0.255883
O O5 0.493254 0.687205 0.117745
O O6 0.695477 0.506594 0.347964
O O7 0.929180 0.066531 0.946927
O O8 0.446822 0.834159 0.900154
O O9 0.052174 0.701028 0.736031
O O10 0.177426 0.756144 0.080107
O O11 0.237110 0.259206 0.197230
O O12 0.826399 0.877453 0.384129
O O13 0.277907 0.493853 0.963862
O O14 0.322209 0.397517 0.363708
#
# Coordination Sequence:
#
# PCOD9080594 Si02
#       7
#     2   2   2   2   2   2   2
#     4  10  20  40  64  95 127 174 204 262 337 366
#     4  11  23  40  65  99 128 168 220 260 323 391
#     4  10  20  39  68  90 133 172 207 268 327 381
#     4  10  22  39  67  97 127 169 216 273 314 386
#     4   8  19  34  67  92 117 174 213 253 324 382
#     4  10  18  40  65  90 133 169 213 266 330 373
#     4   9  19  35  65  89 125 173 201 264 327 366
#
# _framework density 27.211694000000001
#
# number of rings (size 3 to 8) (size 9 to 14) (size 15 to 20)
#    0.857    1.429    1.429    1.286    0.000    1.143 
#    0.000   14.286   18.857    0.857    0.000    0.000 
#    0.000    0.000    0.000    0.000    0.000    0.000 
#
# Total GULP energy -78225.413703 kJ/mol
# GULP energy per Si atom -5587.529550 kJ/mol
# Density = 2.714976 g / cm^3
# Si number density = 27.211694 Si / 1000 Ang^3
#
#
#
# Elastic Constant Matrix: (Units=GPa)
#
#
# Indices 1 2 3 4 5 6 
#
# 1 148.5382 19.4291 -10.1261 -35.1738 -3.4997 -14.4742
# 2 19.4291 81.0610 9.4237 17.4877 9.4217 -9.1695
# 3 -10.1261 9.4237 -18.4581 -11.6443 -37.2040 -25.7284
# 4 -35.1738 17.4877 -11.6443 60.6635 -18.8219 7.5202
# 5 -3.4997 9.4217 -37.2040 -18.8219 8.1997 -30.6189
# 6 -14.4742 -9.1695 -25.7284 7.5202 -30.6189 30.8186
#
#
#
# Elastic Compliance Matrix: (Units=1/GPa)
#
#
# Indices 1 2 3 4 5 6 
#
# 1 0.007739 -0.002561 -0.002449 0.004482 -0.001636 -0.001890
# 2 -0.002561 0.014736 0.001601 -0.006015 0.000817 0.006797
# 3 -0.002449 0.001601 0.008736 -0.004946 -0.020156 -0.012199
# 4 0.004482 -0.006015 -0.004946 0.020899 -0.000395 -0.009306
# 5 -0.001636 0.000817 -0.020156 -0.000395 0.013461 -0.003882
# 6 -0.001890 0.006797 -0.012199 -0.009306 -0.003882 0.021812
#
#
# Mechanical properties :
#
#
# Convention : Reuss Voigt Hill
#
# Bulk Modulus (GPa) = 40.99485 27.62161 34.30823
# Shear Modulus (GPa) = 48.86161 32.76398 40.81279
#
# Velocity S-wave (km/s) = 4.24206 3.47369 3.87696
# Velocity P-wave (km/s) = 6.25230 5.12459 5.71632
#
# Compressibility (1/GPa) = 0.02439331
#
# Stress axis : x y z
#
# Youngs Moduli (GPa) = 129.21639 67.86277 114.47035
#
# Poissons Ratio (x) = 0.17379 0.28032
# Poissons Ratio (y) = 0.33091 -0.18329
# Poissons Ratio (z) = 0.31643 -0.10866
#
# Static dielectric constant tensor:
#      x y z
#    x 2.121910 0.007800 -0.036510 
#    y 0.007800 2.156100 0.024120 
#    z -0.036510 0.024120 2.137040 
# 
# From -- ./inp_files/276399.got.cif
#   From: 2010.05.17/outbox.cif.g08.bks.cpg/sg2_139_cif.got.tgz:276399.got - 2010.06.03 11:33:40.
