data_PCOD9080017
_publ_section_title
;
Structure prediction by ZEFSAII (Michael W. Deem and Ramdas Pophale) SiO2 
 PCOD9080017
Probable space group: P -1
;
_chemical_formula_sum "Si O2"
_cell_formula_units_Z 16
_cell_length_a 18.737838
_cell_length_b 12.267041
_cell_length_c 8.479519
_cell_angle_alpha 86.151750
_cell_angle_beta 76.329864
_cell_angle_gamma 150.438629
_cell_volume 768.467345
_symmetry_space_group_name_H-M "P -1"
_symmetry_group_IT_number 2
_symmetry_cell_setting 'triclinic'
loop_
_space_group_symop_operation_xyz
x,y,z
-x,-y,-z
loop_
_atom_site_type_symbol
_atom_site_label
_atom_site_fract_x
_atom_site_fract_y
_atom_site_fract_z
Si Si1 0.295207 0.692645 0.110138
Si Si2 0.854568 0.846345 0.401467
Si Si3 0.061774 0.335776 0.845183
Si Si4 0.777149 0.617057 0.022298
Si Si5 0.953659 0.756251 0.480188
Si Si6 0.801113 0.278853 0.115826
Si Si7 0.558351 0.491386 0.317719
Si Si8 0.695131 0.899029 0.251459
O O1 0.168441 0.499204 0.344117
O O2 0.292989 0.574818 0.031529
O O3 0.219716 0.684423 0.038354
O O4 0.500000 0.000000 0.000000
O O5 0.832053 0.698507 0.510438
O O6 0.703441 0.669806 0.368803
O O7 0.895158 0.991391 0.502849
O O8 0.043617 0.094753 0.182778
O O9 0.161819 0.363874 0.853172
O O10 0.988138 0.214125 0.721003
O O11 0.197983 0.624359 0.761191
O O12 0.897129 0.136876 0.072131
O O13 0.631792 0.511980 0.143713
O O14 0.674891 0.000260 0.216858
O O15 0.000000 0.500000 0.000000
O O16 0.576073 0.643423 0.252039
O O17 0.368535 0.201001 0.523921
#
# Coordination Sequence:
#
# PCOD9080017 Si02
#       8
#     2   2   2   2   2   2   2   2
#     4  10  23  39  60  92 124 150 194 262 305 340
#     4  10  19  34  56  89 120 148 189 251 298 352
#     4  10  18  38  61  87 111 157 207 241 280 366
#     4  10  19  36  65  87 112 153 206 244 288 352
#     4  10  21  33  58  89 117 153 191 247 309 342
#     4   9  21  40  63  80 116 166 202 236 288 365
#     4  11  20  34  61  89 116 148 197 252 292 347
#     4  10  22  35  57  86 118 151 196 243 295 343
#
# _framework density 20.820664000000001
#
# number of rings (size 3 to 8) (size 9 to 14) (size 15 to 20)
#    0.000    2.000    2.500    1.125    3.500    1.000 
#    0.000    5.625   11.000    0.000    0.000    0.000 
#    0.000    0.000    0.000    0.000    0.000    0.000 
#
# Total GULP energy -89182.096583 kJ/mol
# GULP energy per Si atom -5573.881036 kJ/mol
# Density = 2.077327 g / cm^3
# Si number density = 20.820664 Si / 1000 Ang^3
#
#
#
# Elastic Constant Matrix: (Units=GPa)
#
#
# Indices 1 2 3 4 5 6 
#
# 1 69.9096 33.2700 34.5873 -6.4135 11.1037 -28.6163
# 2 33.2700 63.1679 35.2821 -6.0443 13.2804 -8.4922
# 3 34.5873 35.2821 82.8829 -1.0376 -2.4640 -17.7083
# 4 -6.4135 -6.0443 -1.0376 27.5401 -7.4800 7.5800
# 5 11.1037 13.2804 -2.4640 -7.4800 33.0292 -4.0405
# 6 -28.6163 -8.4922 -17.7083 7.5800 -4.0405 43.4634
#
#
#
# Elastic Compliance Matrix: (Units=1/GPa)
#
#
# Indices 1 2 3 4 5 6 
#
# 1 0.027275 -0.009028 -0.004682 -0.000853 -0.004365 0.014029
# 2 -0.009028 0.027005 -0.009161 0.002708 -0.008587 -0.005671
# 3 -0.004682 -0.009161 0.018897 -0.001578 0.006766 0.003731
# 4 -0.000853 0.002708 -0.001578 0.040605 0.007411 -0.007068
# 5 -0.004365 -0.008587 0.006766 0.007411 0.037428 0.000392
# 6 0.014029 -0.005671 0.003731 -0.007068 0.000392 0.033926
#
#
# Mechanical properties :
#
#
# Convention : Reuss Voigt Hill
#
# Bulk Modulus (GPa) = 36.45009 46.91548 41.68279
# Shear Modulus (GPa) = 20.83144 28.32793 24.57969
#
# Velocity S-wave (km/s) = 3.16653 3.69259 3.43963
# Velocity P-wave (km/s) = 5.56003 6.38454 5.98649
#
# Compressibility (1/GPa) = 0.02743477
#
# Stress axis : x y z
#
# Youngs Moduli (GPa) = 36.66417 37.03050 52.91790
#
# Poissons Ratio (x) = 0.33432 0.24775
# Poissons Ratio (y) = 0.33101 0.48478
# Poissons Ratio (z) = 0.17165 0.33924
#
# Static dielectric constant tensor:
#      x y z
#    x 1.774450 -0.049450 0.015240 
#    y -0.049450 1.767600 -0.023450 
#    z 0.015240 -0.023450 1.800870 
# 
# From -- ./inp_files/345331.got.cif
#   From: 2010.05.17/outbox.cif.g08.bks.cpg/sg2_173_cif.got.tgz:345331.got - 2010.06.03 11:33:40.
