data_PCOD9080492
_publ_section_title
;
Structure prediction by ZEFSAII (Michael W. Deem and Ramdas Pophale) SiO2 
 PCOD9080492
Probable space group: P -1
;
_chemical_formula_sum "Si O2"
_cell_formula_units_Z 16
_cell_length_a 14.423367
_cell_length_b 7.690738
_cell_length_c 11.648813
_cell_angle_alpha 56.411980
_cell_angle_beta 144.628456
_cell_angle_gamma 107.862437
_cell_volume 594.532364
_symmetry_space_group_name_H-M "P -1"
_symmetry_group_IT_number 2
_symmetry_cell_setting 'triclinic'
loop_
_space_group_symop_operation_xyz
x,y,z
-x,-y,-z
loop_
_atom_site_type_symbol
_atom_site_label
_atom_site_fract_x
_atom_site_fract_y
_atom_site_fract_z
Si Si1 0.131759 0.037301 0.211921
Si Si2 0.612179 0.879975 0.838430
Si Si3 0.994255 0.760962 0.321499
Si Si4 0.132211 0.766732 0.695646
Si Si5 0.370764 0.316224 0.637900
Si Si6 0.528141 0.265381 0.453433
Si Si7 0.006920 0.489924 0.826031
Si Si8 0.481876 0.800519 0.946319
O O1 0.307996 0.882962 0.398203
O O2 0.092735 0.297676 0.071144
O O3 0.083845 0.948239 0.315296
O O4 0.000000 0.000000 0.000000
O O5 0.621087 0.754949 0.771578
O O6 0.522626 0.739793 0.878398
O O7 0.529919 0.131474 0.621649
O O8 0.792217 0.859223 0.082835
O O9 0.023500 0.620810 0.285524
O O10 0.069186 0.668626 0.553553
O O11 0.118547 0.639749 0.844251
O O12 0.312579 0.785789 0.837673
O O13 0.000000 0.000000 0.500000
O O14 0.452524 0.495094 0.606337
O O15 0.182050 0.372018 0.382130
O O16 0.468856 0.058179 0.821479
O O17 0.373214 0.330166 0.774774
#
# Coordination Sequence:
#
# PCOD9080492 Si02
#       8
#     2   2   2   2   2   2   2   2
#     4  10  18  39  68  98 128 160 213 272 318 374
#     4  11  24  41  67 101 135 164 212 270 328 387
#     4  11  22  42  70 100 127 169 216 272 321 379
#     4  12  26  44  65  93 132 175 222 262 315 387
#     4  11  23  44  68  91 134 176 211 268 320 382
#     4  11  22  42  70  99 129 167 216 270 324 379
#     4  11  21  42  70  97 126 169 217 269 323 372
#     4  11  27  43  61  94 136 177 213 258 326 390
#
# _framework density 26.911905999999998
#
# number of rings (size 3 to 8) (size 9 to 14) (size 15 to 20)
#    0.000    1.000    6.250    1.875    3.500    1.000 
#    0.000    0.625    2.750    0.000    0.000    0.000 
#    0.000    0.000    0.000    0.000    0.000    0.000 
#
# Total GULP energy -89526.695141 kJ/mol
# GULP energy per Si atom -5595.418446 kJ/mol
# Density = 2.685065 g / cm^3
# Si number density = 26.911906 Si / 1000 Ang^3
#
#
#
# Elastic Constant Matrix: (Units=GPa)
#
#
# Indices 1 2 3 4 5 6 
#
# 1 87.8326 16.9937 32.0029 2.0498 -12.9808 37.3467
# 2 16.9937 89.3513 21.5658 -13.9630 -1.0021 24.8945
# 3 32.0029 21.5658 97.7554 -7.5399 1.1424 10.1119
# 4 2.0498 -13.9630 -7.5399 48.1763 2.8482 -10.9791
# 5 -12.9808 -1.0021 1.1424 2.8482 50.2873 -8.1588
# 6 37.3467 24.8945 10.1119 -10.9791 -8.1588 50.6669
#
#
#
# Elastic Compliance Matrix: (Units=1/GPa)
#
#
# Indices 1 2 3 4 5 6 
#
# 1 0.020143 0.000894 -0.005695 -0.005035 0.003244 -0.014719
# 2 0.000894 0.013775 -0.002482 0.002104 -0.000625 -0.006576
# 3 -0.005695 -0.002482 0.012505 0.002291 -0.001416 0.003190
# 4 -0.005035 0.002104 0.002291 0.023647 -0.001497 0.007104
# 5 0.003244 -0.000625 -0.001416 -0.001497 0.021032 0.001261
# 6 -0.014719 -0.006576 0.003190 0.007104 0.001261 0.034923
#
#
# Mechanical properties :
#
#
# Convention : Reuss Voigt Hill
#
# Bulk Modulus (GPa) = 31.39076 46.22936 38.81006
# Shear Modulus (GPa) = 33.06673 43.45122 38.25897
#
# Velocity S-wave (km/s) = 3.50909 4.02253 3.77455
# Velocity P-wave (km/s) = 5.30168 6.22814 5.78349
#
# Compressibility (1/GPa) = 0.03185651
#
# Stress axis : x y z
#
# Youngs Moduli (GPa) = 49.64539 72.59641 79.96887
#
# Poissons Ratio (x) = -0.06490 0.45545
# Poissons Ratio (y) = -0.04438 0.19846
# Poissons Ratio (z) = 0.28275 0.18016
#
# Static dielectric constant tensor:
#      x y z
#    x 2.198220 -0.048710 -0.013120 
#    y -0.048710 2.275730 -0.026010 
#    z -0.013120 -0.026010 2.086370 
# 
# From -- ./inp_files/446842.got.cif
#   From: 2010.05.17/outbox.cif.g08.bks.cpg/sg2_224_cif.got.tgz:446842.got - 2010.06.03 11:33:40.
