data_PCOD9080052
_publ_section_title
;
Structure prediction by ZEFSAII (Michael W. Deem and Ramdas Pophale) SiO2 
 PCOD9080052
Probable space group: P -1
;
_chemical_formula_sum "Si O2"
_cell_formula_units_Z 14
_cell_length_a 17.391785
_cell_length_b 10.765415
_cell_length_c 9.326792
_cell_angle_alpha 89.104300
_cell_angle_beta 110.048026
_cell_angle_gamma 28.451441
_cell_volume 551.620799
_symmetry_space_group_name_H-M "P -1"
_symmetry_group_IT_number 2
_symmetry_cell_setting 'triclinic'
loop_
_space_group_symop_operation_xyz
x,y,z
-x,-y,-z
loop_
_atom_site_type_symbol
_atom_site_label
_atom_site_fract_x
_atom_site_fract_y
_atom_site_fract_z
Si Si1 0.628156 0.172355 0.690382
Si Si2 0.146701 0.795367 0.449645
Si Si3 0.365441 0.814862 0.858508
Si Si4 0.793885 0.765151 0.050168
Si Si5 0.330273 0.011214 0.551597
Si Si6 0.056149 0.699919 0.812846
Si Si7 0.176713 0.484792 0.553654
O O1 0.378902 0.556578 0.608289
O O2 0.529072 0.227885 0.496200
O O3 0.803834 0.021704 0.731144
O O4 0.786982 0.863889 0.906874
O O5 0.247489 0.511003 0.520427
O O6 0.968754 0.114030 0.212532
O O7 0.000000 0.000000 0.500000
O O8 0.397299 0.893631 0.973639
O O9 0.397694 0.815366 0.718132
O O10 0.500000 0.500000 0.000000
O O11 0.084922 0.176348 0.685377
O O12 0.050665 0.397288 0.307577
O O13 0.762656 0.663999 0.998181
O O14 0.339023 0.133792 0.624186
O O15 0.121924 0.580435 0.687000
#
# Coordination Sequence:
#
# PCOD9080052 Si02
#       7
#     2   2   2   2   2   2   2
#     4  11  22  36  65  95 112 160 210 241 293 362
#     4  10  24  37  57  88 127 164 189 250 305 352
#     4  11  21  34  64  91 114 158 205 244 289 362
#     4  10  20  35  62  95 117 151 204 251 291 348
#     4  10  19  40  64  86 123 155 199 253 297 343
#     4  10  18  38  62  84 123 158 196 245 294 349
#     4  10  19  40  60  85 124 162 192 246 307 349
#
# _framework density 25.379753000000001
#
# number of rings (size 3 to 8) (size 9 to 14) (size 15 to 20)
#    0.000    1.714    4.286    3.000    4.000    1.714 
#    0.000    4.286    0.000   12.000    0.000    0.000 
#    0.000    0.000    0.000    0.000    0.000    0.000 
#
# Total GULP energy -77955.850173 kJ/mol
# GULP energy per Si atom -5568.275012 kJ/mol
# Density = 2.532199 g / cm^3
# Si number density = 25.379753 Si / 1000 Ang^3
#
#
#
# Elastic Constant Matrix: (Units=GPa)
#
#
# Indices 1 2 3 4 5 6 
#
# 1 144.5876 35.0062 63.3095 6.2099 -52.5634 -2.9447
# 2 35.0062 76.4337 16.3100 11.3200 -12.5476 -12.7816
# 3 63.3095 16.3100 102.5729 2.5194 -46.1543 -4.5166
# 4 6.2099 11.3200 2.5194 26.5536 -2.3671 -16.3151
# 5 -52.5634 -12.5476 -46.1543 -2.3671 69.4114 -7.1695
# 6 -2.9447 -12.7816 -4.5166 -16.3151 -7.1695 35.5188
#
#
#
# Elastic Compliance Matrix: (Units=1/GPa)
#
#
# Indices 1 2 3 4 5 6 
#
# 1 0.011528 -0.003453 -0.004143 -0.000263 0.005357 0.000147
# 2 -0.003453 0.015924 0.000160 -0.003479 0.000665 0.004001
# 3 -0.004143 0.000160 0.016112 0.003072 0.008209 0.004831
# 4 -0.000263 -0.003479 0.003072 0.055163 0.005741 0.025614
# 5 0.005357 0.000665 0.008209 0.005741 0.025214 0.009454
# 6 0.000147 0.004001 0.004831 0.025614 0.009454 0.043894
#
#
# Mechanical properties :
#
#
# Convention : Reuss Voigt Hill
#
# Bulk Modulus (GPa) = 34.85292 61.42727 48.14010
# Shear Modulus (GPa) = 26.00512 40.22799 33.11656
#
# Velocity S-wave (km/s) = 3.20447 3.98558 3.61618
# Velocity P-wave (km/s) = 5.23965 6.74059 6.03695
#
# Compressibility (1/GPa) = 0.02869200
#
# Stress axis : x y z
#
# Youngs Moduli (GPa) = 86.74556 62.79905 62.06713
#
# Poissons Ratio (x) = 0.21683 0.25713
# Poissons Ratio (y) = 0.29951 -0.00992
# Poissons Ratio (z) = 0.35936 -0.01003
#
# Static dielectric constant tensor:
#      x y z
#    x 2.136150 0.064760 0.081280 
#    y 0.064760 2.161020 -0.049790 
#    z 0.081280 -0.049790 2.038630 
# 
# From -- ./inp_files/206948.got.cif
#   From: 2010.05.17/outbox.cif.g08.bks.cpg/sg2_104_cif.got.tgz:206948.got - 2010.06.03 11:33:40.
