data_PCOD9080451
_publ_section_title
;
Structure prediction by ZEFSAII (Michael W. Deem and Ramdas Pophale) SiO2 
 PCOD9080451
Probable space group: P -1
;
_chemical_formula_sum "Si O2"
_cell_formula_units_Z 16
_cell_length_a 10.974887
_cell_length_b 8.025766
_cell_length_c 11.338436
_cell_angle_alpha 110.383701
_cell_angle_beta 128.275340
_cell_angle_gamma 52.689015
_cell_volume 622.994315
_symmetry_space_group_name_H-M "P -1"
_symmetry_group_IT_number 2
_symmetry_cell_setting 'triclinic'
loop_
_space_group_symop_operation_xyz
x,y,z
-x,-y,-z
loop_
_atom_site_type_symbol
_atom_site_label
_atom_site_fract_x
_atom_site_fract_y
_atom_site_fract_z
Si Si1 0.361706 0.674888 0.742248
Si Si2 0.179158 0.119891 0.321578
Si Si3 0.199241 0.090010 0.586617
Si Si4 0.164265 0.864430 0.910635
Si Si5 0.561418 0.069315 0.779119
Si Si6 0.363297 0.218679 0.035780
Si Si7 0.176596 0.534717 0.443036
Si Si8 0.004058 0.653162 0.137899
O O1 0.561644 0.629204 0.882130
O O2 0.346700 0.513531 0.610758
O O3 0.275113 0.891071 0.668720
O O4 0.246141 0.733371 0.807123
O O5 0.191442 0.019013 0.431017
O O6 0.358203 0.992813 0.318161
O O7 0.156653 0.338127 0.394323
O O8 0.999825 0.163027 0.153193
O O9 0.998532 0.265987 0.551915
O O10 0.346567 0.162470 0.688228
O O11 0.056588 0.116173 0.885205
O O12 0.342355 0.815282 0.079617
O O13 0.642662 0.855659 0.853447
O O14 0.170359 0.307811 0.880429
O O15 0.500000 0.000000 0.000000
O O16 0.171115 0.569443 0.307337
O O17 0.000000 0.500000 0.000000
#
# Coordination Sequence:
#
# PCOD9080451 Si02
#       8
#     2   2   2   2   2   2   2   2
#     4  11  21  39  69  94 113 161 217 257 294 358
#     4  12  25  41  59  89 134 166 195 247 315 372
#     4  11  22  40  64  90 118 163 208 248 304 362
#     4  11  21  41  66  88 122 163 209 247 308 365
#     4  10  22  39  63  90 120 162 204 251 310 366
#     4  10  18  39  66  93 119 159 208 257 301 358
#     4  12  23  39  62  95 123 160 210 255 301 361
#     4  11  22  39  65  96 124 155 206 263 306 357
#
# _framework density 25.682417999999998
#
# number of rings (size 3 to 8) (size 9 to 14) (size 15 to 20)
#    0.000    1.000    5.000    4.500    0.000    0.000 
#    0.000   10.000    0.000    0.000    0.000    0.000 
#    0.000    0.000    0.000    0.000    0.000    0.000 
#
# Total GULP energy -89530.318162 kJ/mol
# GULP energy per Si atom -5595.644885 kJ/mol
# Density = 2.562396 g / cm^3
# Si number density = 25.682418 Si / 1000 Ang^3
#
#
#
# Elastic Constant Matrix: (Units=GPa)
#
#
# Indices 1 2 3 4 5 6 
#
# 1 73.3959 8.9464 28.7366 20.8716 7.8494 -0.1388
# 2 8.9464 51.2086 7.3500 19.2718 6.5825 10.9404
# 3 28.7366 7.3500 141.4846 28.9597 20.0011 -0.3770
# 4 20.8716 19.2718 28.9597 32.7213 8.1926 -0.2753
# 5 7.8494 6.5825 20.0011 8.1926 66.0880 15.4639
# 6 -0.1388 10.9404 -0.3770 -0.2753 15.4639 22.0957
#
#
#
# Elastic Compliance Matrix: (Units=1/GPa)
#
#
# Indices 1 2 3 4 5 6 
#
# 1 0.016960 0.001218 -0.001361 -0.010244 -0.000362 -0.000394
# 2 0.001218 0.030393 0.002100 -0.021406 0.002893 -0.017297
# 3 -0.001361 0.002100 0.009138 -0.007977 -0.001904 0.000341
# 4 -0.010244 -0.021406 -0.007977 0.058094 -0.004833 0.014505
# 5 -0.000362 0.002893 -0.001904 -0.004833 0.019634 -0.015269
# 6 -0.000394 -0.017297 0.000341 0.014505 -0.015269 0.064692
#
#
# Mechanical properties :
#
#
# Convention : Reuss Voigt Hill
#
# Bulk Modulus (GPa) = 16.55476 39.57279 28.06377
# Shear Modulus (GPa) = 23.24144 38.91808 31.07976
#
# Velocity S-wave (km/s) = 3.01151 3.89698 3.48251
# Velocity P-wave (km/s) = 4.30723 5.97416 5.20782
#
# Compressibility (1/GPa) = 0.06040558
#
# Stress axis : x y z
#
# Youngs Moduli (GPa) = 58.96176 32.90205 109.43285
#
# Poissons Ratio (x) = -0.04008 0.14896
# Poissons Ratio (y) = -0.07183 -0.22982
# Poissons Ratio (z) = 0.08026 -0.06910
#
# Static dielectric constant tensor:
#      x y z
#    x 2.045110 0.000560 -0.000490 
#    y 0.000560 2.053330 -0.027650 
#    z -0.000490 -0.027650 2.132840 
# 
# From -- ./inp_files/257129.got.cif
#   From: 2010.05.17/outbox.cif.g08.bks.cpg/sg2_129_cif.got.tgz:257129.got - 2010.06.03 11:33:40.
