data_PCOD9080385
_publ_section_title
;
Structure prediction by ZEFSAII (Michael W. Deem and Ramdas Pophale) SiO2 
 PCOD9080385
Probable space group: P -1
;
_chemical_formula_sum "Si O2"
_cell_formula_units_Z 16
_cell_length_a 11.936257
_cell_length_b 10.832410
_cell_length_c 7.112901
_cell_angle_alpha 49.658894
_cell_angle_beta 79.113744
_cell_angle_gamma 100.654568
_cell_volume 627.747144
_symmetry_space_group_name_H-M "P -1"
_symmetry_group_IT_number 2
_symmetry_cell_setting 'triclinic'
loop_
_space_group_symop_operation_xyz
x,y,z
-x,-y,-z
loop_
_atom_site_type_symbol
_atom_site_label
_atom_site_fract_x
_atom_site_fract_y
_atom_site_fract_z
Si Si1 0.186527 0.889839 0.433079
Si Si2 0.041987 0.873168 0.850512
Si Si3 0.681517 0.365179 0.268556
Si Si4 0.780427 0.179630 0.916739
Si Si5 0.626185 0.703941 0.948298
Si Si6 0.182092 0.215946 0.731608
Si Si7 0.594825 0.807226 0.435743
Si Si8 0.341587 0.591362 0.201431
O O1 0.073515 0.879588 0.615120
O O2 0.223173 0.724668 0.629866
O O3 0.164453 0.875305 0.231386
O O4 0.295783 0.086347 0.241967
O O5 0.116795 0.062812 0.746905
O O6 0.103912 0.748722 0.048059
O O7 0.903805 0.810685 0.035038
O O8 0.546448 0.243398 0.517535
O O9 0.691791 0.567055 0.101430
O O10 0.660612 0.343595 0.072800
O O11 0.706793 0.293943 0.763744
O O12 0.673006 0.016758 0.220347
O O13 0.605306 0.709538 0.720986
O O14 0.484938 0.622101 0.158693
O O15 0.322715 0.233378 0.708657
O O16 0.222408 0.404349 0.436822
#
# Coordination Sequence:
#
# PCOD9080385 Si02
#       8
#     2   2   2   2   2   2   2   2
#     4  12  24  43  64  98 136 172 213 262 332 383
#     4  10  22  44  67  90 125 177 215 272 318 377
#     4  11  20  37  67  99 131 166 213 268 323 393
#     4  11  24  40  62  96 132 173 218 260 322 390
#     4  11  20  38  67  98 132 169 212 269 323 390
#     4  10  19  39  71  92 121 170 228 257 327 386
#     4  10  18  39  62  96 127 164 213 264 320 384
#     4  11  19  37  64  97 127 166 212 270 322 382
#
# _framework density 25.487970000000001
#
# number of rings (size 3 to 8) (size 9 to 14) (size 15 to 20)
#    0.000    1.250    6.250    1.500    0.000    4.500 
#    4.500    7.500    0.000    0.000    0.000    0.000 
#    0.000    0.000    0.000    0.000    0.000    0.000 
#
# Total GULP energy -89323.845917 kJ/mol
# GULP energy per Si atom -5582.740370 kJ/mol
# Density = 2.542996 g / cm^3
# Si number density = 25.487970 Si / 1000 Ang^3
#
#
#
# Elastic Constant Matrix: (Units=GPa)
#
#
# Indices 1 2 3 4 5 6 
#
# 1 79.8302 37.4371 37.9445 -0.1548 -6.2366 -25.8273
# 2 37.4371 106.3714 47.9936 16.8500 -9.3929 -27.7827
# 3 37.9445 47.9936 107.3061 35.0752 -22.3854 -19.9236
# 4 -0.1548 16.8500 35.0752 35.7549 -21.1895 4.0704
# 5 -6.2366 -9.3929 -22.3854 -21.1895 38.1542 6.4713
# 6 -25.8273 -27.7827 -19.9236 4.0704 6.4713 43.6501
#
#
#
# Elastic Compliance Matrix: (Units=1/GPa)
#
#
# Indices 1 2 3 4 5 6 
#
# 1 0.019289 -0.003804 -0.006899 0.009829 0.002864 0.004502
# 2 -0.003804 0.014493 -0.001908 -0.008184 -0.003983 0.007456
# 3 -0.006899 -0.001908 0.020140 -0.021123 -0.002572 0.006247
# 4 0.009829 -0.008184 -0.021123 0.073659 0.031598 -0.020588
# 5 0.002864 -0.003983 -0.002572 0.031598 0.043676 -0.011436
# 6 0.004502 0.007456 0.006247 -0.020588 -0.011436 0.036786
#
#
# Mechanical properties :
#
#
# Convention : Reuss Voigt Hill
#
# Bulk Modulus (GPa) = 34.84404 60.02869 47.43637
# Shear Modulus (GPa) = 20.59036 34.85399 27.72217
#
# Velocity S-wave (km/s) = 2.84535 3.70194 3.30154
# Velocity P-wave (km/s) = 4.94925 6.47112 5.76066
#
# Compressibility (1/GPa) = 0.02869931
#
# Stress axis : x y z
#
# Youngs Moduli (GPa) = 51.84330 68.99836 49.65234
#
# Poissons Ratio (x) = 0.26249 0.34253
# Poissons Ratio (y) = 0.19723 0.09476
# Poissons Ratio (z) = 0.35765 0.13168
#
# Static dielectric constant tensor:
#      x y z
#    x 2.037030 -0.064510 0.067620 
#    y -0.064510 2.140990 -0.041390 
#    z 0.067620 -0.041390 2.020930 
# 
# From -- ./inp_files/304626.got.cif
#   From: 2010.05.17/outbox.cif.g08.bks.cpg/sg2_153_cif.got.tgz:304626.got - 2010.06.03 11:33:40.
