data_PCOD9080420
_publ_section_title
;
Structure prediction by ZEFSAII (Michael W. Deem and Ramdas Pophale) SiO2 
 PCOD9080420
Probable space group: P -1
;
_chemical_formula_sum "Si O2"
_cell_formula_units_Z 14
_cell_length_a 19.648797
_cell_length_b 6.633372
_cell_length_c 17.302206
_cell_angle_alpha 47.879461
_cell_angle_beta 20.014739
_cell_angle_gamma 41.340185
_cell_volume 503.762196
_symmetry_space_group_name_H-M "P -1"
_symmetry_group_IT_number 2
_symmetry_cell_setting 'triclinic'
loop_
_space_group_symop_operation_xyz
x,y,z
-x,-y,-z
loop_
_atom_site_type_symbol
_atom_site_label
_atom_site_fract_x
_atom_site_fract_y
_atom_site_fract_z
Si Si1 0.497504 0.627016 0.175087
Si Si2 0.101483 0.438823 0.993395
Si Si3 0.610184 0.651500 0.787872
Si Si4 0.947004 0.849411 0.519881
Si Si5 0.633659 0.785037 0.484103
Si Si6 0.555043 0.173772 0.622979
Si Si7 0.062162 0.876311 0.216057
O O1 0.407661 0.481616 0.241175
O O2 0.448121 0.472274 0.343245
O O3 0.322765 0.987729 0.249360
O O4 0.765181 0.468478 0.911585
O O5 0.896215 0.618211 0.224409
O O6 0.180946 0.077525 0.012147
O O7 0.000000 0.500000 0.000000
O O8 0.320058 0.476981 0.773055
O O9 0.499480 0.016251 0.798024
O O10 0.876140 0.511378 0.560663
O O11 0.500000 0.500000 0.000000
O O12 0.039565 0.910189 0.324444
O O13 0.000000 0.000000 0.500000
O O14 0.595567 0.993771 0.544913
O O15 0.500000 0.000000 0.500000
O O16 0.816623 0.068590 0.390255
#
# Coordination Sequence:
#
# PCOD9080420 Si02
#       7
#     2   2   2   2   2   2   2
#     4  10  20  37  64  91 128 176 212 264 329 377
#     4  12  23  45  72  93 132 179 213 270 341 394
#     4  10  18  39  64  89 128 174 215 260 320 387
#     4  10  21  36  65  94 126 181 218 256 330 385
#     4  11  21  43  67  93 128 171 220 264 333 405
#     4  11  26  41  67 105 127 172 224 274 331 382
#     4  12  23  43  67  99 139 165 222 282 318 391
#
# _framework density 27.790890000000001
#
# number of rings (size 3 to 8) (size 9 to 14) (size 15 to 20)
#    0.000    1.143    7.143    0.000    0.000    2.286 
#    0.000    2.143    0.000    0.000    0.000    0.000 
#    0.000    0.000    0.000    0.000    0.000    0.000 
#
# Total GULP energy -78187.806917 kJ/mol
# GULP energy per Si atom -5584.843351 kJ/mol
# Density = 2.772764 g / cm^3
# Si number density = 27.790890 Si / 1000 Ang^3
#
#
#
# Elastic Constant Matrix: (Units=GPa)
#
#
# Indices 1 2 3 4 5 6 
#
# 1 136.9339 18.6684 58.1852 4.8273 -23.5579 -47.6189
# 2 18.6684 108.3849 46.7908 15.9667 -1.6756 -24.3006
# 3 58.1852 46.7908 233.4866 45.8828 -13.3354 -23.2682
# 4 4.8273 15.9667 45.8828 59.0414 -10.3003 -1.7945
# 5 -23.5579 -1.6756 -13.3354 -10.3003 59.4470 11.8011
# 6 -47.6189 -24.3006 -23.2682 -1.7945 11.8011 39.0055
#
#
#
# Elastic Compliance Matrix: (Units=1/GPa)
#
#
# Indices 1 2 3 4 5 6 
#
# 1 0.014094 0.002213 -0.002372 0.000943 0.001981 0.016615
# 2 0.002213 0.011983 -0.001680 -0.002073 -0.001406 0.009496
# 3 -0.002372 -0.001680 0.005936 -0.004025 -0.000252 -0.000510
# 4 0.000943 -0.002073 -0.004025 0.021095 0.003595 -0.002658
# 5 0.001981 -0.001406 -0.000252 0.003595 0.018963 -0.004180
# 6 0.016615 0.009496 -0.000510 -0.002658 -0.004180 0.052675
#
#
# Mechanical properties :
#
#
# Convention : Reuss Voigt Hill
#
# Bulk Modulus (GPa) = 35.29052 80.67713 57.98383
# Shear Modulus (GPa) = 36.26630 55.17616 45.72123
#
# Velocity S-wave (km/s) = 3.61636 4.46062 4.06049
# Velocity P-wave (km/s) = 5.49213 7.45806 6.54928
#
# Compressibility (1/GPa) = 0.02833622
#
# Stress axis : x y z
#
# Youngs Moduli (GPa) = 70.95036 83.45243 168.45455
#
# Poissons Ratio (x) = -0.18471 0.39964
# Poissons Ratio (y) = -0.15704 0.28294
# Poissons Ratio (z) = 0.16832 0.14017
#
# Static dielectric constant tensor:
#      x y z
#    x 2.281550 -0.009340 0.055140 
#    y -0.009340 2.459030 -0.110950 
#    z 0.055140 -0.110950 2.276350 
# 
# From -- ./inp_files/544198.got.cif
#   From: 2010.05.17/outbox.cif.g08.bks.cpg/sg2_273_cif.got.tgz:544198.got - 2010.06.03 11:33:40.
