data_PCOD9080769
_publ_section_title
;
Structure prediction by ZEFSAII (Michael W. Deem and Ramdas Pophale) SiO2 
 PCOD9080769
Probable space group: P -1
;
_chemical_formula_sum "Si O2"
_cell_formula_units_Z 16
_cell_length_a 10.024063
_cell_length_b 9.713816
_cell_length_c 12.184935
_cell_angle_alpha 108.579573
_cell_angle_beta 82.679339
_cell_angle_gamma 138.768544
_cell_volume 729.197663
_symmetry_space_group_name_H-M "P -1"
_symmetry_group_IT_number 2
_symmetry_cell_setting 'triclinic'
loop_
_space_group_symop_operation_xyz
x,y,z
-x,-y,-z
loop_
_atom_site_type_symbol
_atom_site_label
_atom_site_fract_x
_atom_site_fract_y
_atom_site_fract_z
Si Si1 0.684245 0.537279 0.483187
Si Si2 0.710726 0.399627 0.808683
Si Si3 0.475110 0.149820 0.548262
Si Si4 0.349640 0.335643 0.074877
Si Si5 0.261113 0.391536 0.757224
Si Si6 0.298701 0.003091 0.881271
Si Si7 0.091874 0.559180 0.884840
Si Si8 0.096506 0.939879 0.665414
O O1 0.500000 0.500000 0.500000
O O2 0.577623 0.300560 0.468486
O O3 0.762400 0.604433 0.368511
O O4 0.866639 0.724769 0.595243
O O5 0.601301 0.309915 0.680475
O O6 0.778188 0.621018 0.882930
O O7 0.895834 0.437887 0.798932
O O8 0.535292 0.211061 0.867582
O O9 0.500000 0.000000 0.500000
O O10 0.245314 0.013887 0.567485
O O11 0.501778 0.436433 0.187567
O O12 0.500000 0.500000 0.000000
O O13 0.252067 0.103974 0.989636
O O14 0.178253 0.468938 0.841246
O O15 0.143205 0.147057 0.738149
O O16 0.254511 0.816865 0.900402
O O17 0.167032 0.910205 0.758807
O O18 0.000000 0.500000 0.000000
#
# Coordination Sequence:
#
# PCOD9080769 Si02
#       8
#     2   2   2   2   2   2   2   2
#     4  12  26  45  70 105 140 179 234 291 354 411
#     4  10  22  44  69  98 135 179 237 281 336 425
#     4  11  25  44  71 102 138 185 233 284 346 420
#     4  10  18  43  74  93 130 181 237 275 334 415
#     4  12  25  45  72 104 144 181 226 300 349 408
#     4  10  23  45  76  94 132 191 231 284 345 414
#     4  12  28  44  63 109 144 174 232 294 354 403
#     4  11  24  48  73 101 138 190 239 276 346 436
#
# _framework density 21.941925000000001
#
# number of rings (size 3 to 8) (size 9 to 14) (size 15 to 20)
#    0.000    1.000    5.000    2.625    5.250    3.000 
#    4.500    0.000    0.000    0.000    0.000    0.000 
#    0.000    0.000    0.000    0.000    0.000    0.000 
#
# Total GULP energy -89491.377299 kJ/mol
# GULP energy per Si atom -5593.211081 kJ/mol
# Density = 2.189198 g / cm^3
# Si number density = 21.941925 Si / 1000 Ang^3
#
#
#
# Elastic Constant Matrix: (Units=GPa)
#
#
# Indices 1 2 3 4 5 6 
#
# 1 95.3595 44.2675 7.0665 12.1719 -0.3907 -14.4362
# 2 44.2675 106.7002 20.0464 -1.1471 -1.6067 -16.5269
# 3 7.0665 20.0464 54.6476 6.0584 -3.5514 -6.1010
# 4 12.1719 -1.1471 6.0584 28.4182 0.9365 9.9508
# 5 -0.3907 -1.6067 -3.5514 0.9365 34.8942 13.0551
# 6 -14.4362 -16.5269 -6.1010 9.9508 13.0551 41.7754
#
#
#
# Elastic Compliance Matrix: (Units=1/GPa)
#
#
# Indices 1 2 3 4 5 6 
#
# 1 0.015099 -0.005794 0.001719 -0.009082 -0.001899 0.005933
# 2 -0.005794 0.012883 -0.004165 0.003235 -0.000707 0.001936
# 3 0.001719 -0.004165 0.020745 -0.006491 0.000901 0.003241
# 4 -0.009082 0.003235 -0.006491 0.045669 0.003715 -0.014846
# 5 -0.001899 -0.000707 0.000901 0.003715 0.033098 -0.012033
# 6 0.005933 0.001936 0.003241 -0.014846 -0.012033 0.034524
#
#
# Mechanical properties :
#
#
# Convention : Reuss Voigt Hill
#
# Bulk Modulus (GPa) = 31.01213 44.38535 37.69874
# Shear Modulus (GPa) = 26.42069 33.37269 29.89669
#
# Velocity S-wave (km/s) = 3.47381 3.90417 3.69526
# Velocity P-wave (km/s) = 5.50038 6.37149 5.95189
#
# Compressibility (1/GPa) = 0.03224545
#
# Stress axis : x y z
#
# Youngs Moduli (GPa) = 66.23043 77.62454 48.20548
#
# Poissons Ratio (x) = 0.44978 -0.08287
# Poissons Ratio (y) = 0.38376 0.20077
# Poissons Ratio (z) = -0.11385 0.32329
#
# Static dielectric constant tensor:
#      x y z
#    x 1.933700 0.010430 0.036860 
#    y 0.010430 1.806530 0.004320 
#    z 0.036860 0.004320 1.791500 
# 
# From -- ./inp_files/382652.got.cif
#   From: 2010.05.17/outbox.cif.g08.bks.cpg/sg2_192_cif.got.tgz:382652.got - 2010.06.03 11:33:40.
