data_PCOD9080054
_publ_section_title
;
Structure prediction by ZEFSAII (Michael W. Deem and Ramdas Pophale) SiO2 
 PCOD9080054
Probable space group: P -1
;
_chemical_formula_sum "Si O2"
_cell_formula_units_Z 12
_cell_length_a 11.560981
_cell_length_b 9.467618
_cell_length_c 9.051137
_cell_angle_alpha 77.976664
_cell_angle_beta 109.481219
_cell_angle_gamma 52.155031
_cell_volume 613.690225
_symmetry_space_group_name_H-M "P -1"
_symmetry_group_IT_number 2
_symmetry_cell_setting 'triclinic'
loop_
_space_group_symop_operation_xyz
x,y,z
-x,-y,-z
loop_
_atom_site_type_symbol
_atom_site_label
_atom_site_fract_x
_atom_site_fract_y
_atom_site_fract_z
Si Si1 0.508074 0.439447 0.850945
Si Si2 0.306121 0.719692 0.442262
Si Si3 0.826049 0.857746 0.805189
Si Si4 0.186867 0.647277 0.166239
Si Si5 0.489662 0.899963 0.154149
Si Si6 0.680940 0.766236 0.563723
O O1 0.336365 0.651563 0.638661
O O2 0.689590 0.353789 0.878139
O O3 0.510009 0.265681 0.866143
O O4 0.500000 0.500000 0.000000
O O5 0.500000 0.500000 0.500000
O O6 0.152227 0.765801 0.277193
O O7 0.272195 0.916131 0.354959
O O8 0.840022 0.726652 0.710368
O O9 0.695889 0.916363 0.869809
O O10 0.013679 0.745327 0.981034
O O11 0.296569 0.410557 0.317547
O O12 0.649784 0.782310 0.371155
O O13 0.500000 0.000000 0.000000
O O14 0.500000 0.000000 0.500000
#
# Coordination Sequence:
#
# PCOD9080054 Si02
#       6
#     2   2   2   2   2   2
#     4  11  23  38  61  88 117 157 199 241 290 349
#     4  10  18  38  62  85 113 156 203 235 281 353
#     4  11  22  38  65  91 115 154 197 249 292 341
#     4  11  21  40  64  88 118 150 203 249 288 339
#     4  11  23  39  59  88 120 157 195 240 294 352
#     4  10  21  39  62  87 117 160 199 234 286 363
#
# _framework density 19.553840000000001
#
# number of rings (size 3 to 8) (size 9 to 14) (size 15 to 20)
#    0.000    1.333    5.000    4.000    7.000    0.000 
#    0.000    3.333    0.000    0.000    0.000    0.000 
#    0.000    0.000    0.000    0.000    0.000    0.000 
#
# Total GULP energy -66950.899176 kJ/mol
# GULP energy per Si atom -5579.241598 kJ/mol
# Density = 1.950933 g / cm^3
# Si number density = 19.553840 Si / 1000 Ang^3
#
#
#
# Elastic Constant Matrix: (Units=GPa)
#
#
# Indices 1 2 3 4 5 6 
#
# 1 113.4607 44.2434 90.2695 13.1746 -6.6832 34.9107
# 2 44.2434 78.6029 56.7959 24.2112 -14.0408 31.4700
# 3 90.2695 56.7959 173.7951 38.4382 -5.4395 16.9352
# 4 13.1746 24.2112 38.4382 47.5847 14.0401 2.1365
# 5 -6.6832 -14.0408 -5.4395 14.0401 47.7831 -0.2255
# 6 34.9107 31.4700 16.9352 2.1365 -0.2255 31.5243
#
#
#
# Elastic Compliance Matrix: (Units=1/GPa)
#
#
# Indices 1 2 3 4 5 6 
#
# 1 0.024385 0.006626 -0.011972 -0.000410 0.003987 -0.027131
# 2 0.006626 0.040720 -0.007739 -0.019581 0.017565 -0.042377
# 3 -0.011972 -0.007739 0.014132 -0.004497 -0.000954 0.013689
# 4 -0.000410 -0.019581 -0.004497 0.039067 -0.017710 0.019643
# 5 0.003987 0.017565 -0.000954 -0.017710 0.031647 -0.020011
# 6 -0.027131 -0.042377 0.013689 0.019643 -0.020011 0.095243
#
#
# Mechanical properties :
#
#
# Convention : Reuss Voigt Hill
#
# Bulk Modulus (GPa) = 18.84394 83.16402 51.00398
# Shear Modulus (GPa) = 17.29790 37.01508 27.15649
#
# Velocity S-wave (km/s) = 2.97750 4.35556 3.73071
# Velocity P-wave (km/s) = 4.63449 8.24122 6.68566
#
# Compressibility (1/GPa) = 0.05306747
#
# Stress axis : x y z
#
# Youngs Moduli (GPa) = 41.00865 24.55807 70.76295
#
# Poissons Ratio (x) = -0.16271 0.84715
# Poissons Ratio (y) = -0.27171 0.54761
# Poissons Ratio (z) = 0.49094 0.19005
#
# Static dielectric constant tensor:
#      x y z
#    x 1.749330 -0.002600 0.001220 
#    y -0.002600 1.716400 0.047230 
#    z 0.001220 0.047230 1.809610 
# 
# From -- ./inp_files/146472.got.cif
#   From: 2010.05.17/outbox.cif.g08.bks.cpg/sg2_74_cif.got.tgz:146472.got - 2010.06.03 11:33:40.
