data_PCOD9080682
_publ_section_title
;
Structure prediction by ZEFSAII (Michael W. Deem and Ramdas Pophale) SiO2 
 PCOD9080682
Probable space group: P -1
;
_chemical_formula_sum "Si O2"
_cell_formula_units_Z 16
_cell_length_a 10.663566
_cell_length_b 10.235377
_cell_length_c 21.296015
_cell_angle_alpha 21.699938
_cell_angle_beta 48.243997
_cell_angle_gamma 56.746762
_cell_volume 619.870730
_symmetry_space_group_name_H-M "P -1"
_symmetry_group_IT_number 2
_symmetry_cell_setting 'triclinic'
loop_
_space_group_symop_operation_xyz
x,y,z
-x,-y,-z
loop_
_atom_site_type_symbol
_atom_site_label
_atom_site_fract_x
_atom_site_fract_y
_atom_site_fract_z
Si Si1 0.946345 0.557664 0.285625
Si Si2 0.906805 0.245801 0.307225
Si Si3 0.269754 0.261807 0.938275
Si Si4 0.964492 0.629175 0.384482
Si Si5 0.346428 0.767191 0.038722
Si Si6 0.415314 0.159166 0.367459
Si Si7 0.591517 0.727149 0.430326
Si Si8 0.750333 0.213728 0.064296
O O1 0.885458 0.276295 0.375941
O O2 0.959067 0.405417 0.419608
O O3 0.140825 0.736367 0.118956
O O4 0.844383 0.875185 0.179263
O O5 0.841193 0.552911 0.154045
O O6 0.747090 0.891324 0.507124
O O7 0.112544 0.390059 0.160604
O O8 0.405851 0.591647 0.777579
O O9 0.392430 0.054630 0.950898
O O10 0.123523 0.986680 0.153591
O O11 0.763242 0.652454 0.437835
O O12 0.000000 0.500000 0.500000
O O13 0.371678 0.387938 0.221775
O O14 0.394606 0.847301 0.914921
O O15 0.454583 0.774542 0.506790
O O16 0.500000 0.500000 0.500000
O O17 0.662976 0.133643 0.196099
#
# Coordination Sequence:
#
# PCOD9080682 Si02
#       8
#     2   2   2   2   2   2   2   2
#     4   9  17  37  73  95 125 180 234 277 336 399
#     4  11  19  42  69  99 129 178 239 274 331 409
#     4  11  22  45  69  96 139 185 226 279 342 407
#     4  10  22  44  71 102 133 187 234 276 344 415
#     4  10  20  39  67  99 136 166 231 289 335 395
#     4  12  27  38  62 110 142 176 223 282 351 407
#     4  11  25  46  70  97 142 183 229 282 346 415
#     4  10  18  40  74  92 124 190 229 277 337 403
#
# _framework density 25.811836
#
# number of rings (size 3 to 8) (size 9 to 14) (size 15 to 20)
#    0.000    1.500    5.000    3.000    0.000    4.000 
#    9.000    1.250    0.000    0.000    0.000    0.000 
#    0.000    0.000    0.000    0.000    0.000    0.000 
#
# Total GULP energy -89142.115734 kJ/mol
# GULP energy per Si atom -5571.382233 kJ/mol
# Density = 2.575309 g / cm^3
# Si number density = 25.811836 Si / 1000 Ang^3
#
#
#
# Elastic Constant Matrix: (Units=GPa)
#
#
# Indices 1 2 3 4 5 6 
#
# 1 134.1355 14.9754 66.7391 15.6576 11.4401 23.5630
# 2 14.9754 51.4289 32.4702 10.9540 -2.7838 3.7034
# 3 66.7391 32.4702 71.0257 3.5789 -10.9185 18.6984
# 4 15.6576 10.9540 3.5789 27.3090 5.3762 6.2917
# 5 11.4401 -2.7838 -10.9185 5.3762 56.5635 10.1353
# 6 23.5630 3.7034 18.6984 6.2917 10.1353 36.2360
#
#
#
# Elastic Compliance Matrix: (Units=1/GPa)
#
#
# Indices 1 2 3 4 5 6 
#
# 1 0.021493 0.013520 -0.028010 -0.013272 -0.008504 0.003779
# 2 0.013520 0.040001 -0.033709 -0.020285 -0.007143 0.010034
# 3 -0.028010 -0.033709 0.062438 0.022425 0.017389 -0.019317
# 4 -0.013272 -0.020285 0.022425 0.051273 0.003045 -0.010623
# 5 -0.008504 -0.007143 0.017389 0.003045 0.023893 -0.009925
# 6 0.003779 0.010034 -0.019317 -0.010623 -0.009925 0.038703
#
#
# Mechanical properties :
#
#
# Convention : Reuss Voigt Hill
#
# Bulk Modulus (GPa) = 36.31764 53.88440 45.10102
# Shear Modulus (GPa) = 14.56132 33.51541 24.03837
#
# Velocity S-wave (km/s) = 2.37773 3.60731 3.05502
# Velocity P-wave (km/s) = 4.65175 6.18639 5.47313
#
# Compressibility (1/GPa) = 0.02753483
#
# Stress axis : x y z
#
# Youngs Moduli (GPa) = 46.52741 24.99929 16.01590
#
# Poissons Ratio (x) = -0.33800 0.44860
# Poissons Ratio (y) = -0.62907 0.53988
# Poissons Ratio (z) = 1.30323 0.84270
#
# Static dielectric constant tensor:
#      x y z
#    x 2.149690 0.104550 -0.034350 
#    y 0.104550 2.158970 -0.030170 
#    z -0.034350 -0.030170 2.077180 
# 
# From -- ./inp_files/610239.got.cif
#   From: 2010.05.17/outbox.cif.g08.bks.cpg/sg2_306_cif.got.tgz:610239.got - 2010.06.03 11:33:40.
