data_PCOD9080135
_publ_section_title
;
Structure prediction by ZEFSAII (Michael W. Deem and Ramdas Pophale) SiO2 
 PCOD9080135
Probable space group: P -1
;
_chemical_formula_sum "Si O2"
_cell_formula_units_Z 15
_cell_length_a 6.200840
_cell_length_b 9.839818
_cell_length_c 22.585135
_cell_angle_alpha 144.980710
_cell_angle_beta 53.003915
_cell_angle_gamma 123.930568
_cell_volume 625.126945
_symmetry_space_group_name_H-M "P -1"
_symmetry_group_IT_number 2
_symmetry_cell_setting 'triclinic'
loop_
_space_group_symop_operation_xyz
x,y,z
-x,-y,-z
loop_
_atom_site_type_symbol
_atom_site_label
_atom_site_fract_x
_atom_site_fract_y
_atom_site_fract_z
Si Si1 0.638648 0.335500 0.306996
Si Si2 0.941506 0.891676 0.646756
Si Si3 0.725928 0.186345 0.694908
Si Si4 0.455390 0.625593 0.890970
Si Si5 0.000000 0.500000 0.000000
Si Si6 0.532949 0.853250 0.501307
Si Si7 0.688515 0.046251 0.075507
Si Si8 0.866471 0.981087 0.213939
O O1 0.345965 0.280387 0.369582
O O2 0.672103 0.615025 0.386412
O O3 0.640868 0.172290 0.189844
O O4 0.867227 0.238863 0.275034
O O5 0.220814 0.785299 0.551893
O O6 0.944447 0.107587 0.676010
O O7 0.954759 0.983429 0.744348
O O8 0.693298 0.460835 0.785385
O O9 0.447132 0.096380 0.744582
O O10 0.699173 0.029250 0.584208
O O11 0.171416 0.468317 0.899466
O O12 0.410802 0.785824 0.899416
O O13 0.521101 0.783996 0.996477
O O14 0.051327 0.227353 0.915073
O O15 0.500000 0.000000 0.500000
O O16 0.000000 0.000000 0.000000
#
# Coordination Sequence:
#
# PCOD9080135 Si02
#       8
#     2   2   2   2   1   2   2   2
#     4  11  23  40  63  91 122 164 212 254 310 375
#     4  10  22  41  63  88 120 164 208 254 312 371
#     4   9  21  39  60  90 121 159 206 254 308 367
#     4  10  22  40  63  92 128 164 212 263 314 379
#     4  10  18  38  64  90 126 164 208 260 312 370
#     4  11  24  41  62  91 127 162 204 260 313 371
#     4  11  24  41  63  93 129 169 208 260 323 379
#     4   9  20  36  60  90 121 157 205 260 306 366
#
# _framework density 23.995125000000002
#
# number of rings (size 3 to 8) (size 9 to 14) (size 15 to 20)
#    0.000    1.867    0.000    2.800    0.000   12.800 
#    0.000    6.000    0.000    0.000    0.000    0.000 
#    0.000    0.000    0.000    0.000    0.000    0.000 
#
# Total GULP energy -83549.812751 kJ/mol
# GULP energy per Si atom -5569.987517 kJ/mol
# Density = 2.394051 g / cm^3
# Si number density = 23.995125 Si / 1000 Ang^3
#
#
#
# Elastic Constant Matrix: (Units=GPa)
#
#
# Indices 1 2 3 4 5 6 
#
# 1 81.1539 20.5120 53.2856 11.4162 -4.5315 -34.9724
# 2 20.5120 74.8336 46.1295 19.0244 -4.2263 -26.5563
# 3 53.2856 46.1295 173.9361 28.6210 -17.9462 -32.4069
# 4 11.4162 19.0244 28.6210 46.3631 -7.3014 -18.7969
# 5 -4.5315 -4.2263 -17.9462 -7.3014 27.8141 -3.8152
# 6 -34.9724 -26.5563 -32.4069 -18.7969 -3.8152 45.7041
#
#
#
# Elastic Compliance Matrix: (Units=1/GPa)
#
#
# Indices 1 2 3 4 5 6 
#
# 1 0.021363 0.001779 -0.004155 0.003910 0.004347 0.016406
# 2 0.001779 0.018815 -0.003286 -0.002109 0.001743 0.009242
# 3 -0.004155 -0.003286 0.008769 -0.002186 0.003985 0.000563
# 4 0.003910 -0.002109 -0.002186 0.029426 0.008417 0.013021
# 5 0.004347 0.001743 0.003985 0.008417 0.043664 0.014271
# 6 0.016406 0.009242 0.000563 0.013021 0.014271 0.046749
#
#
# Mechanical properties :
#
#
# Convention : Reuss Voigt Hill
#
# Bulk Modulus (GPa) = 26.57943 63.30864 44.94403
# Shear Modulus (GPa) = 25.95353 37.97603 31.96478
#
# Velocity S-wave (km/s) = 3.29236 3.98258 3.65380
# Velocity P-wave (km/s) = 5.05509 6.89849 6.04744
#
# Compressibility (1/GPa) = 0.03762309
#
# Stress axis : x y z
#
# Youngs Moduli (GPa) = 46.80975 53.14835 114.03302
#
# Poissons Ratio (x) = -0.09453 0.47377
# Poissons Ratio (y) = -0.08326 0.37474
# Poissons Ratio (z) = 0.19448 0.17466
#
# Static dielectric constant tensor:
#      x y z
#    x 1.980720 0.069800 -0.046730 
#    y 0.069800 2.044670 0.080710 
#    z -0.046730 0.080710 1.924980 
# 
# From -- ./inp_files/126395.got.cif
#   From: 2010.05.17/outbox.cif.g08.bks.cpg/sg2_64_cif.got.tgz:126395.got - 2010.06.03 11:33:40.
