data_PCOD9080792
_publ_section_title
;
Structure prediction by ZEFSAII (Michael W. Deem and Ramdas Pophale) SiO2 
 PCOD9080792
Probable space group: P -1
;
_chemical_formula_sum "Si O2"
_cell_formula_units_Z 14
_cell_length_a 11.678237
_cell_length_b 9.981585
_cell_length_c 8.596948
_cell_angle_alpha 112.042339
_cell_angle_beta 119.669427
_cell_angle_gamma 115.308340
_cell_volume 523.182661
_symmetry_space_group_name_H-M "P -1"
_symmetry_group_IT_number 2
_symmetry_cell_setting 'triclinic'
loop_
_space_group_symop_operation_xyz
x,y,z
-x,-y,-z
loop_
_atom_site_type_symbol
_atom_site_label
_atom_site_fract_x
_atom_site_fract_y
_atom_site_fract_z
Si Si1 0.269022 0.965994 0.234026
Si Si2 0.762626 0.375911 0.938806
Si Si3 0.852257 0.465066 0.687038
Si Si4 0.422642 0.269203 0.770436
Si Si5 0.256625 0.418814 0.570358
Si Si6 0.867729 0.967179 0.267927
Si Si7 0.225778 0.209477 0.172643
O O1 0.343526 0.867350 0.203435
O O2 0.319569 0.084637 0.483481
O O3 0.323940 0.132985 0.219819
O O4 0.027408 0.731294 0.957802
O O5 0.734836 0.367118 0.729725
O O6 0.654376 0.409114 0.976948
O O7 0.001042 0.554634 0.219285
O O8 0.751965 0.423542 0.436447
O O9 0.374575 0.395961 0.746897
O O10 0.324148 0.137491 0.810010
O O11 0.319490 0.398499 0.436774
O O12 0.024439 0.200013 0.381702
O O13 0.794305 0.782796 0.018038
O O14 0.000000 0.000000 0.500000
O O15 0.000000 0.000000 0.000000
#
# Coordination Sequence:
#
# PCOD9080792 Si02
#       7
#     2   2   2   2   2   2   2
#     4   9  16  29  49  68  87 121 156 188 219 268
#     4   9  18  31  44  72  91 124 152 189 221 270
#     4   9  17  30  51  64  91 124 162 176 218 282
#     4  10  19  27  48  75  97 108 149 203 234 250
#     4   9  17  30  48  71  87 124 153 187 225 273
#     4   9  16  24  42  73  96 114 141 197 234 264
#     4   9  13  26  46  68  88 112 156 187 217 266
#
# _framework density 26.759294000000001
#
# number of rings (size 3 to 8) (size 9 to 14) (size 15 to 20)
#    0.857    2.000    2.857    1.286    0.000    0.571 
#    0.000    2.857    0.000    1.714    7.429    0.000 
#    0.000    0.000    0.000    0.000    0.000    0.000 
#
# Total GULP energy -78018.695690 kJ/mol
# GULP energy per Si atom -5572.763978 kJ/mol
# Density = 2.669839 g / cm^3
# Si number density = 26.759294 Si / 1000 Ang^3
#
#
#
# Elastic Constant Matrix: (Units=GPa)
#
#
# Indices 1 2 3 4 5 6 
#
# 1 173.9066 55.3223 21.6488 -19.5604 13.0211 14.4262
# 2 55.3223 122.0213 15.7217 -16.8830 11.5176 8.7659
# 3 21.6488 15.7217 84.2987 -26.4762 5.7229 -0.3085
# 4 -19.5604 -16.8830 -26.4762 46.7049 -4.5531 -1.5991
# 5 13.0211 11.5176 5.7229 -4.5531 37.6122 -6.3156
# 6 14.4262 8.7659 -0.3085 -1.5991 -6.3156 45.1296
#
#
#
# Elastic Compliance Matrix: (Units=1/GPa)
#
#
# Indices 1 2 3 4 5 6 
#
# 1 0.007133 -0.002642 -0.000810 0.001340 -0.001705 -0.001963
# 2 -0.002642 0.010018 -0.000416 0.002032 -0.002065 -0.001321
# 3 -0.000810 -0.000416 0.014638 0.007754 -0.000779 0.000605
# 4 0.001340 0.002032 0.007754 0.027220 0.001087 0.000347
# 5 -0.001705 -0.002065 -0.000779 0.001087 0.028904 0.005024
# 6 -0.001963 -0.001321 0.000605 0.000347 0.005024 0.023762
#
#
# Mechanical properties :
#
#
# Convention : Reuss Voigt Hill
#
# Bulk Modulus (GPa) = 41.57484 62.84581 52.21032
# Shear Modulus (GPa) = 39.23771 45.05825 42.14798
#
# Velocity S-wave (km/s) = 3.83341 4.10791 3.97303
# Velocity P-wave (km/s) = 5.92990 6.78502 6.37182
#
# Compressibility (1/GPa) = 0.02405301
#
# Stress axis : x y z
#
# Youngs Moduli (GPa) = 140.19887 99.82144 68.31324
#
# Poissons Ratio (x) = 0.26375 0.05531
# Poissons Ratio (y) = 0.37044 0.02843
# Poissons Ratio (z) = 0.11351 0.04154
#
# Static dielectric constant tensor:
#      x y z
#    x 2.180030 -0.027360 0.134670 
#    y -0.027360 2.123720 0.027270 
#    z 0.134670 0.027270 2.400460 
# 
# From -- ./inp_files/249512.got.cif
#   From: 2010.05.17/outbox.cif.g08.bks.cpg/sg2_125_cif.got.tgz:249512.got - 2010.06.03 11:33:40.
