data_PCOD9080841
_publ_section_title
;
Structure prediction by ZEFSAII (Michael W. Deem and Ramdas Pophale) SiO2 
 PCOD9080841
Probable space group: P -1
;
_chemical_formula_sum "Si O2"
_cell_formula_units_Z 14
_cell_length_a 12.933948
_cell_length_b 18.175384
_cell_length_c 7.699133
_cell_angle_alpha 125.866366
_cell_angle_beta 132.088854
_cell_angle_gamma 29.040086
_cell_volume 651.990884
_symmetry_space_group_name_H-M "P -1"
_symmetry_group_IT_number 2
_symmetry_cell_setting 'triclinic'
loop_
_space_group_symop_operation_xyz
x,y,z
-x,-y,-z
loop_
_atom_site_type_symbol
_atom_site_label
_atom_site_fract_x
_atom_site_fract_y
_atom_site_fract_z
Si Si1 0.922149 0.933218 0.979472
Si Si2 0.764457 0.127140 0.520777
Si Si3 0.776981 0.937026 0.461866
Si Si4 0.012946 0.530799 0.753349
Si Si5 0.125528 0.299514 0.704094
Si Si6 0.246904 0.172686 0.271265
Si Si7 0.481006 0.260815 0.076729
O O1 0.852157 0.877034 0.923632
O O2 0.916124 0.910566 0.740075
O O3 0.164237 0.846745 0.202221
O O4 0.711261 0.114084 0.025132
O O5 0.725534 0.044074 0.419635
O O6 0.567348 0.261578 0.351645
O O7 0.000000 0.000000 0.500000
O O8 0.524204 0.035255 0.378848
O O9 0.913459 0.773645 0.340388
O O10 0.950169 0.476805 0.731018
O O11 0.000000 0.500000 0.500000
O O12 0.859839 0.700272 0.809759
O O13 0.278841 0.413204 0.946830
O O14 0.174278 0.243804 0.481958
O O15 0.354627 0.230928 0.935536
#
# Coordination Sequence:
#
# PCOD9080841 Si02
#       7
#     2   2   2   2   2   2   2
#     4  10  17  33  50  76  98 125 163 199 234 291
#     4  10  23  33  46  70 103 135 159 194 246 291
#     4  11  17  31  54  75  94 125 164 208 237 272
#     4   8  14  27  49  78  98 123 152 198 244 286
#     4   8  15  28  51  77  98 115 159 202 239 277
#     4  10  15  28  55  79  93 121 161 207 238 274
#     4   9  16  33  47  70 106 122 155 196 241 285
#
# _framework density 21.472693
#
# number of rings (size 3 to 8) (size 9 to 14) (size 15 to 20)
#    0.857    1.714    2.857    1.286    0.000    0.571 
#    0.000    1.429    0.000    3.429    0.000   18.000 
#    0.000    0.000    0.000    0.000    0.000    0.000 
#
# Total GULP energy -77948.532142 kJ/mol
# GULP energy per Si atom -5567.752296 kJ/mol
# Density = 2.142382 g / cm^3
# Si number density = 21.472693 Si / 1000 Ang^3
#
#
#
# Elastic Constant Matrix: (Units=GPa)
#
#
# Indices 1 2 3 4 5 6 
#
# 1 41.3637 9.3718 3.0356 5.8840 5.6923 11.8348
# 2 9.3718 106.5659 32.7601 -20.1243 -3.3796 22.2599
# 3 3.0356 32.7601 128.5548 -27.6540 -3.9217 2.7685
# 4 5.8840 -20.1243 -27.6540 30.5302 1.0925 1.5921
# 5 5.6923 -3.3796 -3.9217 1.0925 18.4588 3.5987
# 6 11.8348 22.2599 2.7685 1.5921 3.5987 24.1966
#
#
#
# Elastic Compliance Matrix: (Units=1/GPa)
#
#
# Indices 1 2 3 4 5 6 
#
# 1 0.030020 -0.001217 -0.001979 -0.007510 -0.007160 -0.011779
# 2 -0.001217 0.014785 -0.001256 0.009405 0.005033 -0.014230
# 3 -0.001979 -0.001256 0.010049 0.008579 0.001985 0.000114
# 4 -0.007510 0.009405 0.008579 0.048511 0.004916 -0.009883
# 5 -0.007160 0.005033 0.001985 0.004916 0.059487 -0.010526
# 6 -0.011779 -0.014230 0.000114 -0.009883 -0.010526 0.062383
#
#
# Mechanical properties :
#
#
# Convention : Reuss Voigt Hill
#
# Bulk Modulus (GPa) = 21.76219 40.75771 31.25995
# Shear Modulus (GPa) = 20.04357 30.05825 25.05091
#
# Velocity S-wave (km/s) = 3.05855 3.74550 3.41932
# Velocity P-wave (km/s) = 4.75708 6.14226 5.49350
#
# Compressibility (1/GPa) = 0.04595126
#
# Stress axis : x y z
#
# Youngs Moduli (GPa) = 33.31073 67.63592 99.51084
#
# Poissons Ratio (x) = 0.08229 0.19694
# Poissons Ratio (y) = 0.04053 0.12498
# Poissons Ratio (z) = 0.06592 0.08495
#
# Static dielectric constant tensor:
#      x y z
#    x 1.822750 0.031290 -0.040890 
#    y 0.031290 1.806490 0.016970 
#    z -0.040890 0.016970 1.850540 
# 
# From -- ./inp_files/316644.got.cif
#   From: 2010.05.17/outbox.cif.g08.bks.cpg/sg2_159_cif.got.tgz:316644.got - 2010.06.03 11:33:40.
