data_PCOD9080899
_publ_section_title
;
Structure prediction by ZEFSAII (Michael W. Deem and Ramdas Pophale) SiO2 
 PCOD9080899
Probable space group: P -1
;
_chemical_formula_sum "Si O2"
_cell_formula_units_Z 16
_cell_length_a 19.231222
_cell_length_b 14.281404
_cell_length_c 10.969070
_cell_angle_alpha 134.045516
_cell_angle_beta 147.653182
_cell_angle_gamma 33.418259
_cell_volume 887.241332
_symmetry_space_group_name_H-M "P -1"
_symmetry_group_IT_number 2
_symmetry_cell_setting 'triclinic'
loop_
_space_group_symop_operation_xyz
x,y,z
-x,-y,-z
loop_
_atom_site_type_symbol
_atom_site_label
_atom_site_fract_x
_atom_site_fract_y
_atom_site_fract_z
Si Si1 0.580183 0.506365 0.002742
Si Si2 0.751312 0.255683 0.411465
Si Si3 0.932366 0.380935 0.416396
Si Si4 0.998942 0.912260 0.591831
Si Si5 0.281882 0.803485 0.258704
Si Si6 0.912070 0.445295 0.155000
Si Si7 0.049664 0.099076 0.011155
Si Si8 0.604045 0.552453 0.643488
O O1 0.428050 0.663822 0.841612
O O2 0.661567 0.340389 0.888203
O O3 0.500000 0.500000 0.000000
O O4 0.732608 0.503012 0.261123
O O5 0.887402 0.199112 0.456384
O O6 0.719817 0.404401 0.580691
O O7 0.824497 0.088048 0.445508
O O8 0.009975 0.199446 0.425923
O O9 0.932142 0.391414 0.278322
O O10 0.024744 0.448518 0.665451
O O11 0.089402 0.976971 0.849098
O O12 0.135076 0.831330 0.149229
O O13 0.452356 0.730987 0.517518
O O14 0.187734 0.981361 0.212401
O O15 0.028837 0.262531 0.096005
O O16 0.723944 0.545804 0.912535
O O17 0.500000 0.500000 0.500000
#
# Coordination Sequence:
#
# PCOD9080899 Si02
#       8
#     2   2   2   2   2   2   2   2
#     4  11  18  35  58  86 111 151 191 236 275 338
#     4  10  21  33  61  88 113 142 200 238 281 325
#     4  11  22  37  56  86 119 152 187 233 291 343
#     4  11  20  36  58  88 113 150 191 238 281 338
#     4  10  19  29  58  85 108 138 203 234 276 321
#     4  11  22  36  57  85 120 152 185 235 292 338
#     4  11  17  34  56  85 109 148 190 237 273 337
#     4  11  19  35  56  88 113 147 191 242 277 336
#
# _framework density 18.033425000000001
#
# number of rings (size 3 to 8) (size 9 to 14) (size 15 to 20)
#    0.000    1.250    6.250    1.500    0.000    0.000 
#    0.000    1.875    0.000    9.000    0.000    0.000 
#    0.000    0.000    0.000    0.000    0.000    0.000 
#
# Total GULP energy -89230.996407 kJ/mol
# GULP energy per Si atom -5576.937275 kJ/mol
# Density = 1.799238 g / cm^3
# Si number density = 18.033425 Si / 1000 Ang^3
#
#
#
# Elastic Constant Matrix: (Units=GPa)
#
#
# Indices 1 2 3 4 5 6 
#
# 1 59.8340 20.3159 25.3192 0.0320 -8.6450 -2.7697
# 2 20.3159 102.4772 55.8500 -29.3505 -4.8471 17.2929
# 3 25.3192 55.8500 139.1843 -18.5442 0.0718 21.3819
# 4 0.0320 -29.3505 -18.5442 39.9168 3.6958 -8.2207
# 5 -8.6450 -4.8471 0.0718 3.6958 22.0076 1.2298
# 6 -2.7697 17.2929 21.3819 -8.2207 1.2298 31.6476
#
#
#
# Elastic Compliance Matrix: (Units=1/GPa)
#
#
# Indices 1 2 3 4 5 6 
#
# 1 0.020901 -0.003873 -0.003577 -0.004227 0.007802 0.004961
# 2 -0.003873 0.015941 -0.003857 0.009016 0.000719 -0.004130
# 3 -0.003577 -0.003857 0.010270 0.001164 -0.002218 -0.004756
# 4 -0.004227 0.009016 0.001164 0.033300 -0.005426 0.002778
# 5 0.007802 0.000719 -0.002218 -0.005426 0.049667 -0.001551
# 6 0.004961 -0.004130 -0.004756 0.002778 -0.001551 0.038284
#
#
# Mechanical properties :
#
#
# Convention : Reuss Voigt Hill
#
# Bulk Modulus (GPa) = 40.81999 56.05174 48.43586
# Shear Modulus (GPa) = 25.10770 32.04843 28.57806
#
# Velocity S-wave (km/s) = 3.73538 4.22022 3.98518
# Velocity P-wave (km/s) = 6.42565 7.40923 6.93490
#
# Compressibility (1/GPa) = 0.02449780
#
# Stress axis : x y z
#
# Youngs Moduli (GPa) = 47.84519 62.73100 97.37136
#
# Poissons Ratio (x) = 0.24293 0.34834
# Poissons Ratio (y) = 0.18529 0.37555
# Poissons Ratio (z) = 0.17116 0.24195
#
# Static dielectric constant tensor:
#      x y z
#    x 1.654500 -0.003780 -0.051220 
#    y -0.003780 1.656470 -0.023650 
#    z -0.051220 -0.023650 1.640530 
# 
# From -- ./inp_files/471596.got.cif
#   From: 2010.05.17/outbox.cif.g08.bks.cpg/sg2_236_cif.got.tgz:471596.got - 2010.06.03 11:33:40.
