data_PCOD9080866
_publ_section_title
;
Structure prediction by ZEFSAII (Michael W. Deem and Ramdas Pophale) SiO2 
 PCOD9080866
Probable space group: P -1
;
_chemical_formula_sum "Si O2"
_cell_formula_units_Z 16
_cell_length_a 11.164012
_cell_length_b 16.216524
_cell_length_c 15.946008
_cell_angle_alpha 161.508273
_cell_angle_beta 65.585075
_cell_angle_gamma 112.947923
_cell_volume 833.726653
_symmetry_space_group_name_H-M "P -1"
_symmetry_group_IT_number 2
_symmetry_cell_setting 'triclinic'
loop_
_space_group_symop_operation_xyz
x,y,z
-x,-y,-z
loop_
_atom_site_type_symbol
_atom_site_label
_atom_site_fract_x
_atom_site_fract_y
_atom_site_fract_z
Si Si1 0.709628 0.468944 0.431541
Si Si2 0.631395 0.965288 0.705953
Si Si3 0.822345 0.252325 0.809136
Si Si4 0.890617 0.781004 0.223471
Si Si5 0.864127 0.811904 0.613162
Si Si6 0.960177 0.692858 0.940029
Si Si7 0.470168 0.563129 0.712532
Si Si8 0.019125 0.731496 0.782555
O O1 0.781559 0.737738 0.647562
O O2 0.605363 0.498540 0.563908
O O3 0.634624 0.407381 0.306294
O O4 0.831235 0.285986 0.243288
O O5 0.761308 0.910248 0.670199
O O6 0.567679 0.678420 0.448878
O O7 0.693792 0.123436 0.763014
O O8 0.536206 0.166600 0.975856
O O9 0.952700 0.237317 0.816864
O O10 0.852800 0.068671 0.542950
O O11 0.817066 0.556338 0.080571
O O12 0.867781 0.713679 0.067780
O O13 0.941156 0.551774 0.311071
O O14 0.965947 0.034360 0.814433
O O15 0.922885 0.680079 0.840528
O O16 0.000000 0.500000 0.500000
O O17 0.000000 0.000000 0.000000
#
# Coordination Sequence:
#
# PCOD9080866 Si02
#       8
#     2   2   2   2   2   2   2   2
#     4   9  21  37  52  77 106 137 184 219 256 316
#     4  11  19  31  46  72 104 135 176 208 257 309
#     4  10  20  29  45  71 105 131 180 210 255 315
#     4  10  20  30  46  69  98 144 172 212 254 314
#     4  10  19  29  50  69  99 142 170 217 245 311
#     4  11  20  34  50  71 101 139 184 203 266 315
#     4  10  22  33  54  75 103 147 178 213 257 313
#     4  11  23  37  56  79 106 141 177 226 263 304
#
# _framework density 19.190943000000001
#
# number of rings (size 3 to 8) (size 9 to 14) (size 15 to 20)
#    0.000    1.750    1.250    5.250    3.500    8.500 
#    0.000    0.000    0.000    0.000    0.000    0.000 
#    0.000   20.000    0.000    0.000    0.000    0.000 
#
# Total GULP energy -89175.852975 kJ/mol
# GULP energy per Si atom -5573.490811 kJ/mol
# Density = 1.914726 g / cm^3
# Si number density = 19.190943 Si / 1000 Ang^3
#
#
#
# Elastic Constant Matrix: (Units=GPa)
#
#
# Indices 1 2 3 4 5 6 
#
# 1 22.2218 11.1932 8.1938 6.6526 -9.3898 1.7618
# 2 11.1932 84.3519 20.5490 3.7929 0.3996 0.9244
# 3 8.1938 20.5490 98.4368 5.4072 0.5612 -7.1506
# 4 6.6526 3.7929 5.4072 33.8079 -1.6346 5.9682
# 5 -9.3898 0.3996 0.5612 -1.6346 11.7689 0.8739
# 6 1.7618 0.9244 -7.1506 5.9682 0.8739 18.7904
#
#
#
# Elastic Compliance Matrix: (Units=1/GPa)
#
#
# Indices 1 2 3 4 5 6 
#
# 1 0.083655 -0.009536 -0.005517 -0.009602 0.066705 -0.009526
# 2 -0.009536 0.013645 -0.002050 0.000344 -0.007904 -0.000299
# 3 -0.005517 -0.002050 0.011607 -0.001849 -0.005580 0.005882
# 4 -0.009602 0.000344 -0.001849 0.033446 -0.002171 -0.010342
# 5 0.066705 -0.007904 -0.005580 -0.002171 0.139447 -0.013784
# 6 -0.009526 -0.000299 0.005882 -0.010342 -0.013784 0.060291
#
#
# Mechanical properties :
#
#
# Convention : Reuss Voigt Hill
#
# Bulk Modulus (GPa) = 13.38717 31.65359 22.52038
# Shear Modulus (GPa) = 12.46268 23.87840 18.17054
#
# Velocity S-wave (km/s) = 2.55111 3.53122 3.08040
# Velocity P-wave (km/s) = 3.95834 5.75812 4.94087
#
# Compressibility (1/GPa) = 0.07469839
#
# Stress axis : x y z
#
# Youngs Moduli (GPa) = 11.95390 73.28562 86.15717
#
# Poissons Ratio (x) = 0.69888 0.47537
# Poissons Ratio (y) = 0.11400 0.17664
# Poissons Ratio (z) = 0.06596 0.15025
#
# Static dielectric constant tensor:
#      x y z
#    x 1.619790 0.068450 0.013540 
#    y 0.068450 1.614530 -0.030560 
#    z 0.013540 -0.030560 1.693710 
# 
# From -- ./inp_files/522035.got.cif
#   From: 2010.05.17/outbox.cif.g08.bks.cpg/sg2_262_cif.got.tgz:522035.got - 2010.06.03 11:33:40.
