data_PCOD9080004
_publ_section_title
;
Structure prediction by ZEFSAII (Michael W. Deem and Ramdas Pophale) SiO2 
 PCOD9080004
Probable space group: P -1
;
_chemical_formula_sum "Si O2"
_cell_formula_units_Z 16
_cell_length_a 7.176296
_cell_length_b 14.570807
_cell_length_c 11.671928
_cell_angle_alpha 65.715364
_cell_angle_beta 91.577595
_cell_angle_gamma 140.843362
_cell_volume 605.798093
_symmetry_space_group_name_H-M "P -1"
_symmetry_group_IT_number 2
_symmetry_cell_setting 'triclinic'
loop_
_space_group_symop_operation_xyz
x,y,z
-x,-y,-z
loop_
_atom_site_type_symbol
_atom_site_label
_atom_site_fract_x
_atom_site_fract_y
_atom_site_fract_z
Si Si1 0.387440 0.085180 0.349838
Si Si2 0.110207 0.835077 0.036594
Si Si3 0.605598 0.438742 0.574084
Si Si4 0.616456 0.856217 0.202360
Si Si5 0.127538 0.454688 0.717932
Si Si6 0.626415 0.711661 0.799720
Si Si7 0.326515 0.825371 0.446127
Si Si8 0.069154 0.353859 0.107741
O O1 0.194384 0.098146 0.296175
O O2 0.441421 0.097551 0.480455
O O3 0.760666 0.269177 0.205408
O O4 0.275967 0.923849 0.389277
O O5 0.048709 0.743553 0.966811
O O6 0.085334 0.941330 0.950842
O O7 0.873446 0.668260 0.206909
O O8 0.500000 0.000000 0.000000
O O9 0.500000 0.500000 0.500000
O O10 0.331441 0.236408 0.721191
O O11 0.737378 0.450086 0.450791
O O12 0.947436 0.608139 0.568015
O O13 0.488716 0.860094 0.311730
O O14 0.271085 0.698330 0.199856
O O15 0.375137 0.605749 0.741717
O O16 0.844426 0.708562 0.788437
O O17 0.393039 0.572217 0.976187
#
# Coordination Sequence:
#
# PCOD9080004 Si02
#       8
#     2   2   2   2   2   2   2   2
#     4  11  21  38  60  84 120 153 193 239 285 348
#     4   9  18  35  64  83 108 151 192 232 293 343
#     4  11  23  36  57  85 116 151 193 244 289 341
#     4  10  18  38  61  80 112 152 193 236 290 345
#     4   9  19  37  59  82 114 150 189 240 285 346
#     4  10  21  37  60  88 117 154 191 237 292 343
#     4  10  22  38  56  84 112 152 196 235 289 349
#     4  10  21  37  59  88 117 152 193 237 288 349
#
# _framework density 26.411441
#
# number of rings (size 3 to 8) (size 9 to 14) (size 15 to 20)
#    0.000    2.000    1.250    3.375    1.750    1.000 
#    0.000    1.875    0.000    0.000    0.000    0.000 
#    0.000    0.000    0.000    0.000    0.000    0.000 
#
# Total GULP energy -89518.360747 kJ/mol
# GULP energy per Si atom -5594.897547 kJ/mol
# Density = 2.635133 g / cm^3
# Si number density = 26.411441 Si / 1000 Ang^3
#
#
#
# Elastic Constant Matrix: (Units=GPa)
#
#
# Indices 1 2 3 4 5 6 
#
# 1 89.4580 33.1121 25.8351 -4.5830 35.0536 -23.2025
# 2 33.1121 104.3816 29.0849 -6.4514 20.9577 -6.5837
# 3 25.8351 29.0849 131.0959 -33.8496 35.8206 -21.9640
# 4 -4.5830 -6.4514 -33.8496 50.8830 -15.6069 19.2068
# 5 35.0536 20.9577 35.8206 -15.6069 50.6110 -19.3561
# 6 -23.2025 -6.5837 -21.9640 19.2068 -19.3561 33.8541
#
#
#
# Elastic Compliance Matrix: (Units=1/GPa)
#
#
# Indices 1 2 3 4 5 6 
#
# 1 0.018347 -0.003699 -0.000065 -0.005274 -0.009079 0.009614
# 2 -0.003699 0.011449 -0.001617 0.000483 -0.001933 -0.002736
# 3 -0.000065 -0.001617 0.010850 0.005124 -0.005044 0.000889
# 4 -0.005274 0.000483 0.005124 0.029273 0.003105 -0.015028
# 5 -0.009079 -0.001933 -0.005044 0.003105 0.034461 0.008071
# 6 0.009614 -0.002736 0.000889 -0.015028 0.008071 0.049313
#
#
# Mechanical properties :
#
#
# Convention : Reuss Voigt Hill
#
# Bulk Modulus (GPa) = 33.46183 55.66664 44.56424
# Shear Modulus (GPa) = 28.66689 42.86316 35.76503
#
# Velocity S-wave (km/s) = 3.29811 4.03290 3.68387
# Velocity P-wave (km/s) = 5.21539 6.54279 5.91644
#
# Compressibility (1/GPa) = 0.02988480
#
# Stress axis : x y z
#
# Youngs Moduli (GPa) = 54.50399 87.34128 92.16646
#
# Poissons Ratio (x) = 0.32304 0.00602
# Poissons Ratio (y) = 0.20159 0.14903
# Poissons Ratio (z) = 0.00356 0.14123
#
# Static dielectric constant tensor:
#      x y z
#    x 2.106360 -0.025900 0.068660 
#    y -0.025900 2.069530 -0.021900 
#    z 0.068660 -0.021900 2.085390 
# 
# From -- ./inp_files/397217.got.cif
#   From: 2010.05.17/outbox.cif.g08.bks.cpg/sg2_199_cif.got.tgz:397217.got - 2010.06.03 11:33:40.
