data_PCOD9080853
_publ_section_title
;
Structure prediction by ZEFSAII (Michael W. Deem and Ramdas Pophale) SiO2 
 PCOD9080853
Probable space group: P -1
;
_chemical_formula_sum "Si O2"
_cell_formula_units_Z 16
_cell_length_a 11.699122
_cell_length_b 17.835306
_cell_length_c 9.826343
_cell_angle_alpha 137.090070
_cell_angle_beta 126.107053
_cell_angle_gamma 28.115762
_cell_volume 647.502915
_symmetry_space_group_name_H-M "P -1"
_symmetry_group_IT_number 2
_symmetry_cell_setting 'triclinic'
loop_
_space_group_symop_operation_xyz
x,y,z
-x,-y,-z
loop_
_atom_site_type_symbol
_atom_site_label
_atom_site_fract_x
_atom_site_fract_y
_atom_site_fract_z
Si Si1 0.738125 0.147418 0.091226
Si Si2 0.863720 0.752339 0.357202
Si Si3 0.577884 0.123706 0.203262
Si Si4 0.711610 0.383463 0.884548
Si Si5 0.235864 0.890304 0.422782
Si Si6 0.513959 0.807851 0.268477
Si Si7 0.151391 0.260214 0.994332
Si Si8 0.237728 0.674333 0.451467
O O1 0.717796 0.066042 0.085177
O O2 0.677713 0.294768 0.333444
O O3 0.549850 0.226367 0.950092
O O4 0.000000 0.000000 0.000000
O O5 0.779898 0.694833 0.296264
O O6 0.826835 0.751297 0.169383
O O7 0.135980 0.628623 0.390506
O O8 0.681650 0.964926 0.566320
O O9 0.633616 0.177176 0.429754
O O10 0.686714 0.945810 0.113648
O O11 0.292979 0.276210 0.173731
O O12 0.858575 0.174672 0.736157
O O13 0.615788 0.438088 0.734527
O O14 0.882580 0.382918 0.008769
O O15 0.500000 0.500000 0.000000
O O16 0.449371 0.781372 0.321017
O O17 0.015829 0.108795 0.503097
#
# Coordination Sequence:
#
# PCOD9080853 Si02
#       8
#     2   2   2   2   2   2   2   2
#     4  12  20  29  49  86 113 144 174 229 280 328
#     4   9  16  30  46  76 113 142 168 221 279 327
#     4  11  20  33  55  84 116 142 183 231 279 326
#     4  11  22  37  58  82 111 148 191 232 276 328
#     4  11  19  36  57  83 109 147 184 236 275 326
#     4  10  19  29  48  80 114 144 175 223 283 333
#     4  10  20  33  53  83 114 147 178 232 280 320
#     4  10  19  34  56  80 112 141 187 228 277 323
#
# _framework density 24.710311999999998
#
# number of rings (size 3 to 8) (size 9 to 14) (size 15 to 20)
#    0.000    1.500    8.750    1.125    0.000    0.000 
#    0.000    0.625    0.000    3.750    0.000    0.000 
#    0.000    0.000    0.000    0.000    0.000    0.000 
#
# Total GULP energy -89354.054341 kJ/mol
# GULP energy per Si atom -5584.628396 kJ/mol
# Density = 2.465407 g / cm^3
# Si number density = 24.710312 Si / 1000 Ang^3
#
#
#
# Elastic Constant Matrix: (Units=GPa)
#
#
# Indices 1 2 3 4 5 6 
#
# 1 183.2529 30.0904 41.1805 -7.5854 -10.8729 -38.9161
# 2 30.0904 82.1460 48.2350 -20.6346 -1.9687 -25.2097
# 3 41.1805 48.2350 128.2184 -21.6724 -11.0241 -30.9576
# 4 -7.5854 -20.6346 -21.6724 22.7071 -5.0010 7.8495
# 5 -10.8729 -1.9687 -11.0241 -5.0010 48.9616 -0.0880
# 6 -38.9161 -25.2097 -30.9576 7.8495 -0.0880 39.0554
#
#
#
# Elastic Compliance Matrix: (Units=1/GPa)
#
#
# Indices 1 2 3 4 5 6 
#
# 1 0.007079 -0.000362 -0.000513 -0.000388 0.001414 0.006494
# 2 -0.000362 0.019579 -0.003339 0.012276 0.001222 0.007166
# 3 -0.000513 -0.003339 0.012001 0.007072 0.003186 0.005432
# 4 -0.000388 0.012276 0.007072 0.063551 0.008492 0.000390
# 5 0.001414 0.001222 0.003186 0.008492 0.022377 0.003067
# 6 0.006494 0.007166 0.005432 0.000390 0.003067 0.040935
#
#
# Mechanical properties :
#
#
# Convention : Reuss Voigt Hill
#
# Bulk Modulus (GPa) = 33.08032 70.29212 51.68622
# Shear Modulus (GPa) = 27.17003 40.41893 33.79448
#
# Velocity S-wave (km/s) = 3.31953 4.04878 3.70216
# Velocity P-wave (km/s) = 5.30176 7.09683 6.26393
#
# Compressibility (1/GPa) = 0.03022945
#
# Stress axis : x y z
#
# Youngs Moduli (GPa) = 141.26987 51.07595 83.32668
#
# Poissons Ratio (x) = 0.01850 0.04277
# Poissons Ratio (y) = 0.05116 0.27822
# Poissons Ratio (z) = 0.07252 0.17054
#
# Static dielectric constant tensor:
#      x y z
#    x 1.998000 0.008360 0.055960 
#    y 0.008360 2.099780 0.098470 
#    z 0.055960 0.098470 2.036760 
# 
# From -- ./inp_files/282338.got.cif
#   From: 2010.05.17/outbox.cif.g08.bks.cpg/sg2_142_cif.got.tgz:282338.got - 2010.06.03 11:33:40.
