data_PCOD9080507
_publ_section_title
;
Structure prediction by ZEFSAII (Michael W. Deem and Ramdas Pophale) SiO2 
 PCOD9080507
Probable space group: P -1
;
_chemical_formula_sum "Si O2"
_cell_formula_units_Z 16
_cell_length_a 7.773102
_cell_length_b 11.091872
_cell_length_c 8.383997
_cell_angle_alpha 113.186110
_cell_angle_beta 95.326323
_cell_angle_gamma 73.854498
_cell_volume 638.148117
_symmetry_space_group_name_H-M "P -1"
_symmetry_group_IT_number 2
_symmetry_cell_setting 'triclinic'
loop_
_space_group_symop_operation_xyz
x,y,z
-x,-y,-z
loop_
_atom_site_type_symbol
_atom_site_label
_atom_site_fract_x
_atom_site_fract_y
_atom_site_fract_z
Si Si1 0.419611 0.581583 0.191278
Si Si2 0.520112 0.183965 0.510592
Si Si3 0.164417 0.118845 0.351333
Si Si4 0.531435 0.662658 0.730398
Si Si5 0.854317 0.983424 0.294682
Si Si6 0.948461 0.611519 0.692665
Si Si7 0.929150 0.295492 0.931893
Si Si8 0.281299 0.892452 0.997891
O O1 0.460171 0.726570 0.290105
O O2 0.506579 0.474720 0.281331
O O3 0.205155 0.620751 0.168874
O O4 0.500000 0.500000 0.000000
O O5 0.319810 0.168931 0.478677
O O6 0.549957 0.277656 0.413034
O O7 0.680954 0.049605 0.423891
O O8 0.040857 0.247837 0.315164
O O9 0.023870 0.045915 0.378975
O O10 0.282298 0.012825 0.180211
O O11 0.741360 0.629364 0.716089
O O12 0.465157 0.785789 0.912324
O O13 0.802626 0.036903 0.136758
O O14 0.913035 0.819014 0.200294
O O15 0.000000 0.500000 0.500000
O O16 0.034070 0.606083 0.873755
O O17 0.831429 0.198182 0.971574
#
# Coordination Sequence:
#
# PCOD9080507 Si02
#       8
#     2   2   2   2   2   2   2   2
#     4  12  26  44  63  92 141 178 214 265 340 394
#     4  10  25  41  70  97 127 174 225 279 320 393
#     4  10  20  38  66 103 127 162 223 280 325 377
#     4  10  24  41  69  95 125 176 227 264 321 398
#     4  10  20  40  70  97 128 165 226 273 332 386
#     4  11  24  37  65 102 134 168 220 273 326 392
#     4  11  22  40  66  92 134 176 208 272 337 386
#     4  10  18  39  69  98 124 167 218 275 327 389
#
# _framework density 25.072551000000001
#
# number of rings (size 3 to 8) (size 9 to 14) (size 15 to 20)
#    0.000    1.500    3.750    1.125    7.000    2.500 
#    0.000    3.750    0.000    0.000    0.000    0.000 
#    0.000    0.000    0.000    0.000    0.000    0.000 
#
# Total GULP energy -89478.575220 kJ/mol
# GULP energy per Si atom -5592.410951 kJ/mol
# Density = 2.501548 g / cm^3
# Si number density = 25.072551 Si / 1000 Ang^3
#
#
#
# Elastic Constant Matrix: (Units=GPa)
#
#
# Indices 1 2 3 4 5 6 
#
# 1 45.2390 -0.3454 27.6806 1.5089 0.7761 -17.0437
# 2 -0.3454 112.8197 38.1770 9.3766 -12.3492 -15.8493
# 3 27.6806 38.1770 126.9443 35.3508 11.4229 -5.6232
# 4 1.5089 9.3766 35.3508 35.3320 -1.6807 -4.1769
# 5 0.7761 -12.3492 11.4229 -1.6807 36.3799 -4.0780
# 6 -17.0437 -15.8493 -5.6232 -4.1769 -4.0780 36.1406
#
#
#
# Elastic Compliance Matrix: (Units=1/GPa)
#
#
# Indices 1 2 3 4 5 6 
#
# 1 0.038987 0.008151 -0.014743 0.014032 0.009722 0.022385
# 2 0.008151 0.013283 -0.007501 0.005198 0.008052 0.010011
# 3 -0.014743 -0.007501 0.018776 -0.017893 -0.010134 -0.010532
# 4 0.014032 0.005198 -0.017893 0.046229 0.010638 0.012656
# 5 0.009722 0.008052 -0.010134 0.010638 0.035001 0.011718
# 6 0.022385 0.010011 -0.010532 0.012656 0.011718 0.043763
#
#
# Mechanical properties :
#
#
# Convention : Reuss Voigt Hill
#
# Bulk Modulus (GPa) = 23.33171 46.22526 34.77848
# Shear Modulus (GPa) = 20.96340 36.20324 28.58332
#
# Velocity S-wave (km/s) = 2.89469 3.80404 3.38009
# Velocity P-wave (km/s) = 4.52749 6.14581 5.39765
#
# Compressibility (1/GPa) = 0.04286013
#
# Stress axis : x y z
#
# Youngs Moduli (GPa) = 25.64956 75.28666 53.25903
#
# Poissons Ratio (x) = -0.61367 0.78521
# Poissons Ratio (y) = -0.20907 0.39947
# Poissons Ratio (z) = 0.37816 0.56469
#
# Static dielectric constant tensor:
#      x y z
#    x 1.971400 0.025390 0.010780 
#    y 0.025390 2.039760 -0.038660 
#    z 0.010780 -0.038660 2.044680 
# 
# From -- ./inp_files/190263.got.cif
#   From: 2010.05.17/outbox.cif.g08.bks.cpg/sg2_96_cif.got.tgz:190263.got - 2010.06.03 11:33:40.
