data_PCOD9080696
_publ_section_title
;
Structure prediction by ZEFSAII (Michael W. Deem and Ramdas Pophale) SiO2 
 PCOD9080696
Probable space group: P -1
;
_chemical_formula_sum "Si O2"
_cell_formula_units_Z 13
_cell_length_a 7.066366
_cell_length_b 9.636610
_cell_length_c 9.337065
_cell_angle_alpha 58.650807
_cell_angle_beta 90.354107
_cell_angle_gamma 66.849178
_cell_volume 480.956025
_symmetry_space_group_name_H-M "P -1"
_symmetry_group_IT_number 2
_symmetry_cell_setting 'triclinic'
loop_
_space_group_symop_operation_xyz
x,y,z
-x,-y,-z
loop_
_atom_site_type_symbol
_atom_site_label
_atom_site_fract_x
_atom_site_fract_y
_atom_site_fract_z
Si Si1 0.306646 0.545283 0.662419
Si Si2 0.158491 0.753438 0.987371
Si Si3 0.552796 0.256460 0.250004
Si Si4 0.500000 0.000000 0.500000
Si Si5 0.285621 0.252744 0.626670
Si Si6 0.895747 0.587321 0.752689
Si Si7 0.915710 0.155092 0.739099
O O1 0.477129 0.580797 0.732146
O O2 0.353003 0.354365 0.693023
O O3 0.227710 0.695360 0.456466
O O4 0.115586 0.596149 0.750199
O O5 0.365732 0.716664 0.913835
O O6 0.090731 0.591590 0.075383
O O7 0.181359 0.795226 0.129825
O O8 0.976114 0.945259 0.822670
O O9 0.692981 0.058562 0.423312
O O10 0.327228 0.244458 0.279202
O O11 0.465826 0.103793 0.608309
O O12 0.146138 0.405217 0.422719
O O13 0.137165 0.171486 0.735546
#
# Coordination Sequence:
#
# PCOD9080696 Si02
#       7
#     2   2   2   1   2   2   2
#     4  11  22  43  71  98 125 174 228 264 319 396
#     4  11  20  39  65  98 134 174 212 270 339 384
#     4  11  25  40  69  99 132 170 223 273 323 386
#     4  10  22  40  62  98 128 170 214 270 320 384
#     4  10  18  41  64  93 125 177 214 264 318 394
#     4  10  21  40  67  93 132 173 213 267 328 386
#     4  10  20  38  69  93 132 179 216 264 332 393
#
# _framework density 27.029499000000001
#
# number of rings (size 3 to 8) (size 9 to 14) (size 15 to 20)
#    0.000    1.538    4.615    1.385    0.000    3.692 
#    0.000    0.000    0.000    1.846    0.000    0.000 
#    0.000    0.000    0.000    0.000    0.000    0.000 
#
# Total GULP energy -72590.519759 kJ/mol
# GULP energy per Si atom -5583.886135 kJ/mol
# Density = 2.696798 g / cm^3
# Si number density = 27.029499 Si / 1000 Ang^3
#
#
#
# Elastic Constant Matrix: (Units=GPa)
#
#
# Indices 1 2 3 4 5 6 
#
# 1 92.3847 33.0036 40.5487 3.6431 -31.0492 2.0994
# 2 33.0036 168.5968 56.2006 -4.7779 -8.9711 -6.3702
# 3 40.5487 56.2006 172.9302 -4.5029 -44.9495 1.1247
# 4 3.6431 -4.7779 -4.5029 48.4469 -5.5778 -12.8037
# 5 -31.0492 -8.9711 -44.9495 -5.5778 41.7914 1.2100
# 6 2.0994 -6.3702 1.1247 -12.8037 1.2100 32.8089
#
#
#
# Elastic Compliance Matrix: (Units=1/GPa)
#
#
# Indices 1 2 3 4 5 6 
#
# 1 0.015486 -0.002567 0.000052 -0.000725 0.010976 -0.002179
# 2 -0.002567 0.007217 -0.002516 0.000881 -0.003008 0.002107
# 3 0.000052 -0.002516 0.009105 0.001543 0.009513 -0.000552
# 4 -0.000725 0.000881 0.001543 0.023878 0.004227 0.009327
# 5 0.010976 -0.003008 0.009513 0.004227 0.042277 -0.001522
# 6 -0.002179 0.002107 -0.000552 0.009327 -0.001522 0.034743
#
#
# Mechanical properties :
#
#
# Convention : Reuss Voigt Hill
#
# Bulk Modulus (GPa) = 45.99011 77.04637 61.51824
# Shear Modulus (GPa) = 33.32939 44.88670 39.10804
#
# Velocity S-wave (km/s) = 3.51533 4.07954 3.80789
# Velocity P-wave (km/s) = 5.79037 7.12437 6.49172
#
# Compressibility (1/GPa) = 0.02174381
#
# Stress axis : x y z
#
# Youngs Moduli (GPa) = 64.57511 138.55910 109.83266
#
# Poissons Ratio (x) = 0.35574 -0.00566
# Poissons Ratio (y) = 0.16579 0.27634
# Poissons Ratio (z) = -0.00333 0.34862
#
# Static dielectric constant tensor:
#      x y z
#    x 2.231080 -0.159770 0.178790 
#    y -0.159770 2.446680 -0.288440 
#    z 0.178790 -0.288440 2.309280 
# 
# From -- ./inp_files/149127.got.cif
#   From: 2010.05.17/outbox.cif.g08.bks.cpg/sg2_75_cif.got.tgz:149127.got - 2010.06.03 11:33:40.
