data_PCOD9080312
_publ_section_title
;
Structure prediction by ZEFSAII (Michael W. Deem and Ramdas Pophale) SiO2 
 PCOD9080312
Probable space group: P -1
;
_chemical_formula_sum "Si O2"
_cell_formula_units_Z 16
_cell_length_a 11.896028
_cell_length_b 9.854060
_cell_length_c 9.296191
_cell_angle_alpha 92.588238
_cell_angle_beta 48.481799
_cell_angle_gamma 74.728021
_cell_volume 749.808815
_symmetry_space_group_name_H-M "P -1"
_symmetry_group_IT_number 2
_symmetry_cell_setting 'triclinic'
loop_
_space_group_symop_operation_xyz
x,y,z
-x,-y,-z
loop_
_atom_site_type_symbol
_atom_site_label
_atom_site_fract_x
_atom_site_fract_y
_atom_site_fract_z
Si Si1 0.270559 0.267910 0.405114
Si Si2 0.383652 0.837588 0.766900
Si Si3 0.265844 0.762380 0.555204
Si Si4 0.072697 0.111608 0.014568
Si Si5 0.804902 0.288900 0.884796
Si Si6 0.114713 0.043850 0.512417
Si Si7 0.345462 0.530644 0.236862
Si Si8 0.018951 0.373940 0.869673
O O1 0.432657 0.183502 0.358726
O O2 0.206472 0.148118 0.386765
O O3 0.306201 0.385650 0.281272
O O4 0.130023 0.364721 0.638450
O O5 0.349516 0.780563 0.636013
O O6 0.250730 0.003761 0.910849
O O7 0.338520 0.746416 0.926704
O O8 0.351214 0.609713 0.387439
O O9 0.243178 0.900530 0.476013
O O10 0.076339 0.790092 0.751374
O O11 0.094464 0.223212 0.888038
O O12 0.000000 0.000000 0.000000
O O13 0.790465 0.344278 0.737638
O O14 0.973109 0.145326 0.745052
O O15 0.839268 0.401002 0.965758
O O16 0.000000 0.000000 0.500000
O O17 0.500000 0.500000 0.000000
O O18 0.000000 0.500000 0.000000
#
# Coordination Sequence:
#
# PCOD9080312 Si02
#       8
#     2   2   2   2   2   2   2   2
#     4  11  26  42  67 101 141 178 228 286 343 394
#     4  11  21  41  73 101 137 171 226 294 337 393
#     4  11  22  40  74 100 127 186 230 263 351 413
#     4  10  18  38  70  99 128 173 224 274 337 401
#     4  11  21  43  68  92 137 179 219 288 334 394
#     4  11  23  45  71  98 134 181 229 277 339 413
#     4  12  26  44  64  97 142 184 225 275 346 411
#     4  11  23  40  64 102 136 171 230 278 335 406
#
# _framework density 21.338774000000001
#
# number of rings (size 3 to 8) (size 9 to 14) (size 15 to 20)
#    0.000    1.000    6.250    3.000    0.000    5.500 
#    2.250    2.500    0.000    0.000    0.000    0.000 
#    0.000    0.000    0.000    0.000    0.000    0.000 
#
# Total GULP energy -89211.785778 kJ/mol
# GULP energy per Si atom -5575.736611 kJ/mol
# Density = 2.129021 g / cm^3
# Si number density = 21.338774 Si / 1000 Ang^3
#
#
#
# Elastic Constant Matrix: (Units=GPa)
#
#
# Indices 1 2 3 4 5 6 
#
# 1 95.2129 42.5976 15.6288 -3.6339 1.8900 10.2196
# 2 42.5976 99.1597 36.2131 -24.1389 7.1093 11.1055
# 3 15.6288 36.2131 75.8610 -12.1390 -2.8838 14.4504
# 4 -3.6339 -24.1389 -12.1390 40.1378 -1.8048 3.2586
# 5 1.8900 7.1093 -2.8838 -1.8048 31.2529 -0.6859
# 6 10.2196 11.1055 14.4504 3.2586 -0.6859 33.1825
#
#
#
# Elastic Compliance Matrix: (Units=1/GPa)
#
#
# Indices 1 2 3 4 5 6 
#
# 1 0.013342 -0.006183 0.000219 -0.002270 0.000447 -0.001903
# 2 -0.006183 0.017208 -0.005300 0.008222 -0.003608 -0.002429
# 3 0.000219 -0.005300 0.017361 0.002702 0.002817 -0.006061
# 4 -0.002270 0.008222 0.002702 0.030987 0.000168 -0.006269
# 5 0.000447 -0.003608 0.002817 0.000168 0.033072 0.000510
# 6 -0.001903 -0.002429 -0.006061 -0.006269 0.000510 0.034801
#
#
# Mechanical properties :
#
#
# Convention : Reuss Voigt Hill
#
# Bulk Modulus (GPa) = 39.39490 51.01251 45.20370
# Shear Modulus (GPa) = 28.12800 32.63422 30.38111
#
# Velocity S-wave (km/s) = 3.63459 3.91492 3.77736
# Velocity P-wave (km/s) = 6.00961 6.66283 6.34463
#
# Compressibility (1/GPa) = 0.02538400
#
# Stress axis : x y z
#
# Youngs Moduli (GPa) = 74.95268 58.11104 57.60116
#
# Poissons Ratio (x) = 0.35929 -0.01262
# Poissons Ratio (y) = 0.46342 0.30527
# Poissons Ratio (z) = -0.01642 0.30797
#
# Static dielectric constant tensor:
#      x y z
#    x 1.912470 0.025800 0.050300 
#    y 0.025800 1.936570 0.053300 
#    z 0.050300 0.053300 1.820360 
# 
# From -- ./inp_files/243829.got.cif
#   From: 2010.05.17/outbox.cif.g08.bks.cpg/sg2_122_cif.got.tgz:243829.got - 2010.06.03 11:33:40.
