data_PCOD9080074
_publ_section_title
;
Structure prediction by ZEFSAII (Michael W. Deem and Ramdas Pophale) SiO2 
 PCOD9080074
Probable space group: P -1
;
_chemical_formula_sum "Si O2"
_cell_formula_units_Z 16
_cell_length_a 10.901602
_cell_length_b 10.339477
_cell_length_c 12.318546
_cell_angle_alpha 83.621447
_cell_angle_beta 107.539534
_cell_angle_gamma 40.745619
_cell_volume 724.325099
_symmetry_space_group_name_H-M "P -1"
_symmetry_group_IT_number 2
_symmetry_cell_setting 'triclinic'
loop_
_space_group_symop_operation_xyz
x,y,z
-x,-y,-z
loop_
_atom_site_type_symbol
_atom_site_label
_atom_site_fract_x
_atom_site_fract_y
_atom_site_fract_z
Si Si1 0.125616 0.150422 0.367027
Si Si2 0.221192 0.777176 0.761490
Si Si3 0.658207 0.910803 0.776192
Si Si4 0.209776 0.114874 0.861270
Si Si5 0.336690 0.290801 0.844615
Si Si6 0.994176 0.222042 0.991584
Si Si7 0.339095 0.943273 0.676919
Si Si8 0.308720 0.740617 0.033613
O O1 0.025291 0.087523 0.332710
O O2 0.895407 0.432361 0.263696
O O3 0.308673 0.047561 0.335221
O O4 0.229242 0.075478 0.521294
O O5 0.419948 0.498123 0.845322
O O6 0.306057 0.815217 0.695629
O O7 0.228389 0.831333 0.879634
O O8 0.898553 0.749529 0.916182
O O9 0.462212 0.144838 0.778345
O O10 0.580650 0.824306 0.760146
O O11 0.244694 0.237138 0.880645
O O12 0.198542 0.107517 0.731273
O O13 0.989509 0.259324 0.860380
O O14 0.446930 0.853367 0.004253
O O15 0.176363 0.944661 0.065100
O O16 0.766189 0.348864 0.964394
#
# Coordination Sequence:
#
# PCOD9080074 Si02
#       8
#     2   2   2   2   2   2   2   2
#     4  12  24  42  65  88 124 174 203 243 307 373
#     4  11  22  40  58  90 122 162 208 248 303 368
#     4  10  22  40  64  92 122 162 204 254 303 363
#     4   9  18  37  61  89 123 154 196 262 304 350
#     4   9  21  39  63  90 121 157 205 252 305 356
#     4  10  18  38  62  95 120 154 204 259 311 356
#     4  11  24  40  61  90 130 160 201 254 304 364
#     4  10  21  35  65  89 121 159 203 257 307 361
#
# _framework density 22.089528000000001
#
# number of rings (size 3 to 8) (size 9 to 14) (size 15 to 20)
#    0.000    1.750    2.500    3.000    1.750    3.000 
#    0.000   10.625    0.000    3.000    0.000    0.000 
#    0.000    0.000    0.000    0.000    0.000    0.000 
#
# Total GULP energy -89123.707086 kJ/mol
# GULP energy per Si atom -5570.231693 kJ/mol
# Density = 2.203925 g / cm^3
# Si number density = 22.089528 Si / 1000 Ang^3
#
#
#
# Elastic Constant Matrix: (Units=GPa)
#
#
# Indices 1 2 3 4 5 6 
#
# 1 129.8628 2.1188 36.1955 5.3333 -12.5701 -15.1368
# 2 2.1188 43.9533 20.0050 6.1550 -7.1787 -3.2183
# 3 36.1955 20.0050 101.3731 23.5986 -17.8209 -7.9634
# 4 5.3333 6.1550 23.5986 21.2494 -8.6791 -8.5586
# 5 -12.5701 -7.1787 -17.8209 -8.6791 34.1210 10.8050
# 6 -15.1368 -3.2183 -7.9634 -8.5586 10.8050 31.4079
#
#
#
# Elastic Compliance Matrix: (Units=1/GPa)
#
#
# Indices 1 2 3 4 5 6 
#
# 1 0.009218 0.001305 -0.003887 0.003841 0.001289 0.004194
# 2 0.001305 0.025495 -0.004694 -0.001004 0.002890 0.000783
# 3 -0.003887 -0.004694 0.016109 -0.015736 0.003144 -0.003640
# 4 0.003841 -0.001004 -0.015736 0.072736 0.006643 0.015293
# 5 0.001289 0.002890 0.003144 0.006643 0.036592 -0.009064
# 6 0.004194 0.000783 -0.003640 0.015293 -0.009064 0.040303
#
#
# Mechanical properties :
#
#
# Convention : Reuss Voigt Hill
#
# Bulk Modulus (GPa) = 27.57144 43.53642 35.55393
# Shear Modulus (GPa) = 22.01720 31.81366 26.91543
#
# Velocity S-wave (km/s) = 3.16052 3.79913 3.49445
# Velocity P-wave (km/s) = 5.08206 6.24471 5.69314
#
# Compressibility (1/GPa) = 0.03626942
#
# Stress axis : x y z
#
# Youngs Moduli (GPa) = 108.47856 39.22386 62.07861
#
# Poissons Ratio (x) = -0.05117 0.24129
# Poissons Ratio (y) = -0.14151 0.29138
# Poissons Ratio (z) = 0.42164 0.18411
#
# Static dielectric constant tensor:
#      x y z
#    x 2.031500 0.059480 0.012980 
#    y 0.059480 1.863100 0.012300 
#    z 0.012980 0.012300 1.763850 
# 
# From -- ./inp_files/423695.got.cif
#   From: 2010.05.17/outbox.cif.g08.bks.cpg/sg2_212_cif.got.tgz:423695.got - 2010.06.03 11:33:40.
