data_PCOD9080732
_publ_section_title
;
Structure prediction by ZEFSAII (Michael W. Deem and Ramdas Pophale) SiO2 
 PCOD9080732
Probable space group: P -1
;
_chemical_formula_sum "Si O2"
_cell_formula_units_Z 11
_cell_length_a 6.864260
_cell_length_b 7.994767
_cell_length_c 9.121084
_cell_angle_alpha 66.845772
_cell_angle_beta 94.069937
_cell_angle_gamma 75.277248
_cell_volume 436.820506
_symmetry_space_group_name_H-M "P -1"
_symmetry_group_IT_number 2
_symmetry_cell_setting 'triclinic'
loop_
_space_group_symop_operation_xyz
x,y,z
-x,-y,-z
loop_
_atom_site_type_symbol
_atom_site_label
_atom_site_fract_x
_atom_site_fract_y
_atom_site_fract_z
Si Si1 0.208514 0.542851 0.449612
Si Si2 0.475590 0.723621 0.904915
Si Si3 0.146368 0.706637 0.688452
Si Si4 0.000000 0.500000 0.000000
Si Si5 0.315041 0.181407 0.381044
Si Si6 0.172031 0.800391 0.086928
O O1 0.270170 0.609775 0.585014
O O2 0.320767 0.353871 0.428647
O O3 0.192297 0.715890 0.279009
O O4 0.000000 0.500000 0.500000
O O5 0.286949 0.802955 0.754404
O O6 0.666677 0.754060 0.813047
O O7 0.500000 0.500000 0.000000
O O8 0.387962 0.810396 0.026448
O O9 0.911786 0.839243 0.606934
O O10 0.106413 0.534675 0.838108
O O11 0.093412 0.657569 0.031169
O O12 0.500000 0.000000 0.500000
O O13 0.000000 0.000000 0.000000
#
# Coordination Sequence:
#
# PCOD9080732 Si02
#       6
#     2   2   2   1   2   2
#     4  10  20  42  64  94 138 178 226 290 342 408
#     4  11  23  44  68  95 137 181 230 290 346 418
#     4  10  22  41  71  91 134 185 224 281 358 401
#     4  10  18  42  64  94 132 178 224 278 350 398
#     4  11  23  40  64  99 133 177 228 284 346 407
#     4  11  23  40  70 101 136 185 235 285 353 419
#
# _framework density 25.181971000000001
#
# number of rings (size 3 to 8) (size 9 to 14) (size 15 to 20)
#    0.000    1.455    5.455    1.091    5.091    1.455 
#    3.273    0.000    0.000    8.727    0.000    0.000 
#    0.000    0.000    0.000    0.000    0.000    0.000 
#
# Total GULP energy -61287.818818 kJ/mol
# GULP energy per Si atom -5571.619893 kJ/mol
# Density = 2.512466 g / cm^3
# Si number density = 25.181971 Si / 1000 Ang^3
#
#
#
# Elastic Constant Matrix: (Units=GPa)
#
#
# Indices 1 2 3 4 5 6 
#
# 1 133.3866 15.3956 17.0175 3.9426 -25.4921 -4.8057
# 2 15.3956 62.2495 52.0845 -14.1956 -20.3602 -33.3107
# 3 17.0175 52.0845 170.6967 15.6750 -46.6277 -12.0515
# 4 3.9426 -14.1956 15.6750 42.3495 -9.3599 3.7666
# 5 -25.4921 -20.3602 -46.6277 -9.3599 48.6655 4.2156
# 6 -4.8057 -33.3107 -12.0515 3.7666 4.2156 32.4549
#
#
#
# Elastic Compliance Matrix: (Units=1/GPa)
#
#
# Indices 1 2 3 4 5 6 
#
# 1 0.008466 -0.002656 0.001143 -0.001006 0.004354 -0.001497
# 2 -0.002656 0.084488 -0.019058 0.032535 0.015591 0.073444
# 3 0.001143 -0.019058 0.012499 -0.008945 0.004115 -0.014247
# 4 -0.001006 0.032535 -0.008945 0.037910 0.009704 0.024263
# 5 0.004354 0.015591 0.004115 0.009704 0.034067 0.012623
# 6 -0.001497 0.073444 -0.014247 0.024263 0.012623 0.096226
#
#
# Mechanical properties :
#
#
# Convention : Reuss Voigt Hill
#
# Bulk Modulus (GPa) = 15.55001 59.48091 37.51546
# Shear Modulus (GPa) = 14.87049 43.48299 29.17674
#
# Velocity S-wave (km/s) = 2.43270 4.15993 3.40757
# Velocity P-wave (km/s) = 3.75222 6.83703 5.51472
#
# Compressibility (1/GPa) = 0.06430863
#
# Stress axis : x y z
#
# Youngs Moduli (GPa) = 118.12286 11.83602 80.00506
#
# Poissons Ratio (x) = 0.03144 -0.09141
# Poissons Ratio (y) = 0.31375 1.52478
# Poissons Ratio (z) = -0.13496 0.22558
#
# Static dielectric constant tensor:
#      x y z
#    x 2.130790 0.010610 -0.088990 
#    y 0.010610 1.896070 0.073400 
#    z -0.088990 0.073400 2.102870 
# 
# From -- ./inp_files/145676.got.cif
#   From: 2010.05.17/outbox.cif.g08.bks.cpg/sg2_73_cif.got.tgz:145676.got - 2010.06.03 11:33:40.
