data_PCOD9080263
_publ_section_title
;
Structure prediction by ZEFSAII (Michael W. Deem and Ramdas Pophale) SiO2 
 PCOD9080263
Probable space group: P -1
;
_chemical_formula_sum "Si O2"
_cell_formula_units_Z 15
_cell_length_a 8.755610
_cell_length_b 12.078457
_cell_length_c 8.924072
_cell_angle_alpha 66.075797
_cell_angle_beta 75.721031
_cell_angle_gamma 39.529947
_cell_volume 545.516395
_symmetry_space_group_name_H-M "P -1"
_symmetry_group_IT_number 2
_symmetry_cell_setting 'triclinic'
loop_
_space_group_symop_operation_xyz
x,y,z
-x,-y,-z
loop_
_atom_site_type_symbol
_atom_site_label
_atom_site_fract_x
_atom_site_fract_y
_atom_site_fract_z
Si Si1 0.292971 0.714805 0.393955
Si Si2 0.692277 0.548505 0.192859
Si Si3 0.144941 0.610290 0.266046
Si Si4 0.460094 0.834305 0.865689
Si Si5 0.500000 0.500000 0.000000
Si Si6 0.801432 0.841180 0.686588
Si Si7 0.377058 0.804916 0.596652
Si Si8 0.222145 0.125916 0.980864
O O1 0.500000 0.500000 0.500000
O O2 0.459655 0.712182 0.263938
O O3 0.118695 0.732989 0.327149
O O4 0.224953 0.810405 0.516366
O O5 0.604381 0.486295 0.147542
O O6 0.946624 0.370332 0.305332
O O7 0.684052 0.655712 0.008548
O O8 0.248418 0.610708 0.088256
O O9 0.340171 0.396510 0.387056
O O10 0.898413 0.707529 0.197980
O O11 0.581672 0.873243 0.725844
O O12 0.366956 0.790815 0.788886
O O13 0.246522 0.994139 0.940599
O O14 0.710335 0.010517 0.525520
O O15 0.853685 0.844910 0.845669
O O16 0.500000 0.000000 0.000000
#
# Coordination Sequence:
#
# PCOD9080263 Si02
#       8
#     2   2   2   2   1   2   2   2
#     4   9  22  41  64  95 134 172 223 271 336 398
#     4  11  21  41  68  93 130 175 224 275 327 393
#     4  10  20  42  68  93 133 176 217 275 332 394
#     4  11  23  41  65  94 133 179 225 266 328 403
#     4  10  18  38  68  92 118 166 220 264 324 384
#     4  11  23  41  65 100 132 170 226 279 330 395
#     4  11  22  42  62  97 139 172 220 276 338 394
#     4  10  22  42  66  96 131 173 229 275 319 399
#
# _framework density 27.496881999999999
#
# number of rings (size 3 to 8) (size 9 to 14) (size 15 to 20)
#    0.000    1.600    2.667    1.600    0.000    3.200 
#    2.400   12.000    0.000    0.000    0.000    0.000 
#    0.000    0.000    0.000    0.000    0.000    0.000 
#
# Total GULP energy -83523.679629 kJ/mol
# GULP energy per Si atom -5568.245309 kJ/mol
# Density = 2.743430 g / cm^3
# Si number density = 27.496882 Si / 1000 Ang^3
#
#
#
# Elastic Constant Matrix: (Units=GPa)
#
#
# Indices 1 2 3 4 5 6 
#
# 1 46.6608 16.0636 34.4443 -7.6477 21.8212 3.2088
# 2 16.0636 107.5760 45.2096 -13.9676 20.5827 6.4041
# 3 34.4443 45.2096 154.0426 -24.2866 35.7774 -4.8876
# 4 -7.6477 -13.9676 -24.2866 59.3877 4.3627 11.6914
# 5 21.8212 20.5827 35.7774 4.3627 49.3316 5.2854
# 6 3.2088 6.4041 -4.8876 11.6914 5.2854 31.8346
#
#
#
# Elastic Compliance Matrix: (Units=1/GPa)
#
#
# Indices 1 2 3 4 5 6 
#
# 1 0.029965 -0.000248 -0.003726 0.003664 -0.010434 -0.003156
# 2 -0.000248 0.011359 -0.002322 0.002502 -0.002839 -0.003064
# 3 -0.003726 -0.002322 0.009654 0.002870 -0.004861 0.002078
# 4 0.003664 0.002502 0.002870 0.020907 -0.005830 -0.007142
# 5 -0.010434 -0.002839 -0.004861 -0.005830 0.030328 -0.002018
# 6 -0.003156 -0.003064 0.002078 -0.007142 -0.002018 0.035624
#
#
# Mechanical properties :
#
#
# Convention : Reuss Voigt Hill
#
# Bulk Modulus (GPa) = 26.05207 55.52383 40.78795
# Shear Modulus (GPa) = 30.63291 42.28157 36.45724
#
# Velocity S-wave (km/s) = 3.34136 3.92559 3.64520
# Velocity P-wave (km/s) = 4.93775 6.38620 5.70811
#
# Compressibility (1/GPa) = 0.03838467
#
# Stress axis : x y z
#
# Youngs Moduli (GPa) = 33.37255 88.03684 103.58789
#
# Poissons Ratio (x) = 0.02187 0.38600
# Poissons Ratio (y) = 0.00829 0.24049
# Poissons Ratio (z) = 0.12435 0.20439
#
# Static dielectric constant tensor:
#      x y z
#    x 2.528730 -0.115040 -0.203940 
#    y -0.115040 2.340710 -0.014620 
#    z -0.203940 -0.014620 2.436050 
# 
# From -- ./inp_files/272501.got.cif
#   From: 2010.05.17/outbox.cif.g08.bks.cpg/sg2_137_cif.got.tgz:272501.got - 2010.06.03 11:33:40.
