data_PCOD9080543
_publ_section_title
;
Structure prediction by ZEFSAII (Michael W. Deem and Ramdas Pophale) SiO2 
 PCOD9080543
Probable space group: P -1
;
_chemical_formula_sum "Si O2"
_cell_formula_units_Z 13
_cell_length_a 10.297470
_cell_length_b 11.241656
_cell_length_c 16.499704
_cell_angle_alpha 145.946428
_cell_angle_beta 33.347115
_cell_angle_gamma 144.380576
_cell_volume 540.776104
_symmetry_space_group_name_H-M "P -1"
_symmetry_group_IT_number 2
_symmetry_cell_setting 'triclinic'
loop_
_space_group_symop_operation_xyz
x,y,z
-x,-y,-z
loop_
_atom_site_type_symbol
_atom_site_label
_atom_site_fract_x
_atom_site_fract_y
_atom_site_fract_z
Si Si1 0.381711 0.010627 0.786785
Si Si2 0.300057 0.995518 0.533899
Si Si3 0.193078 0.447251 0.812303
Si Si4 0.866379 0.479650 0.298742
Si Si5 0.000000 0.500000 0.500000
Si Si6 0.160979 0.292648 0.150779
Si Si7 0.252747 0.362524 0.393111
O O1 0.215858 0.209445 0.691016
O O2 0.606073 0.059150 0.632533
O O3 0.379399 0.206491 0.960478
O O4 0.108436 0.937271 0.838813
O O5 0.759090 0.401045 0.500275
O O6 0.500000 0.000000 0.500000
O O7 0.105050 0.433599 0.757567
O O8 0.483013 0.646059 0.774199
O O9 0.000000 0.500000 0.000000
O O10 0.653086 0.218454 0.272974
O O11 0.784509 0.638037 0.492222
O O12 0.108412 0.444617 0.192505
O O13 0.804987 0.568035 0.705554
O O14 0.030201 0.780980 0.579802
#
# Coordination Sequence:
#
# PCOD9080543 Si02
#       7
#     2   2   2   2   1   2   2
#     4   9  18  39  67  99 132 187 232 287 350 416
#     4  12  26  43  74 103 138 188 241 294 358 420
#     4  12  27  46  69 103 144 185 233 300 357 423
#     4   9  20  43  69  95 142 183 229 293 352 418
#     4  10  18  40  62 102 140 174 228 296 344 404
#     4   8  17  34  69  95 137 180 225 290 349 406
#     4  11  23  43  70  99 139 188 232 289 354 429
#
# _framework density 24.039522000000002
#
# number of rings (size 3 to 8) (size 9 to 14) (size 15 to 20)
#    0.923    0.923    1.538    2.308    2.154    2.462 
#    2.769    1.538    0.000    0.000    0.000    0.000 
#    0.000    0.000    0.000    0.000    0.000    0.000 
#
# Total GULP energy -72384.768903 kJ/mol
# GULP energy per Si atom -5568.059146 kJ/mol
# Density = 2.398481 g / cm^3
# Si number density = 24.039522 Si / 1000 Ang^3
#
#
#
# Elastic Constant Matrix: (Units=GPa)
#
#
# Indices 1 2 3 4 5 6 
#
# 1 114.3751 40.4413 77.5059 -11.6613 9.6970 -19.0482
# 2 40.4413 104.3818 63.2161 -13.2518 -3.4301 -10.6543
# 3 77.5059 63.2161 212.5522 -24.9892 -2.7000 2.4144
# 4 -11.6613 -13.2518 -24.9892 34.8014 -0.1023 -0.7232
# 5 9.6970 -3.4301 -2.7000 -0.1023 33.2041 -10.3827
# 6 -19.0482 -10.6543 2.4144 -0.7232 -10.3827 35.3526
#
#
#
# Elastic Compliance Matrix: (Units=1/GPa)
#
#
# Indices 1 2 3 4 5 6 
#
# 1 0.013846 -0.001986 -0.004470 0.000799 -0.002603 0.006419
# 2 -0.001986 0.012850 -0.002837 0.002280 0.002902 0.003895
# 3 -0.004470 -0.002837 0.007551 0.002772 0.000519 -0.003570
# 4 0.000799 0.002280 0.002772 0.031902 0.000903 0.001846
# 5 -0.002603 0.002902 0.000519 0.000903 0.034191 0.009497
# 6 0.006419 0.003895 -0.003570 0.001846 0.009497 0.035990
#
#
# Mechanical properties :
#
#
# Convention : Reuss Voigt Hill
#
# Bulk Modulus (GPa) = 63.85207 88.18174 76.01690
# Shear Modulus (GPa) = 31.22336 37.34799 34.28567
#
# Velocity S-wave (km/s) = 3.60784 3.94586 3.78063
# Velocity P-wave (km/s) = 6.63131 7.58428 7.12375
#
# Compressibility (1/GPa) = 0.01566120
#
# Stress axis : x y z
#
# Youngs Moduli (GPa) = 72.22475 77.81961 132.42469
#
# Poissons Ratio (x) = 0.15455 0.59195
# Poissons Ratio (y) = 0.14344 0.37569
# Poissons Ratio (z) = 0.32285 0.22077
#
# Static dielectric constant tensor:
#      x y z
#    x 2.128460 -0.376420 -0.048340 
#    y -0.376420 3.074190 0.084110 
#    z -0.048340 0.084110 1.939520 
# 
# From -- ./inp_files/518274.got.cif
#   From: 2010.05.17/outbox.cif.g08.bks.cpg/sg2_260_cif.got.tgz:518274.got - 2010.06.03 11:33:40.
