data_PCOD9080752
_publ_section_title
;
Structure prediction by ZEFSAII (Michael W. Deem and Ramdas Pophale) SiO2 
 PCOD9080752
Probable space group: P -1
;
_chemical_formula_sum "Si O2"
_cell_formula_units_Z 10
_cell_length_a 4.976194
_cell_length_b 17.641401
_cell_length_c 5.281537
_cell_angle_alpha 57.598950
_cell_angle_beta 87.011299
_cell_angle_gamma 92.397888
_cell_volume 389.595059
_symmetry_space_group_name_H-M "P -1"
_symmetry_group_IT_number 2
_symmetry_cell_setting 'triclinic'
loop_
_space_group_symop_operation_xyz
x,y,z
-x,-y,-z
loop_
_atom_site_type_symbol
_atom_site_label
_atom_site_fract_x
_atom_site_fract_y
_atom_site_fract_z
Si Si1 0.731365 0.436570 0.169017
Si Si2 0.109834 0.148837 0.296662
Si Si3 0.320649 0.003488 0.248609
Si Si4 0.542992 0.744370 0.538974
Si Si5 0.906751 0.287483 0.724128
O O1 0.626985 0.345322 0.186495
O O2 0.791486 0.385821 0.525046
O O3 0.500000 0.500000 0.000000
O O4 0.000000 0.500000 0.000000
O O5 0.366350 0.182152 0.391297
O O6 0.911752 0.077777 0.583313
O O7 0.179643 0.096257 0.132132
O O8 0.980261 0.239822 0.062340
O O9 0.500000 0.000000 0.500000
O O10 0.500000 0.000000 0.000000
O O11 0.335229 0.774864 0.284643
O O12 0.815514 0.712237 0.453093
#
# Coordination Sequence:
#
# PCOD9080752 Si02
#       5
#     2   2   2   2   2
#     4  10  18  42  70 109 156 203 256 332 394 474
#     4  11  28  48  76 114 158 208 280 322 408 489
#     4  11  30  51  81 114 166 212 270 344 412 484
#     4  10  24  42  75 107 154 206 266 324 400 472
#     4  10  24  42  75 107 154 206 266 324 400 472
#
# _framework density 25.667679
#
# number of rings (size 3 to 8) (size 9 to 14) (size 15 to 20)
#    1.200    0.400    2.000    0.000   11.200    1.600 
#    0.000    5.000    0.000    0.000    0.000    0.000 
#    0.000    0.000    0.000    0.000    0.000    0.000 
#
# Total GULP energy -55895.016810 kJ/mol
# GULP energy per Si atom -5589.501681 kJ/mol
# Density = 2.560926 g / cm^3
# Si number density = 25.667679 Si / 1000 Ang^3
#
#
#
# Elastic Constant Matrix: (Units=GPa)
#
#
# Indices 1 2 3 4 5 6 
#
# 1 179.4481 44.6862 46.4847 -2.9974 -13.1721 18.3772
# 2 44.6862 80.8340 42.7338 -8.9637 -36.5773 14.8239
# 3 46.4847 42.7338 120.7493 -15.5471 -14.6873 5.0696
# 4 -2.9974 -8.9637 -15.5471 43.9546 2.7989 -4.7382
# 5 -13.1721 -36.5773 -14.6873 2.7989 60.4147 -10.2433
# 6 18.3772 14.8239 5.0696 -4.7382 -10.2433 71.3935
#
#
#
# Elastic Compliance Matrix: (Units=1/GPa)
#
#
# Indices 1 2 3 4 5 6 
#
# 1 0.006845 -0.003250 -0.001671 -0.000847 -0.001042 -0.001174
# 2 -0.003250 0.022433 -0.005028 0.001669 0.011279 -0.001735
# 3 -0.001671 -0.005028 0.010950 0.002865 -0.000747 0.000780
# 4 -0.000847 0.001669 0.002865 0.024153 0.000634 0.001362
# 5 -0.001042 0.011279 -0.000747 0.000634 0.023171 0.001346
# 6 -0.001174 -0.001735 0.000780 0.001362 0.001346 0.014897
#
#
# Mechanical properties :
#
#
# Convention : Reuss Voigt Hill
#
# Bulk Modulus (GPa) = 49.19267 72.09345 60.64306
# Shear Modulus (GPa) = 38.72213 51.62768 45.17490
#
# Velocity S-wave (km/s) = 3.88828 4.48972 4.19978
# Velocity P-wave (km/s) = 6.27416 7.41788 6.86986
#
# Compressibility (1/GPa) = 0.02032823
#
# Stress axis : x y z
#
# Youngs Moduli (GPa) = 146.10171 44.57657 91.32600
#
# Poissons Ratio (x) = 0.14489 0.15262
# Poissons Ratio (y) = 0.47487 0.45921
# Poissons Ratio (z) = 0.24416 0.22414
#
# Static dielectric constant tensor:
#      x y z
#    x 2.036270 -0.092510 0.009770 
#    y -0.092510 2.055990 0.039600 
#    z 0.009770 0.039600 2.044200 
# 
# From -- ./inp_files/4773.got.cif
#   From: 2010.05.17/outbox.cif.g08.bks.cpg/sg2_3_cif.got.tgz:4773.got - 2010.06.03 11:33:40.
