data_PCOD9080564
_publ_section_title
;
Structure prediction by ZEFSAII (Michael W. Deem and Ramdas Pophale) SiO2 
 PCOD9080564
Probable space group: P -1
;
_chemical_formula_sum "Si O2"
_cell_formula_units_Z 16
_cell_length_a 9.376983
_cell_length_b 13.806851
_cell_length_c 9.756914
_cell_angle_alpha 139.751484
_cell_angle_beta 100.341510
_cell_angle_gamma 79.796311
_cell_volume 801.294945
_symmetry_space_group_name_H-M "P -1"
_symmetry_group_IT_number 2
_symmetry_cell_setting 'triclinic'
loop_
_space_group_symop_operation_xyz
x,y,z
-x,-y,-z
loop_
_atom_site_type_symbol
_atom_site_label
_atom_site_fract_x
_atom_site_fract_y
_atom_site_fract_z
Si Si1 0.818045 0.355807 0.269625
Si Si2 0.513692 0.307175 0.571193
Si Si3 0.158931 0.691714 0.467549
Si Si4 0.517630 0.343101 0.112985
Si Si5 0.938846 0.847503 0.381580
Si Si6 0.913441 0.653003 0.897476
Si Si7 0.323513 0.320838 0.310957
Si Si8 0.598959 0.847431 0.349421
O O1 0.856783 0.280144 0.341100
O O2 0.684284 0.283699 0.093652
O O3 0.757208 0.524969 0.481215
O O4 0.947376 0.366369 0.197305
O O5 0.680719 0.271532 0.517209
O O6 0.491539 0.487930 0.762436
O O7 0.403139 0.244363 0.371653
O O8 0.465891 0.249928 0.646559
O O9 0.143166 0.511383 0.256089
O O10 0.037542 0.779332 0.449072
O O11 0.452077 0.353962 0.265223
O O12 0.427206 0.238870 0.889823
O O13 0.769715 0.868996 0.418132
O O14 0.945488 0.733124 0.130761
O O15 0.000000 0.000000 0.500000
O O16 0.794820 0.745649 0.881126
O O17 0.500000 0.000000 0.500000
#
# Coordination Sequence:
#
# PCOD9080564 Si02
#       8
#     2   2   2   2   2   2   2   2
#     4  10  21  35  67 102 131 157 198 263 320 375
#     4  11  21  39  70  98 126 159 206 265 315 371
#     4  11  21  41  66 100 129 158 204 262 320 373
#     4  11  20  41  69  96 129 160 211 257 314 369
#     4  12  28  46  61  86 133 173 211 258 309 371
#     4  11  23  39  68  98 129 165 205 256 318 376
#     4  10  18  40  63 101 129 157 200 265 316 369
#     4  12  28  45  63  89 125 174 218 256 305 373
#
# _framework density 19.967679
#
# number of rings (size 3 to 8) (size 9 to 14) (size 15 to 20)
#    0.000    1.000    5.000    3.750    8.750    0.000 
#    0.000    2.500    0.000    0.000    0.000    0.000 
#    0.000    0.000    0.000    0.000    0.000    0.000 
#
# Total GULP energy -89336.445947 kJ/mol
# GULP energy per Si atom -5583.527872 kJ/mol
# Density = 1.992223 g / cm^3
# Si number density = 19.967679 Si / 1000 Ang^3
#
#
#
# Elastic Constant Matrix: (Units=GPa)
#
#
# Indices 1 2 3 4 5 6 
#
# 1 133.2226 28.2929 12.6913 -25.4923 -3.6034 -6.2423
# 2 28.2929 26.2825 35.4652 -18.3816 -0.3370 -19.2380
# 3 12.6913 35.4652 11.4866 -16.8174 -8.3833 -5.9810
# 4 -25.4923 -18.3816 -16.8174 22.7856 1.0960 5.8431
# 5 -3.6034 -0.3370 -8.3833 1.0960 29.1223 -15.2766
# 6 -6.2423 -19.2380 -5.9810 5.8431 -15.2766 39.2259
#
#
#
# Elastic Compliance Matrix: (Units=1/GPa)
#
#
# Indices 1 2 3 4 5 6 
#
# 1 0.009133 0.002445 -0.004037 0.009030 0.000024 0.000701
# 2 0.002445 0.010954 0.048376 0.042496 0.020519 0.014798
# 3 -0.004037 0.048376 -0.009905 0.021357 0.007607 0.021354
# 4 0.009030 0.042496 0.021357 0.099496 0.012106 0.015429
# 5 0.000024 0.020519 0.007607 0.012106 0.051848 0.029616
# 6 0.000701 0.014798 0.021354 0.015429 0.029616 0.045354
#
#
# Mechanical properties :
#
#
# Convention : Reuss Voigt Hill
#
# Bulk Modulus (GPa) = 9.63848 35.98782 22.81315
# Shear Modulus (GPa) = 33.80747 24.52958 29.16852
#
# Velocity S-wave (km/s) = 4.11921 3.50875 3.82617
# Velocity P-wave (km/s) = 5.24036 5.87173 5.56501
#
# Compressibility (1/GPa) = 0.10375075
#
# Stress axis : x y z
#
# Youngs Moduli (GPa) = 109.49443 91.29125 -100.96316
#
# Poissons Ratio (x) = -0.22322 -0.40761
# Poissons Ratio (y) = -0.26773 4.88422
# Poissons Ratio (z) = 0.44205 -4.41633
#
# Static dielectric constant tensor:
#      x y z
#    x 1.737290 -0.030220 0.034210 
#    y -0.030220 1.697410 -0.022810 
#    z 0.034210 -0.022810 1.728750 
# 
# From -- ./inp_files/190786.got.cif
#   From: 2010.05.17/outbox.cif.g08.bks.cpg/sg2_96_cif.got.tgz:190786.got - 2010.06.03 11:33:40.
