data_PCOD9080257
_publ_section_title
;
Structure prediction by ZEFSAII (Michael W. Deem and Ramdas Pophale) SiO2 
 PCOD9080257
Probable space group: P -1
;
_chemical_formula_sum "Si O2"
_cell_formula_units_Z 12
_cell_length_a 6.446800
_cell_length_b 11.460866
_cell_length_c 10.624319
_cell_angle_alpha 60.220883
_cell_angle_beta 136.634115
_cell_angle_gamma 124.711868
_cell_volume 438.305856
_symmetry_space_group_name_H-M "P -1"
_symmetry_group_IT_number 2
_symmetry_cell_setting 'triclinic'
loop_
_space_group_symop_operation_xyz
x,y,z
-x,-y,-z
loop_
_atom_site_type_symbol
_atom_site_label
_atom_site_fract_x
_atom_site_fract_y
_atom_site_fract_z
Si Si1 0.519387 0.060811 0.150335
Si Si2 0.616708 0.255583 0.740915
Si Si3 0.111230 0.984610 0.261703
Si Si4 0.752123 0.377686 0.991358
Si Si5 0.342900 0.390954 0.065689
Si Si6 0.429284 0.759560 0.547810
O O1 0.736121 0.221778 0.126457
O O2 0.593114 0.912976 0.259649
O O3 0.366602 0.054034 0.224311
O O4 0.226121 0.029975 0.938628
O O5 0.581790 0.309642 0.557372
O O6 0.553850 0.333089 0.795334
O O7 0.003576 0.282911 0.912829
O O8 0.161586 0.835719 0.392526
O O9 0.241600 0.102913 0.363369
O O10 0.135457 0.429878 0.079435
O O11 0.566087 0.424417 0.008239
O O12 0.581087 0.341854 0.285510
#
# Coordination Sequence:
#
# PCOD9080257 Si02
#       6
#     2   2   2   2   2   2
#     4  10  18  38  68  87 121 161 211 246 305 353
#     4  10  22  40  63  88 119 167 204 247 302 363
#     4   9  19  34  64  99 115 152 210 269 286 346
#     4  10  23  39  60  91 127 165 197 247 313 366
#     4  11  23  40  63  90 125 160 200 256 306 360
#     4  10  20  37  61  91 127 151 210 249 305 358
#
# _framework density 27.378142
#
# number of rings (size 3 to 8) (size 9 to 14) (size 15 to 20)
#    0.000    2.000    1.667    1.500    4.667    1.333 
#    0.000    0.833   14.667    0.000    0.000    0.000 
#    0.000    0.000    0.000    0.000    0.000    0.000 
#
# Total GULP energy -67044.029858 kJ/mol
# GULP energy per Si atom -5587.002488 kJ/mol
# Density = 2.731583 g / cm^3
# Si number density = 27.378142 Si / 1000 Ang^3
#
#
#
# Elastic Constant Matrix: (Units=GPa)
#
#
# Indices 1 2 3 4 5 6 
#
# 1 158.8688 85.6034 55.9464 -2.1701 -38.2044 8.5859
# 2 85.6034 156.6680 40.1533 1.3013 -22.8798 17.2219
# 3 55.9464 40.1533 173.6055 -17.9305 -51.1311 -3.7863
# 4 -2.1701 1.3013 -17.9305 44.7775 -1.0785 -19.2157
# 5 -38.2044 -22.8798 -51.1311 -1.0785 56.9469 3.8303
# 6 8.5859 17.2219 -3.7863 -19.2157 3.8303 73.4263
#
#
#
# Elastic Compliance Matrix: (Units=1/GPa)
#
#
# Indices 1 2 3 4 5 6 
#
# 1 0.010157 -0.004672 -0.000974 0.000207 0.004086 -0.000301
# 2 -0.004672 0.009418 -0.000928 -0.001809 -0.000071 -0.002180
# 3 -0.000974 -0.000928 0.008784 0.004332 0.006838 0.001562
# 4 0.000207 -0.001809 0.004332 0.027490 0.003308 0.007645
# 5 0.004086 -0.000071 0.006838 0.003308 0.026517 -0.000626
# 6 -0.000301 -0.002180 0.001562 0.007645 -0.000626 0.016280
#
#
# Mechanical properties :
#
#
# Convention : Reuss Voigt Hill
#
# Bulk Modulus (GPa) = 65.74484 94.72762 80.23623
# Shear Modulus (GPa) = 42.78489 55.52609 49.15549
#
# Velocity S-wave (km/s) = 3.95744 4.50835 4.24185
# Velocity P-wave (km/s) = 6.70429 7.85971 7.30488
#
# Compressibility (1/GPa) = 0.01521032
#
# Stress axis : x y z
#
# Youngs Moduli (GPa) = 98.45788 106.18294 113.84188
#
# Poissons Ratio (x) = 0.49606 0.11091
# Poissons Ratio (y) = 0.45997 0.10566
# Poissons Ratio (z) = 0.09592 0.09855
#
# Static dielectric constant tensor:
#      x y z
#    x 2.339040 -0.029810 -0.014100 
#    y -0.029810 2.179900 -0.010000 
#    z -0.014100 -0.010000 2.006240 
# 
# From -- ./inp_files/199263.got.cif
#   From: 2010.05.17/outbox.cif.g08.bks.cpg/sg2_100_cif.got.tgz:199263.got - 2010.06.03 11:33:40.
