data_PCOD9080645
_publ_section_title
;
Structure prediction by ZEFSAII (Michael W. Deem and Ramdas Pophale) SiO2 
 PCOD9080645
Probable space group: P -1
;
_chemical_formula_sum "Si O2"
_cell_formula_units_Z 16
_cell_length_a 8.924972
_cell_length_b 15.495573
_cell_length_c 8.709232
_cell_angle_alpha 83.283288
_cell_angle_beta 130.460359
_cell_angle_gamma 66.237155
_cell_volume 704.055084
_symmetry_space_group_name_H-M "P -1"
_symmetry_group_IT_number 2
_symmetry_cell_setting 'triclinic'
loop_
_space_group_symop_operation_xyz
x,y,z
-x,-y,-z
loop_
_atom_site_type_symbol
_atom_site_label
_atom_site_fract_x
_atom_site_fract_y
_atom_site_fract_z
Si Si1 0.459910 0.559949 0.628685
Si Si2 0.092568 0.699142 0.965105
Si Si3 0.111277 0.563935 0.565548
Si Si4 0.314638 0.762435 0.315669
Si Si5 0.690179 0.968612 0.276699
Si Si6 0.707145 0.775547 0.457745
Si Si7 0.567125 0.347352 0.083546
Si Si8 0.279068 0.852358 0.607179
O O1 0.217459 0.562842 0.469559
O O2 0.476114 0.633238 0.505281
O O3 0.375333 0.628259 0.717658
O O4 0.714704 0.432748 0.835141
O O5 0.225125 0.705255 0.901436
O O6 0.833657 0.732784 0.719972
O O7 0.085169 0.775664 0.074472
O O8 0.000000 0.500000 0.500000
O O9 0.905849 0.683046 0.484332
O O10 0.345679 0.471772 0.850880
O O11 0.461854 0.782595 0.290999
O O12 0.281169 0.827787 0.433409
O O13 0.663994 0.888612 0.375156
O O14 0.988064 0.903346 0.444098
O O15 0.643719 0.070418 0.319481
O O16 0.500000 0.000000 0.000000
O O17 0.537670 0.256246 0.136320
#
# Coordination Sequence:
#
# PCOD9080645 Si02
#       8
#     2   2   2   2   2   2   2   2
#     4  10  19  41  56  90 138 178 214 256 317 376
#     4  11  20  38  65  91 136 177 208 265 322 382
#     4  11  21  35  67  98 129 173 225 266 308 394
#     4  11  26  39  64  97 143 172 205 267 335 395
#     4  11  26  45  79  92 120 170 231 281 319 392
#     4  12  23  42  63 103 130 170 225 263 322 394
#     4  10  18  40  68  89 131 175 217 269 320 373
#     4  10  24  49  64  99 131 164 220 278 331 383
#
# _framework density 22.725493
#
# number of rings (size 3 to 8) (size 9 to 14) (size 15 to 20)
#    0.000    1.250    3.750    3.375    3.500    2.000 
#    4.500    1.250    0.000    0.000    0.000    0.000 
#    0.000    0.000    0.000    0.000    0.000    0.000 
#
# Total GULP energy -89110.621960 kJ/mol
# GULP energy per Si atom -5569.413872 kJ/mol
# Density = 2.267377 g / cm^3
# Si number density = 22.725493 Si / 1000 Ang^3
#
#
#
# Elastic Constant Matrix: (Units=GPa)
#
#
# Indices 1 2 3 4 5 6 
#
# 1 55.8138 30.3687 -1.3671 -6.1263 -7.9292 20.2861
# 2 30.3687 138.0625 24.3912 11.7368 -15.0069 19.1042
# 3 -1.3671 24.3912 32.6109 15.4549 -2.8936 11.2136
# 4 -6.1263 11.7368 15.4549 36.8092 6.2973 -7.6618
# 5 -7.9292 -15.0069 -2.8936 6.2973 24.9148 8.6314
# 6 20.2861 19.1042 11.2136 -7.6618 8.6314 38.9018
#
#
#
# Elastic Compliance Matrix: (Units=1/GPa)
#
#
# Indices 1 2 3 4 5 6 
#
# 1 0.033892 -0.003217 0.023869 -0.014427 0.026226 -0.031635
# 2 -0.003217 0.010576 -0.002924 -0.005244 0.008250 -0.005536
# 3 0.023869 -0.002924 0.077885 -0.046399 0.044811 -0.052543
# 4 -0.014427 -0.005244 -0.046399 0.063174 -0.045008 0.045901
# 5 0.026226 0.008250 0.044811 -0.045008 0.090692 -0.059631
# 6 -0.031635 -0.005536 -0.052543 0.045901 -0.059631 0.082338
#
#
# Mechanical properties :
#
#
# Convention : Reuss Voigt Hill
#
# Bulk Modulus (GPa) = 6.33678 37.03031 21.68355
# Shear Modulus (GPa) = 13.30831 31.66479 22.48655
#
# Velocity S-wave (km/s) = 2.42257 3.73682 3.14902
# Velocity P-wave (km/s) = 3.25877 5.91172 4.77326
#
# Compressibility (1/GPa) = 0.15780876
#
# Stress axis : x y z
#
# Youngs Moduli (GPa) = 29.50517 94.55332 12.83937
#
# Poissons Ratio (x) = 0.30422 -0.30647
# Poissons Ratio (y) = 0.09493 0.03755
# Poissons Ratio (z) = -0.70427 0.27652
#
# Static dielectric constant tensor:
#      x y z
#    x 1.863600 -0.014040 -0.052010 
#    y -0.014040 1.879230 -0.002360 
#    z -0.052010 -0.002360 1.854240 
# 
# From -- ./inp_files/202305.got.cif
#   From: 2010.05.17/outbox.cif.g08.bks.cpg/sg2_102_cif.got.tgz:202305.got - 2010.06.03 11:33:40.
