data_PCOD9080670
_publ_section_title
;
Structure prediction by ZEFSAII (Michael W. Deem and Ramdas Pophale) SiO2 
 PCOD9080670
Probable space group: P -1
;
_chemical_formula_sum "Si O2"
_cell_formula_units_Z 16
_cell_length_a 9.460247
_cell_length_b 7.973494
_cell_length_c 10.902403
_cell_angle_alpha 76.274302
_cell_angle_beta 117.418538
_cell_angle_gamma 73.711681
_cell_volume 632.592378
_symmetry_space_group_name_H-M "P -1"
_symmetry_group_IT_number 2
_symmetry_cell_setting 'triclinic'
loop_
_space_group_symop_operation_xyz
x,y,z
-x,-y,-z
loop_
_atom_site_type_symbol
_atom_site_label
_atom_site_fract_x
_atom_site_fract_y
_atom_site_fract_z
Si Si1 0.253221 0.791921 0.349168
Si Si2 0.897115 0.942085 0.340574
Si Si3 0.767397 0.428854 0.856621
Si Si4 0.398777 0.232669 0.415320
Si Si5 0.391142 0.711603 0.970958
Si Si6 0.956451 0.628502 0.587310
Si Si7 0.884388 0.884344 0.939078
Si Si8 0.260103 0.249734 0.866982
O O1 0.231178 0.650459 0.266448
O O2 0.443757 0.707053 0.503181
O O3 0.084651 0.860162 0.358966
O O4 0.237118 0.981609 0.238324
O O5 0.946939 0.837540 0.511437
O O6 0.778576 0.843807 0.252396
O O7 0.768570 0.159480 0.207539
O O8 0.678070 0.658872 0.764616
O O9 0.672499 0.331113 0.917194
O O10 0.967428 0.325612 0.004611
O O11 0.233556 0.312323 0.432172
O O12 0.500000 0.000000 0.500000
O O13 0.539513 0.784400 0.036714
O O14 0.500000 0.500000 0.000000
O O15 0.000000 0.500000 0.500000
O O16 0.117627 0.478953 0.763626
O O17 0.787654 0.853395 0.022387
O O18 0.000000 0.000000 0.000000
#
# Coordination Sequence:
#
# PCOD9080670 Si02
#       8
#     2   2   2   2   2   2   2   2
#     4  11  23  42  75 101 128 179 231 284 337 403
#     4  11  22  44  69 100 133 172 233 285 334 404
#     4  11  22  46  69  93 137 175 235 277 332 415
#     4  12  28  44  68 105 141 181 226 283 351 407
#     4  12  29  42  64 103 142 181 220 281 352 407
#     4  10  24  43  69 100 135 177 232 282 333 409
#     4  10  18  40  70  97 126 165 227 289 325 388
#     4  11  22  43  69  98 129 176 232 280 335 401
#
# _framework density 25.292749000000001
#
# number of rings (size 3 to 8) (size 9 to 14) (size 15 to 20)
#    0.000    1.000    5.000    2.250    8.750    1.000 
#    0.000    2.500    0.000    0.000    0.000    0.000 
#    0.000    0.000    0.000    0.000    0.000    0.000 
#
# Total GULP energy -89458.923847 kJ/mol
# GULP energy per Si atom -5591.182740 kJ/mol
# Density = 2.523518 g / cm^3
# Si number density = 25.292749 Si / 1000 Ang^3
#
#
#
# Elastic Constant Matrix: (Units=GPa)
#
#
# Indices 1 2 3 4 5 6 
#
# 1 150.8888 32.1679 58.7391 -17.5210 -11.5210 -15.1277
# 2 32.1679 94.7138 32.7243 -33.5012 -0.4854 -1.4391
# 3 58.7391 32.7243 153.9530 -49.3382 -2.3494 -2.8056
# 4 -17.5210 -33.5012 -49.3382 56.1433 9.3232 -2.0984
# 5 -11.5210 -0.4854 -2.3494 9.3232 48.0704 -17.8636
# 6 -15.1277 -1.4391 -2.8056 -2.0984 -17.8636 33.0915
#
#
#
# Elastic Compliance Matrix: (Units=1/GPa)
#
#
# Indices 1 2 3 4 5 6 
#
# 1 0.009300 -0.002648 -0.003557 -0.002369 0.004825 0.006289
# 2 -0.002648 0.014252 0.000696 0.008679 -0.002668 -0.001422
# 3 -0.003557 0.000696 0.010489 0.008903 -0.002642 -0.001568
# 4 -0.002369 0.008679 0.008903 0.031123 -0.006667 -0.001576
# 5 0.004825 -0.002668 -0.002642 -0.006667 0.029563 0.017402
# 6 0.006289 -0.001422 -0.001568 -0.001576 0.017402 0.042194
#
#
# Mechanical properties :
#
#
# Convention : Reuss Voigt Hill
#
# Bulk Modulus (GPa) = 43.43377 71.86868 57.65122
# Shear Modulus (GPa) = 32.13119 45.85600 38.99359
#
# Velocity S-wave (km/s) = 3.56809 4.26256 3.93070
# Velocity P-wave (km/s) = 5.84677 7.25964 6.59117
#
# Compressibility (1/GPa) = 0.02302356
#
# Stress axis : x y z
#
# Youngs Moduli (GPa) = 107.52376 70.16762 95.33919
#
# Poissons Ratio (x) = 0.18577 0.33909
# Poissons Ratio (y) = 0.28467 -0.06632
# Poissons Ratio (z) = 0.38243 -0.04881
#
# Static dielectric constant tensor:
#      x y z
#    x 1.947740 0.025640 -0.064280 
#    y 0.025640 2.257620 0.110070 
#    z -0.064280 0.110070 2.190800 
# 
# From -- ./inp_files/381748.got.cif
#   From: 2010.05.17/outbox.cif.g08.bks.cpg/sg2_191_cif.got.tgz:381748.got - 2010.06.03 11:33:40.
