data_PCOD9080660
_publ_section_title
;
Structure prediction by ZEFSAII (Michael W. Deem and Ramdas Pophale) SiO2 
 PCOD9080660
Probable space group: P -1
;
_chemical_formula_sum "Si O2"
_cell_formula_units_Z 15
_cell_length_a 11.183515
_cell_length_b 14.171240
_cell_length_c 7.477894
_cell_angle_alpha 111.789520
_cell_angle_beta 73.895767
_cell_angle_gamma 150.404703
_cell_volume 540.814514
_symmetry_space_group_name_H-M "P -1"
_symmetry_group_IT_number 2
_symmetry_cell_setting 'triclinic'
loop_
_space_group_symop_operation_xyz
x,y,z
-x,-y,-z
loop_
_atom_site_type_symbol
_atom_site_label
_atom_site_fract_x
_atom_site_fract_y
_atom_site_fract_z
Si Si1 0.500000 0.000000 0.500000
Si Si2 0.982046 0.799120 0.171114
Si Si3 0.549890 0.733168 0.693224
Si Si4 0.880042 0.786601 0.603355
Si Si5 0.070682 0.714726 0.619464
Si Si6 0.414144 0.696365 0.334929
Si Si7 0.777664 0.827928 0.109337
Si Si8 0.977705 0.591012 0.168715
O O1 0.513988 0.880274 0.427337
O O2 0.348160 0.901466 0.689718
O O3 0.882357 0.745767 0.375044
O O4 0.782694 0.713178 0.069174
O O5 0.032786 0.716487 0.089936
O O6 0.232960 0.035319 0.202138
O O7 0.643673 0.687003 0.679602
O O8 0.491848 0.690359 0.477264
O O9 0.298537 0.591456 0.780962
O O10 0.958914 0.748748 0.670373
O O11 0.092390 0.019302 0.675726
O O12 0.878309 0.511282 0.659514
O O13 0.131148 0.723024 0.385113
O O14 0.524276 0.710456 0.130709
O O15 0.000000 0.000000 0.000000
O O16 0.000000 0.500000 0.000000
#
# Coordination Sequence:
#
# PCOD9080660 Si02
#       8
#     1   2   2   2   2   2   2   2
#     4  12  22  44  60  88 128 172 220 252 300 390
#     4  10  19  38  67  89 123 170 201 260 319 375
#     4  10  19  37  69  93 120 157 215 265 308 379
#     4  10  18  40  69  95 118 159 216 260 320 380
#     4  10  23  39  70  92 120 173 219 262 311 384
#     4  11  21  39  64  91 125 168 217 260 310 382
#     4  11  21  38  60  97 129 163 208 266 323 369
#     4  10  23  40  59 101 127 155 211 267 325 374
#
# _framework density 27.735944
#
# number of rings (size 3 to 8) (size 9 to 14) (size 15 to 20)
#    0.000    1.600    4.000    2.000    1.867    2.133 
#    9.600    0.667    0.000    0.000    0.000    0.000 
#    0.000    0.000    0.000    0.000    0.000    0.000 
#
# Total GULP energy -83706.223884 kJ/mol
# GULP energy per Si atom -5580.414926 kJ/mol
# Density = 2.767282 g / cm^3
# Si number density = 27.735944 Si / 1000 Ang^3
#
#
#
# Elastic Constant Matrix: (Units=GPa)
#
#
# Indices 1 2 3 4 5 6 
#
# 1 125.2060 15.8194 33.2565 -3.9569 -48.3198 -17.9511
# 2 15.8194 153.5996 17.4959 -22.2806 -36.3840 -1.5675
# 3 33.2565 17.4959 105.2095 -13.6265 -33.9356 0.3297
# 4 -3.9569 -22.2806 -13.6265 43.4357 10.2532 -19.4288
# 5 -48.3198 -36.3840 -33.9356 10.2532 55.4182 9.6584
# 6 -17.9511 -1.5675 0.3297 -19.4288 9.6584 43.7927
#
#
#
# Elastic Compliance Matrix: (Units=1/GPa)
#
#
# Indices 1 2 3 4 5 6 
#
# 1 0.012668 0.001473 -0.000650 0.000465 0.011000 0.003030
# 2 0.001473 0.008306 0.000639 0.003617 0.006265 0.001120
# 3 -0.000650 0.000639 0.012154 0.001931 0.007120 -0.001049
# 4 0.000465 0.003617 0.001931 0.034217 -0.005269 0.016648
# 5 0.011000 0.006265 0.007120 -0.005269 0.038142 -0.006070
# 6 0.003030 0.001120 -0.001049 0.016648 -0.006070 0.032850
#
#
# Mechanical properties :
#
#
# Convention : Reuss Voigt Hill
#
# Bulk Modulus (GPa) = 27.73825 57.46208 42.60017
# Shear Modulus (GPa) = 33.91431 49.69220 41.80326
#
# Velocity S-wave (km/s) = 3.50059 4.23734 3.88646
# Velocity P-wave (km/s) = 5.13433 6.68600 5.96087
#
# Compressibility (1/GPa) = 0.03605130
#
# Stress axis : x y z
#
# Youngs Moduli (GPa) = 78.94028 120.39516 82.27476
#
# Poissons Ratio (x) = -0.17739 0.05352
# Poissons Ratio (y) = -0.11631 -0.05254
# Poissons Ratio (z) = 0.05135 -0.07689
#
# Static dielectric constant tensor:
#      x y z
#    x 2.005980 -0.299220 -0.042540 
#    y -0.299220 1.666400 -0.079380 
#    z -0.042540 -0.079380 2.354120 
# 
# From -- ./inp_files/270857.got.cif
#   From: 2010.05.17/outbox.cif.g08.bks.cpg/sg2_136_cif.got.tgz:270857.got - 2010.06.03 11:33:40.
