data_PCOD9080702
_publ_section_title
;
Structure prediction by ZEFSAII (Michael W. Deem and Ramdas Pophale) SiO2 
 PCOD9080702
Probable space group: P -1
;
_chemical_formula_sum "Si O2"
_cell_formula_units_Z 14
_cell_length_a 5.305183
_cell_length_b 13.559936
_cell_length_c 17.975023
_cell_angle_alpha 24.498730
_cell_angle_beta 82.715653
_cell_angle_gamma 81.219568
_cell_volume 529.692474
_symmetry_space_group_name_H-M "P -1"
_symmetry_group_IT_number 2
_symmetry_cell_setting 'triclinic'
loop_
_space_group_symop_operation_xyz
x,y,z
-x,-y,-z
loop_
_atom_site_type_symbol
_atom_site_label
_atom_site_fract_x
_atom_site_fract_y
_atom_site_fract_z
Si Si1 0.375497 0.230556 0.497935
Si Si2 0.192911 0.596573 0.368242
Si Si3 0.560695 0.950381 0.945343
Si Si4 0.605215 0.271787 0.102329
Si Si5 0.268993 0.854650 0.579177
Si Si6 0.109914 0.410617 0.976411
Si Si7 0.080555 0.681089 0.147833
O O1 0.364273 0.377265 0.474222
O O2 0.651130 0.202584 0.469028
O O3 0.195173 0.403792 0.331554
O O4 0.293560 0.965943 0.694114
O O5 0.052478 0.709919 0.220455
O O6 0.000000 0.500000 0.500000
O O7 0.354115 0.798195 0.258621
O O8 0.306003 0.840144 0.004821
O O9 0.810714 0.760755 0.066311
O O10 0.500000 0.000000 0.000000
O O11 0.500000 0.500000 0.000000
O O12 0.344268 0.209373 0.115283
O O13 0.845032 0.345984 0.996102
O O14 0.242656 0.617076 0.789199
O O15 0.500000 0.000000 0.500000
O O16 0.000000 0.000000 0.500000
O O17 0.000000 0.500000 0.000000
#
# Coordination Sequence:
#
# PCOD9080702 Si02
#       7
#     2   2   2   2   2   2   2
#     4  10  24  42  64 103 127 180 225 271 324 407
#     4   9  20  42  66  99 134 168 218 270 333 385
#     4  10  18  41  66  90 130 175 203 274 329 389
#     4  10  20  40  60  86 129 165 211 270 322 374
#     4  12  24  43  68  94 130 173 221 278 329 387
#     4  10  20  37  60  87 117 163 205 261 325 373
#     4   9  22  39  65  92 133 169 219 264 328 393
#
# _framework density 26.430432
#
# number of rings (size 3 to 8) (size 9 to 14) (size 15 to 20)
#    0.857    1.143    0.000    6.000    0.000    2.286 
#    5.143    6.429    0.000    0.000    0.000    0.000 
#    0.000    0.000    0.000    0.000    0.000    0.000 
#
# Total GULP energy -78343.121130 kJ/mol
# GULP energy per Si atom -5595.937224 kJ/mol
# Density = 2.637027 g / cm^3
# Si number density = 26.430432 Si / 1000 Ang^3
#
#
#
# Elastic Constant Matrix: (Units=GPa)
#
#
# Indices 1 2 3 4 5 6 
#
# 1 181.5696 70.5437 49.9004 -2.4801 -24.3046 -28.9806
# 2 70.5437 148.0059 64.8066 -2.2527 -11.2387 -25.7672
# 3 49.9004 64.8066 181.3221 -6.1701 -38.5658 -17.2980
# 4 -2.4801 -2.2527 -6.1701 49.6737 -15.8022 -4.0527
# 5 -24.3046 -11.2387 -38.5658 -15.8022 43.0932 1.3563
# 6 -28.9806 -25.7672 -17.2980 -4.0527 1.3563 58.8981
#
#
#
# Elastic Compliance Matrix: (Units=1/GPa)
#
#
# Indices 1 2 3 4 5 6 
#
# 1 0.007589 -0.002891 0.000155 0.001828 0.004255 0.002542
# 2 -0.002891 0.009573 -0.002879 -0.000536 -0.001967 0.001929
# 3 0.000155 -0.002879 0.008515 0.003676 0.008261 0.001380
# 4 0.001828 -0.000536 0.003676 0.025145 0.013301 0.003168
# 5 0.004255 -0.001967 0.008261 0.013301 0.037246 0.003717
# 6 0.002542 0.001929 0.001380 0.003168 0.003717 0.019611
#
#
# Mechanical properties :
#
#
# Convention : Reuss Voigt Hill
#
# Bulk Modulus (GPa) = 69.22060 97.93321 83.57691
# Shear Modulus (GPa) = 40.41234 52.04280 46.22757
#
# Velocity S-wave (km/s) = 3.91450 4.44221 4.18668
# Velocity P-wave (km/s) = 6.83210 7.96521 7.42032
#
# Compressibility (1/GPa) = 0.01444657
#
# Stress axis : x y z
#
# Youngs Moduli (GPa) = 131.77728 104.45931 117.43607
#
# Poissons Ratio (x) = 0.30200 -0.01815
# Poissons Ratio (y) = 0.38098 0.33806
# Poissons Ratio (z) = -0.02037 0.30070
#
# Static dielectric constant tensor:
#      x y z
#    x 2.310660 0.235080 0.108600 
#    y 0.235080 2.277250 -0.005450 
#    z 0.108600 -0.005450 2.121090 
# 
# From -- ./inp_files/604930.got.cif
#   From: 2010.05.17/outbox.cif.g08.bks.cpg/sg2_303_cif.got.tgz:604930.got - 2010.06.03 11:33:40.
