data_PCOD9080282
_publ_section_title
;
Structure prediction by ZEFSAII (Michael W. Deem and Ramdas Pophale) SiO2 
 PCOD9080282
Probable space group: P -1
;
_chemical_formula_sum "Si O2"
_cell_formula_units_Z 16
_cell_length_a 8.647157
_cell_length_b 12.726258
_cell_length_c 9.214940
_cell_angle_alpha 122.994695
_cell_angle_beta 116.255428
_cell_angle_gamma 60.458319
_cell_volume 718.634997
_symmetry_space_group_name_H-M "P -1"
_symmetry_group_IT_number 2
_symmetry_cell_setting 'triclinic'
loop_
_space_group_symop_operation_xyz
x,y,z
-x,-y,-z
loop_
_atom_site_type_symbol
_atom_site_label
_atom_site_fract_x
_atom_site_fract_y
_atom_site_fract_z
Si Si1 0.808039 0.877852 0.579920
Si Si2 0.378426 0.428680 0.987778
Si Si3 0.877904 0.638908 0.630835
Si Si4 0.116381 0.091506 0.681411
Si Si5 0.451884 0.380885 0.324156
Si Si6 0.091253 0.694573 0.023990
Si Si7 0.225330 0.878791 0.792988
Si Si8 0.365926 0.844448 0.153585
O O1 0.794441 0.748038 0.554468
O O2 0.790572 0.881724 0.403394
O O3 0.016612 0.877937 0.702193
O O4 0.665436 0.014668 0.681723
O O5 0.416962 0.412587 0.163205
O O6 0.179897 0.536765 0.968066
O O7 0.500000 0.500000 0.000000
O O8 0.442931 0.276226 0.850011
O O9 0.720621 0.625949 0.661884
O O10 0.000000 0.500000 0.500000
O O11 0.992043 0.700470 0.833297
O O12 0.016558 0.231360 0.824236
O O13 0.230445 0.003052 0.793133
O O14 0.000000 0.000000 0.500000
O O15 0.500000 0.500000 0.500000
O O16 0.630029 0.250628 0.315530
O O17 0.230847 0.775722 0.119718
O O18 0.296046 0.878103 0.984881
#
# Coordination Sequence:
#
# PCOD9080282 Si02
#       8
#     2   2   2   2   2   2   2   2
#     4  11  21  40  69 101 136 171 232 280 336 410
#     4   9  23  39  69 105 130 180 221 281 341 408
#     4  12  28  45  67 101 137 185 231 286 350 401
#     4  10  21  35  66 106 131 176 223 276 334 411
#     4  11  26  44  67  94 134 182 232 283 337 419
#     4  11  21  42  67 100 143 173 228 283 336 405
#     4  10  19  37  65  95 128 176 224 268 333 403
#     4  10  18  38  69 102 130 180 223 268 341 413
#
# _framework density 22.264430999999998
#
# number of rings (size 3 to 8) (size 9 to 14) (size 15 to 20)
#    0.000    1.500    3.750    1.875    8.750    0.500 
#    0.000    6.250    0.000    0.000    0.000    0.000 
#    0.000    0.000    0.000    0.000    0.000    0.000 
#
# Total GULP energy -89342.010649 kJ/mol
# GULP energy per Si atom -5583.875666 kJ/mol
# Density = 2.221376 g / cm^3
# Si number density = 22.264431 Si / 1000 Ang^3
#
#
#
# Elastic Constant Matrix: (Units=GPa)
#
#
# Indices 1 2 3 4 5 6 
#
# 1 69.2880 62.4458 52.4419 12.5781 -26.1968 7.7718
# 2 62.4458 167.9772 48.4621 5.0790 -35.9999 4.2403
# 3 52.4419 48.4621 92.5393 22.4594 -37.6864 -1.0619
# 4 12.5781 5.0790 22.4594 36.5338 -5.3896 -14.2074
# 5 -26.1968 -35.9999 -37.6864 -5.3896 40.5694 3.2642
# 6 7.7718 4.2403 -1.0619 -14.2074 3.2642 37.4537
#
#
#
# Elastic Compliance Matrix: (Units=1/GPa)
#
#
# Indices 1 2 3 4 5 6 
#
# 1 0.034821 -0.008131 -0.012700 -0.006165 0.003402 -0.009300
# 2 -0.008131 0.009543 0.000852 0.001959 0.004188 0.001009
# 3 -0.012700 0.000852 0.026647 -0.010580 0.016073 -0.002120
# 4 -0.006165 0.001959 -0.010580 0.041192 -0.007973 0.017078
# 5 0.003402 0.004188 0.016073 -0.007973 0.045051 -0.007675
# 6 -0.009300 0.001009 -0.002120 0.017078 -0.007675 0.035602
#
#
# Mechanical properties :
#
#
# Convention : Reuss Voigt Hill
#
# Bulk Modulus (GPa) = 32.20336 72.94490 52.57413
# Shear Modulus (GPa) = 20.56222 34.00837 27.28529
#
# Velocity S-wave (km/s) = 3.04229 3.91253 3.50453
# Velocity P-wave (km/s) = 5.18036 7.29689 6.32775
#
# Compressibility (1/GPa) = 0.03105266
#
# Stress axis : x y z
#
# Youngs Moduli (GPa) = 28.71822 104.79019 37.52833
#
# Poissons Ratio (x) = 0.85200 0.47662
# Poissons Ratio (y) = 0.23349 -0.03197
# Poissons Ratio (z) = 0.36473 -0.08926
#
# Static dielectric constant tensor:
#      x y z
#    x 1.849120 -0.039740 0.024780 
#    y -0.039740 1.784630 -0.001630 
#    z 0.024780 -0.001630 1.785660 
# 
# From -- ./inp_files/190273.got.cif
#   From: 2010.05.17/outbox.cif.g08.bks.cpg/sg2_96_cif.got.tgz:190273.got - 2010.06.03 11:33:40.
