data_PCOD9080717
_publ_section_title
;
Structure prediction by ZEFSAII (Michael W. Deem and Ramdas Pophale) SiO2 
 PCOD9080717
Probable space group: P -1
;
_chemical_formula_sum "Si O2"
_cell_formula_units_Z 16
_cell_length_a 11.946535
_cell_length_b 6.398141
_cell_length_c 10.859234
_cell_angle_alpha 76.511134
_cell_angle_beta 119.655428
_cell_angle_gamma 82.280991
_cell_volume 670.087455
_symmetry_space_group_name_H-M "P -1"
_symmetry_group_IT_number 2
_symmetry_cell_setting 'triclinic'
loop_
_space_group_symop_operation_xyz
x,y,z
-x,-y,-z
loop_
_atom_site_type_symbol
_atom_site_label
_atom_site_fract_x
_atom_site_fract_y
_atom_site_fract_z
Si Si1 0.042389 0.284581 0.400422
Si Si2 0.414600 0.791555 0.457579
Si Si3 0.171984 0.597711 0.272452
Si Si4 0.296152 0.956992 0.010454
Si Si5 0.788208 0.678480 0.291896
Si Si6 0.007312 0.938230 0.826826
Si Si7 0.540268 0.588668 0.302847
Si Si8 0.764434 0.781990 0.804412
O O1 0.896405 0.466489 0.315493
O O2 0.028926 0.085514 0.332970
O O3 0.133309 0.414722 0.359937
O O4 0.119982 0.224665 0.578991
O O5 0.287958 0.697398 0.369503
O O6 0.512870 0.709702 0.405915
O O7 0.464758 0.663193 0.630346
O O8 0.345549 0.057699 0.372061
O O9 0.042557 0.811978 0.180153
O O10 0.218188 0.472896 0.186552
O O11 0.425431 0.743505 0.131348
O O12 0.281042 0.115047 0.101578
O O13 0.165800 0.868745 0.939481
O O14 0.288944 0.123343 0.869135
O O15 0.680844 0.589752 0.320437
O O16 0.913085 0.809622 0.859103
#
# Coordination Sequence:
#
# PCOD9080717 Si02
#       8
#     2   2   2   2   2   2   2   2
#     4  10  22  40  68  97 124 168 226 274 313 375
#     4   9  19  40  69  96 123 165 225 278 306 374
#     4  10  18  41  70  97 125 160 221 281 325 361
#     4  11  22  40  60  99 139 176 204 258 329 403
#     4  11  22  42  66  92 136 176 216 262 321 391
#     4  10  21  40  66 100 129 163 220 274 327 372
#     4  10  21  40  67  92 134 173 216 263 317 391
#     4   9  21  37  69 102 125 165 216 276 328 371
#
# _framework density 23.877482000000001
#
# number of rings (size 3 to 8) (size 9 to 14) (size 15 to 20)
#    0.000    2.000    2.500    0.750    0.000    1.000 
#    6.750    6.250    5.500    0.000    0.000    0.000 
#    0.000    0.000    0.000    0.000    0.000    0.000 
#
# Total GULP energy -89451.864973 kJ/mol
# GULP energy per Si atom -5590.741561 kJ/mol
# Density = 2.382314 g / cm^3
# Si number density = 23.877482 Si / 1000 Ang^3
#
#
#
# Elastic Constant Matrix: (Units=GPa)
#
#
# Indices 1 2 3 4 5 6 
#
# 1 102.3167 15.6602 6.7951 -19.0019 -13.0187 -3.9854
# 2 15.6602 92.3998 41.7949 1.0287 -7.3902 -1.9981
# 3 6.7951 41.7949 110.7712 -7.6037 -14.6395 -1.0001
# 4 -19.0019 1.0287 -7.6037 21.9095 4.4441 -9.8498
# 5 -13.0187 -7.3902 -14.6395 4.4441 30.5520 -12.0551
# 6 -3.9854 -1.9981 -1.0001 -9.8498 -12.0551 26.6288
#
#
#
# Elastic Compliance Matrix: (Units=1/GPa)
#
#
# Indices 1 2 3 4 5 6 
#
# 1 0.015212 -0.003014 0.002871 0.018361 0.009727 0.013353
# 2 -0.003014 0.013813 -0.005530 -0.006013 -0.000544 -0.002093
# 3 0.002871 -0.005530 0.012591 0.008808 0.007445 0.007116
# 4 0.018361 -0.006013 0.008808 0.079281 0.014203 0.038383
# 5 0.009727 -0.000544 0.007445 0.014203 0.049901 0.029539
# 6 0.013353 -0.002093 0.007116 0.038383 0.029539 0.067232
#
#
# Mechanical properties :
#
#
# Convention : Reuss Voigt Hill
#
# Bulk Modulus (GPa) = 33.03848 48.22089 40.62969
# Shear Modulus (GPa) = 19.27019 31.90056 25.58537
#
# Velocity S-wave (km/s) = 2.84393 3.65911 3.27697
# Velocity P-wave (km/s) = 4.96494 6.17180 5.60097
#
# Compressibility (1/GPa) = 0.03026774
#
# Stress axis : x y z
#
# Youngs Moduli (GPa) = 65.73739 72.39481 79.42142
#
# Poissons Ratio (x) = 0.21822 -0.22799
# Poissons Ratio (y) = 0.19816 0.43924
# Poissons Ratio (z) = -0.18871 0.40038
#
# Static dielectric constant tensor:
#      x y z
#    x 1.902650 0.011730 -0.010920 
#    y 0.011730 1.907710 -0.024450 
#    z -0.010920 -0.024450 2.022800 
# 
# From -- ./inp_files/414542.got.cif
#   From: 2010.05.17/outbox.cif.g08.bks.cpg/sg2_208_cif.got.tgz:414542.got - 2010.06.03 11:33:40.
