data_PCOD9080990
_publ_section_title
;
Structure prediction by ZEFSAII (Michael W. Deem and Ramdas Pophale) SiO2 
 PCOD9080990
Probable space group: P -1
;
_chemical_formula_sum "Si O2"
_cell_formula_units_Z 16
_cell_length_a 12.455612
_cell_length_b 5.791476
_cell_length_c 20.524943
_cell_angle_alpha 137.328760
_cell_angle_beta 130.266508
_cell_angle_gamma 67.898412
_cell_volume 751.588975
_symmetry_space_group_name_H-M "P -1"
_symmetry_group_IT_number 2
_symmetry_cell_setting 'triclinic'
loop_
_space_group_symop_operation_xyz
x,y,z
-x,-y,-z
loop_
_atom_site_type_symbol
_atom_site_label
_atom_site_fract_x
_atom_site_fract_y
_atom_site_fract_z
Si Si1 0.504859 0.831883 0.395704
Si Si2 0.942554 0.445258 0.704546
Si Si3 0.757705 0.431834 0.942448
Si Si4 0.296388 0.171008 0.116434
Si Si5 0.949036 0.486466 0.859470
Si Si6 0.275133 0.101503 0.298475
Si Si7 0.184280 0.337394 0.523892
Si Si8 0.990979 0.590808 0.412709
O O1 0.400901 0.462889 0.260949
O O2 0.659963 0.746757 0.426101
O O3 0.500000 0.000000 0.500000
O O4 0.438560 0.097095 0.378708
O O5 0.001144 0.568404 0.823378
O O6 0.786799 0.553474 0.661202
O O7 0.032335 0.574320 0.701971
O O8 0.918925 0.033184 0.605186
O O9 0.691167 0.707893 0.929836
O O10 0.686546 0.210062 0.931450
O O11 0.759081 0.124126 0.826916
O O12 0.920343 0.575938 0.057858
O O13 0.137299 0.232782 0.086934
O O14 0.826839 0.134375 0.737371
O O15 0.147179 0.547214 0.490512
O O16 0.130372 0.524615 0.604408
O O17 0.000000 0.000000 0.500000
#
# Coordination Sequence:
#
# PCOD9080990 Si02
#       8
#     2   2   2   2   2   2   2   2
#     4  10  20  34  52  78 114 152 181 220 277 335
#     4  11  19  31  54  81 109 140 184 235 269 329
#     4  10  20  34  52  74 117 154 188 226 277 329
#     4  10  20  35  47  78 111 149 189 221 264 345
#     4  10  19  30  51  74 111 146 184 230 277 318
#     4  10  21  33  48  83 116 147 184 220 271 343
#     4  10  20  38  53  76 112 144 182 227 279 329
#     4   9  20  37  55  75 102 139 188 235 276 326
#
# _framework density 21.288233999999999
#
# number of rings (size 3 to 8) (size 9 to 14) (size 15 to 20)
#    0.000    2.250    1.250    4.875    1.750    0.500 
#   11.250    0.000    0.000    0.000    0.000    4.375 
#    0.000    0.000    0.000    0.000    0.000    0.000 
#
# Total GULP energy -89130.114980 kJ/mol
# GULP energy per Si atom -5570.632186 kJ/mol
# Density = 2.123978 g / cm^3
# Si number density = 21.288234 Si / 1000 Ang^3
#
#
#
# Elastic Constant Matrix: (Units=GPa)
#
#
# Indices 1 2 3 4 5 6 
#
# 1 64.7997 28.8651 35.0840 -21.4422 -12.3788 -4.6064
# 2 28.8651 114.5586 25.3121 -18.3573 -6.7970 3.3959
# 3 35.0840 25.3121 75.3282 -29.3269 0.8094 -4.0560
# 4 -21.4422 -18.3573 -29.3269 34.3237 8.2191 -1.5793
# 5 -12.3788 -6.7970 0.8094 8.2191 24.5779 -4.8529
# 6 -4.6064 3.3959 -4.0560 -1.5793 -4.8529 33.8237
#
#
#
# Elastic Compliance Matrix: (Units=1/GPa)
#
#
# Indices 1 2 3 4 5 6 
#
# 1 0.025821 -0.003263 -0.009371 0.003697 0.012089 0.004627
# 2 -0.003263 0.010224 -0.001045 0.002442 0.000112 -0.001466
# 3 -0.009371 -0.001045 0.025136 0.017893 -0.011621 0.001011
# 4 0.003697 0.002442 0.017893 0.051709 -0.014812 0.002693
# 5 0.012089 0.000112 -0.011621 -0.014812 0.053571 0.007236
# 6 0.004627 -0.001466 0.001011 0.002693 0.007236 0.031628
#
#
# Mechanical properties :
#
#
# Convention : Reuss Voigt Hill
#
# Bulk Modulus (GPa) = 29.56578 48.13434 38.85006
# Shear Modulus (GPa) = 21.12183 29.57339 25.34761
#
# Velocity S-wave (km/s) = 3.15331 3.73123 3.45438
# Velocity P-wave (km/s) = 5.21309 6.42048 5.84803
#
# Compressibility (1/GPa) = 0.03382288
#
# Stress axis : x y z
#
# Youngs Moduli (GPa) = 38.72825 97.81193 39.78279
#
# Poissons Ratio (x) = 0.31916 0.37281
# Poissons Ratio (y) = 0.12637 0.04157
# Poissons Ratio (z) = 0.36293 0.10221
#
# Static dielectric constant tensor:
#      x y z
#    x 1.825260 0.115990 0.017510 
#    y 0.115990 1.893360 0.005650 
#    z 0.017510 0.005650 1.799870 
# 
# From -- ./inp_files/592868.got.cif
#   From: 2010.05.17/outbox.cif.g08.bks.cpg/sg2_297_cif.got.tgz:592868.got - 2010.06.03 11:33:40.
