data_PCOD9080494
_publ_section_title
;
Structure prediction by ZEFSAII (Michael W. Deem and Ramdas Pophale) SiO2 
 PCOD9080494
Probable space group: P -1
;
_chemical_formula_sum "Si O2"
_cell_formula_units_Z 15
_cell_length_a 12.090447
_cell_length_b 11.942850
_cell_length_c 10.924507
_cell_angle_alpha 126.114939
_cell_angle_beta 140.860590
_cell_angle_gamma 36.674844
_cell_volume 592.464659
_symmetry_space_group_name_H-M "P -1"
_symmetry_group_IT_number 2
_symmetry_cell_setting 'triclinic'
loop_
_space_group_symop_operation_xyz
x,y,z
-x,-y,-z
loop_
_atom_site_type_symbol
_atom_site_label
_atom_site_fract_x
_atom_site_fract_y
_atom_site_fract_z
Si Si1 0.644628 0.515978 0.041778
Si Si2 0.653430 0.625532 0.883441
Si Si3 0.552388 0.906875 0.794180
Si Si4 0.940663 0.694986 0.320680
Si Si5 0.669073 0.713563 0.512606
Si Si6 0.035096 0.782893 0.225787
Si Si7 0.000000 0.500000 0.500000
Si Si8 0.837734 0.151919 0.855377
O O1 0.781522 0.553052 0.262761
O O2 0.500000 0.500000 0.000000
O O3 0.509733 0.657301 0.901746
O O4 0.818518 0.321261 0.991288
O O5 0.516506 0.794704 0.780444
O O6 0.768435 0.437064 0.787749
O O7 0.867627 0.607004 0.110329
O O8 0.641862 0.803878 0.674859
O O9 0.305822 0.119397 0.718008
O O10 0.768395 0.878825 0.020412
O O11 0.128400 0.523040 0.465573
O O12 0.045275 0.761570 0.368003
O O13 0.418933 0.781118 0.312676
O O14 0.807055 0.724685 0.536958
O O15 0.089109 0.883731 0.248119
O O16 0.000000 0.000000 0.000000
#
# Coordination Sequence:
#
# PCOD9080494 Si02
#       8
#     2   2   2   2   2   2   1   2
#     4  11  23  44  72 101 142 197 238 296 368 424
#     4  10  18  39  69 101 143 183 232 298 362 424
#     4  11  22  40  72 108 137 183 243 299 363 438
#     4  11  21  39  73 105 137 187 241 298 367 425
#     4  12  24  46  68 103 145 181 243 303 359 431
#     4  10  19  41  70  99 141 192 232 300 367 423
#     4  12  24  46  76 102 140 200 244 292 364 446
#     4  11  27  46  68 100 146 193 243 303 367 438
#
# _framework density 25.317965000000001
#
# number of rings (size 3 to 8) (size 9 to 14) (size 15 to 20)
#    0.000    1.067    5.333    3.200    0.000    4.800 
#    0.000    2.667    0.000    0.000    0.000    0.000 
#    0.000    0.000    0.000    0.000    0.000    0.000 
#
# Total GULP energy -83679.600786 kJ/mol
# GULP energy per Si atom -5578.640052 kJ/mol
# Density = 2.526034 g / cm^3
# Si number density = 25.317965 Si / 1000 Ang^3
#
#
#
# Elastic Constant Matrix: (Units=GPa)
#
#
# Indices 1 2 3 4 5 6 
#
# 1 142.9723 18.7481 11.8217 -18.0157 8.3826 -3.4392
# 2 18.7481 90.6735 19.0049 -30.8844 -3.6857 -5.5754
# 3 11.8217 19.0049 64.6270 -17.5414 -5.0388 -9.5935
# 4 -18.0157 -30.8844 -17.5414 36.5542 -8.0280 -9.0037
# 5 8.3826 -3.6857 -5.0388 -8.0280 34.1374 -0.4076
# 6 -3.4392 -5.5754 -9.5935 -9.0037 -0.4076 36.8890
#
#
#
# Elastic Compliance Matrix: (Units=1/GPa)
#
#
# Indices 1 2 3 4 5 6 
#
# 1 0.007591 -0.000278 -0.000219 0.003523 -0.001080 0.001457
# 2 -0.000278 0.018156 0.001755 0.019555 0.006982 0.008025
# 3 -0.000219 0.001755 0.021177 0.015467 0.007121 0.009606
# 4 0.003523 0.019555 0.015467 0.062734 0.018555 0.022823
# 5 -0.001080 0.006982 0.007121 0.018555 0.035819 0.007731
# 6 0.001457 0.008025 0.009606 0.022823 0.007731 0.036611
#
#
# Mechanical properties :
#
#
# Convention : Reuss Voigt Hill
#
# Bulk Modulus (GPa) = 20.22628 44.15803 32.19215
# Shear Modulus (GPa) = 25.50344 38.09601 31.79972
#
# Velocity S-wave (km/s) = 3.17728 3.88326 3.54787
# Velocity P-wave (km/s) = 4.63319 6.13070 5.43378
#
# Compressibility (1/GPa) = 0.04944062
#
# Stress axis : x y z
#
# Youngs Moduli (GPa) = 131.73108 55.07770 47.22184
#
# Poissons Ratio (x) = 0.01532 0.01032
# Poissons Ratio (y) = 0.03664 -0.08288
# Poissons Ratio (z) = 0.02879 -0.09666
#
# Static dielectric constant tensor:
#      x y z
#    x 0.728200 0.050420 0.068410 
#    y 0.050420 2.068490 0.002910 
#    z 0.068410 0.002910 1.947590 
# 
# From -- ./inp_files/426551.got.cif
#   From: 2010.05.17/outbox.cif.g08.bks.cpg/sg2_214_cif.got.tgz:426551.got - 2010.06.03 11:33:40.
