data_PCOD9080279
_publ_section_title
;
Structure prediction by ZEFSAII (Michael W. Deem and Ramdas Pophale) SiO2 
 PCOD9080279
Probable space group: P -1
;
_chemical_formula_sum "Si O2"
_cell_formula_units_Z 16
_cell_length_a 16.452769
_cell_length_b 9.024774
_cell_length_c 12.823286
_cell_angle_alpha 59.809751
_cell_angle_beta 156.330734
_cell_angle_gamma 108.751643
_cell_volume 605.295233
_symmetry_space_group_name_H-M "P -1"
_symmetry_group_IT_number 2
_symmetry_cell_setting 'triclinic'
loop_
_space_group_symop_operation_xyz
x,y,z
-x,-y,-z
loop_
_atom_site_type_symbol
_atom_site_label
_atom_site_fract_x
_atom_site_fract_y
_atom_site_fract_z
Si Si1 0.225938 0.409405 0.199626
Si Si2 0.281821 0.767922 0.223725
Si Si3 0.594309 0.849221 0.298345
Si Si4 0.131143 0.660688 0.496949
Si Si5 0.668312 0.901937 0.938663
Si Si6 0.307836 0.796300 0.469099
Si Si7 0.910054 0.631259 0.586259
Si Si8 0.667110 0.371952 0.033770
O O1 0.211582 0.607263 0.157518
O O2 0.449952 0.327618 0.424412
O O3 0.272548 0.269172 0.401816
O O4 0.018485 0.464141 0.859673
O O5 0.189845 0.838471 0.204581
O O6 0.243650 0.937257 0.040603
O O7 0.764712 0.814329 0.416721
O O8 0.436553 0.050818 0.086197
O O9 0.441973 0.750070 0.109585
O O10 0.163784 0.794316 0.400144
O O11 0.201187 0.458533 0.596014
O O12 0.266872 0.670901 0.753305
O O13 0.879227 0.718710 0.220045
O O14 0.458886 0.913080 0.620380
O O15 0.487263 0.583107 0.746982
O O16 0.111708 0.654912 0.758718
#
# Coordination Sequence:
#
# PCOD9080279 Si02
#       8
#     2   2   2   2   2   2   2   2
#     4  10  18  38  68  99 134 167 223 272 328 394
#     4  10  19  39  67 100 136 172 211 275 338 394
#     4  11  25  43  68 102 133 174 220 275 331 395
#     4  12  27  43  69  98 132 182 229 266 324 397
#     4  11  26  42  64 102 143 168 212 279 341 389
#     4  12  23  43  69  97 133 179 219 280 327 385
#     4  12  22  40  73  99 123 176 228 270 325 390
#     4  12  24  45  72  95 132 177 234 271 314 395
#
# _framework density 26.433382000000002
#
# number of rings (size 3 to 8) (size 9 to 14) (size 15 to 20)
#    0.000    0.750    5.000    3.000    0.000    4.000 
#    0.000    1.250    0.000    0.000    0.000    0.000 
#    0.000    0.000    0.000    0.000    0.000    0.000 
#
# Total GULP energy -89661.044496 kJ/mol
# GULP energy per Si atom -5603.815281 kJ/mol
# Density = 2.637322 g / cm^3
# Si number density = 26.433382 Si / 1000 Ang^3
#
#
#
# Elastic Constant Matrix: (Units=GPa)
#
#
# Indices 1 2 3 4 5 6 
#
# 1 183.5750 25.0927 65.1086 -15.6961 4.9547 -31.4419
# 2 25.0927 92.2085 27.2637 -9.5456 1.5062 -21.8729
# 3 65.1086 27.2637 56.6709 1.8806 8.8086 -6.9145
# 4 -15.6961 -9.5456 1.8806 29.2684 -5.3534 1.2477
# 5 4.9547 1.5062 8.8086 -5.3534 51.2499 0.9904
# 6 -31.4419 -21.8729 -6.9145 1.2477 0.9904 40.6505
#
#
#
# Elastic Compliance Matrix: (Units=1/GPa)
#
#
# Indices 1 2 3 4 5 6 
#
# 1 0.013207 0.004623 -0.016925 0.009700 0.002327 0.009469
# 2 0.004623 0.016565 -0.012646 0.008623 0.001947 0.010026
# 3 -0.016925 -0.012646 0.043370 -0.016758 -0.006968 -0.011834
# 4 0.009700 0.008623 -0.016758 0.044048 0.006140 0.007790
# 5 0.002327 0.001947 -0.006968 0.006140 0.021050 0.000960
# 6 0.009469 0.010026 -0.011834 0.007790 0.000960 0.035043
#
#
# Mechanical properties :
#
#
# Convention : Reuss Voigt Hill
#
# Bulk Modulus (GPa) = 43.01948 63.04269 53.03109
# Shear Modulus (GPa) = 21.65181 38.56640 30.10910
#
# Velocity S-wave (km/s) = 2.86511 3.82383 3.37865
# Velocity P-wave (km/s) = 5.22065 6.58764 5.94358
#
# Compressibility (1/GPa) = 0.02324528
#
# Stress axis : x y z
#
# Youngs Moduli (GPa) = 75.71930 60.36806 23.05757
#
# Poissons Ratio (x) = -0.27906 0.39025
# Poissons Ratio (y) = -0.35002 0.29158
# Poissons Ratio (z) = 1.28156 0.76339
#
# Static dielectric constant tensor:
#      x y z
#    x 2.093020 0.001470 -0.014390 
#    y 0.001470 2.022130 -0.038350 
#    z -0.014390 -0.038350 2.103890 
# 
# From -- ./inp_files/447056.got.cif
#   From: 2010.05.17/outbox.cif.g08.bks.cpg/sg2_224_cif.got.tgz:447056.got - 2010.06.03 11:33:40.
