data_PCOD9080651
_publ_section_title
;
Structure prediction by ZEFSAII (Michael W. Deem and Ramdas Pophale) SiO2 
 PCOD9080651
Probable space group: P -1
;
_chemical_formula_sum "Si O2"
_cell_formula_units_Z 11
_cell_length_a 8.617016
_cell_length_b 9.703269
_cell_length_c 7.173560
_cell_angle_alpha 108.314500
_cell_angle_beta 91.599836
_cell_angle_gamma 133.473539
_cell_volume 386.413545
_symmetry_space_group_name_H-M "P -1"
_symmetry_group_IT_number 2
_symmetry_cell_setting 'triclinic'
loop_
_space_group_symop_operation_xyz
x,y,z
-x,-y,-z
loop_
_atom_site_type_symbol
_atom_site_label
_atom_site_fract_x
_atom_site_fract_y
_atom_site_fract_z
Si Si1 0.901238 0.582298 0.954491
Si Si2 0.182639 0.933602 0.827830
Si Si3 0.515201 0.846027 0.377935
Si Si4 0.344412 0.536992 0.740611
Si Si5 0.222195 0.166429 0.343771
Si Si6 0.000000 0.500000 0.500000
O O1 0.755031 0.560175 0.098521
O O2 0.727406 0.405146 0.710022
O O3 0.097788 0.817936 0.976630
O O4 0.000000 0.500000 0.000000
O O5 0.431701 0.125807 0.828592
O O6 0.385643 0.258153 0.207748
O O7 0.031817 0.969311 0.782736
O O8 0.098734 0.736224 0.617436
O O9 0.710849 0.909913 0.537806
O O10 0.500000 0.000000 0.500000
O O11 0.293328 0.360235 0.540744
O O12 0.211568 0.586039 0.679683
#
# Coordination Sequence:
#
# PCOD9080651 Si02
#       6
#     2   2   2   2   2   1
#     4  12  26  44  73 107 144 183 232 295 352 412
#     4  11  23  44  68 102 141 183 233 284 351 414
#     4  12  27  46  74 104 141 189 240 287 349 423
#     4  10  21  41  73 100 142 185 238 279 354 418
#     4  10  23  43  72 102 139 190 234 286 351 418
#     4  10  18  40  68  94 136 188 224 278 338 418
#
# _framework density 28.466913000000002
#
# number of rings (size 3 to 8) (size 9 to 14) (size 15 to 20)
#    0.000    1.091    1.818    6.000    2.545    3.636 
#    0.000    1.818    0.000    0.000    0.000    0.000 
#    0.000    0.000    0.000    0.000    0.000    0.000 
#
# Total GULP energy -61474.788537 kJ/mol
# GULP energy per Si atom -5588.617140 kJ/mol
# Density = 2.840212 g / cm^3
# Si number density = 28.466913 Si / 1000 Ang^3
#
#
#
# Elastic Constant Matrix: (Units=GPa)
#
#
# Indices 1 2 3 4 5 6 
#
# 1 152.2366 73.0303 24.6162 -6.7067 -3.9854 -33.8332
# 2 73.0303 182.6257 36.6320 -12.0456 -5.9304 8.5249
# 3 24.6162 36.6320 78.1741 -17.7022 -7.4575 8.5780
# 4 -6.7067 -12.0456 -17.7022 45.0863 13.8110 -6.2968
# 5 -3.9854 -5.9304 -7.4575 13.8110 53.9673 -4.7436
# 6 -33.8332 8.5249 8.5780 -6.2968 -4.7436 70.5625
#
#
#
# Elastic Compliance Matrix: (Units=1/GPa)
#
#
# Indices 1 2 3 4 5 6 
#
# 1 0.009959 -0.003836 -0.001816 0.000376 0.000452 0.005523
# 2 -0.003836 0.007544 -0.001983 0.000329 -0.000031 -0.002483
# 3 -0.001816 -0.001983 0.015677 0.004955 0.000364 -0.002070
# 4 0.000376 0.000329 0.004955 0.026267 -0.005842 0.001490
# 5 0.000452 -0.000031 0.000364 -0.005842 0.020194 0.001012
# 6 0.005523 -0.002483 -0.002070 0.001490 0.001012 0.017573
#
#
# Mechanical properties :
#
#
# Convention : Reuss Voigt Hill
#
# Bulk Modulus (GPa) = 55.83827 75.73259 65.78543
# Shear Modulus (GPa) = 42.21057 52.50707 47.35882
#
# Velocity S-wave (km/s) = 3.85488 4.29942 4.08320
# Velocity P-wave (km/s) = 6.28261 7.16297 6.73719
#
# Compressibility (1/GPa) = 0.01790886
#
# Stress axis : x y z
#
# Youngs Moduli (GPa) = 100.41542 132.55192 63.78810
#
# Poissons Ratio (x) = 0.50853 0.11583
# Poissons Ratio (y) = 0.38524 0.12650
# Poissons Ratio (z) = 0.18234 0.26287
#
# Static dielectric constant tensor:
#      x y z
#    x 2.121440 0.123010 0.010780 
#    y 0.123010 2.175130 -0.036790 
#    z 0.010780 -0.036790 2.399960 
# 
# From -- ./inp_files/149681.got.cif
#   From: 2010.05.17/outbox.cif.g08.bks.cpg/sg2_75_cif.got.tgz:149681.got - 2010.06.03 11:33:40.
