data_PCOD9080518
_publ_section_title
;
Structure prediction by ZEFSAII (Michael W. Deem and Ramdas Pophale) SiO2 
 PCOD9080518
Probable space group: P -1
;
_chemical_formula_sum "Si O2"
_cell_formula_units_Z 14
_cell_length_a 8.562997
_cell_length_b 9.547095
_cell_length_c 8.611723
_cell_angle_alpha 68.739878
_cell_angle_beta 108.279470
_cell_angle_gamma 114.956646
_cell_volume 583.995081
_symmetry_space_group_name_H-M "P -1"
_symmetry_group_IT_number 2
_symmetry_cell_setting 'triclinic'
loop_
_space_group_symop_operation_xyz
x,y,z
-x,-y,-z
loop_
_atom_site_type_symbol
_atom_site_label
_atom_site_fract_x
_atom_site_fract_y
_atom_site_fract_z
Si Si1 0.680449 0.144416 0.512096
Si Si2 0.849076 0.323165 0.195852
Si Si3 0.745063 0.804903 0.321342
Si Si4 0.452815 0.610481 0.084070
Si Si5 0.812526 0.489081 0.391021
Si Si6 0.235647 0.303830 0.299211
Si Si7 0.083487 0.009361 0.189065
O O1 0.771175 0.181949 0.355288
O O2 0.673075 0.320865 0.471502
O O3 0.807848 0.105571 0.690577
O O4 0.500000 0.000000 0.500000
O O5 0.837273 0.480125 0.218670
O O6 0.047423 0.333012 0.228498
O O7 0.702131 0.316924 0.027122
O O8 0.601364 0.761371 0.154901
O O9 0.789990 0.644333 0.382495
O O10 0.722555 0.795160 0.504374
O O11 0.914723 0.957304 0.271230
O O12 0.382368 0.474363 0.248379
O O13 0.500000 0.500000 0.000000
O O14 0.000000 0.500000 0.500000
O O15 0.214928 0.186679 0.193755
O O16 0.000000 0.000000 0.000000
#
# Coordination Sequence:
#
# PCOD9080518 Si02
#       7
#     2   2   2   2   2   2   2
#     4  10  23  41  69  98 136 181 226 272 342 408
#     4  10  23  44  69  99 140 179 226 280 339 406
#     4  12  23  45  68 103 136 183 230 282 340 409
#     4  12  25  43  72 105 137 171 237 287 337 408
#     4  10  18  39  71  93 133 179 226 269 334 410
#     4  12  26  46  70  97 141 186 226 287 347 409
#     4  12  27  43  69  99 139 184 232 282 350 404
#
# _framework density 23.972804
#
# number of rings (size 3 to 8) (size 9 to 14) (size 15 to 20)
#    0.857    0.000    5.714    2.143    6.000    0.000 
#    2.571    0.714    0.000    0.000    0.000    0.000 
#    0.000    0.000    0.000    0.000    0.000    0.000 
#
# Total GULP energy -77957.741676 kJ/mol
# GULP energy per Si atom -5568.410120 kJ/mol
# Density = 2.391824 g / cm^3
# Si number density = 23.972804 Si / 1000 Ang^3
#
#
#
# Elastic Constant Matrix: (Units=GPa)
#
#
# Indices 1 2 3 4 5 6 
#
# 1 68.0827 -2.5847 19.3790 -7.0866 16.6474 7.7526
# 2 -2.5847 62.0223 -19.2955 -0.5809 2.1835 5.3618
# 3 19.3790 -19.2955 104.9487 2.9225 20.6344 -3.8331
# 4 -7.0866 -0.5809 2.9225 37.5073 8.3790 1.4588
# 5 16.6474 2.1835 20.6344 8.3790 35.0271 -0.1004
# 6 7.7526 5.3618 -3.8331 1.4588 -0.1004 37.1213
#
#
#
# Elastic Compliance Matrix: (Units=1/GPa)
#
#
# Indices 1 2 3 4 5 6 
#
# 1 0.018629 0.001001 -0.001753 0.005927 -0.009314 -0.004474
# 2 0.001001 0.017696 0.003748 0.001176 -0.004075 -0.002435
# 3 -0.001753 0.003748 0.011835 0.000198 -0.006417 0.001022
# 4 0.005927 0.001176 0.000198 0.030171 -0.010232 -0.002600
# 5 -0.009314 -0.004075 -0.006417 -0.010232 0.039465 0.002380
# 6 -0.004474 -0.002435 0.001022 -0.002600 0.002380 0.028439
#
#
# Mechanical properties :
#
#
# Convention : Reuss Voigt Hill
#
# Bulk Modulus (GPa) = 18.46633 25.56125 22.01379
# Shear Modulus (GPa) = 31.58716 37.76813 34.67764
#
# Velocity S-wave (km/s) = 3.63385 3.97351 3.80747
# Velocity P-wave (km/s) = 5.03252 5.63360 5.34152
#
# Compressibility (1/GPa) = 0.05415262
#
# Stress axis : x y z
#
# Youngs Moduli (GPa) = 53.68025 56.50968 84.49708
#
# Poissons Ratio (x) = -0.05658 0.14812
# Poissons Ratio (y) = -0.05374 -0.31672
# Poissons Ratio (z) = 0.09410 -0.21181
#
# Static dielectric constant tensor:
#      x y z
#    x 2.049850 -0.064520 0.116710 
#    y -0.064520 1.899050 0.694560 
#    z 0.116710 0.694560 -4.443710 
# 
# From -- ./inp_files/176711.got.cif
#   From: 2010.05.17/outbox.cif.g08.bks.cpg/sg2_89_cif.got.tgz:176711.got - 2010.06.03 11:33:40.
