data_PCOD9080341
_publ_section_title
;
Structure prediction by ZEFSAII (Michael W. Deem and Ramdas Pophale) SiO2 
 PCOD9080341
Probable space group: P -1
;
_chemical_formula_sum "Si O2"
_cell_formula_units_Z 16
_cell_length_a 19.645289
_cell_length_b 7.773833
_cell_length_c 19.120217
_cell_angle_alpha 131.547183
_cell_angle_beta 20.600953
_cell_angle_gamma 121.631397
_cell_volume 715.595500
_symmetry_space_group_name_H-M "P -1"
_symmetry_group_IT_number 2
_symmetry_cell_setting 'triclinic'
loop_
_space_group_symop_operation_xyz
x,y,z
-x,-y,-z
loop_
_atom_site_type_symbol
_atom_site_label
_atom_site_fract_x
_atom_site_fract_y
_atom_site_fract_z
Si Si1 0.243232 0.467975 0.127031
Si Si2 0.631944 0.239781 0.005514
Si Si3 0.284992 0.961178 0.900328
Si Si4 0.020051 0.877171 0.025325
Si Si5 0.023417 0.872996 0.237402
Si Si6 0.802160 0.427180 0.649608
Si Si7 0.760840 0.707678 0.343512
Si Si8 0.759880 0.773358 0.662233
O O1 0.296504 0.552916 0.173753
O O2 0.004151 0.626011 0.376954
O O3 0.393864 0.496660 0.930304
O O4 0.268456 0.185910 0.027844
O O5 0.410344 0.218096 0.230577
O O6 0.816358 0.189325 0.869421
O O7 0.725421 0.038578 0.799352
O O8 0.121283 0.041622 0.016574
O O9 0.514687 0.830306 0.617994
O O10 0.189604 0.800569 0.994770
O O11 0.173614 0.588799 0.801664
O O12 0.836517 0.838354 0.240110
O O13 0.000000 0.000000 0.000000
O O14 0.863136 0.755279 0.330659
O O15 0.880074 0.158725 0.467879
O O16 0.696764 0.629808 0.747618
O O17 0.000000 0.500000 0.500000
#
# Coordination Sequence:
#
# PCOD9080341 Si02
#       8
#     2   2   2   2   2   2   2   2
#     4  11  22  37  61  90 127 171 220 268 309 377
#     4  11  23  35  57  88 123 171 228 267 314 366
#     4  11  23  43  69  96 130 170 214 263 329 392
#     4  10  24  49  75  99 132 164 205 274 335 398
#     4  11  22  42  61  92 133 173 214 269 314 377
#     4  10  18  39  60  76 130 179 211 253 311 363
#     4  10  25  46  72 101 130 168 216 262 334 403
#     4  10  21  39  55  80 125 175 217 268 311 365
#
# _framework density 22.359002
#
# number of rings (size 3 to 8) (size 9 to 14) (size 15 to 20)
#    0.000    1.500    5.000    0.750    3.500    2.000 
#    4.500    0.000    0.000    0.000    0.000    0.000 
#    0.000    0.000    0.000    0.000    0.000    0.000 
#
# Total GULP energy -89072.725321 kJ/mol
# GULP energy per Si atom -5567.045333 kJ/mol
# Density = 2.230811 g / cm^3
# Si number density = 22.359002 Si / 1000 Ang^3
#
#
#
# Elastic Constant Matrix: (Units=GPa)
#
#
# Indices 1 2 3 4 5 6 
#
# 1 95.1472 26.2263 9.0567 -10.6685 3.2330 -13.4133
# 2 26.2263 45.1491 10.6675 -7.2139 3.8622 -3.0388
# 3 9.0567 10.6675 73.7959 -3.1078 10.7467 -4.9074
# 4 -10.6685 -7.2139 -3.1078 22.3567 4.7085 0.3439
# 5 3.2330 3.8622 10.7467 4.7085 25.3172 1.4956
# 6 -13.4133 -3.0388 -4.9074 0.3439 1.4956 25.0520
#
#
#
# Elastic Compliance Matrix: (Units=1/GPa)
#
#
# Indices 1 2 3 4 5 6 
#
# 1 0.013907 -0.006721 0.000230 0.004848 -0.002148 0.006738
# 2 -0.006721 0.027883 -0.002481 0.006182 -0.003458 -0.000580
# 3 0.000230 -0.002481 0.015202 0.002809 -0.006814 0.003168
# 4 0.004848 0.006182 0.002809 0.052035 -0.012665 0.003938
# 5 -0.002148 -0.003458 -0.006814 -0.012665 0.045871 -0.005469
# 6 0.006738 -0.000580 0.003168 0.003938 -0.005469 0.044347
#
#
# Mechanical properties :
#
#
# Convention : Reuss Voigt Hill
#
# Bulk Modulus (GPa) = 25.60817 33.99926 29.80371
# Shear Modulus (GPa) = 21.71966 25.75463 23.73715
#
# Velocity S-wave (km/s) = 3.12012 3.39760 3.26181
# Velocity P-wave (km/s) = 4.94553 5.53450 5.24828
#
# Compressibility (1/GPa) = 0.03905004
#
# Stress axis : x y z
#
# Youngs Moduli (GPa) = 71.90563 35.86355 65.77868
#
# Poissons Ratio (x) = 0.24103 -0.01511
# Poissons Ratio (y) = 0.48326 0.16316
# Poissons Ratio (z) = -0.01652 0.08896
#
# Static dielectric constant tensor:
#      x y z
#    x 1.958820 -0.028790 0.019720 
#    y -0.028790 1.949480 -0.055190 
#    z 0.019720 -0.055190 1.855820 
# 
# From -- ./inp_files/601217.got.cif
#   From: 2010.05.17/outbox.cif.g08.bks.cpg/sg2_301_cif.got.tgz:601217.got - 2010.06.03 11:33:40.
