data_PCOD9080258
_publ_section_title
;
Structure prediction by ZEFSAII (Michael W. Deem and Ramdas Pophale) SiO2 
 PCOD9080258
Probable space group: P -1
;
_chemical_formula_sum "Si O2"
_cell_formula_units_Z 14
_cell_length_a 10.750391
_cell_length_b 15.319026
_cell_length_c 18.539439
_cell_angle_alpha 159.352761
_cell_angle_beta 33.809051
_cell_angle_gamma 144.441683
_cell_volume 588.875935
_symmetry_space_group_name_H-M "P -1"
_symmetry_group_IT_number 2
_symmetry_cell_setting 'triclinic'
loop_
_space_group_symop_operation_xyz
x,y,z
-x,-y,-z
loop_
_atom_site_type_symbol
_atom_site_label
_atom_site_fract_x
_atom_site_fract_y
_atom_site_fract_z
Si Si1 0.659965 0.138224 0.765798
Si Si2 0.109316 0.781733 0.139408
Si Si3 0.377476 0.199219 0.620024
Si Si4 0.456163 0.359393 0.229642
Si Si5 0.641393 0.651926 0.113395
Si Si6 0.765184 0.221066 0.279340
Si Si7 0.005847 0.012373 0.128294
O O1 0.809462 0.077069 0.714686
O O2 0.630589 0.991956 0.590792
O O3 0.405364 0.049856 0.850525
O O4 0.742376 0.428196 0.930678
O O5 0.889558 0.870620 0.282774
O O6 0.319467 0.769781 0.975134
O O7 0.000000 0.500000 0.000000
O O8 0.472521 0.460997 0.735310
O O9 0.498092 0.247501 0.676842
O O10 0.384791 0.559693 0.476094
O O11 0.230385 0.156285 0.169854
O O12 0.810787 0.879224 0.171732
O O13 0.500000 0.500000 0.000000
O O14 0.927665 0.210623 0.125691
O O15 0.907414 0.205814 0.272235
#
# Coordination Sequence:
#
# PCOD9080258 Si02
#       7
#     2   2   2   2   2   2   2
#     4  11  20  41  63  91 118 154 205 243 298 353
#     4  10  18  38  68  88 117 151 203 258 286 342
#     4  10  23  39  65  91 115 158 202 251 295 345
#     4  10  20  38  62  88 112 151 208 245 292 346
#     4  12  24  40  58  88 128 159 191 244 304 359
#     4  10  21  37  61  87 114 159 201 245 289 350
#     4  11  22  37  58  84 125 159 191 246 294 353
#
# _framework density 23.774107999999998
#
# number of rings (size 3 to 8) (size 9 to 14) (size 15 to 20)
#    0.000    1.429    5.714    0.857    2.000    1.714 
#    0.000    0.714    0.000    1.714    0.000    0.000 
#    0.000    0.000    0.000    0.000    0.000    0.000 
#
# Total GULP energy -77980.927227 kJ/mol
# GULP energy per Si atom -5570.066230 kJ/mol
# Density = 2.372000 g / cm^3
# Si number density = 23.774108 Si / 1000 Ang^3
#
#
#
# Elastic Constant Matrix: (Units=GPa)
#
#
# Indices 1 2 3 4 5 6 
#
# 1 70.7244 6.7260 25.0701 0.7374 30.8103 3.9174
# 2 6.7260 76.1401 11.2103 1.1084 10.6548 15.6111
# 3 25.0701 11.2103 92.3102 -9.0056 27.9916 -4.1562
# 4 0.7374 1.1084 -9.0056 34.3437 -0.0832 5.8954
# 5 30.8103 10.6548 27.9916 -0.0832 32.3109 -7.3059
# 6 3.9174 15.6111 -4.1562 5.8954 -7.3059 36.0187
#
#
#
# Elastic Compliance Matrix: (Units=1/GPa)
#
#
# Indices 1 2 3 4 5 6 
#
# 1 0.027456 0.004001 0.001075 0.001394 -0.030937 -0.011099
# 2 0.004001 0.016440 0.000084 0.001108 -0.011587 -0.010083
# 3 0.001075 0.000084 0.015350 0.004323 -0.014814 -0.002095
# 4 0.001394 0.001108 0.004323 0.031310 -0.006862 -0.006650
# 5 -0.030937 -0.011587 -0.014814 -0.006862 0.082640 0.024563
# 6 -0.011099 -0.010083 -0.002095 -0.006650 0.024563 0.039169
#
#
# Mechanical properties :
#
#
# Convention : Reuss Voigt Hill
#
# Bulk Modulus (GPa) = 14.37458 36.13193 25.25326
# Shear Modulus (GPa) = 22.19916 33.61255 27.90586
#
# Velocity S-wave (km/s) = 3.05905 3.76417 3.42978
# Velocity P-wave (km/s) = 4.30541 5.84149 5.13125
#
# Compressibility (1/GPa) = 0.06956726
#
# Stress axis : x y z
#
# Youngs Moduli (GPa) = 36.42256 60.82605 65.14540
#
# Poissons Ratio (x) = -0.24337 -0.07003
# Poissons Ratio (y) = -0.14573 -0.00550
# Poissons Ratio (z) = -0.03915 -0.00514
#
# Static dielectric constant tensor:
#      x y z
#    x 2.020180 0.022650 -0.051690 
#    y 0.022650 1.846540 -0.009880 
#    z -0.051690 -0.009880 2.094530 
# 
# From -- ./inp_files/251465.got.cif
#   From: 2010.05.17/outbox.cif.g08.bks.cpg/sg2_126_cif.got.tgz:251465.got - 2010.06.03 11:33:40.
