data_PCOD9080497
_publ_section_title
;
Structure prediction by ZEFSAII (Michael W. Deem and Ramdas Pophale) SiO2 
 PCOD9080497
Probable space group: P -1
;
_chemical_formula_sum "Si O2"
_cell_formula_units_Z 16
_cell_length_a 9.325556
_cell_length_b 10.291722
_cell_length_c 11.279897
_cell_angle_alpha 52.746481
_cell_angle_beta 65.559892
_cell_angle_gamma 98.672409
_cell_volume 653.258875
_symmetry_space_group_name_H-M "P -1"
_symmetry_group_IT_number 2
_symmetry_cell_setting 'triclinic'
loop_
_space_group_symop_operation_xyz
x,y,z
-x,-y,-z
loop_
_atom_site_type_symbol
_atom_site_label
_atom_site_fract_x
_atom_site_fract_y
_atom_site_fract_z
Si Si1 0.828443 0.703433 0.148730
Si Si2 0.954771 0.660287 0.912869
Si Si3 0.114810 0.929689 0.214600
Si Si4 0.668723 0.652425 0.475289
Si Si5 0.353189 0.496550 0.209845
Si Si6 0.370884 0.997777 0.653575
Si Si7 0.221833 0.770445 0.068205
Si Si8 0.735662 0.785058 0.781854
O O1 0.789576 0.584514 0.108600
O O2 0.685964 0.619929 0.350045
O O3 0.022201 0.730592 0.113882
O O4 0.865639 0.904329 0.973225
O O5 0.867622 0.703596 0.809225
O O6 0.000000 0.500000 0.000000
O O7 0.153674 0.861765 0.758890
O O8 0.173960 0.016717 0.280334
O O9 0.240212 0.865216 0.139649
O O10 0.891738 0.765532 0.378413
O O11 0.579531 0.473101 0.694504
O O12 0.595618 0.794268 0.440122
O O13 0.216215 0.573212 0.197818
O O14 0.298046 0.278140 0.309534
O O15 0.532448 0.648540 0.985984
O O16 0.500000 0.000000 0.500000
O O17 0.364452 0.897989 0.839243
#
# Coordination Sequence:
#
# PCOD9080497 Si02
#       8
#     2   2   2   2   2   2   2   2
#     4   9  17  36  66  87 110 155 200 251 299 348
#     4  10  20  38  64  90 116 158 201 249 299 358
#     4  10  18  39  69  85 112 160 212 248 295 354
#     4  11  20  39  61  94 115 156 203 248 296 361
#     4  11  26  36  58  88 132 162 194 245 311 357
#     4  11  22  36  66  94 117 149 208 253 292 351
#     4  10  19  39  61  90 118 159 199 246 303 369
#     4  10  22  42  55  83 126 173 190 237 313 369
#
# _framework density 24.492588000000001
#
# number of rings (size 3 to 8) (size 9 to 14) (size 15 to 20)
#    0.000    1.750    5.000    2.250    5.250    3.000 
#    0.000    3.750    0.000    0.000    0.000    0.000 
#    0.000    0.000    0.000    0.000    0.000    0.000 
#
# Total GULP energy -89161.032413 kJ/mol
# GULP energy per Si atom -5572.564526 kJ/mol
# Density = 2.443684 g / cm^3
# Si number density = 24.492588 Si / 1000 Ang^3
#
#
#
# Elastic Constant Matrix: (Units=GPa)
#
#
# Indices 1 2 3 4 5 6 
#
# 1 46.2129 18.6576 13.8264 8.4048 -3.5369 -5.9168
# 2 18.6576 115.2274 29.1699 34.0847 3.7819 -17.9076
# 3 13.8264 29.1699 102.8544 39.2984 -3.8477 -21.2134
# 4 8.4048 34.0847 39.2984 43.2404 1.0284 -2.1002
# 5 -3.5369 3.7819 -3.8477 1.0284 39.2094 3.8454
# 6 -5.9168 -17.9076 -21.2134 -2.1002 3.8454 32.5750
#
#
#
# Elastic Compliance Matrix: (Units=1/GPa)
#
#
# Indices 1 2 3 4 5 6 
#
# 1 0.023855 -0.003149 -0.001801 -0.000514 0.002181 0.001139
# 2 -0.003149 0.013343 0.002836 -0.012050 -0.001765 0.008041
# 3 -0.001801 0.002836 0.018674 -0.018284 0.000686 0.012133
# 4 -0.000514 -0.012050 -0.018284 0.048603 -0.000439 -0.015439
# 5 0.002181 -0.001765 0.000686 -0.000439 0.026269 -0.003257
# 6 0.001139 0.008041 0.012133 -0.015439 -0.003257 0.042616
#
#
# Mechanical properties :
#
#
# Convention : Reuss Voigt Hill
#
# Bulk Modulus (GPa) = 19.36333 43.06694 31.21513
# Shear Modulus (GPa) = 25.66686 36.51435 31.09061
#
# Velocity S-wave (km/s) = 3.24071 3.86532 3.56671
# Velocity P-wave (km/s) = 4.68251 6.12721 5.45292
#
# Compressibility (1/GPa) = 0.05164402
#
# Stress axis : x y z
#
# Youngs Moduli (GPa) = 41.91918 74.94805 53.54921
#
# Poissons Ratio (x) = 0.23603 0.09643
# Poissons Ratio (y) = 0.13201 -0.15185
# Poissons Ratio (z) = 0.07548 -0.21254
#
# Static dielectric constant tensor:
#      x y z
#    x 2.446410 -0.034020 0.188530 
#    y -0.034020 2.132800 -0.041710 
#    z 0.188530 -0.041710 2.085650 
# 
# From -- ./inp_files/392039.got.cif
#   From: 2010.05.17/outbox.cif.g08.bks.cpg/sg2_197_cif.got.tgz:392039.got - 2010.06.03 11:33:40.
