data_PCOD9080446
_publ_section_title
;
Structure prediction by ZEFSAII (Michael W. Deem and Ramdas Pophale) SiO2 
 PCOD9080446
Probable space group: P -1
;
_chemical_formula_sum "Si O2"
_cell_formula_units_Z 16
_cell_length_a 17.645062
_cell_length_b 19.106879
_cell_length_c 11.397548
_cell_angle_alpha 38.136913
_cell_angle_beta 50.789323
_cell_angle_gamma 22.348475
_cell_volume 824.665078
_symmetry_space_group_name_H-M "P -1"
_symmetry_group_IT_number 2
_symmetry_cell_setting 'triclinic'
loop_
_space_group_symop_operation_xyz
x,y,z
-x,-y,-z
loop_
_atom_site_type_symbol
_atom_site_label
_atom_site_fract_x
_atom_site_fract_y
_atom_site_fract_z
Si Si1 0.792558 0.797023 0.332306
Si Si2 0.428559 0.187477 0.525874
Si Si3 0.064961 0.703687 0.099476
Si Si4 0.872160 0.798147 0.515491
Si Si5 0.657149 0.732282 0.221408
Si Si6 0.590948 0.552663 0.447340
Si Si7 0.863283 0.101620 0.612437
Si Si8 0.903297 0.220597 0.777986
O O1 0.588153 0.930319 0.325695
O O2 0.800462 0.827127 0.419416
O O3 0.000000 0.500000 0.500000
O O4 0.850615 0.845519 0.132101
O O5 0.278367 0.401374 0.288683
O O6 0.348825 0.286592 0.607256
O O7 0.667105 0.991862 0.542350
O O8 0.103740 0.716079 0.172521
O O9 0.018472 0.854207 0.859035
O O10 0.086706 0.510788 0.729535
O O11 0.950525 0.846629 0.356604
O O12 0.592703 0.687906 0.267796
O O13 0.500000 0.000000 0.000000
O O14 0.763615 0.310347 0.510872
O O15 0.353865 0.745241 0.407752
O O16 0.678705 0.435666 0.646190
O O17 0.000000 0.000000 0.500000
O O18 0.000000 0.000000 0.000000
#
# Coordination Sequence:
#
# PCOD9080446 Si02
#       8
#     2   2   2   2   2   2   2   2
#     4   9  17  36  61  85 124 158 200 264 318 366
#     4  11  21  38  63  95 123 160 217 269 315 381
#     4  10  20  39  65  93 124 170 208 263 325 376
#     4  10  21  37  60  93 122 156 215 263 311 382
#     4  11  24  42  64  88 131 174 209 265 331 380
#     4  10  23  44  64  90 131 168 213 266 326 379
#     4  11  25  43  65  95 132 168 217 264 324 389
#     4  10  18  39  66  89 120 166 209 262 319 373
#
# _framework density 19.401816
#
# number of rings (size 3 to 8) (size 9 to 14) (size 15 to 20)
#    0.000    1.750    6.250    0.375    1.750    3.500 
#    2.250    3.750    0.000    0.000    0.000    0.000 
#    0.000    0.000    0.000    0.000    0.000    0.000 
#
# Total GULP energy -89108.933051 kJ/mol
# GULP energy per Si atom -5569.308316 kJ/mol
# Density = 1.935766 g / cm^3
# Si number density = 19.401816 Si / 1000 Ang^3
#
#
#
# Elastic Constant Matrix: (Units=GPa)
#
#
# Indices 1 2 3 4 5 6 
#
# 1 98.7495 21.5175 32.6511 0.3440 -10.1765 -9.6362
# 2 21.5175 86.6928 40.4813 -5.4833 9.1139 -9.9172
# 3 32.6511 40.4813 142.2305 -10.8010 -4.5057 -1.3457
# 4 0.3440 -5.4833 -10.8010 19.6513 4.4266 5.9422
# 5 -10.1765 9.1139 -4.5057 4.4266 26.5108 -6.4443
# 6 -9.6362 -9.9172 -1.3457 5.9422 -6.4443 18.8544
#
#
#
# Elastic Compliance Matrix: (Units=1/GPa)
#
#
# Indices 1 2 3 4 5 6 
#
# 1 0.013660 -0.002377 -0.002650 -0.007987 0.009709 0.011377
# 2 -0.002377 0.015087 -0.003720 0.002575 -0.006314 0.003486
# 3 -0.002650 -0.003720 0.009058 0.005358 -0.000166 -0.004410
# 4 -0.007987 0.002575 0.005358 0.069358 -0.022363 -0.031848
# 5 0.009709 -0.006314 -0.000166 -0.022363 0.053913 0.027104
# 6 0.011377 0.003486 -0.004410 -0.031848 0.027104 0.079673
#
#
# Mechanical properties :
#
#
# Convention : Reuss Voigt Hill
#
# Bulk Modulus (GPa) = 49.23686 57.44138 53.33912
# Shear Modulus (GPa) = 18.86695 28.53815 23.70255
#
# Velocity S-wave (km/s) = 3.12177 3.83939 3.49903
# Velocity P-wave (km/s) = 6.19891 7.02318 6.62388
#
# Compressibility (1/GPa) = 0.02030999
#
# Stress axis : x y z
#
# Youngs Moduli (GPa) = 73.20847 66.28023 110.40019
#
# Poissons Ratio (x) = 0.15756 0.29261
# Poissons Ratio (y) = 0.17402 0.41068
# Poissons Ratio (z) = 0.19404 0.24656
#
# Static dielectric constant tensor:
#      x y z
#    x 1.828120 0.075500 -0.215320 
#    y 0.075500 1.748630 -0.143360 
#    z -0.215320 -0.143360 1.988180 
# 
# From -- ./inp_files/467045.got.cif
#   From: 2010.05.17/outbox.cif.g08.bks.cpg/sg2_234_cif.got.tgz:467045.got - 2010.06.03 11:33:40.
