data_PCOD9080998
_publ_section_title
;
Structure prediction by ZEFSAII (Michael W. Deem and Ramdas Pophale) SiO2 
 PCOD9080998
Probable space group: P -1
;
_chemical_formula_sum "Si O2"
_cell_formula_units_Z 16
_cell_length_a 15.255741
_cell_length_b 14.398783
_cell_length_c 14.334491
_cell_angle_alpha 31.436801
_cell_angle_beta 28.981773
_cell_angle_gamma 49.568434
_cell_volume 733.683417
_symmetry_space_group_name_H-M "P -1"
_symmetry_group_IT_number 2
_symmetry_cell_setting 'triclinic'
loop_
_space_group_symop_operation_xyz
x,y,z
-x,-y,-z
loop_
_atom_site_type_symbol
_atom_site_label
_atom_site_fract_x
_atom_site_fract_y
_atom_site_fract_z
Si Si1 0.640686 0.144759 0.948132
Si Si2 0.769320 0.806586 0.709029
Si Si3 0.550489 0.435159 0.129448
Si Si4 0.270384 0.933699 0.252664
Si Si5 0.559430 0.299207 0.444122
Si Si6 0.924543 0.231874 0.226432
Si Si7 0.766551 0.412335 0.776961
Si Si8 0.742646 0.657702 0.063458
O O1 0.773856 0.193814 0.690279
O O2 0.729347 0.255917 0.864280
O O3 0.443811 0.184674 0.079248
O O4 0.574314 0.916613 0.219205
O O5 0.908613 0.028662 0.368932
O O6 0.717725 0.651422 0.807207
O O7 0.824251 0.724595 0.823366
O O8 0.516349 0.341304 0.343405
O O9 0.349811 0.452945 0.265731
O O10 0.645495 0.337126 0.050308
O O11 0.165974 0.837349 0.527014
O O12 0.500000 0.000000 0.000000
O O13 0.253133 0.138394 0.080793
O O14 0.782383 0.308997 0.237743
O O15 0.557286 0.464715 0.375487
O O16 0.133160 0.387049 0.931043
O O17 0.000000 0.500000 0.500000
#
# Coordination Sequence:
#
# PCOD9080998 Si02
#       8
#     2   2   2   2   2   2   2   2
#     4  10  20  35  55  83 111 152 188 230 279 340
#     4   8  15  31  53  74 108 146 188 222 269 334
#     4   9  20  39  63  83 109 149 183 241 302 329
#     4  11  18  34  55  79 111 155 190 223 266 327
#     4  10  20  36  55  79 118 152 181 225 294 350
#     4  10  19  32  52  83 115 149 190 229 270 334
#     4  10  22  41  64  86 106 142 201 245 283 343
#     4  10  19  30  51  80 113 149 191 228 269 334
#
# _framework density 21.807770000000001
#
# number of rings (size 3 to 8) (size 9 to 14) (size 15 to 20)
#    0.000    2.250    3.750    1.875    0.000    4.000 
#    0.000    1.875    0.000    0.000    0.000    0.000 
#    0.000    0.000    0.000    0.000    0.000    0.000 
#
# Total GULP energy -89189.227862 kJ/mol
# GULP energy per Si atom -5574.326741 kJ/mol
# Density = 2.175813 g / cm^3
# Si number density = 21.807770 Si / 1000 Ang^3
#
#
#
# Elastic Constant Matrix: (Units=GPa)
#
#
# Indices 1 2 3 4 5 6 
#
# 1 116.2245 28.7139 22.8701 6.2158 -19.9039 2.1711
# 2 28.7139 73.0215 21.3323 -1.4986 -4.7651 20.1781
# 3 22.8701 21.3323 42.9820 3.7869 -9.9671 -1.8482
# 4 6.2158 -1.4986 3.7869 26.8339 -5.1022 -1.6047
# 5 -19.9039 -4.7651 -9.9671 -5.1022 30.8633 -2.8658
# 6 2.1711 20.1781 -1.8482 -1.6047 -2.8658 47.3245
#
#
#
# Elastic Compliance Matrix: (Units=1/GPa)
#
#
# Indices 1 2 3 4 5 6 
#
# 1 0.011002 -0.003550 -0.002632 -0.001238 0.005605 0.001203
# 2 -0.003550 0.020128 -0.009290 0.002226 -0.002637 -0.008866
# 3 -0.002632 -0.009290 0.031398 -0.002654 0.007094 0.005647
# 4 -0.001238 0.002226 -0.002654 0.039081 0.005209 0.000645
# 5 0.005605 -0.002637 0.007094 0.005209 0.039103 0.003689
# 6 0.001203 -0.008866 0.005647 0.000645 0.003689 0.025322
#
#
# Mechanical properties :
#
#
# Convention : Reuss Voigt Hill
#
# Bulk Modulus (GPa) = 31.65999 42.00672 36.83335
# Shear Modulus (GPa) = 24.09577 31.62514 27.86046
#
# Velocity S-wave (km/s) = 3.32764 3.81225 3.57816
# Velocity P-wave (km/s) = 5.41419 6.21947 5.83075
#
# Compressibility (1/GPa) = 0.03158561
#
# Stress axis : x y z
#
# Youngs Moduli (GPa) = 90.88871 49.68219 31.84897
#
# Poissons Ratio (x) = 0.17636 0.08383
# Poissons Ratio (y) = 0.32263 0.29587
# Poissons Ratio (z) = 0.23922 0.46153
#
# Static dielectric constant tensor:
#      x y z
#    x 1.829510 -0.044290 -0.033480 
#    y -0.044290 1.918830 -0.006390 
#    z -0.033480 -0.006390 1.912700 
# 
# From -- ./inp_files/534085.got.cif
#   From: 2010.05.17/outbox.cif.g08.bks.cpg/sg2_268_cif.got.tgz:534085.got - 2010.06.03 11:33:40.
