data_PCOD9080773
_publ_section_title
;
Structure prediction by ZEFSAII (Michael W. Deem and Ramdas Pophale) SiO2 
 PCOD9080773
Probable space group: P -1
;
_chemical_formula_sum "Si O2"
_cell_formula_units_Z 11
_cell_length_a 4.939552
_cell_length_b 8.837178
_cell_length_c 13.599039
_cell_angle_alpha 45.428654
_cell_angle_beta 75.002779
_cell_angle_gamma 88.982285
_cell_volume 396.729876
_symmetry_space_group_name_H-M "P -1"
_symmetry_group_IT_number 2
_symmetry_cell_setting 'triclinic'
loop_
_space_group_symop_operation_xyz
x,y,z
-x,-y,-z
loop_
_atom_site_type_symbol
_atom_site_label
_atom_site_fract_x
_atom_site_fract_y
_atom_site_fract_z
Si Si1 0.845708 0.814857 0.848924
Si Si2 0.500000 0.500000 0.500000
Si Si3 0.718133 0.101705 0.572441
Si Si4 0.437621 0.653040 0.222911
Si Si5 0.743862 0.147723 0.025493
Si Si6 0.227497 0.693712 0.724969
O O1 0.515168 0.779422 0.926172
O O2 0.017045 0.855196 0.915319
O O3 0.966222 0.644452 0.849339
O O4 0.902530 0.024401 0.675419
O O5 0.567010 0.279617 0.549810
O O6 0.347870 0.547098 0.384873
O O7 0.874882 0.213217 0.408930
O O8 0.477251 0.888256 0.658772
O O9 0.617993 0.499561 0.223872
O O10 0.630308 0.896397 0.116385
O O11 0.201927 0.703143 0.145864
#
# Coordination Sequence:
#
# PCOD9080773 Si02
#       6
#     2   1   2   2   2   2
#     4  12  22  47  69  99 140 186 219 292 334 418
#     4  10  18  44  74  96 138 178 236 272 348 394
#     4  10  21  42  70 104 137 182 228 287 336 413
#     4  10  23  45  69 106 132 189 224 291 331 419
#     4  11  26  46  72  98 145 176 239 269 352 401
#     4  10  22  42  71 102 143 175 235 281 347 397
#
# _framework density 27.726676999999999
#
# number of rings (size 3 to 8) (size 9 to 14) (size 15 to 20)
#    0.000    1.455    3.636    0.545    0.000    4.364 
#    6.545    8.182    0.000    0.000    0.000    0.000 
#    0.000    0.000    0.000    0.000    0.000    0.000 
#
# Total GULP energy -61509.218921 kJ/mol
# GULP energy per Si atom -5591.747175 kJ/mol
# Density = 2.766357 g / cm^3
# Si number density = 27.726677 Si / 1000 Ang^3
#
#
#
# Elastic Constant Matrix: (Units=GPa)
#
#
# Indices 1 2 3 4 5 6 
#
# 1 117.4894 45.8370 60.4249 4.8084 18.6363 4.7184
# 2 45.8370 166.2945 59.5749 2.6250 -18.0534 -2.3317
# 3 60.4249 59.5749 229.9927 24.4325 61.1179 23.2217
# 4 4.8084 2.6250 24.4325 46.4091 16.8936 11.3801
# 5 18.6363 -18.0534 61.1179 16.8936 50.3277 14.0132
# 6 4.7184 -2.3317 23.2217 11.3801 14.0132 31.4431
#
#
#
# Elastic Compliance Matrix: (Units=1/GPa)
#
#
# Indices 1 2 3 4 5 6 
#
# 1 0.010897 -0.003104 -0.001065 0.001074 -0.004346 0.000470
# 2 -0.003104 0.009505 -0.004191 -0.001799 0.010141 0.000397
# 3 -0.001065 -0.004191 0.008931 0.000273 -0.011577 -0.001686
# 4 0.001074 -0.001799 0.000273 0.025951 -0.008371 -0.006158
# 5 -0.004346 0.010141 -0.011577 -0.008371 0.043807 -0.006539
# 6 0.000470 0.000397 -0.001686 -0.006158 -0.006539 0.038151
#
#
# Mechanical properties :
#
#
# Convention : Reuss Voigt Hill
#
# Bulk Modulus (GPa) = 79.28405 93.93890 86.61147
# Shear Modulus (GPa) = 31.61220 48.83196 40.22208
#
# Velocity S-wave (km/s) = 3.38025 4.20121 3.81289
# Velocity P-wave (km/s) = 6.62509 7.58204 7.11966
#
# Compressibility (1/GPa) = 0.01261288
#
# Stress axis : x y z
#
# Youngs Moduli (GPa) = 91.76869 105.20497 111.96998
#
# Poissons Ratio (x) = 0.32657 0.11930
# Poissons Ratio (y) = 0.28486 0.46922
# Poissons Ratio (z) = 0.09778 0.44087
#
# Static dielectric constant tensor:
#      x y z
#    x 2.194720 0.005820 -0.072260 
#    y 0.005820 2.102610 0.002820 
#    z -0.072260 0.002820 2.140660 
# 
# From -- ./inp_files/478337.got.cif
#   From: 2010.05.17/outbox.cif.g08.bks.cpg/sg2_240_cif.got.tgz:478337.got - 2010.06.03 11:33:40.
