data_PCOD9080686
_publ_section_title
;
Structure prediction by ZEFSAII (Michael W. Deem and Ramdas Pophale) SiO2 
 PCOD9080686
Probable space group: P -1
;
_chemical_formula_sum "Si O2"
_cell_formula_units_Z 16
_cell_length_a 17.857274
_cell_length_b 7.258608
_cell_length_c 9.852411
_cell_angle_alpha 123.332270
_cell_angle_beta 136.394047
_cell_angle_gamma 45.504833
_cell_volume 625.974919
_symmetry_space_group_name_H-M "P -1"
_symmetry_group_IT_number 2
_symmetry_cell_setting 'triclinic'
loop_
_space_group_symop_operation_xyz
x,y,z
-x,-y,-z
loop_
_atom_site_type_symbol
_atom_site_label
_atom_site_fract_x
_atom_site_fract_y
_atom_site_fract_z
Si Si1 0.401664 0.405275 0.726683
Si Si2 0.964089 0.813971 0.466147
Si Si3 0.671748 0.023257 0.229246
Si Si4 0.660765 0.314180 0.986010
Si Si5 0.895836 0.752696 0.090532
Si Si6 0.563916 0.721197 0.800428
Si Si7 0.964687 0.059681 0.822371
Si Si8 0.283689 0.441371 0.321474
O O1 0.372704 0.691975 0.769447
O O2 0.552169 0.243462 0.835918
O O3 0.326010 0.349798 0.493858
O O4 0.360517 0.452226 0.847341
O O5 0.982912 0.627208 0.288297
O O6 0.823775 0.877932 0.356093
O O7 0.017572 0.819642 0.687941
O O8 0.000000 0.000000 0.500000
O O9 0.585979 0.105035 0.287225
O O10 0.624993 0.873057 0.011864
O O11 0.636118 0.440929 0.857025
O O12 0.791611 0.061561 0.096477
O O13 0.979500 0.766544 0.086819
O O14 0.803834 0.652890 0.894591
O O15 0.595478 0.663680 0.660604
O O16 0.811736 0.247123 0.679537
O O17 0.000000 0.000000 0.000000
#
# Coordination Sequence:
#
# PCOD9080686 Si02
#       8
#     2   2   2   2   2   2   2   2
#     4  10  21  37  63  85 127 163 201 246 305 366
#     4  10  20  40  70  82 115 173 206 242 304 374
#     4  10  18  41  59  92 117 166 201 241 303 379
#     4  10  20  39  58  91 122 162 206 250 292 363
#     4  11  22  41  65  86 124 169 205 243 301 378
#     4  10  22  34  66  89 126 155 202 253 304 363
#     4  11  24  42  63  90 122 156 207 268 305 346
#     4  12  22  41  60  94 122 165 200 248 315 369
#
# _framework density 25.560131999999999
#
# number of rings (size 3 to 8) (size 9 to 14) (size 15 to 20)
#    0.000    1.500    3.750    1.125    0.000    2.500 
#    4.500    0.625    0.000    0.000    0.000    0.000 
#    0.000    0.000    0.000    0.000    0.000    0.000 
#
# Total GULP energy -89206.250244 kJ/mol
# GULP energy per Si atom -5575.390640 kJ/mol
# Density = 2.550196 g / cm^3
# Si number density = 25.560132 Si / 1000 Ang^3
#
#
#
# Elastic Constant Matrix: (Units=GPa)
#
#
# Indices 1 2 3 4 5 6 
#
# 1 108.3289 8.3815 29.7273 3.4203 -16.4994 -21.4057
# 2 8.3815 46.6686 -9.1888 -0.1717 -6.3998 -1.0062
# 3 29.7273 -9.1888 140.0949 5.6720 -27.5729 6.0122
# 4 3.4203 -0.1717 5.6720 24.5031 1.9493 2.3488
# 5 -16.4994 -6.3998 -27.5729 1.9493 47.4349 -4.1545
# 6 -21.4057 -1.0062 6.0122 2.3488 -4.1545 34.1801
#
#
#
# Elastic Compliance Matrix: (Units=1/GPa)
#
#
# Indices 1 2 3 4 5 6 
#
# 1 0.012352 -0.002018 -0.002340 -0.002308 0.003519 0.008674
# 2 -0.002018 0.022859 0.002747 -0.000454 0.003948 -0.000563
# 3 -0.002340 0.002747 0.008893 -0.001862 0.004605 -0.002261
# 4 -0.002308 -0.000454 -0.001862 0.042321 -0.004083 -0.004536
# 5 0.003519 0.003948 0.004605 -0.004083 0.026118 0.004965
# 6 0.008674 -0.000563 -0.002261 -0.004536 0.004965 0.035985
#
#
# Mechanical properties :
#
#
# Convention : Reuss Voigt Hill
#
# Bulk Modulus (GPa) = 24.45994 39.21470 31.83732
# Shear Modulus (GPa) = 30.23399 38.96844 34.60121
#
# Velocity S-wave (km/s) = 3.44300 3.90882 3.68328
# Velocity P-wave (km/s) = 5.03945 5.97890 5.52916
#
# Compressibility (1/GPa) = 0.04088318
#
# Stress axis : x y z
#
# Youngs Moduli (GPa) = 80.95768 43.74714 112.44264
#
# Poissons Ratio (x) = 0.08828 0.26308
# Poissons Ratio (y) = 0.16337 -0.30890
# Poissons Ratio (z) = 0.18941 -0.12018
#
# Static dielectric constant tensor:
#      x y z
#    x 2.100550 -0.050310 -0.036980 
#    y -0.050310 2.164940 0.046760 
#    z -0.036980 0.046760 2.079740 
# 
# From -- ./inp_files/329483.got.cif
#   From: 2010.05.17/outbox.cif.g08.bks.cpg/sg2_165_cif.got.tgz:329483.got - 2010.06.03 11:33:40.
