data_PCOD9080292
_publ_section_title
;
Structure prediction by ZEFSAII (Michael W. Deem and Ramdas Pophale) SiO2 
 PCOD9080292
Probable space group: P -1
;
_chemical_formula_sum "Si O2"
_cell_formula_units_Z 16
_cell_length_a 7.945611
_cell_length_b 16.475011
_cell_length_c 17.274207
_cell_angle_alpha 155.329466
_cell_angle_beta 57.713542
_cell_angle_gamma 110.108887
_cell_volume 730.865599
_symmetry_space_group_name_H-M "P -1"
_symmetry_group_IT_number 2
_symmetry_cell_setting 'triclinic'
loop_
_space_group_symop_operation_xyz
x,y,z
-x,-y,-z
loop_
_atom_site_type_symbol
_atom_site_label
_atom_site_fract_x
_atom_site_fract_y
_atom_site_fract_z
Si Si1 0.997772 0.073079 0.975054
Si Si2 0.995477 0.732953 0.186691
Si Si3 0.694214 0.059710 0.674993
Si Si4 0.126465 0.470559 0.561680
Si Si5 0.549460 0.180459 0.423640
Si Si6 0.655355 0.569940 0.697436
Si Si7 0.648909 0.935112 0.331398
Si Si8 0.663016 0.984447 0.876423
O O1 0.873631 0.324414 0.218739
O O2 0.875851 0.981326 0.865685
O O3 0.000000 0.000000 0.000000
O O4 0.246821 0.991054 0.819545
O O5 0.886350 0.805962 0.192947
O O6 0.212666 0.776669 0.174575
O O7 0.848841 0.901244 0.433744
O O8 0.000000 0.500000 0.000000
O O9 0.459553 0.185054 0.800802
O O10 0.649018 0.893115 0.597351
O O11 0.244903 0.456554 0.437245
O O12 0.873130 0.516182 0.648354
O O13 0.259330 0.249980 0.380356
O O14 0.544928 0.404884 0.595137
O O15 0.614469 0.137615 0.462121
O O16 0.472298 0.806748 0.957889
O O17 0.500000 0.000000 0.500000
O O18 0.500000 0.000000 0.000000
#
# Coordination Sequence:
#
# PCOD9080292 Si02
#       8
#     2   2   2   2   2   2   2   2
#     4  12  21  39  64  86 129 177 212 270 331 379
#     4  10  18  38  69  94 121 170 210 262 338 400
#     4   8  20  39  61  92 128 155 215 267 318 401
#     4  10  20  39  61  86 122 170 219 265 328 374
#     4  10  20  41  61  89 131 169 220 272 327 401
#     4  10  19  40  64  83 127 172 213 278 321 386
#     4   8  18  39  63  88 126 165 202 270 332 377
#     4  10  22  38  60  90 120 171 228 269 319 390
#
# _framework density 21.891850999999999
#
# number of rings (size 3 to 8) (size 9 to 14) (size 15 to 20)
#    0.750    1.500    2.500    1.500    0.000    2.500 
#    6.750    2.500    2.750    0.000    0.000    0.000 
#    0.000    0.000    0.000    0.000    0.000    0.000 
#
# Total GULP energy -89158.068727 kJ/mol
# GULP energy per Si atom -5572.379295 kJ/mol
# Density = 2.184202 g / cm^3
# Si number density = 21.891851 Si / 1000 Ang^3
#
#
#
# Elastic Constant Matrix: (Units=GPa)
#
#
# Indices 1 2 3 4 5 6 
#
# 1 101.5236 40.8230 17.3735 27.1430 -2.0708 20.9220
# 2 40.8230 99.0770 29.9080 20.9086 0.7178 10.6506
# 3 17.3735 29.9080 115.4476 41.2530 1.5273 -2.4519
# 4 27.1430 20.9086 41.2530 38.4888 3.7108 5.4213
# 5 -2.0708 0.7178 1.5273 3.7108 23.7434 6.3513
# 6 20.9220 10.6506 -2.4519 5.4213 6.3513 33.2819
#
#
#
# Elastic Compliance Matrix: (Units=1/GPa)
#
#
# Indices 1 2 3 4 5 6 
#
# 1 0.015618 -0.004101 0.002297 -0.010669 0.005028 -0.007558
# 2 -0.004101 0.012938 -0.002207 -0.001566 0.000033 -0.001476
# 3 0.002297 -0.002207 0.015028 -0.017055 0.001184 0.002921
# 4 -0.010669 -0.001566 -0.017055 0.053570 -0.007815 -0.001283
# 5 0.005028 0.000033 0.001184 -0.007815 0.046561 -0.010696
# 6 -0.007558 -0.001476 0.002921 -0.001283 -0.010696 0.037735
#
#
# Mechanical properties :
#
#
# Convention : Reuss Voigt Hill
#
# Bulk Modulus (GPa) = 28.11828 54.69525 41.40676
# Shear Modulus (GPa) = 24.83523 34.29908 29.56715
#
# Velocity S-wave (km/s) = 3.37181 3.96251 3.67904
# Velocity P-wave (km/s) = 5.29442 6.78041 6.08296
#
# Compressibility (1/GPa) = 0.03556405
#
# Stress axis : x y z
#
# Youngs Moduli (GPa) = 64.02690 77.29124 66.54045
#
# Poissons Ratio (x) = 0.31699 -0.15287
# Poissons Ratio (y) = 0.26259 0.14683
# Poissons Ratio (z) = -0.14710 0.17055
#
# Static dielectric constant tensor:
#      x y z
#    x 2.126360 -0.069660 0.032710 
#    y -0.069660 1.840110 -0.034850 
#    z 0.032710 -0.034850 1.778490 
# 
# From -- ./inp_files/608576.got.cif
#   From: 2010.05.17/outbox.cif.g08.bks.cpg/sg2_305_cif.got.tgz:608576.got - 2010.06.03 11:33:40.
