data_PCOD9080182
_publ_section_title
;
Structure prediction by ZEFSAII (Michael W. Deem and Ramdas Pophale) SiO2 
 PCOD9080182
Probable space group: P -1
;
_chemical_formula_sum "Si O2"
_cell_formula_units_Z 16
_cell_length_a 15.552283
_cell_length_b 13.047279
_cell_length_c 10.075696
_cell_angle_alpha 35.870584
_cell_angle_beta 117.536282
_cell_angle_gamma 139.209858
_cell_volume 718.994071
_symmetry_space_group_name_H-M "P -1"
_symmetry_group_IT_number 2
_symmetry_cell_setting 'triclinic'
loop_
_space_group_symop_operation_xyz
x,y,z
-x,-y,-z
loop_
_atom_site_type_symbol
_atom_site_label
_atom_site_fract_x
_atom_site_fract_y
_atom_site_fract_z
Si Si1 0.362796 0.260469 0.350613
Si Si2 0.196347 0.903305 0.269822
Si Si3 0.775915 0.686468 0.004151
Si Si4 0.392063 0.814106 0.000163
Si Si5 0.793063 0.128678 0.125618
Si Si6 0.565937 0.735815 0.145552
Si Si7 0.488692 0.848502 0.532971
Si Si8 0.033977 0.385226 0.829876
O O1 0.501360 0.469110 0.325869
O O2 0.414093 0.196357 0.339848
O O3 0.238188 0.014907 0.609904
O O4 0.315515 0.374181 0.125223
O O5 0.153167 0.689467 0.562151
O O6 0.079645 0.750795 0.227977
O O7 0.184139 0.077888 0.145480
O O8 0.345114 0.073872 0.117304
O O9 0.673141 0.436378 0.287919
O O10 0.900773 0.722012 0.012665
O O11 0.246836 0.720536 0.033894
O O12 0.452760 0.986755 0.731165
O O13 0.421261 0.649338 0.170581
O O14 0.500000 0.000000 0.000000
O O15 0.677034 0.898760 0.175619
O O16 0.947669 0.310368 0.981100
O O17 0.500000 0.000000 0.500000
#
# Coordination Sequence:
#
# PCOD9080182 Si02
#       8
#     2   2   2   2   2   2   2   2
#     4  11  23  38  61  96 129 160 208 267 325 384
#     4  10  22  42  66  92 122 164 218 269 308 380
#     4  12  24  38  64  95 129 164 216 258 321 381
#     4   9  19  36  61  92 121 161 210 257 323 371
#     4   9  21  41  60  88 128 168 212 253 314 386
#     4  10  18  38  65  93 123 157 208 271 324 370
#     4  11  23  38  64  94 132 167 205 269 333 381
#     4  10  23  43  64  87 126 172 215 258 314 371
#
# _framework density 22.253312999999999
#
# number of rings (size 3 to 8) (size 9 to 14) (size 15 to 20)
#    0.000    1.750    1.250    2.625    3.500    1.500 
#    2.250    0.625    0.000    0.000    0.000    0.000 
#    0.000    0.000    0.000    0.000    0.000    0.000 
#
# Total GULP energy -89349.604178 kJ/mol
# GULP energy per Si atom -5584.350261 kJ/mol
# Density = 2.220266 g / cm^3
# Si number density = 22.253313 Si / 1000 Ang^3
#
#
#
# Elastic Constant Matrix: (Units=GPa)
#
#
# Indices 1 2 3 4 5 6 
#
# 1 169.7875 12.1303 32.0474 -1.7716 -8.9710 -14.1966
# 2 12.1303 47.1717 3.4246 -7.5341 -4.1297 -21.5771
# 3 32.0474 3.4246 51.2248 -0.6598 -13.8806 -7.3071
# 4 -1.7716 -7.5341 -0.6598 31.9907 -3.6452 3.2381
# 5 -8.9710 -4.1297 -13.8806 -3.6452 37.8193 1.1348
# 6 -14.1966 -21.5771 -7.3071 3.2381 1.1348 33.5786
#
#
#
# Elastic Compliance Matrix: (Units=1/GPa)
#
#
# Indices 1 2 3 4 5 6 
#
# 1 0.006827 -0.000774 -0.003998 -0.000039 0.000018 0.001523
# 2 -0.000774 0.031573 0.002385 0.005910 0.004116 0.019771
# 3 -0.003998 0.002385 0.024851 0.001322 0.008415 0.004838
# 4 -0.000039 0.005910 0.001322 0.033091 0.004289 0.000733
# 5 0.000018 0.004116 0.008415 0.004289 0.030306 0.003046
# 6 0.001523 0.019771 0.004838 0.000733 0.003046 0.044008
#
#
# Mechanical properties :
#
#
# Convention : Reuss Voigt Hill
#
# Bulk Modulus (GPa) = 17.10048 40.37651 28.73850
# Shear Modulus (GPa) = 25.65124 35.38317 30.51721
#
# Velocity S-wave (km/s) = 3.39882 3.99183 3.70720
# Velocity P-wave (km/s) = 4.80664 6.27931 5.59167
#
# Compressibility (1/GPa) = 0.05847790
#
# Stress axis : x y z
#
# Youngs Moduli (GPa) = 146.46677 31.67286 40.23963
#
# Poissons Ratio (x) = 0.02450 0.16088
# Poissons Ratio (y) = 0.11330 -0.09597
# Poissons Ratio (z) = 0.58559 -0.07554
#
# Static dielectric constant tensor:
#      x y z
#    x 1.845140 0.002800 0.021610 
#    y 0.002800 1.850830 0.004080 
#    z 0.021610 0.004080 1.818210 
# 
# From -- ./inp_files/306312.got.cif
#   From: 2010.05.17/outbox.cif.g08.bks.cpg/sg2_154_cif.got.tgz:306312.got - 2010.06.03 11:33:40.
