data_PCOD9080386
_publ_section_title
;
Structure prediction by ZEFSAII (Michael W. Deem and Ramdas Pophale) SiO2 
 PCOD9080386
Probable space group: P -1
;
_chemical_formula_sum "Si O2"
_cell_formula_units_Z 14
_cell_length_a 16.124373
_cell_length_b 9.778033
_cell_length_c 6.175818
_cell_angle_alpha 129.489702
_cell_angle_beta 101.814372
_cell_angle_gamma 63.238133
_cell_volume 666.235177
_symmetry_space_group_name_H-M "P -1"
_symmetry_group_IT_number 2
_symmetry_cell_setting 'triclinic'
loop_
_space_group_symop_operation_xyz
x,y,z
-x,-y,-z
loop_
_atom_site_type_symbol
_atom_site_label
_atom_site_fract_x
_atom_site_fract_y
_atom_site_fract_z
Si Si1 0.282761 0.574068 0.334906
Si Si2 0.858649 0.469246 0.119636
Si Si3 0.562862 0.532185 0.380626
Si Si4 0.957263 0.864994 0.222202
Si Si5 0.204885 0.099292 0.507486
Si Si6 0.387059 0.762922 0.274545
Si Si7 0.850026 0.146853 0.106362
O O1 0.355393 0.436839 0.416327
O O2 0.340842 0.648364 0.279996
O O3 0.213933 0.755218 0.622799
O O4 0.218200 0.508796 0.084503
O O5 0.831570 0.687700 0.401975
O O6 0.859070 0.324876 0.166375
O O7 0.961868 0.353481 0.959622
O O8 0.500000 0.500000 0.500000
O O9 0.491522 0.702834 0.361141
O O10 0.603110 0.336496 0.056484
O O11 0.864693 0.875008 0.302222
O O12 0.934142 0.961098 0.069635
O O13 0.000000 0.000000 0.500000
O O14 0.316428 0.989996 0.494575
O O15 0.191513 0.946567 0.187302
#
# Coordination Sequence:
#
# PCOD9080386 Si02
#       7
#     2   2   2   2   2   2   2
#     4  11  19  40  65  90 126 169 212 259 316 376
#     4  12  26  40  63  97 130 168 219 265 314 378
#     4   9  19  32  69  96 121 164 214 257 317 384
#     4  12  23  44  66  89 129 174 216 264 316 373
#     4  12  25  41  65  96 131 167 214 267 317 379
#     4  10  18  39  62  97 125 165 212 261 317 380
#     4  12  22  42  65  87 129 172 213 260 320 373
#
# _framework density 21.013598999999999
#
# number of rings (size 3 to 8) (size 9 to 14) (size 15 to 20)
#    0.000    0.857    7.143    0.857    0.000    1.714 
#    0.000    0.714    0.000   12.000    0.000    0.000 
#    0.000    0.000    0.000    0.000    0.000    0.000 
#
# Total GULP energy -78075.999198 kJ/mol
# GULP energy per Si atom -5576.857086 kJ/mol
# Density = 2.096577 g / cm^3
# Si number density = 21.013599 Si / 1000 Ang^3
#
#
#
# Elastic Constant Matrix: (Units=GPa)
#
#
# Indices 1 2 3 4 5 6 
#
# 1 63.3470 40.1219 22.2862 4.9745 -22.4268 -14.9610
# 2 40.1219 108.4525 24.9359 14.1380 2.1483 -18.9683
# 3 22.2862 24.9359 38.5147 7.9196 -37.2035 18.7247
# 4 4.9745 14.1380 7.9196 45.7792 -5.3500 -2.5014
# 5 -22.4268 2.1483 -37.2035 -5.3500 23.5738 5.0235
# 6 -14.9610 -18.9683 18.7247 -2.5014 5.0235 33.6242
#
#
#
# Elastic Compliance Matrix: (Units=1/GPa)
#
#
# Indices 1 2 3 4 5 6 
#
# 1 0.030955 -0.006986 -0.010830 0.002688 0.010516 0.014493
# 2 -0.006986 0.008795 0.010009 -0.002947 0.008799 -0.005255
# 3 -0.010830 0.010009 -0.012076 -0.003078 -0.033603 0.012344
# 4 0.002688 -0.002947 -0.003078 0.023456 0.002742 0.002583
# 5 0.010516 0.008799 -0.033603 0.002742 -0.007098 0.029620
# 6 0.014493 -0.005255 0.012344 0.002583 0.029620 0.022117
#
#
# Mechanical properties :
#
#
# Convention : Reuss Voigt Hill
#
# Bulk Modulus (GPa) = 82.91973 42.77801 62.84887
# Shear Modulus (GPa) = 58.28657 28.79346 43.54002
#
# Velocity S-wave (km/s) = 5.27236 3.70568 4.55685
# Velocity P-wave (km/s) = 8.75268 6.22181 7.59343
#
# Compressibility (1/GPa) = 0.01205986
#
# Stress axis : x y z
#
# Youngs Moduli (GPa) = 32.30448 113.70686 -82.80761
#
# Poissons Ratio (x) = 0.79433 -0.89682
# Poissons Ratio (y) = 0.22567 0.82882
# Poissons Ratio (z) = 0.34986 -1.13809
#
# Static dielectric constant tensor:
#      x y z
#    x 1.857400 -0.093260 0.001090 
#    y -0.093260 1.831410 -0.025070 
#    z 0.001090 -0.025070 1.740020 
# 
# From -- ./inp_files/45674.got.cif
#   From: 2010.05.17/outbox.cif.g08.bks.cpg/sg2_23_cif.got.tgz:45674.got - 2010.06.03 11:33:40.
