data_PCOD9080323
_publ_section_title
;
Structure prediction by ZEFSAII (Michael W. Deem and Ramdas Pophale) SiO2 
 PCOD9080323
Probable space group: P -1
;
_chemical_formula_sum "Si O2"
_cell_formula_units_Z 15
_cell_length_a 11.785674
_cell_length_b 10.176690
_cell_length_c 10.416375
_cell_angle_alpha 136.749171
_cell_angle_beta 123.816125
_cell_angle_gamma 73.326004
_cell_volume 695.656466
_symmetry_space_group_name_H-M "P -1"
_symmetry_group_IT_number 2
_symmetry_cell_setting 'triclinic'
loop_
_space_group_symop_operation_xyz
x,y,z
-x,-y,-z
loop_
_atom_site_type_symbol
_atom_site_label
_atom_site_fract_x
_atom_site_fract_y
_atom_site_fract_z
Si Si1 0.640598 0.453084 0.458448
Si Si2 0.925263 0.038242 0.349195
Si Si3 0.656743 0.041600 0.574034
Si Si4 0.054673 0.886516 0.070996
Si Si5 0.651572 0.835686 0.165337
Si Si6 0.500000 0.000000 0.000000
Si Si7 0.625078 0.444599 0.728282
Si Si8 0.056915 0.524290 0.410523
O O1 0.554439 0.228420 0.251774
O O2 0.686822 0.514539 0.677077
O O3 0.539810 0.582409 0.425651
O O4 0.778825 0.469521 0.476627
O O5 0.958065 0.268234 0.507264
O O6 0.760377 0.962084 0.220649
O O7 0.000000 0.000000 0.500000
O O8 0.979189 0.932962 0.187419
O O9 0.779349 0.046853 0.757035
O O10 0.675941 0.254104 0.669744
O O11 0.500000 0.000000 0.500000
O O12 0.678653 0.891933 0.368773
O O13 0.016605 0.657478 0.850992
O O14 0.000000 0.000000 0.000000
O O15 0.511418 0.902697 0.081310
O O16 0.654675 0.614175 0.974158
O O17 0.000000 0.500000 0.500000
#
# Coordination Sequence:
#
# PCOD9080323 Si02
#       8
#     2   2   2   2   2   1   2   2
#     4  10  21  42  71 108 139 184 246 297 360 444
#     4  12  25  46  77 102 146 191 248 309 357 449
#     4  12  28  46  70 103 150 189 247 307 370 437
#     4  12  29  49  72 108 147 198 248 304 383 442
#     4  11  23  43  70 105 138 187 244 299 364 431
#     4  10  18  38  74 100 140 172 236 294 352 422
#     4  10  23  43  71 104 139 187 242 309 358 436
#     4  12  26  46  73 106 151 194 244 304 379 448
#
# _framework density 21.562366999999998
#
# number of rings (size 3 to 8) (size 9 to 14) (size 15 to 20)
#    0.000    0.800    5.333    0.800    3.733    4.267 
#    0.000    0.000    0.000    0.000    0.000    0.000 
#    0.000    0.000    0.000    0.000    0.000    0.000 
#
# Total GULP energy -83600.423581 kJ/mol
# GULP energy per Si atom -5573.361572 kJ/mol
# Density = 2.151329 g / cm^3
# Si number density = 21.562367 Si / 1000 Ang^3
#
#
#
# Elastic Constant Matrix: (Units=GPa)
#
#
# Indices 1 2 3 4 5 6 
#
# 1 131.2321 34.4132 46.7916 -1.9615 -20.1050 9.1734
# 2 34.4132 70.0919 32.1755 -25.7176 1.5727 -2.9521
# 3 46.7916 32.1755 141.7933 3.7548 -24.1481 3.0768
# 4 -1.9615 -25.7176 3.7548 27.2339 0.4755 1.5943
# 5 -20.1050 1.5727 -24.1481 0.4755 25.2155 -2.8919
# 6 9.1734 -2.9521 3.0768 1.5943 -2.8919 24.5761
#
#
#
# Elastic Compliance Matrix: (Units=1/GPa)
#
#
# Indices 1 2 3 4 5 6 
#
# 1 0.011501 -0.008792 0.000100 -0.007434 0.009523 -0.003759
# 2 -0.008792 0.036517 -0.009586 0.035241 -0.018629 0.004390
# 3 0.000100 -0.009586 0.011509 -0.010807 0.011842 -0.000535
# 4 -0.007434 0.035241 -0.010807 0.071212 -0.019655 0.001429
# 5 0.009523 -0.018629 0.011842 -0.019655 0.060250 0.001090
# 6 -0.003759 0.004390 -0.000535 0.001429 0.001090 0.042723
#
#
# Mechanical properties :
#
#
# Convention : Reuss Voigt Hill
#
# Bulk Modulus (GPa) = 43.53315 63.31976 53.42646
# Shear Modulus (GPa) = 17.99045 30.72089 24.35567
#
# Velocity S-wave (km/s) = 2.89164 3.77868 3.36452
# Velocity P-wave (km/s) = 5.60196 6.96186 6.31860
#
# Compressibility (1/GPa) = 0.02297100
#
# Stress axis : x y z
#
# Youngs Moduli (GPa) = 86.95254 27.38414 86.88601
#
# Poissons Ratio (x) = 0.24077 -0.00871
# Poissons Ratio (y) = 0.76451 0.83290
# Poissons Ratio (z) = -0.00871 0.26251
#
# Static dielectric constant tensor:
#      x y z
#    x 2.758010 -0.138780 -0.041940 
#    y -0.138780 1.786580 -0.012580 
#    z -0.041940 -0.012580 1.856190 
# 
# From -- ./inp_files/246215.got.cif
#   From: 2010.05.17/outbox.cif.g08.bks.cpg/sg2_124_cif.got.tgz:246215.got - 2010.06.03 11:33:40.
