data_PCOD9080846
_publ_section_title
;
Structure prediction by ZEFSAII (Michael W. Deem and Ramdas Pophale) SiO2 
 PCOD9080846
Probable space group: P -1
;
_chemical_formula_sum "Si O2"
_cell_formula_units_Z 12
_cell_length_a 7.111335
_cell_length_b 9.283404
_cell_length_c 9.835915
_cell_angle_alpha 81.819168
_cell_angle_beta 106.109163
_cell_angle_gamma 120.327187
_cell_volume 538.473674
_symmetry_space_group_name_H-M "P -1"
_symmetry_group_IT_number 2
_symmetry_cell_setting 'triclinic'
loop_
_space_group_symop_operation_xyz
x,y,z
-x,-y,-z
loop_
_atom_site_type_symbol
_atom_site_label
_atom_site_fract_x
_atom_site_fract_y
_atom_site_fract_z
Si Si1 0.793818 0.662211 0.436980
Si Si2 0.117787 0.909936 0.261203
Si Si3 0.718248 0.224680 0.928086
Si Si4 0.641936 0.910930 0.461140
Si Si5 0.304719 0.571774 0.323899
Si Si6 0.218894 0.949399 0.809182
O O1 0.795274 0.821399 0.486392
O O2 0.530330 0.553858 0.353167
O O3 0.844072 0.564129 0.576933
O O4 0.952208 0.737348 0.329686
O O5 0.191718 0.871562 0.138749
O O6 0.321278 0.015986 0.392103
O O7 0.981734 0.011741 0.207847
O O8 0.778201 0.396705 0.840726
O O9 0.446839 0.112682 0.886683
O O10 0.801760 0.209798 0.095078
O O11 0.405719 0.752208 0.394664
O O12 0.730733 0.046347 0.341005
#
# Coordination Sequence:
#
# PCOD9080846 Si02
#       6
#     2   2   2   2   2   2
#     4   8  15  30  47  69  95 123 156 190 230 274
#     4  11  18  29  52  76  92 117 158 202 230 266
#     4  10  19  29  48  72  97 123 155 190 234 280
#     4   8  16  30  51  71  92 122 155 193 237 268
#     4   8  16  30  47  69  93 130 152 185 235 280
#     4   9  18  32  43  69 102 125 148 189 238 278
#
# _framework density 22.285212000000001
#
# number of rings (size 3 to 8) (size 9 to 14) (size 15 to 20)
#    1.000    2.000    1.667    2.500    0.000    3.333 
#    0.000    0.000    0.000    4.000    0.000   44.333 
#    0.000    0.000    0.000    0.000    0.000    0.000 
#
# Total GULP energy -66866.541993 kJ/mol
# GULP energy per Si atom -5572.211833 kJ/mol
# Density = 2.223449 g / cm^3
# Si number density = 22.285212 Si / 1000 Ang^3
#
#
#
# Elastic Constant Matrix: (Units=GPa)
#
#
# Indices 1 2 3 4 5 6 
#
# 1 67.2218 -0.5719 17.3155 -3.0682 2.6861 -0.7332
# 2 -0.5719 43.1670 37.2111 -23.2277 3.4216 5.5918
# 3 17.3155 37.2111 130.2592 -46.2841 17.4291 -11.8563
# 4 -3.0682 -23.2277 -46.2841 35.4474 -15.1969 2.8006
# 5 2.6861 3.4216 17.4291 -15.1969 31.2385 -1.9641
# 6 -0.7332 5.5918 -11.8563 2.8006 -1.9641 18.9219
#
#
#
# Elastic Compliance Matrix: (Units=1/GPa)
#
#
# Indices 1 2 3 4 5 6 
#
# 1 0.015747 0.002814 -0.003567 -0.001504 -0.000548 -0.002291
# 2 0.002814 0.045813 -0.007129 0.027151 0.010618 -0.020813
# 3 -0.003567 -0.007129 0.016907 0.016411 0.000277 0.010162
# 4 -0.001504 0.027151 0.016411 0.078982 0.025995 -0.006791
# 5 -0.000548 0.010618 0.000277 0.025995 0.043240 -0.002344
# 6 -0.002291 -0.020813 0.010162 -0.006791 -0.002344 0.066040
#
#
# Mechanical properties :
#
#
# Convention : Reuss Voigt Hill
#
# Bulk Modulus (GPa) = 15.94812 38.72862 27.33837
# Shear Modulus (GPa) = 16.48031 29.56777 23.02404
#
# Velocity S-wave (km/s) = 2.72236 3.64646 3.21776
# Velocity P-wave (km/s) = 4.12959 5.92834 5.10876
#
# Compressibility (1/GPa) = 0.06270330
#
# Stress axis : x y z
#
# Youngs Moduli (GPa) = 63.50383 21.82798 59.14765
#
# Poissons Ratio (x) = -0.06143 0.21097
# Poissons Ratio (y) = -0.17871 0.42166
# Poissons Ratio (z) = 0.22651 0.15561
#
# Static dielectric constant tensor:
#      x y z
#    x 1.934740 -0.007880 0.065820 
#    y -0.007880 1.847180 -0.011460 
#    z 0.065820 -0.011460 1.854720 
# 
# From -- ./inp_files/162445.got.cif
#   From: 2010.05.17/outbox.cif.g08.bks.cpg/sg2_82_cif.got.tgz:162445.got - 2010.06.03 11:33:40.
