data_PCOD9080869
_publ_section_title
;
Structure prediction by ZEFSAII (Michael W. Deem and Ramdas Pophale) SiO2 
 PCOD9080869
Probable space group: P -1
;
_chemical_formula_sum "Si O2"
_cell_formula_units_Z 14
_cell_length_a 13.444463
_cell_length_b 13.470765
_cell_length_c 11.291721
_cell_angle_alpha 91.137412
_cell_angle_beta 21.341739
_cell_angle_gamma 91.946671
_cell_volume 743.420549
_symmetry_space_group_name_H-M "P -1"
_symmetry_group_IT_number 2
_symmetry_cell_setting 'triclinic'
loop_
_space_group_symop_operation_xyz
x,y,z
-x,-y,-z
loop_
_atom_site_type_symbol
_atom_site_label
_atom_site_fract_x
_atom_site_fract_y
_atom_site_fract_z
Si Si1 0.585114 0.420100 0.725351
Si Si2 0.808192 0.889477 0.093181
Si Si3 0.053618 0.780661 0.433262
Si Si4 0.603057 0.902430 0.819349
Si Si5 0.881122 0.695518 0.875507
Si Si6 0.169719 0.422334 0.390605
Si Si7 0.632453 0.986217 0.528619
O O1 0.729463 0.527103 0.597895
O O2 0.826618 0.348767 0.425142
O O3 0.341165 0.394454 0.904122
O O4 0.437989 0.398464 0.015148
O O5 0.681334 0.913464 0.362113
O O6 0.643853 0.956554 0.185182
O O7 0.790552 0.775189 0.072596
O O8 0.120811 0.930604 0.746446
O O9 0.880716 0.865381 0.566706
O O10 0.927962 0.754992 0.701163
O O11 0.009636 0.679020 0.405319
O O12 0.366235 0.817326 0.097205
O O13 0.635686 0.928681 0.646271
O O14 0.500000 0.000000 0.000000
O O15 0.000000 0.500000 0.500000
#
# Coordination Sequence:
#
# PCOD9080869 Si02
#       7
#     2   2   2   2   2   2   2
#     4  10  19  29  50  75 111 134 164 225 268 310
#     4  10  20  36  58  75 101 140 184 233 258 304
#     4  11  22  32  54  77 108 146 172 204 274 324
#     4  12  23  36  51  78 114 146 171 211 257 332
#     4  11  19  32  50  82 106 135 177 218 270 313
#     4  10  19  34  51  76 114 141 175 223 263 321
#     4  10  21  37  54  76 104 142 184 222 267 299
#
# _framework density 18.831871
#
# number of rings (size 3 to 8) (size 9 to 14) (size 15 to 20)
#    0.000    1.429    2.857    5.571    2.000    0.000 
#    0.000    0.000    0.000    0.000    0.000    6.000 
#    0.000    0.000    0.000    0.000    0.000    0.000 
#
# Total GULP energy -78141.241401 kJ/mol
# GULP energy per Si atom -5581.517243 kJ/mol
# Density = 1.878901 g / cm^3
# Si number density = 18.831871 Si / 1000 Ang^3
#
#
#
# Elastic Constant Matrix: (Units=GPa)
#
#
# Indices 1 2 3 4 5 6 
#
# 1 22.2544 -5.7134 16.5844 0.4132 -8.8723 6.8992
# 2 -5.7134 54.5057 11.6324 4.2397 5.1495 25.3434
# 3 16.5844 11.6324 39.6945 10.7608 -12.0704 9.3855
# 4 0.4132 4.2397 10.7608 23.8408 -1.4528 -6.2903
# 5 -8.8723 5.1495 -12.0704 -1.4528 22.5671 -0.3298
# 6 6.8992 25.3434 9.3855 -6.2903 -0.3298 43.9975
#
#
#
# Elastic Compliance Matrix: (Units=1/GPa)
#
#
# Indices 1 2 3 4 5 6 
#
# 1 0.090888 0.025763 -0.040420 0.007500 0.008435 -0.019334
# 2 0.025763 0.036108 -0.017056 -0.005466 -0.007908 -0.022041
# 3 -0.040420 -0.017056 0.057951 -0.021106 0.017652 0.000916
# 4 0.007500 -0.005466 -0.021106 0.055925 -0.003281 0.014446
# 5 0.008435 -0.007908 0.017652 -0.003281 0.058655 -0.000563
# 6 -0.019334 -0.022041 0.000916 0.014446 -0.000563 0.040322
#
#
# Mechanical properties :
#
#
# Convention : Reuss Voigt Hill
#
# Bulk Modulus (GPa) = 8.22905 17.94014 13.08460
# Shear Modulus (GPa) = 11.26681 24.34449 17.80565
#
# Velocity S-wave (km/s) = 2.44864 3.59935 3.07824
# Velocity P-wave (km/s) = 3.51762 5.17890 4.42689
#
# Compressibility (1/GPa) = 0.12152064
#
# Stress axis : x y z
#
# Youngs Moduli (GPa) = 11.00256 27.69473 17.25605
#
# Poissons Ratio (x) = -0.71349 0.69748
# Poissons Ratio (y) = -0.28346 0.29432
# Poissons Ratio (z) = 0.44472 0.47237
#
# Static dielectric constant tensor:
#      x y z
#    x 1.666380 0.035770 -0.025690 
#    y 0.035770 1.675320 -0.000190 
#    z -0.025690 -0.000190 1.649480 
# 
# From -- ./inp_files/76879.got.cif
#   From: 2010.05.17/outbox.cif.g08.bks.cpg/sg2_39_cif.got.tgz:76879.got - 2010.06.03 11:33:40.
