data_PCOD9080141
_publ_section_title
;
Structure prediction by ZEFSAII (Michael W. Deem and Ramdas Pophale) SiO2 
 PCOD9080141
Probable space group: P -1
;
_chemical_formula_sum "Si O2"
_cell_formula_units_Z 16
_cell_length_a 8.420409
_cell_length_b 16.559212
_cell_length_c 19.839578
_cell_angle_alpha 148.644353
_cell_angle_beta 146.119921
_cell_angle_gamma 33.045783
_cell_volume 718.337699
_symmetry_space_group_name_H-M "P -1"
_symmetry_group_IT_number 2
_symmetry_cell_setting 'triclinic'
loop_
_space_group_symop_operation_xyz
x,y,z
-x,-y,-z
loop_
_atom_site_type_symbol
_atom_site_label
_atom_site_fract_x
_atom_site_fract_y
_atom_site_fract_z
Si Si1 0.812521 0.502395 0.061752
Si Si2 0.525001 0.342841 0.154496
Si Si3 0.243767 0.868020 0.783630
Si Si4 0.948395 0.792212 0.966981
Si Si5 0.545643 0.358273 0.743882
Si Si6 0.916016 0.990063 0.386301
Si Si7 0.443415 0.847412 0.105762
Si Si8 0.838566 0.830557 0.496579
O O1 0.708762 0.419743 0.903466
O O2 0.820076 0.398783 0.059120
O O3 0.636530 0.707790 0.133259
O O4 0.182228 0.449570 0.142997
O O5 0.739670 0.221375 0.202303
O O6 0.612069 0.484100 0.251843
O O7 0.481707 0.232975 0.999496
O O8 0.025585 0.826396 0.627141
O O9 0.107464 0.073626 0.895420
O O10 0.603021 0.806239 0.839511
O O11 0.094847 0.862836 0.010174
O O12 0.270194 0.319571 0.651050
O O13 0.820584 0.189301 0.683423
O O14 0.572537 0.990248 0.258123
O O15 0.000000 0.000000 0.500000
O O16 0.954662 0.143799 0.471178
O O17 0.500000 0.000000 0.500000
#
# Coordination Sequence:
#
# PCOD9080141 Si02
#       8
#     2   2   2   2   2   2   2   2
#     4  10  18  38  64  91 121 159 205 251 302 351
#     4  10  20  39  64  92 121 161 199 256 303 351
#     4  10  23  41  59  87 126 163 206 243 307 370
#     4  10  22  35  59  91 124 162 196 255 304 356
#     4  10  19  38  63  87 121 161 207 238 297 366
#     4  11  23  36  58  95 126 154 200 256 298 352
#     4  11  21  36  62  96 125 154 205 258 304 347
#     4  10  23  40  61  83 114 165 203 242 299 367
#
# _framework density 22.273645999999999
#
# number of rings (size 3 to 8) (size 9 to 14) (size 15 to 20)
#    0.000    1.750    2.500    2.625    8.750    1.000 
#    0.000    0.000    0.000    3.750    0.000    0.000 
#    0.000    0.000    0.000    0.000    0.000    0.000 
#
# Total GULP energy -89372.266585 kJ/mol
# GULP energy per Si atom -5585.766662 kJ/mol
# Density = 2.222295 g / cm^3
# Si number density = 22.273646 Si / 1000 Ang^3
#
#
#
# Elastic Constant Matrix: (Units=GPa)
#
#
# Indices 1 2 3 4 5 6 
#
# 1 109.6093 12.0135 26.1329 2.4400 29.7732 26.2977
# 2 12.0135 61.7954 9.6419 -3.1381 6.9783 17.8455
# 3 26.1329 9.6419 75.7685 1.1985 25.9908 20.0067
# 4 2.4400 -3.1381 1.1985 17.2542 4.1081 -1.7688
# 5 29.7732 6.9783 25.9908 4.1081 40.1016 9.9294
# 6 26.2977 17.8455 20.0067 -1.7688 9.9294 35.1562
#
#
#
# Elastic Compliance Matrix: (Units=1/GPa)
#
#
# Indices 1 2 3 4 5 6 
#
# 1 0.013095 0.000596 0.000264 -0.000697 -0.007935 -0.008043
# 2 0.000596 0.019178 0.000593 0.002840 -0.002028 -0.009803
# 3 0.000264 0.000593 0.018790 0.000421 -0.010488 -0.008208
# 4 -0.000697 0.002840 0.000421 0.060730 -0.007462 0.004003
# 5 -0.007935 -0.002028 -0.010488 -0.007462 0.038313 0.001737
# 6 -0.008043 -0.009803 -0.008208 0.004003 0.001737 0.043818
#
#
# Mechanical properties :
#
#
# Convention : Reuss Voigt Hill
#
# Bulk Modulus (GPa) = 18.52889 38.08331 28.30610
# Shear Modulus (GPa) = 23.92252 31.79472 27.85862
#
# Velocity S-wave (km/s) = 3.28079 3.78227 3.54042
# Velocity P-wave (km/s) = 4.76322 6.01740 5.42667
#
# Compressibility (1/GPa) = 0.05396978
#
# Stress axis : x y z
#
# Youngs Moduli (GPa) = 76.36245 52.14278 53.21970
#
# Poissons Ratio (x) = -0.03109 -0.01405
# Poissons Ratio (y) = -0.04552 -0.03156
# Poissons Ratio (z) = -0.02015 -0.03092
#
# Static dielectric constant tensor:
#      x y z
#    x 1.892450 -0.019350 0.043630 
#    y -0.019350 1.881060 0.014800 
#    z 0.043630 0.014800 1.771850 
# 
# From -- ./inp_files/277080.got.cif
#   From: 2010.05.17/outbox.cif.g08.bks.cpg/sg2_139_cif.got.tgz:277080.got - 2010.06.03 11:33:40.
