data_PCOD9080440
_publ_section_title
;
Structure prediction by ZEFSAII (Michael W. Deem and Ramdas Pophale) SiO2 
 PCOD9080440
Probable space group: P -1
;
_chemical_formula_sum "Si O2"
_cell_formula_units_Z 16
_cell_length_a 14.452988
_cell_length_b 8.460920
_cell_length_c 18.353149
_cell_angle_alpha 59.677330
_cell_angle_beta 158.516951
_cell_angle_gamma 110.124716
_cell_volume 650.958923
_symmetry_space_group_name_H-M "P -1"
_symmetry_group_IT_number 2
_symmetry_cell_setting 'triclinic'
loop_
_space_group_symop_operation_xyz
x,y,z
-x,-y,-z
loop_
_atom_site_type_symbol
_atom_site_label
_atom_site_fract_x
_atom_site_fract_y
_atom_site_fract_z
Si Si1 0.135585 0.744895 0.835430
Si Si2 0.258290 0.213498 0.280573
Si Si3 0.708640 0.924861 0.355476
Si Si4 0.399028 0.605081 0.578325
Si Si5 0.510263 0.701157 0.989910
Si Si6 0.103004 0.490146 0.495957
Si Si7 0.108258 0.972577 0.912512
Si Si8 0.280891 0.418080 0.397973
O O1 0.895885 0.887260 0.572385
O O2 0.040651 0.559773 0.822472
O O3 0.406790 0.712369 0.994381
O O4 0.142068 0.869259 0.882292
O O5 0.322325 0.363457 0.239445
O O6 0.294693 0.265973 0.378467
O O7 0.986577 0.174814 0.074361
O O8 0.500000 0.000000 0.500000
O O9 0.829692 0.724404 0.441424
O O10 0.678536 0.109509 0.238837
O O11 0.398212 0.974880 0.143858
O O12 0.350814 0.548940 0.637684
O O13 0.370714 0.442575 0.540450
O O14 0.145439 0.812413 0.322636
O O15 0.500000 0.500000 0.000000
O O16 0.827374 0.664306 0.220616
O O17 0.000000 0.500000 0.500000
O O18 0.500000 0.500000 0.500000
#
# Coordination Sequence:
#
# PCOD9080440 Si02
#       8
#     2   2   2   2   2   2   2   2
#     4  11  23  41  67  98 135 178 228 281 346 406
#     4   8  17  34  65  99 131 177 220 275 343 400
#     4  12  25  44  69  98 138 180 231 288 345 412
#     4  10  18  39  65  95 135 182 218 278 347 393
#     4  12  25  44  64  95 133 177 233 284 342 409
#     4  12  26  41  67  98 134 183 231 279 343 408
#     4  10  22  39  67 100 134 176 226 281 340 410
#     4   9  17  35  67  94 128 178 217 270 346 397
#
# _framework density 24.579124
#
# number of rings (size 3 to 8) (size 9 to 14) (size 15 to 20)
#    0.000    1.500    3.750    1.125    1.750    1.000 
#    0.000    0.625    2.750   25.500    0.000    0.000 
#    0.000    0.000    0.000    0.000    0.000    0.000 
#
# Total GULP energy -89121.789266 kJ/mol
# GULP energy per Si atom -5570.111829 kJ/mol
# Density = 2.452318 g / cm^3
# Si number density = 24.579124 Si / 1000 Ang^3
#
#
#
# Elastic Constant Matrix: (Units=GPa)
#
#
# Indices 1 2 3 4 5 6 
#
# 1 112.7738 20.9756 19.4502 9.3227 23.9375 28.0468
# 2 20.9756 54.9446 25.3569 5.4168 11.9445 28.6941
# 3 19.4502 25.3569 99.5847 -1.3719 14.0383 14.7699
# 4 9.3227 5.4168 -1.3719 41.8418 13.2025 5.0463
# 5 23.9375 11.9445 14.0383 13.2025 34.3862 7.6290
# 6 28.0468 28.6941 14.7699 5.0463 7.6290 32.8852
#
#
#
# Elastic Compliance Matrix: (Units=1/GPa)
#
#
# Indices 1 2 3 4 5 6 
#
# 1 0.012826 0.002987 -0.000489 0.000470 -0.007353 -0.011692
# 2 0.002987 0.036720 -0.004438 0.000139 -0.006157 -0.031188
# 3 -0.000489 -0.004438 0.011909 0.002323 -0.003751 -0.000546
# 4 0.000470 0.000139 0.002323 0.027801 -0.011285 -0.003214
# 5 -0.007353 -0.006157 -0.003751 -0.011285 0.040971 0.005555
# 6 -0.011692 -0.031188 -0.000546 -0.003214 0.005555 0.067043
#
#
# Mechanical properties :
#
#
# Convention : Reuss Voigt Hill
#
# Bulk Modulus (GPa) = 17.36824 44.31873 30.84349
# Shear Modulus (GPa) = 22.69219 35.25733 28.97476
#
# Velocity S-wave (km/s) = 3.04177 3.79151 3.43714
# Velocity P-wave (km/s) = 4.40659 6.10226 5.32239
#
# Compressibility (1/GPa) = 0.05757636
#
# Stress axis : x y z
#
# Youngs Moduli (GPa) = 77.96867 27.23320 83.97084
#
# Poissons Ratio (x) = -0.08136 0.04102
# Poissons Ratio (y) = -0.23292 0.37265
# Poissons Ratio (z) = 0.03809 0.12086
#
# Static dielectric constant tensor:
#      x y z
#    x 1.958850 0.033100 0.118920 
#    y 0.033100 1.864550 0.143740 
#    z 0.118920 0.143740 1.893150 
# 
# From -- ./inp_files/597346.got.cif
#   From: 2010.05.17/outbox.cif.g08.bks.cpg/sg2_299_cif.got.tgz:597346.got - 2010.06.03 11:33:40.
