data_PCOD9080377
_publ_section_title
;
Structure prediction by ZEFSAII (Michael W. Deem and Ramdas Pophale) SiO2 
 PCOD9080377
Probable space group: P -1
;
_chemical_formula_sum "Si O2"
_cell_formula_units_Z 16
_cell_length_a 23.001728
_cell_length_b 7.894925
_cell_length_c 16.819765
_cell_angle_alpha 108.756427
_cell_angle_beta 17.839968
_cell_angle_gamma 116.678927
_cell_volume 771.081913
_symmetry_space_group_name_H-M "P -1"
_symmetry_group_IT_number 2
_symmetry_cell_setting 'triclinic'
loop_
_space_group_symop_operation_xyz
x,y,z
-x,-y,-z
loop_
_atom_site_type_symbol
_atom_site_label
_atom_site_fract_x
_atom_site_fract_y
_atom_site_fract_z
Si Si1 0.112482 0.821516 0.786285
Si Si2 0.787770 0.748950 0.573555
Si Si3 0.579191 0.368695 0.669973
Si Si4 0.108992 0.869842 0.620114
Si Si5 0.336304 0.227101 0.644332
Si Si6 0.168604 0.967530 0.219871
Si Si7 0.612060 0.571639 0.231252
Si Si8 0.479521 0.104855 0.963657
O O1 0.235216 0.692138 0.598951
O O2 0.140049 0.933619 0.681857
O O3 0.225684 0.988836 0.732693
O O4 0.851982 0.710707 0.119301
O O5 0.671818 0.545796 0.642030
O O6 0.848609 0.943053 0.464681
O O7 0.621332 0.754654 0.856373
O O8 0.011152 0.800444 0.336077
O O9 0.522110 0.444157 0.674417
O O10 0.354060 0.171879 0.964711
O O11 0.281016 0.791872 0.368326
O O12 0.866020 0.686598 0.896944
O O13 0.528895 0.356173 0.351636
O O14 0.405706 0.287766 0.653906
O O15 0.316625 0.934716 0.087148
O O16 0.000000 0.000000 0.500000
O O17 0.500000 0.000000 0.000000
#
# Coordination Sequence:
#
# PCOD9080377 Si02
#       8
#     2   2   2   2   2   2   2   2
#     4  10  21  39  63  85 123 161 206 254 315 367
#     4  10  22  39  64  89 131 166 201 255 307 350
#     4  12  23  40  63  99 121 165 208 253 303 377
#     4  10  18  39  62  89 125 166 206 252 297 370
#     4   9  21  43  61  87 121 164 196 268 313 365
#     4  10  21  41  61  90 129 163 203 254 303 355
#     4  10  21  39  64  91 124 156 213 251 316 371
#     4   9  19  37  64  88 123 167 205 245 302 360
#
# _framework density 20.750063999999998
#
# number of rings (size 3 to 8) (size 9 to 14) (size 15 to 20)
#    0.000    2.000    2.500    0.750    0.000    3.000 
#    6.750    0.625    0.000    0.000    0.000    0.000 
#    0.000    0.000    0.000    0.000    0.000    0.000 
#
# Total GULP energy -89220.523654 kJ/mol
# GULP energy per Si atom -5576.282728 kJ/mol
# Density = 2.070284 g / cm^3
# Si number density = 20.750064 Si / 1000 Ang^3
#
#
#
# Elastic Constant Matrix: (Units=GPa)
#
#
# Indices 1 2 3 4 5 6 
#
# 1 128.1765 26.5895 16.7783 -8.4015 -23.6658 25.6974
# 2 26.5895 64.0714 41.5797 -1.6280 -20.0093 29.8270
# 3 16.7783 41.5797 105.3883 2.9856 -3.6738 3.0802
# 4 -8.4015 -1.6280 2.9856 21.2293 -1.8058 -4.2399
# 5 -23.6658 -20.0093 -3.6738 -1.8058 27.6370 -8.3115
# 6 25.6974 29.8270 3.0802 -4.2399 -8.3115 31.8478
#
#
#
# Elastic Compliance Matrix: (Units=1/GPa)
#
#
# Indices 1 2 3 4 5 6 
#
# 1 0.011617 0.006900 -0.003954 0.004230 0.011086 -0.011997
# 2 0.006900 0.063006 -0.023344 0.002942 0.032545 -0.053433
# 3 -0.003954 -0.023344 0.018416 -0.003039 -0.012111 0.019707
# 4 0.004230 0.002942 -0.003039 0.050945 0.009712 0.003443
# 5 0.011086 0.032545 -0.012111 0.009712 0.062015 -0.020776
# 6 -0.011997 -0.053433 0.019707 0.003443 -0.020776 0.084252
#
#
# Mechanical properties :
#
#
# Convention : Reuss Voigt Hill
#
# Bulk Modulus (GPa) = 19.14158 51.94789 35.54474
# Shear Modulus (GPa) = 14.34867 30.32209 22.33538
#
# Velocity S-wave (km/s) = 2.63249 3.82684 3.28441
# Velocity P-wave (km/s) = 4.29940 6.67950 5.61696
#
# Compressibility (1/GPa) = 0.05224229
#
# Stress axis : x y z
#
# Youngs Moduli (GPa) = 86.07764 15.87145 54.29975
#
# Poissons Ratio (x) = -0.10951 0.21472
# Poissons Ratio (y) = -0.59390 1.26757
# Poissons Ratio (z) = 0.34039 0.37050
#
# Static dielectric constant tensor:
#      x y z
#    x 1.774470 0.007230 0.015390 
#    y 0.007230 1.733570 0.003760 
#    z 0.015390 0.003760 1.784110 
# 
# From -- ./inp_files/299694.got.cif
#   From: 2010.05.17/outbox.cif.g08.bks.cpg/sg2_150_cif.got.tgz:299694.got - 2010.06.03 11:33:40.
