data_PCOD9080343
_publ_section_title
;
Structure prediction by ZEFSAII (Michael W. Deem and Ramdas Pophale) SiO2 
 PCOD9080343
Probable space group: P -1
;
_chemical_formula_sum "Si O2"
_cell_formula_units_Z 13
_cell_length_a 8.206476
_cell_length_b 9.814252
_cell_length_c 9.978247
_cell_angle_alpha 135.455583
_cell_angle_beta 93.979989
_cell_angle_gamma 62.720553
_cell_volume 456.393387
_symmetry_space_group_name_H-M "P -1"
_symmetry_group_IT_number 2
_symmetry_cell_setting 'triclinic'
loop_
_space_group_symop_operation_xyz
x,y,z
-x,-y,-z
loop_
_atom_site_type_symbol
_atom_site_label
_atom_site_fract_x
_atom_site_fract_y
_atom_site_fract_z
Si Si1 0.826756 0.905851 0.524791
Si Si2 0.760028 0.685038 0.125843
Si Si3 0.224622 0.367606 0.470873
Si Si4 0.000000 0.000000 0.000000
Si Si5 0.702194 0.381217 0.104064
Si Si6 0.731411 0.318043 0.631498
Si Si7 0.645709 0.089079 0.215335
O O1 0.067312 0.700553 0.397617
O O2 0.726629 0.864136 0.365825
O O3 0.727090 0.866939 0.615546
O O4 0.792613 0.148089 0.647124
O O5 0.683437 0.542078 0.092256
O O6 0.689517 0.841788 0.097914
O O7 0.000000 0.500000 0.000000
O O8 0.223806 0.543107 0.704982
O O9 0.405111 0.279599 0.316875
O O10 0.000000 0.500000 0.500000
O O11 0.891735 0.107464 0.918663
O O12 0.792980 0.039289 0.069200
O O13 0.485298 0.450022 0.177322
O O14 0.693187 0.208121 0.422902
#
# Coordination Sequence:
#
# PCOD9080343 Si02
#       7
#     2   2   2   1   2   2   2
#     4   9  19  35  62  90 109 143 203 239 279 333
#     4  10  18  39  60  83 117 156 186 236 287 352
#     4  10  22  38  60  86 115 153 194 238 281 346
#     4  12  24  36  56  92 116 154 192 230 300 352
#     4  10  22  38  61  83 115 156 195 231 291 342
#     4   9  19  38  64  84 111 148 199 250 270 331
#     4  10  22  38  63  83 116 156 194 234 290 340
#
# _framework density 28.484197000000002
#
# number of rings (size 3 to 8) (size 9 to 14) (size 15 to 20)
#    0.000    2.154    1.538    0.923    4.308    4.923 
#    0.000    3.077    0.000    0.000    0.000    0.000 
#    0.000    0.000    0.000    0.000    0.000    0.000 
#
# Total GULP energy -72601.038904 kJ/mol
# GULP energy per Si atom -5584.695300 kJ/mol
# Density = 2.841937 g / cm^3
# Si number density = 28.484197 Si / 1000 Ang^3
#
#
#
# Elastic Constant Matrix: (Units=GPa)
#
#
# Indices 1 2 3 4 5 6 
#
# 1 147.9133 45.4119 66.2899 -17.7944 -37.7423 -2.9218
# 2 45.4119 135.2756 22.2716 -10.6993 -32.4780 5.0535
# 3 66.2899 22.2716 87.6378 -6.6710 -44.1496 -4.5376
# 4 -17.7944 -10.6993 -6.6710 29.8721 -1.2414 -22.4993
# 5 -37.7423 -32.4780 -44.1496 -1.2414 80.2268 -6.8688
# 6 -2.9218 5.0535 -4.5376 -22.4993 -6.8688 53.9974
#
#
#
# Elastic Compliance Matrix: (Units=1/GPa)
#
#
# Indices 1 2 3 4 5 6 
#
# 1 0.011835 -0.002050 -0.007040 0.007433 0.001278 0.003500
# 2 -0.002050 0.008913 0.001331 0.003093 0.003502 0.000901
# 3 -0.007040 0.001331 0.021977 0.005172 0.009808 0.004744
# 4 0.007433 0.003093 0.005172 0.061320 0.010897 0.027484
# 5 0.001278 0.003502 0.009808 0.010897 0.020712 0.007741
# 6 0.003500 0.000901 0.004744 0.027484 0.007741 0.031460
#
#
# Mechanical properties :
#
#
# Convention : Reuss Voigt Hill
#
# Bulk Modulus (GPa) = 36.75310 70.97483 53.86397
# Shear Modulus (GPa) = 27.65450 48.60947 38.13198
#
# Velocity S-wave (km/s) = 3.11926 4.13551 3.66280
# Velocity P-wave (km/s) = 5.08960 6.91192 6.06954
#
# Compressibility (1/GPa) = 0.02720859
#
# Stress axis : x y z
#
# Youngs Moduli (GPa) = 84.49806 112.19748 45.50129
#
# Poissons Ratio (x) = 0.22998 0.32032
# Poissons Ratio (y) = 0.17320 -0.06058
# Poissons Ratio (z) = 0.59485 -0.14939
#
# Static dielectric constant tensor:
#      x y z
#    x 0.619050 -2.965250 -5.649520 
#    y -2.965250 -3.133130 -10.527280 
#    z -5.649520 -10.527280 -18.476000 
# 
# From -- ./inp_files/148283.got.cif
#   From: 2010.05.17/outbox.cif.g08.bks.cpg/sg2_75_cif.got.tgz:148283.got - 2010.06.03 11:33:40.
