data_PCOD9080370
_publ_section_title
;
Structure prediction by ZEFSAII (Michael W. Deem and Ramdas Pophale) SiO2 
 PCOD9080370
Probable space group: P -1
;
_chemical_formula_sum "Si O2"
_cell_formula_units_Z 16
_cell_length_a 8.738181
_cell_length_b 13.693579
_cell_length_c 13.224174
_cell_angle_alpha 148.170573
_cell_angle_beta 125.500877
_cell_angle_gamma 53.961326
_cell_volume 662.575069
_symmetry_space_group_name_H-M "P -1"
_symmetry_group_IT_number 2
_symmetry_cell_setting 'triclinic'
loop_
_space_group_symop_operation_xyz
x,y,z
-x,-y,-z
loop_
_atom_site_type_symbol
_atom_site_label
_atom_site_fract_x
_atom_site_fract_y
_atom_site_fract_z
Si Si1 0.964540 0.258343 0.293523
Si Si2 0.706258 0.971675 0.934228
Si Si3 0.224808 0.496254 0.093314
Si Si4 0.527387 0.156682 0.841577
Si Si5 0.086132 0.906806 0.347037
Si Si6 0.825025 0.717940 0.932666
Si Si7 0.807206 0.439486 0.201669
Si Si8 0.271361 0.164825 0.504312
O O1 0.799979 0.144446 0.155480
O O2 0.854619 0.433555 0.335779
O O3 0.087632 0.243409 0.429150
O O4 0.123832 0.149875 0.178770
O O5 0.535948 0.051864 0.861441
O O6 0.683532 0.843950 0.908593
O O7 0.344492 0.329546 0.923582
O O8 0.235093 0.708027 0.255080
O O9 0.268579 0.424478 0.161845
O O10 0.000000 0.500000 0.000000
O O11 0.706614 0.261012 0.994458
O O12 0.571060 0.993089 0.631563
O O13 0.184569 0.058309 0.464370
O O14 0.000000 0.000000 0.500000
O O15 0.925080 0.848453 0.160165
O O16 0.003900 0.602324 0.832938
O O17 0.670397 0.634636 0.282528
#
# Coordination Sequence:
#
# PCOD9080370 Si02
#       8
#     2   2   2   2   2   2   2   2
#     4   8  14  28  53  93 128 150 187 242 295 365
#     4   8  14  29  61  89 119 157 187 242 310 351
#     4  10  24  42  60  80 119 169 205 247 300 356
#     4  10  21  40  60  92 129 148 196 260 301 353
#     4  11  22  39  60  85 117 164 209 248 287 354
#     4  10  18  39  62  87 121 160 204 239 298 366
#     4  10  19  34  63  96 121 155 193 245 309 359
#     4  11  19  35  62  93 122 160 202 243 297 356
#
# _framework density 24.148205999999998
#
# number of rings (size 3 to 8) (size 9 to 14) (size 15 to 20)
#    0.000    2.250    2.500    2.625    0.000    1.000 
#    4.500    0.625    0.000    0.750    0.000    0.000 
#    0.000    0.000    0.000    0.250    0.000    0.000 
#
# Total GULP energy -89387.952311 kJ/mol
# GULP energy per Si atom -5586.747019 kJ/mol
# Density = 2.409324 g / cm^3
# Si number density = 24.148206 Si / 1000 Ang^3
#
#
#
# Elastic Constant Matrix: (Units=GPa)
#
#
# Indices 1 2 3 4 5 6 
#
# 1 47.1194 58.2791 22.5013 14.2111 -8.4873 12.6325
# 2 58.2791 143.0828 63.1320 31.1149 -3.9257 43.6998
# 3 22.5013 63.1320 94.5032 25.9412 -14.6537 12.6622
# 4 14.2111 31.1149 25.9412 54.3691 0.4794 3.7000
# 5 -8.4873 -3.9257 -14.6537 0.4794 33.6072 11.8904
# 6 12.6325 43.6998 12.6622 3.7000 11.8904 50.4704
#
#
#
# Elastic Compliance Matrix: (Units=1/GPa)
#
#
# Indices 1 2 3 4 5 6 
#
# 1 0.047518 -0.021786 0.005176 -0.002746 0.010554 0.003386
# 2 -0.021786 0.024188 -0.008738 -0.003104 -0.001983 -0.012603
# 3 0.005176 -0.008738 0.017729 -0.004902 0.007980 0.000302
# 4 -0.002746 -0.003104 -0.004902 0.022991 -0.004968 0.004089
# 5 0.010554 -0.001983 0.007980 -0.004968 0.039978 -0.011981
# 6 0.003386 -0.012603 0.000302 0.004089 -0.011981 0.032325
#
#
# Mechanical properties :
#
#
# Convention : Reuss Voigt Hill
#
# Bulk Modulus (GPa) = 25.81359 63.61448 44.71404
# Shear Modulus (GPa) = 20.13380 37.07554 28.60467
#
# Velocity S-wave (km/s) = 2.89062 3.92258 3.44546
# Velocity P-wave (km/s) = 4.67480 6.84953 5.86387
#
# Compressibility (1/GPa) = 0.03873928
#
# Stress axis : x y z
#
# Youngs Moduli (GPa) = 21.04477 41.34318 56.40375
#
# Poissons Ratio (x) = 0.90070 -0.29197
# Poissons Ratio (y) = 0.45848 0.49286
# Poissons Ratio (z) = -0.10894 0.36126
#
# Static dielectric constant tensor:
#      x y z
#    x 1.904930 -0.017990 0.023000 
#    y -0.017990 2.043940 -0.031350 
#    z 0.023000 -0.031350 2.004140 
# 
# From -- ./inp_files/505899.got.cif
#   From: 2010.05.17/outbox.cif.g08.bks.cpg/sg2_253_cif.got.tgz:505899.got - 2010.06.03 11:33:40.
