data_PCOD9080700
_publ_section_title
;
Structure prediction by ZEFSAII (Michael W. Deem and Ramdas Pophale) SiO2 
 PCOD9080700
Probable space group: P -1
;
_chemical_formula_sum "Si O2"
_cell_formula_units_Z 16
_cell_length_a 18.362716
_cell_length_b 14.571331
_cell_length_c 7.611822
_cell_angle_alpha 45.014086
_cell_angle_beta 147.129250
_cell_angle_gamma 139.363338
_cell_volume 705.822594
_symmetry_space_group_name_H-M "P -1"
_symmetry_group_IT_number 2
_symmetry_cell_setting 'triclinic'
loop_
_space_group_symop_operation_xyz
x,y,z
-x,-y,-z
loop_
_atom_site_type_symbol
_atom_site_label
_atom_site_fract_x
_atom_site_fract_y
_atom_site_fract_z
Si Si1 0.956224 0.100980 0.652861
Si Si2 0.971478 0.640831 0.716355
Si Si3 0.681387 0.850432 0.252072
Si Si4 0.363524 0.540583 0.639944
Si Si5 0.139453 0.040362 0.858989
Si Si6 0.264134 0.435610 0.200654
Si Si7 0.358876 0.674019 0.800204
Si Si8 0.075905 0.732167 0.182369
O O1 0.959796 0.259471 0.451157
O O2 0.104642 0.143652 0.774814
O O3 0.798280 0.988029 0.407410
O O4 0.000000 0.000000 0.000000
O O5 0.795479 0.576887 0.459640
O O6 0.000000 0.500000 0.000000
O O7 0.050462 0.737826 0.913564
O O8 0.718119 0.890333 0.067326
O O9 0.712173 0.709845 0.538431
O O10 0.508834 0.801107 0.004289
O O11 0.336889 0.538482 0.378299
O O12 0.381170 0.665390 0.646826
O O13 0.500000 0.500000 0.000000
O O14 0.000000 0.000000 0.500000
O O15 0.122694 0.895367 0.117891
O O16 0.335985 0.525619 0.050135
O O17 0.084843 0.377634 0.923748
O O18 0.211464 0.690770 0.529679
#
# Coordination Sequence:
#
# PCOD9080700 Si02
#       8
#     2   2   2   2   2   2   2   2
#     4  11  24  40  69 101 131 178 231 285 335 404
#     4  11  22  41  66  97 134 171 231 279 332 415
#     4  11  22  42  66  93 129 178 226 274 333 408
#     4  11  24  39  64  98 134 184 221 275 352 399
#     4  10  18  41  66  86 124 171 228 260 322 407
#     4  11  23  42  65  98 138 173 233 280 325 422
#     4  12  26  40  65 103 140 174 223 285 350 395
#     4  11  21  42  66  95 127 181 220 273 341 403
#
# _framework density 22.668586000000001
#
# number of rings (size 3 to 8) (size 9 to 14) (size 15 to 20)
#    0.000    1.000    7.500    1.500    1.750    0.500 
#    4.500    0.000    0.000    0.750    0.000    0.000 
#    0.000    0.000    0.000    0.000    0.000    0.000 
#
# Total GULP energy -89136.903234 kJ/mol
# GULP energy per Si atom -5571.056452 kJ/mol
# Density = 2.261699 g / cm^3
# Si number density = 22.668586 Si / 1000 Ang^3
#
#
#
# Elastic Constant Matrix: (Units=GPa)
#
#
# Indices 1 2 3 4 5 6 
#
# 1 31.1073 7.4074 24.9616 8.0651 6.7762 -0.0462
# 2 7.4074 96.8017 55.5522 -6.1478 5.2693 13.9626
# 3 24.9616 55.5522 100.6135 18.7722 18.1405 12.9417
# 4 8.0651 -6.1478 18.7722 37.7300 9.6248 6.3860
# 5 6.7762 5.2693 18.1405 9.6248 36.1268 0.6198
# 6 -0.0462 13.9626 12.9417 6.3860 0.6198 38.1021
#
#
#
# Elastic Compliance Matrix: (Units=1/GPa)
#
#
# Indices 1 2 3 4 5 6 
#
# 1 0.041868 0.002836 -0.011541 -0.002878 -0.001764 0.003443
# 2 0.002836 0.018049 -0.011884 0.008799 0.000528 -0.004057
# 3 -0.011541 -0.011884 0.022105 -0.008980 -0.004782 -0.001584
# 4 -0.002878 0.008799 -0.008980 0.035465 -0.005580 -0.006031
# 5 -0.001764 0.000528 -0.004782 -0.005580 0.031790 0.001847
# 6 0.003443 -0.004057 -0.001584 -0.006031 0.001847 0.029255
#
#
# Mechanical properties :
#
#
# Convention : Reuss Voigt Hill
#
# Bulk Modulus (GPa) = 24.48340 44.92943 34.70642
# Shear Modulus (GPa) = 21.42940 31.76520 26.59730
#
# Velocity S-wave (km/s) = 3.07796 3.74744 3.42908
# Velocity P-wave (km/s) = 4.84312 6.21189 5.56971
#
# Compressibility (1/GPa) = 0.04084400
#
# Stress axis : x y z
#
# Youngs Moduli (GPa) = 23.88473 55.40587 45.23840
#
# Poissons Ratio (x) = -0.15712 0.52208
# Poissons Ratio (y) = -0.06773 0.53761
# Poissons Ratio (z) = 0.27564 0.65844
#
# Static dielectric constant tensor:
#      x y z
#    x 2.040320 -0.148480 0.006890 
#    y -0.148480 1.693500 0.166120 
#    z 0.006890 0.166120 1.427320 
# 
# From -- ./inp_files/348296.got.cif
#   From: 2010.05.17/outbox.cif.g08.bks.cpg/sg2_175_cif.got.tgz:348296.got - 2010.06.03 11:33:40.
