data_PCOD9080577
_publ_section_title
;
Structure prediction by ZEFSAII (Michael W. Deem and Ramdas Pophale) SiO2 
 PCOD9080577
Probable space group: P -1
;
_chemical_formula_sum "Si O2"
_cell_formula_units_Z 16
_cell_length_a 8.849217
_cell_length_b 16.824283
_cell_length_c 13.790004
_cell_angle_alpha 23.890067
_cell_angle_beta 75.701185
_cell_angle_gamma 82.856647
_cell_volume 778.307782
_symmetry_space_group_name_H-M "P -1"
_symmetry_group_IT_number 2
_symmetry_cell_setting 'triclinic'
loop_
_space_group_symop_operation_xyz
x,y,z
-x,-y,-z
loop_
_atom_site_type_symbol
_atom_site_label
_atom_site_fract_x
_atom_site_fract_y
_atom_site_fract_z
Si Si1 0.527114 0.682390 0.559407
Si Si2 0.963138 0.583415 0.809888
Si Si3 0.154378 0.699415 0.034980
Si Si4 0.941361 0.911299 0.951986
Si Si5 0.368516 0.286924 0.277240
Si Si6 0.279416 0.928840 0.318572
Si Si7 0.461940 0.212905 0.142253
Si Si8 0.137007 0.302551 0.600419
O O1 0.589971 0.772014 0.555878
O O2 0.403226 0.801757 0.406496
O O3 0.452227 0.441732 0.859011
O O4 0.680920 0.708383 0.437532
O O5 0.924902 0.405302 0.934608
O O6 0.805789 0.669761 0.742637
O O7 0.116285 0.762403 0.557521
O O8 0.000000 0.500000 0.000000
O O9 0.347167 0.774817 0.905080
O O10 0.127679 0.518126 0.320288
O O11 0.064094 0.859922 0.911368
O O12 0.776498 0.927738 0.909741
O O13 0.907912 0.745350 0.227836
O O14 0.022127 0.125487 0.751877
O O15 0.500000 0.500000 0.000000
O O16 0.391566 0.160887 0.319638
O O17 0.359890 0.058483 0.253531
#
# Coordination Sequence:
#
# PCOD9080577 Si02
#       8
#     2   2   2   2   2   2   2   2
#     4  10  21  42  65  86 134 173 212 258 321 389
#     4  12  24  41  66  97 133 171 209 270 321 371
#     4  11  22  45  68  93 130 175 215 255 325 394
#     4  11  24  39  69  98 129 162 221 276 319 377
#     4  10  18  40  64  87 122 176 211 245 314 386
#     4  12  26  40  61 103 130 163 216 274 320 364
#     4  10  23  40  67  91 126 174 217 255 316 396
#     4  10  21  46  67  94 125 176 215 264 329 380
#
# _framework density 20.557417999999998
#
# number of rings (size 3 to 8) (size 9 to 14) (size 15 to 20)
#    0.000    1.250    5.000    2.625    3.500    1.500 
#    2.250    2.500    0.000    0.000    0.000    0.000 
#    0.000    0.000    0.000    0.000    0.000    0.000 
#
# Total GULP energy -89471.352010 kJ/mol
# GULP energy per Si atom -5591.959501 kJ/mol
# Density = 2.051063 g / cm^3
# Si number density = 20.557418 Si / 1000 Ang^3
#
#
#
# Elastic Constant Matrix: (Units=GPa)
#
#
# Indices 1 2 3 4 5 6 
#
# 1 123.8964 53.1814 15.0622 -3.7107 13.7804 2.1913
# 2 53.1814 112.6575 20.1508 -0.4605 1.2995 2.0692
# 3 15.0622 20.1508 32.8139 0.9205 6.3408 7.1169
# 4 -3.7107 -0.4605 0.9205 27.7165 2.5679 -2.7380
# 5 13.7804 1.2995 6.3408 2.5679 36.5910 -6.8086
# 6 2.1913 2.0692 7.1169 -2.7380 -6.8086 34.4931
#
#
#
# Elastic Compliance Matrix: (Units=1/GPa)
#
#
# Indices 1 2 3 4 5 6 
#
# 1 0.010783 -0.004828 -0.001086 0.001686 -0.003972 -0.000822
# 2 -0.004828 0.012184 -0.006069 -0.000362 0.002711 0.001334
# 3 -0.001086 -0.006069 0.038177 -0.001710 -0.007559 -0.009072
# 4 0.001686 -0.000362 -0.001710 0.036847 -0.002406 0.002717
# 5 -0.003972 0.002711 -0.007559 -0.002406 0.031641 0.007704
# 6 -0.000822 0.001334 -0.009072 0.002717 0.007704 0.032572
#
#
# Mechanical properties :
#
#
# Convention : Reuss Voigt Hill
#
# Bulk Modulus (GPa) = 26.89853 49.57294 38.23574
# Shear Modulus (GPa) = 25.18113 31.82501 28.50307
#
# Velocity S-wave (km/s) = 3.50368 3.93886 3.72763
# Velocity P-wave (km/s) = 5.42961 6.69723 6.09646
#
# Compressibility (1/GPa) = 0.03717675
#
# Stress axis : x y z
#
# Youngs Moduli (GPa) = 92.74286 82.07587 26.19410
#
# Poissons Ratio (x) = 0.39626 0.02845
# Poissons Ratio (y) = 0.44776 0.15897
# Poissons Ratio (z) = 0.10073 0.49812
#
# Static dielectric constant tensor:
#      x y z
#    x 1.708340 -0.015070 0.030300 
#    y -0.015070 1.746890 -0.014530 
#    z 0.030300 -0.014530 1.777720 
# 
# From -- ./inp_files/348352.got.cif
#   From: 2010.05.17/outbox.cif.g08.bks.cpg/sg2_175_cif.got.tgz:348352.got - 2010.06.03 11:33:40.
