data_PCOD9080550
_publ_section_title
;
Structure prediction by ZEFSAII (Michael W. Deem and Ramdas Pophale) SiO2 
 PCOD9080550
Probable space group: P -1
;
_chemical_formula_sum "Si O2"
_cell_formula_units_Z 12
_cell_length_a 23.289058
_cell_length_b 13.806507
_cell_length_c 14.658895
_cell_angle_alpha 33.441287
_cell_angle_beta 21.273705
_cell_angle_gamma 19.341489
_cell_volume 525.534669
_symmetry_space_group_name_H-M "P -1"
_symmetry_group_IT_number 2
_symmetry_cell_setting 'triclinic'
loop_
_space_group_symop_operation_xyz
x,y,z
-x,-y,-z
loop_
_atom_site_type_symbol
_atom_site_label
_atom_site_fract_x
_atom_site_fract_y
_atom_site_fract_z
Si Si1 0.498294 0.382733 0.845970
Si Si2 0.483028 0.708839 0.900218
Si Si3 0.031483 0.583976 0.295784
Si Si4 0.112169 0.286636 0.902735
Si Si5 0.923562 0.693205 0.720014
Si Si6 0.443558 0.846450 0.578984
O O1 0.519233 0.573070 0.669149
O O2 0.769737 0.021371 0.695181
O O3 0.451120 0.360342 0.036616
O O4 0.236415 0.557668 0.035330
O O5 0.737107 0.584023 0.573859
O O6 0.173002 0.074417 0.051028
O O7 0.500000 0.500000 0.000000
O O8 0.159722 0.339098 0.220522
O O9 0.000000 0.500000 0.500000
O O10 0.738880 0.922619 0.419127
O O11 0.285476 0.282203 0.701001
O O12 0.871331 0.618243 0.944889
O O13 0.252605 0.059492 0.784164
#
# Coordination Sequence:
#
# PCOD9080550 Si02
#       6
#     2   2   2   2   2   2
#     4  12  24  37  64  95 119 162 205 248 301 351
#     4  12  21  39  65  90 123 159 201 246 305 366
#     4  11  21  42  66  83 122 170 201 243 307 360
#     4  10  18  40  62  85 124 165 192 248 311 347
#     4  11  23  41  62  90 128 154 204 256 294 362
#     4  10  19  37  63  86 122 162 200 247 301 359
#
# _framework density 22.833888000000002
#
# number of rings (size 3 to 8) (size 9 to 14) (size 15 to 20)
#    0.000    1.000    8.333    1.000    0.000    3.333 
#    0.000    2.500    0.000    0.000    0.000    0.000 
#    0.000    0.000    0.000    0.000    0.000    0.000 
#
# Total GULP energy -66997.230586 kJ/mol
# GULP energy per Si atom -5583.102549 kJ/mol
# Density = 2.278192 g / cm^3
# Si number density = 22.833888 Si / 1000 Ang^3
#
#
#
# Elastic Constant Matrix: (Units=GPa)
#
#
# Indices 1 2 3 4 5 6 
#
# 1 163.9680 69.1335 28.6239 -7.6918 -14.6863 -6.3162
# 2 69.1335 200.7557 33.4721 -18.6865 -11.0383 12.4028
# 3 28.6239 33.4721 53.1943 2.0694 -16.3787 5.4847
# 4 -7.6918 -18.6865 2.0694 30.9904 7.4594 -9.1625
# 5 -14.6863 -11.0383 -16.3787 7.4594 24.5469 -9.4700
# 6 -6.3162 12.4028 5.4847 -9.1625 -9.4700 53.7997
#
#
#
# Elastic Compliance Matrix: (Units=1/GPa)
#
#
# Indices 1 2 3 4 5 6 
#
# 1 0.007801 -0.002242 -0.002163 0.000710 0.002880 0.002281
# 2 -0.002242 0.006697 -0.003829 0.004002 -0.002558 -0.001185
# 3 -0.002163 -0.003829 0.028547 -0.009421 0.018663 -0.000601
# 4 0.000710 0.004002 -0.009421 0.040308 -0.014608 0.004415
# 5 0.002880 -0.002558 0.018663 -0.014608 0.061010 0.007277
# 6 0.002281 -0.001185 -0.000601 0.004415 0.007277 0.021222
#
#
# Mechanical properties :
#
#
# Convention : Reuss Voigt Hill
#
# Bulk Modulus (GPa) = 37.62590 75.59746 56.61168
# Shear Modulus (GPa) = 26.19020 40.97998 33.58509
#
# Velocity S-wave (km/s) = 3.39040 4.24099 3.83932
# Velocity P-wave (km/s) = 5.64272 7.56047 6.67087
#
# Compressibility (1/GPa) = 0.02657744
#
# Stress axis : x y z
#
# Youngs Moduli (GPa) = 128.19156 149.32523 35.03025
#
# Poissons Ratio (x) = 0.33483 0.07576
# Poissons Ratio (y) = 0.28744 0.13411
# Poissons Ratio (z) = 0.27724 0.57169
#
# Static dielectric constant tensor:
#      x y z
#    x 1.839450 0.009990 0.074630 
#    y 0.009990 1.858590 0.060030 
#    z 0.074630 0.060030 1.980340 
# 
# From -- ./inp_files/175872.got.cif
#   From: 2010.05.17/outbox.cif.g08.bks.cpg/sg2_88_cif.got.tgz:175872.got - 2010.06.03 11:33:40.
