data_PCOD9080936
_publ_section_title
;
Structure prediction by ZEFSAII (Michael W. Deem and Ramdas Pophale) SiO2 
 PCOD9080936
Probable space group: P -1
;
_chemical_formula_sum "Si O2"
_cell_formula_units_Z 16
_cell_length_a 13.744002
_cell_length_b 20.604840
_cell_length_c 13.781625
_cell_angle_alpha 138.983754
_cell_angle_beta 32.712055
_cell_angle_gamma 156.051519
_cell_volume 854.288487
_symmetry_space_group_name_H-M "P -1"
_symmetry_group_IT_number 2
_symmetry_cell_setting 'triclinic'
loop_
_space_group_symop_operation_xyz
x,y,z
-x,-y,-z
loop_
_atom_site_type_symbol
_atom_site_label
_atom_site_fract_x
_atom_site_fract_y
_atom_site_fract_z
Si Si1 0.193529 0.894092 0.586451
Si Si2 0.831076 0.885772 0.177708
Si Si3 0.743202 0.668709 0.868011
Si Si4 0.101902 0.391976 0.148897
Si Si5 0.219271 0.907918 0.356299
Si Si6 0.458079 0.736936 0.497883
Si Si7 0.758089 0.054473 0.972495
Si Si8 0.085492 0.148939 0.619798
O O1 0.184778 0.860660 0.442939
O O2 0.926968 0.734732 0.691504
O O3 0.500000 0.000000 0.500000
O O4 0.165717 0.001082 0.731646
O O5 0.541049 0.741993 0.324338
O O6 0.091529 0.974239 0.133874
O O7 0.852624 0.815794 0.995605
O O8 0.810552 0.608786 0.818349
O O9 0.396536 0.532691 0.999609
O O10 0.878424 0.386347 0.337955
O O11 0.931964 0.226122 0.057192
O O12 0.934960 0.801562 0.408201
O O13 0.381779 0.085899 0.426867
O O14 0.434142 0.928578 0.140846
O O15 0.617510 0.731000 0.431669
O O16 0.829673 0.076410 0.824190
O O17 0.000000 0.000000 0.500000
#
# Coordination Sequence:
#
# PCOD9080936 Si02
#       8
#     2   2   2   2   2   2   2   2
#     4  11  20  32  48  68  99 127 152 192 238 277
#     4   9  17  29  47  71  95 121 154 193 236 277
#     4  10  19  30  48  69  95 129 162 191 225 278
#     4   9  18  32  47  69  96 126 161 192 228 277
#     4   9  17  28  45  70  94 120 155 189 232 282
#     4   8  15  28  45  67  95 120 150 196 239 267
#     4   9  16  30  50  71  97 122 150 194 238 273
#     4   9  16  27  47  73  95 118 151 196 239 276
#
# _framework density 18.729036000000001
#
# number of rings (size 3 to 8) (size 9 to 14) (size 15 to 20)
#    0.000    2.750    0.000    4.500    0.000    0.500 
#    0.000    2.500    0.000    1.500    0.000    0.000 
#    0.000    0.000    0.000    0.000    0.000    0.000 
#
# Total GULP energy -89163.621473 kJ/mol
# GULP energy per Si atom -5572.726342 kJ/mol
# Density = 1.868641 g / cm^3
# Si number density = 18.729036 Si / 1000 Ang^3
#
#
#
# Elastic Constant Matrix: (Units=GPa)
#
#
# Indices 1 2 3 4 5 6 
#
# 1 108.9469 17.1889 61.1412 -27.2834 6.4976 -5.9343
# 2 17.1889 24.5954 12.0970 -19.7811 2.0659 -3.5057
# 3 61.1412 12.0970 112.2956 -30.2181 2.2283 -0.0951
# 4 -27.2834 -19.7811 -30.2181 35.5626 -1.8363 -4.3727
# 5 6.4976 2.0659 2.2283 -1.8363 27.5563 -0.2428
# 6 -5.9343 -3.5057 -0.0951 -4.3727 -0.2428 9.9238
#
#
#
# Elastic Compliance Matrix: (Units=1/GPa)
#
#
# Indices 1 2 3 4 5 6 
#
# 1 0.015569 0.001907 -0.006083 0.009427 -0.002570 0.014017
# 2 0.001907 0.108726 0.008355 0.077948 -0.003431 0.073891
# 3 -0.006083 0.008355 0.014896 0.013322 0.000538 0.005340
# 4 0.009427 0.077948 0.013322 0.099410 -0.001840 0.077059
# 5 -0.002570 -0.003431 0.000538 -0.001840 0.036963 -0.002651
# 6 0.014017 0.073891 0.005340 0.077059 -0.002651 0.169193
#
#
# Mechanical properties :
#
#
# Convention : Reuss Voigt Hill
#
# Bulk Modulus (GPa) = 6.77736 47.41024 27.09380
# Shear Modulus (GPa) = 10.29694 24.96926 17.63310
#
# Velocity S-wave (km/s) = 2.34729 3.65524 3.07169
# Velocity P-wave (km/s) = 3.31253 6.57139 5.20365
#
# Compressibility (1/GPa) = 0.14755005
#
# Stress axis : x y z
#
# Youngs Moduli (GPa) = 64.22941 9.19740 67.13399
#
# Poissons Ratio (x) = -0.01754 0.40835
# Poissons Ratio (y) = -0.12246 -0.56093
# Poissons Ratio (z) = 0.39068 -0.07685
#
# Static dielectric constant tensor:
#      x y z
#    x 1.685010 0.017130 -0.005260 
#    y 0.017130 1.646960 -0.004830 
#    z -0.005260 -0.004830 1.682310 
# 
# From -- ./inp_files/275036.got.cif
#   From: 2010.05.17/outbox.cif.g08.bks.cpg/sg2_138_cif.got.tgz:275036.got - 2010.06.03 11:33:40.
