data_PCOD9080160
_publ_section_title
;
Structure prediction by ZEFSAII (Michael W. Deem and Ramdas Pophale) SiO2 
 PCOD9080160
Probable space group: P -1
;
_chemical_formula_sum "Si O2"
_cell_formula_units_Z 15
_cell_length_a 12.122231
_cell_length_b 10.486143
_cell_length_c 12.080989
_cell_angle_alpha 122.549176
_cell_angle_beta 39.244018
_cell_angle_gamma 93.258602
_cell_volume 604.370964
_symmetry_space_group_name_H-M "P -1"
_symmetry_group_IT_number 2
_symmetry_cell_setting 'triclinic'
loop_
_space_group_symop_operation_xyz
x,y,z
-x,-y,-z
loop_
_atom_site_type_symbol
_atom_site_label
_atom_site_fract_x
_atom_site_fract_y
_atom_site_fract_z
Si Si1 0.740513 0.205054 0.259957
Si Si2 0.024508 0.499608 0.285949
Si Si3 0.295492 0.790966 0.110710
Si Si4 0.500000 0.000000 0.000000
Si Si5 0.408151 0.382463 0.401988
Si Si6 0.944369 0.749368 0.670307
Si Si7 0.521848 0.816334 0.354833
Si Si8 0.817326 0.099997 0.522159
O O1 0.617335 0.220162 0.248518
O O2 0.735655 0.390464 0.333634
O O3 0.566426 0.242507 0.507184
O O4 0.000000 0.000000 0.000000
O O5 0.063700 0.591842 0.399170
O O6 0.754677 0.667483 0.526827
O O7 0.011693 0.348965 0.290927
O O8 0.220199 0.379778 0.983966
O O9 0.325333 0.740206 0.191688
O O10 0.330483 0.950773 0.141957
O O11 0.482170 0.621730 0.799592
O O12 0.036573 0.892262 0.317974
O O13 0.671359 0.875310 0.916101
O O14 0.056830 0.847779 0.625555
O O15 0.346126 0.903566 0.428278
O O16 0.500000 0.000000 0.500000
#
# Coordination Sequence:
#
# PCOD9080160 Si02
#       8
#     2   2   2   1   2   2   2   2
#     4  11  26  49  74 101 143 198 244 302 360 435
#     4  11  24  42  66 105 140 183 230 298 356 433
#     4  10  21  39  69 107 138 178 234 305 367 424
#     4  10  18  38  64  98 138 178 224 284 362 428
#     4  11  24  45  74 104 141 189 251 294 364 440
#     4  10  22  41  69 103 144 179 229 292 372 424
#     4  12  27  45  69 102 144 194 244 297 358 437
#     4  10  23  41  67 104 140 184 233 297 360 430
#
# _framework density 24.819196000000002
#
# number of rings (size 3 to 8) (size 9 to 14) (size 15 to 20)
#    0.000    1.333    1.333    3.200    3.733    6.400 
#    2.400    0.000    0.000    0.000    0.000    0.000 
#    0.000    0.000    0.000    0.000    0.000    0.000 
#
# Total GULP energy -83699.426933 kJ/mol
# GULP energy per Si atom -5579.961796 kJ/mol
# Density = 2.476271 g / cm^3
# Si number density = 24.819196 Si / 1000 Ang^3
#
#
#
# Elastic Constant Matrix: (Units=GPa)
#
#
# Indices 1 2 3 4 5 6 
#
# 1 158.0708 15.6277 38.2226 -7.1004 -21.2762 -6.5470
# 2 15.6277 62.8873 17.9397 -5.6489 0.5527 -2.9776
# 3 38.2226 17.9397 137.7221 -20.5624 -7.0729 -12.9696
# 4 -7.1004 -5.6489 -20.5624 33.1281 -9.8334 -0.5403
# 5 -21.2762 0.5527 -7.0729 -9.8334 38.7265 0.8437
# 6 -6.5470 -2.9776 -12.9696 -0.5403 0.8437 22.1330
#
#
#
# Elastic Compliance Matrix: (Units=1/GPa)
#
#
# Indices 1 2 3 4 5 6 
#
# 1 0.007486 -0.001305 -0.001293 0.001890 0.004350 0.001162
# 2 -0.001305 0.016855 -0.001582 0.001354 -0.000925 0.001023
# 3 -0.001293 -0.001582 0.009316 0.006040 0.002440 0.004918
# 4 0.001890 0.001354 0.006040 0.038121 0.011698 0.004765
# 5 0.004350 -0.000925 0.002440 0.011698 0.031605 0.001673
# 6 0.001162 0.001023 0.004918 0.004765 0.001673 0.048597
#
#
# Mechanical properties :
#
#
# Convention : Reuss Voigt Hill
#
# Bulk Modulus (GPa) = 39.52949 55.80670 47.66809
# Shear Modulus (GPa) = 29.62541 37.92353 33.77447
#
# Velocity S-wave (km/s) = 3.45867 3.91319 3.69293
# Velocity P-wave (km/s) = 5.64902 6.55374 6.11813
#
# Compressibility (1/GPa) = 0.02529757
#
# Stress axis : x y z
#
# Youngs Moduli (GPa) = 133.57495 59.32827 107.33954
#
# Poissons Ratio (x) = 0.07743 0.13877
# Poissons Ratio (y) = 0.17433 0.16985
# Poissons Ratio (z) = 0.17268 0.09388
#
# Static dielectric constant tensor:
#      x y z
#    x 2.020500 0.002260 0.044290 
#    y 0.002260 2.070630 0.150350 
#    z 0.044290 0.150350 2.066710 
# 
# From -- ./inp_files/426430.got.cif
#   From: 2010.05.17/outbox.cif.g08.bks.cpg/sg2_214_cif.got.tgz:426430.got - 2010.06.03 11:33:40.
