data_PCOD9080955
_publ_section_title
;
Structure prediction by ZEFSAII (Michael W. Deem and Ramdas Pophale) SiO2 
 PCOD9080955
Probable space group: P -1
;
_chemical_formula_sum "Si O2"
_cell_formula_units_Z 12
_cell_length_a 7.833781
_cell_length_b 8.325784
_cell_length_c 8.805446
_cell_angle_alpha 100.273835
_cell_angle_beta 61.574011
_cell_angle_gamma 123.995709
_cell_volume 415.694603
_symmetry_space_group_name_H-M "P -1"
_symmetry_group_IT_number 2
_symmetry_cell_setting 'triclinic'
loop_
_space_group_symop_operation_xyz
x,y,z
-x,-y,-z
loop_
_atom_site_type_symbol
_atom_site_label
_atom_site_fract_x
_atom_site_fract_y
_atom_site_fract_z
Si Si1 0.280584 0.550178 0.232782
Si Si2 0.194133 0.031714 0.720903
Si Si3 0.212916 0.876872 0.362757
Si Si4 0.158609 0.360230 0.765501
Si Si5 0.332877 0.210995 0.145550
Si Si6 0.826494 0.288273 0.172163
O O1 0.264994 0.712396 0.357389
O O2 0.318878 0.386371 0.253398
O O3 0.036492 0.414660 0.223670
O O4 0.464971 0.678064 0.043797
O O5 0.204264 0.979939 0.534314
O O6 0.918380 0.920158 0.853608
O O7 0.298399 0.931698 0.755597
O O8 0.289602 0.256688 0.741711
O O9 0.966582 0.741614 0.355781
O O10 0.349163 0.054183 0.212352
O O11 0.296706 0.593248 0.749335
O O12 0.950849 0.305093 0.963542
#
# Coordination Sequence:
#
# PCOD9080955 Si02
#       6
#     2   2   2   2   2   2
#     4   9  18  30  47  70  94 122 154 188 227 273
#     4  10  19  30  49  73  94 118 151 195 234 265
#     4  10  19  30  49  73  94 118 151 195 234 265
#     4   9  17  30  46  69  95 121 153 189 227 270
#     4   9  17  30  46  69  95 121 153 189 227 270
#     4   9  18  30  47  70  94 122 154 188 227 273
#
# _framework density 28.867345
#
# number of rings (size 3 to 8) (size 9 to 14) (size 15 to 20)
#    0.000    2.667    0.000    3.000    0.000    7.333 
#    0.000    0.000    0.000    4.000    0.000   67.667 
#    0.000    0.000    0.000    0.000    0.000    0.000 
#
# Total GULP energy -67252.189231 kJ/mol
# GULP energy per Si atom -5604.349103 kJ/mol
# Density = 2.880164 g / cm^3
# Si number density = 28.867345 Si / 1000 Ang^3
#
#
#
# Elastic Constant Matrix: (Units=GPa)
#
#
# Indices 1 2 3 4 5 6 
#
# 1 118.0165 74.5110 15.0862 11.0076 5.2110 -46.2087
# 2 74.5110 244.8835 42.7181 47.2522 -3.5135 -46.1015
# 3 15.0862 42.7181 111.1258 10.0280 6.8420 -16.4883
# 4 11.0076 47.2522 10.0280 49.2083 -5.7588 -12.5520
# 5 5.2110 -3.5135 6.8420 -5.7588 24.0656 -0.0282
# 6 -46.2087 -46.1015 -16.4883 -12.5520 -0.0282 83.7987
#
#
#
# Elastic Compliance Matrix: (Units=1/GPa)
#
#
# Indices 1 2 3 4 5 6 
#
# 1 0.012559 -0.003128 0.000387 0.001155 -0.003003 0.005452
# 2 -0.003128 0.006392 -0.001538 -0.004824 0.000894 0.000766
# 3 0.000387 -0.001538 0.009989 -0.000721 -0.003319 0.001223
# 4 0.001155 -0.004824 -0.000721 0.025921 0.005456 0.001725
# 5 -0.003003 0.000894 -0.003319 0.005456 0.044582 -0.000985
# 6 0.005452 0.000766 0.001223 0.001725 -0.000985 0.015860
#
#
# Mechanical properties :
#
#
# Convention : Reuss Voigt Hill
#
# Bulk Modulus (GPa) = 49.06704 82.07293 65.56998
# Shear Modulus (GPa) = 38.26860 54.19520 46.23190
#
# Velocity S-wave (km/s) = 3.64493 4.33758 4.00625
# Velocity P-wave (km/s) = 5.89477 7.31977 6.64557
#
# Compressibility (1/GPa) = 0.02038028
#
# Stress axis : x y z
#
# Youngs Moduli (GPa) = 79.62605 156.45095 100.11396
#
# Poissons Ratio (x) = 0.48943 -0.03878
# Poissons Ratio (y) = 0.24910 0.15402
# Poissons Ratio (z) = -0.03084 0.24068
#
# Static dielectric constant tensor:
#      x y z
#    x 2.318310 -0.059360 -0.021620 
#    y -0.059360 2.230450 -0.039080 
#    z -0.021620 -0.039080 2.158580 
# 
# From -- ./inp_files/146302.got.cif
#   From: 2010.05.17/outbox.cif.g08.bks.cpg/sg2_74_cif.got.tgz:146302.got - 2010.06.03 11:33:40.
