data_PCOD9080472
_publ_section_title
;
Structure prediction by ZEFSAII (Michael W. Deem and Ramdas Pophale) SiO2 
 PCOD9080472
Probable space group: P -1
;
_chemical_formula_sum "Si O2"
_cell_formula_units_Z 16
_cell_length_a 28.945914
_cell_length_b 18.027318
_cell_length_c 12.654579
_cell_angle_alpha 159.066913
_cell_angle_beta 29.922043
_cell_angle_gamma 160.130593
_cell_volume 798.125836
_symmetry_space_group_name_H-M "P -1"
_symmetry_group_IT_number 2
_symmetry_cell_setting 'triclinic'
loop_
_space_group_symop_operation_xyz
x,y,z
-x,-y,-z
loop_
_atom_site_type_symbol
_atom_site_label
_atom_site_fract_x
_atom_site_fract_y
_atom_site_fract_z
Si Si1 0.218103 0.347054 0.171578
Si Si2 0.843768 0.332374 0.359761
Si Si3 0.340919 0.314883 0.696197
Si Si4 0.648955 0.296589 0.233111
Si Si5 0.643940 0.628389 0.864147
Si Si6 0.134983 0.600004 0.152874
Si Si7 0.942113 0.638159 0.787844
Si Si8 0.580843 0.415746 0.313399
O O1 0.199201 0.562938 0.498566
O O2 0.288591 0.359952 0.150025
O O3 0.309856 0.430545 0.000777
O O4 0.066442 0.997978 0.997262
O O5 0.847007 0.458994 0.635496
O O6 0.994066 0.480887 0.244657
O O7 0.742571 0.973284 0.087383
O O8 0.493667 0.473722 0.599323
O O9 0.316399 0.357013 0.682065
O O10 0.242758 0.959526 0.443747
O O11 0.630514 0.423549 0.533515
O O12 0.639478 0.408161 0.291089
O O13 0.793806 0.416904 0.102063
O O14 0.528569 0.927538 0.975493
O O15 0.500000 0.500000 0.000000
O O16 0.117903 0.433076 0.070759
O O17 0.000000 0.500000 0.500000
#
# Coordination Sequence:
#
# PCOD9080472 Si02
#       8
#     2   2   2   2   2   2   2   2
#     4  12  23  40  70  99 131 173 212 269 336 378
#     4  11  24  41  64 100 132 169 220 267 320 390
#     4  10  19  36  64 100 128 156 219 280 316 382
#     4  10  23  42  66  88 127 182 216 261 335 375
#     4  12  27  47  63  93 136 177 219 266 326 399
#     4  10  20  39  65  95 130 166 216 273 324 382
#     4  10  18  39  67  96 131 164 213 269 324 377
#     4   9  21  40  63  95 124 169 225 269 321 381
#
# _framework density 20.046965
#
# number of rings (size 3 to 8) (size 9 to 14) (size 15 to 20)
#    0.000    1.500    5.000    1.125    3.500    2.000 
#    6.750    0.625    0.000    0.000    0.000    0.000 
#    0.000    0.000    0.000    0.000    0.000    0.000 
#
# Total GULP energy -89334.580505 kJ/mol
# GULP energy per Si atom -5583.411282 kJ/mol
# Density = 2.000134 g / cm^3
# Si number density = 20.046965 Si / 1000 Ang^3
#
#
#
# Elastic Constant Matrix: (Units=GPa)
#
#
# Indices 1 2 3 4 5 6 
#
# 1 4.7360 -15.4016 17.3304 12.7889 -27.7797 -10.6717
# 2 -15.4016 49.7617 17.0833 -19.4984 0.5070 -7.1831
# 3 17.3304 17.0833 77.8685 -31.2509 -2.9642 7.1150
# 4 12.7889 -19.4984 -31.2509 23.8501 -1.8572 -0.5528
# 5 -27.7797 0.5070 -2.9642 -1.8572 29.4253 -0.8335
# 6 -10.6717 -7.1831 7.1150 -0.5528 -0.8335 25.8672
#
#
#
# Elastic Compliance Matrix: (Units=1/GPa)
#
#
# Indices 1 2 3 4 5 6 
#
# 1 -0.016340 -0.001568 0.014807 0.025643 -0.012604 -0.011108
# 2 -0.001568 0.032999 0.007972 0.038540 0.001390 0.007192
# 3 0.014807 0.007972 0.016927 0.022196 0.017081 0.004691
# 4 0.025643 0.038540 0.022196 0.091689 0.032083 0.018170
# 5 -0.012604 0.001390 0.017081 0.032083 0.025580 -0.008002
# 6 -0.011108 0.007192 0.004691 0.018170 -0.008002 0.034914
#
#
# Mechanical properties :
#
#
# Convention : Reuss Voigt Hill
#
# Bulk Modulus (GPa) = 13.15641 18.93227 16.04434
# Shear Modulus (GPa) = 29.64173 23.38548 26.51360
#
# Velocity S-wave (km/s) = 3.84945 3.41916 3.64067
# Velocity P-wave (km/s) = 5.13173 5.00520 5.06886
#
# Compressibility (1/GPa) = 0.07600860
#
# Stress axis : x y z
#
# Youngs Moduli (GPa) = -61.19772 30.30411 59.07658
#
# Poissons Ratio (x) = 0.04751 -0.87476
# Poissons Ratio (y) = -0.09595 -0.47097
# Poissons Ratio (z) = 0.90617 -0.24159
#
# Static dielectric constant tensor:
#      x y z
#    x 1.753490 -0.005110 -0.019580 
#    y -0.005110 1.734420 -0.028260 
#    z -0.019580 -0.028260 1.691350 
# 
# From -- ./inp_files/477724.got.cif
#   From: 2010.05.17/outbox.cif.g08.bks.cpg/sg2_239_cif.got.tgz:477724.got - 2010.06.03 11:33:40.
