data_PCOD9080170
_publ_section_title
;
Structure prediction by ZEFSAII (Michael W. Deem and Ramdas Pophale) SiO2 
 PCOD9080170
Probable space group: P -1
;
_chemical_formula_sum "Si O2"
_cell_formula_units_Z 16
_cell_length_a 8.718759
_cell_length_b 12.701468
_cell_length_c 11.353162
_cell_angle_alpha 147.481371
_cell_angle_beta 86.165000
_cell_angle_gamma 112.420407
_cell_volume 536.463477
_symmetry_space_group_name_H-M "P -1"
_symmetry_group_IT_number 2
_symmetry_cell_setting 'triclinic'
loop_
_space_group_symop_operation_xyz
x,y,z
-x,-y,-z
loop_
_atom_site_type_symbol
_atom_site_label
_atom_site_fract_x
_atom_site_fract_y
_atom_site_fract_z
Si Si1 0.999402 0.268600 0.253298
Si Si2 0.904357 0.132386 0.752889
Si Si3 0.327645 0.910190 0.048906
Si Si4 0.370315 0.006206 0.722189
Si Si5 0.654901 0.567661 0.780173
Si Si6 0.293240 0.448572 0.592209
Si Si7 0.980782 0.749204 0.385565
Si Si8 0.497825 0.280078 0.743099
O O1 0.157659 0.341430 0.215865
O O2 0.098546 0.245451 0.339965
O O3 0.000000 0.500000 0.500000
O O4 0.784040 0.058334 0.019039
O O5 0.025548 0.316016 0.811807
O O6 0.708602 0.920096 0.494619
O O7 0.830926 0.181643 0.921304
O O8 0.009787 0.005651 0.645192
O O9 0.349263 0.710214 0.798360
O O10 0.527869 0.059309 0.252272
O O11 0.501464 0.139443 0.723309
O O12 0.157763 0.787464 0.480649
O O13 0.349698 0.207021 0.969097
O O14 0.461315 0.418795 0.565339
O O15 0.638674 0.417564 0.754320
O O16 0.222415 0.435636 0.716196
O O17 0.500000 0.500000 0.000000
#
# Coordination Sequence:
#
# PCOD9080170 Si02
#       8
#     2   2   2   2   2   2   2   2
#     4  10  22  41  60  86 122 160 210 261 293 346
#     4  10  20  37  61  90 132 154 191 254 311 356
#     4  10  22  41  57  86 129 162 199 250 306 349
#     4   9  20  37  60  89 129 156 192 245 310 369
#     4  10  18  38  65  87 113 163 205 250 305 356
#     4  10  21  40  64  88 116 161 215 247 294 366
#     4  10  20  37  62  91 121 159 199 246 301 369
#     4   9  18  34  61  95 121 153 198 240 298 372
#
# _framework density 29.824957000000001
#
# number of rings (size 3 to 8) (size 9 to 14) (size 15 to 20)
#    0.000    2.250    1.250    1.125    0.000    3.500 
#    9.000    3.125    2.750    0.000    0.000    0.000 
#    0.000    0.000    0.000    0.000    0.000    0.000 
#
# Total GULP energy -89564.058707 kJ/mol
# GULP energy per Si atom -5597.753669 kJ/mol
# Density = 2.975707 g / cm^3
# Si number density = 29.824957 Si / 1000 Ang^3
#
#
#
# Elastic Constant Matrix: (Units=GPa)
#
#
# Indices 1 2 3 4 5 6 
#
# 1 241.2794 48.0762 72.7071 -16.7809 3.9288 -18.7720
# 2 48.0762 114.5524 18.2245 -30.4141 -2.1280 20.5312
# 3 72.7071 18.2245 109.0035 -27.3607 20.5778 -12.2031
# 4 -16.7809 -30.4141 -27.3607 36.8758 -6.3395 -6.1032
# 5 3.9288 -2.1280 20.5778 -6.3395 74.5556 -18.7715
# 6 -18.7720 20.5312 -12.2031 -6.1032 -18.7715 58.4369
#
#
#
# Elastic Compliance Matrix: (Units=1/GPa)
#
#
# Indices 1 2 3 4 5 6 
#
# 1 0.005885 -0.002731 -0.003914 -0.001932 0.001076 0.002176
# 2 -0.002731 0.013001 0.001748 0.010080 -0.000135 -0.004071
# 3 -0.003914 0.001748 0.014754 0.010412 -0.002559 0.001475
# 4 -0.001932 0.010080 0.010412 0.043139 0.001978 0.003153
# 5 0.001076 -0.000135 -0.002559 0.001978 0.015497 0.005043
# 6 0.002176 -0.004071 0.001475 0.003153 0.005043 0.021499
#
#
# Mechanical properties :
#
#
# Convention : Reuss Voigt Hill
#
# Bulk Modulus (GPa) = 41.93378 82.53898 62.23638
# Shear Modulus (GPa) = 38.01783 55.69548 46.85666
#
# Velocity S-wave (km/s) = 3.57417 4.32604 3.96795
# Velocity P-wave (km/s) = 5.57883 7.25861 6.47344
#
# Compressibility (1/GPa) = 0.02384712
#
# Stress axis : x y z
#
# Youngs Moduli (GPa) = 169.91211 76.91768 67.77854
#
# Poissons Ratio (x) = 0.21003 0.26526
# Poissons Ratio (y) = 0.46396 -0.11845
# Poissons Ratio (z) = 0.66497 -0.13442
#
# Static dielectric constant tensor:
#      x y z
#    x 2.203960 -0.019120 0.001120 
#    y -0.019120 2.472900 0.025980 
#    z 0.001120 0.025980 2.351420 
# 
# From -- ./inp_files/297843.got.cif
#   From: 2010.05.17/outbox.cif.g08.bks.cpg/sg2_149_cif.got.tgz:297843.got - 2010.06.03 11:33:40.
