data_PCOD9080655
_publ_section_title
;
Structure prediction by ZEFSAII (Michael W. Deem and Ramdas Pophale) SiO2 
 PCOD9080655
Probable space group: P -1
;
_chemical_formula_sum "Si O2"
_cell_formula_units_Z 16
_cell_length_a 14.691358
_cell_length_b 7.886366
_cell_length_c 15.902004
_cell_angle_alpha 48.186490
_cell_angle_beta 152.043786
_cell_angle_gamma 129.832041
_cell_volume 636.682742
_symmetry_space_group_name_H-M "P -1"
_symmetry_group_IT_number 2
_symmetry_cell_setting 'triclinic'
loop_
_space_group_symop_operation_xyz
x,y,z
-x,-y,-z
loop_
_atom_site_type_symbol
_atom_site_label
_atom_site_fract_x
_atom_site_fract_y
_atom_site_fract_z
Si Si1 0.108070 0.050443 0.816954
Si Si2 0.555508 0.248557 0.117317
Si Si3 0.783077 0.460564 0.080380
Si Si4 0.488058 0.155994 0.521260
Si Si5 0.532447 0.556368 0.302588
Si Si6 0.151358 0.999317 0.047514
Si Si7 0.759297 0.246742 0.462643
Si Si8 0.917103 0.833354 0.563228
O O1 0.067363 0.916914 0.916163
O O2 0.995234 0.278027 0.654104
O O3 0.343276 0.095549 0.987476
O O4 0.011645 0.939492 0.690839
O O5 0.672595 0.277491 0.116254
O O6 0.687012 0.231840 0.312738
O O7 0.500000 0.500000 0.000000
O O8 0.767840 0.729721 0.992306
O O9 0.005937 0.415379 0.286366
O O10 0.670251 0.408281 0.917773
O O11 0.484800 0.403983 0.397550
O O12 0.500000 0.000000 0.500000
O O13 0.311360 0.010710 0.474777
O O14 0.679059 0.138063 0.738474
O O15 0.649012 0.421010 0.371096
O O16 0.683731 0.778818 0.377881
O O17 0.000000 0.000000 0.000000
O O18 0.000000 0.000000 0.500000
#
# Coordination Sequence:
#
# PCOD9080655 Si02
#       8
#     2   2   2   2   2   2   2   2
#     4  12  26  43  67 103 139 183 230 284 349 411
#     4  12  22  41  67 105 131 168 242 296 348 399
#     4  12  24  45  73 100 136 187 233 293 348 411
#     4  10  18  40  69 104 133 167 226 290 346 404
#     4  11  23  43  70 103 134 181 235 282 348 416
#     4  12  22  43  75 106 138 175 234 300 351 403
#     4  11  22  41  73 101 136 172 232 299 348 401
#     4  12  29  47  64 100 149 194 231 275 351 429
#
# _framework density 25.130255999999999
#
# number of rings (size 3 to 8) (size 9 to 14) (size 15 to 20)
#    0.000    0.500    6.250    4.500    0.000    3.500 
#    0.000    3.125    0.000    0.000    0.000    0.000 
#    0.000    0.000    0.000    0.000    0.000    0.000 
#
# Total GULP energy -89491.256437 kJ/mol
# GULP energy per Si atom -5593.203527 kJ/mol
# Density = 2.507306 g / cm^3
# Si number density = 25.130256 Si / 1000 Ang^3
#
#
#
# Elastic Constant Matrix: (Units=GPa)
#
#
# Indices 1 2 3 4 5 6 
#
# 1 85.5810 23.4707 48.7761 3.2727 -38.3554 18.0105
# 2 23.4707 66.5953 22.7819 3.0752 -25.7601 11.9836
# 3 48.7761 22.7819 213.6854 8.0557 -36.3604 13.1733
# 4 3.2727 3.0752 8.0557 40.3176 -1.1511 -3.4189
# 5 -38.3554 -25.7601 -36.3604 -1.1511 59.2711 -3.7183
# 6 18.0105 11.9836 13.1733 -3.4189 -3.7183 44.1956
#
#
#
# Elastic Compliance Matrix: (Units=1/GPa)
#
#
# Indices 1 2 3 4 5 6 
#
# 1 0.019052 -0.000866 -0.002082 -0.001292 0.010264 -0.006145
# 2 -0.000866 0.019054 -0.000283 -0.001478 0.007252 -0.004233
# 3 -0.002082 -0.000283 0.005583 -0.000926 0.001896 -0.000651
# 4 -0.001292 -0.001478 -0.000926 0.025426 -0.001361 0.003056
# 5 0.010264 0.007252 0.001896 -0.001361 0.027520 -0.004504
# 6 -0.006145 -0.004233 -0.000651 0.003056 -0.004504 0.026330
#
#
# Mechanical properties :
#
#
# Convention : Reuss Voigt Hill
#
# Bulk Modulus (GPa) = 26.86352 61.76878 44.31615
# Shear Modulus (GPa) = 35.25192 46.81240 41.03216
#
# Velocity S-wave (km/s) = 3.74942 4.32069 4.04515
# Velocity P-wave (km/s) = 5.42744 7.03732 6.28415
#
# Compressibility (1/GPa) = 0.03722520
#
# Stress axis : x y z
#
# Youngs Moduli (GPa) = 52.48745 52.48354 179.12044
#
# Poissons Ratio (x) = 0.04548 0.37300
# Poissons Ratio (y) = 0.04548 0.05066
# Poissons Ratio (z) = 0.10930 0.01484
#
# Static dielectric constant tensor:
#      x y z
#    x 2.299700 -0.973220 0.603950 
#    y -0.973220 7.537440 -2.913700 
#    z 0.603950 -2.913700 3.565080 
# 
# From -- ./inp_files/274227.got.cif
#   From: 2010.05.17/outbox.cif.g08.bks.cpg/sg2_138_cif.got.tgz:274227.got - 2010.06.03 11:33:40.
