data_PCOD9080937
_publ_section_title
;
Structure prediction by ZEFSAII (Michael W. Deem and Ramdas Pophale) SiO2 
 PCOD9080937
Probable space group: P -1
;
_chemical_formula_sum "Si O2"
_cell_formula_units_Z 16
_cell_length_a 17.301060
_cell_length_b 17.354008
_cell_length_c 15.610790
_cell_angle_alpha 24.526666
_cell_angle_beta 148.586799
_cell_angle_gamma 161.484569
_cell_volume 616.343099
_symmetry_space_group_name_H-M "P -1"
_symmetry_group_IT_number 2
_symmetry_cell_setting 'triclinic'
loop_
_space_group_symop_operation_xyz
x,y,z
-x,-y,-z
loop_
_atom_site_type_symbol
_atom_site_label
_atom_site_fract_x
_atom_site_fract_y
_atom_site_fract_z
Si Si1 0.717923 0.431822 0.338087
Si Si2 0.094571 0.238938 0.277458
Si Si3 0.938525 0.856255 0.846297
Si Si4 0.268597 0.651409 0.159065
Si Si5 0.613340 0.648368 0.135296
Si Si6 0.903958 0.256751 0.354012
Si Si7 0.190066 0.708890 0.593043
Si Si8 0.515682 0.649325 0.512750
O O1 0.679710 0.606704 0.153388
O O2 0.781149 0.435087 0.298295
O O3 0.947121 0.576949 0.462730
O O4 0.449860 0.075707 0.460619
O O5 0.975464 0.121449 0.189970
O O6 0.110106 0.444537 0.135181
O O7 0.356145 0.418314 0.315568
O O8 0.000000 0.000000 0.500000
O O9 0.657760 0.535906 0.932069
O O10 0.927160 0.073262 0.604874
O O11 0.148354 0.002117 0.963195
O O12 0.369521 0.552466 0.388305
O O13 0.132982 0.560951 0.210849
O O14 0.500000 0.000000 0.000000
O O15 0.598782 0.485630 0.365001
O O16 0.841016 0.336070 0.288845
O O17 0.706292 0.006489 0.347807
#
# Coordination Sequence:
#
# PCOD9080937 Si02
#       8
#     2   2   2   2   2   2   2   2
#     4  10  16  25  41  71 103 126 169 200 259 308
#     4  10  18  35  52  74  95 135 183 215 262 324
#     4  10  18  27  51  68  94 130 169 205 250 306
#     4  12  23  35  52  76 103 135 183 229 266 309
#     4  10  15  29  46  73  96 131 163 209 254 310
#     4  10  18  33  45  68  99 138 173 203 269 310
#     4  10  18  25  43  67  99 142 158 206 251 330
#     4  10  19  32  56  67  98 141 171 215 258 319
#
# _framework density 25.959567
#
# number of rings (size 3 to 8) (size 9 to 14) (size 15 to 20)
#    0.000    2.000    7.500    0.375    0.000    1.500 
#    0.000    0.000    0.000    0.000    0.000    0.000 
#    0.000    5.000    0.250    1.000    0.000    0.750 
#
# Total GULP energy -89256.945754 kJ/mol
# GULP energy per Si atom -5578.559110 kJ/mol
# Density = 2.590048 g / cm^3
# Si number density = 25.959567 Si / 1000 Ang^3
#
#
#
# Elastic Constant Matrix: (Units=GPa)
#
#
# Indices 1 2 3 4 5 6 
#
# 1 232.1878 56.1265 34.7682 -25.1632 18.8957 -11.8995
# 2 56.1265 154.9631 25.7312 -22.8382 -9.1950 5.1515
# 3 34.7682 25.7312 58.7870 -2.7194 -4.1857 5.0061
# 4 -25.1632 -22.8382 -2.7194 33.5029 3.8518 -2.5416
# 5 18.8957 -9.1950 -4.1857 3.8518 33.0295 -11.4941
# 6 -11.8995 5.1515 5.0061 -2.5416 -11.4941 40.8555
#
#
#
# Elastic Compliance Matrix: (Units=1/GPa)
#
#
# Indices 1 2 3 4 5 6 
#
# 1 0.005929 -0.001347 -0.003149 0.003859 -0.004144 0.001357
# 2 -0.001347 0.008065 -0.002371 0.004026 0.002154 -0.000262
# 3 -0.003149 -0.002371 0.020208 -0.002891 0.003215 -0.002370
# 4 0.003859 0.004026 -0.002891 0.035970 -0.005023 0.001795
# 5 -0.004144 0.002154 0.003215 -0.005023 0.037112 0.008256
# 6 0.001357 -0.000262 -0.002370 0.001795 0.008256 0.027629
#
#
# Mechanical properties :
#
#
# Convention : Reuss Voigt Hill
#
# Bulk Modulus (GPa) = 48.85955 75.46552 62.16253
# Shear Modulus (GPa) = 32.16055 43.43173 37.79614
#
# Velocity S-wave (km/s) = 3.52358 4.09473 3.81985
# Velocity P-wave (km/s) = 5.95117 7.17561 6.59188
#
# Compressibility (1/GPa) = 0.02046683
#
# Stress axis : x y z
#
# Youngs Moduli (GPa) = 168.66533 123.99894 49.48550
#
# Poissons Ratio (x) = 0.16700 0.15583
# Poissons Ratio (y) = 0.22716 0.11735
# Poissons Ratio (z) = 0.53114 0.29405
#
# Static dielectric constant tensor:
#      x y z
#    x 2.037600 0.048270 0.023300 
#    y 0.048270 2.221060 -0.029740 
#    z 0.023300 -0.029740 2.064900 
# 
# From -- ./inp_files/576218.got.cif
#   From: 2010.05.17/outbox.cif.g08.bks.cpg/sg2_289_cif.got.tgz:576218.got - 2010.06.03 11:33:40.
