data_PCOD9080931
_publ_section_title
;
Structure prediction by ZEFSAII (Michael W. Deem and Ramdas Pophale) SiO2 
 PCOD9080931
Probable space group: P -1
;
_chemical_formula_sum "Si O2"
_cell_formula_units_Z 16
_cell_length_a 19.401821
_cell_length_b 26.888779
_cell_length_c 9.074998
_cell_angle_alpha 37.330329
_cell_angle_beta 147.410579
_cell_angle_gamma 164.242957
_cell_volume 688.452452
_symmetry_space_group_name_H-M "P -1"
_symmetry_group_IT_number 2
_symmetry_cell_setting 'triclinic'
loop_
_space_group_symop_operation_xyz
x,y,z
-x,-y,-z
loop_
_atom_site_type_symbol
_atom_site_label
_atom_site_fract_x
_atom_site_fract_y
_atom_site_fract_z
Si Si1 0.647750 0.390928 0.071881
Si Si2 0.687623 0.938809 0.466322
Si Si3 0.054834 0.582962 0.615491
Si Si4 0.990466 0.006993 0.223484
Si Si5 0.338056 0.793481 0.900316
Si Si6 0.532883 0.077276 0.638600
Si Si7 0.081653 0.291307 0.202875
Si Si8 0.968601 0.112284 0.178514
O O1 0.842413 0.448088 0.176946
O O2 0.781680 0.449963 0.335981
O O3 0.325306 0.176861 0.978007
O O4 0.674992 0.502582 0.815349
O O5 0.780379 0.898479 0.699837
O O6 0.981399 0.158206 0.436367
O O7 0.594542 0.926191 0.479740
O O8 0.431209 0.812035 0.185126
O O9 0.074742 0.608050 0.766937
O O10 0.298080 0.784398 0.515808
O O11 0.983957 0.936254 0.510396
O O12 0.047828 0.126442 0.125985
O O13 0.320041 0.881797 0.672444
O O14 0.630733 0.938618 0.995875
O O15 0.789098 0.177290 0.949663
O O16 0.119077 0.275845 0.142121
#
# Coordination Sequence:
#
# PCOD9080931 Si02
#       8
#     2   2   2   2   2   2   2   2
#     4  10  19  30  47  74 106 129 159 208 242 295
#     4   9  18  30  53  77 100 127 161 205 253 290
#     4  10  19  30  49  76  98 133 164 201 249 284
#     4   9  16  29  48  74 101 127 159 206 246 290
#     4   9  15  29  52  76  95 117 170 215 238 270
#     4   9  17  31  50  77 103 124 163 208 246 293
#     4   8  16  29  49  75  95 126 160 208 247 276
#     4   8  15  27  48  75  96 115 169 212 242 267
#
# _framework density 23.240531000000001
#
# number of rings (size 3 to 8) (size 9 to 14) (size 15 to 20)
#    0.000    3.500    1.250    1.875    0.000    2.000 
#    0.000    0.625    0.000   12.750    0.000    0.000 
#    0.000    0.000    0.000    0.000    0.000    0.000 
#
# Total GULP energy -89220.063789 kJ/mol
# GULP energy per Si atom -5576.253987 kJ/mol
# Density = 2.318763 g / cm^3
# Si number density = 23.240531 Si / 1000 Ang^3
#
#
#
# Elastic Constant Matrix: (Units=GPa)
#
#
# Indices 1 2 3 4 5 6 
#
# 1 88.4755 3.8186 6.5022 9.7831 45.4566 -2.8293
# 2 3.8186 25.7813 -33.4878 9.9728 39.0382 -0.4897
# 3 6.5022 -33.4878 -18.3052 15.7253 56.1305 16.3280
# 4 9.7831 9.9728 15.7253 25.4795 -17.5851 -3.1880
# 5 45.4566 39.0382 56.1305 -17.5851 3.1615 -23.4090
# 6 -2.8293 -0.4897 16.3280 -3.1880 -23.4090 16.1927
#
#
#
# Elastic Compliance Matrix: (Units=1/GPa)
#
#
# Indices 1 2 3 4 5 6 
#
# 1 0.016346 -0.003692 -0.010358 -0.003150 -0.007214 0.002139
# 2 -0.003692 0.021817 -0.005344 0.002592 0.006515 0.015332
# 3 -0.010358 -0.005344 0.016743 0.008283 0.016879 0.007178
# 4 -0.003150 0.002592 0.008283 0.031827 -0.002506 -0.006181
# 5 -0.007214 0.006515 0.016879 -0.002506 0.011498 -0.001955
# 6 0.002139 0.015332 0.007178 -0.006181 -0.001955 0.051313
#
#
# Mechanical properties :
#
#
# Convention : Reuss Voigt Hill
#
# Bulk Modulus (GPa) = 62.04642 5.51305 33.77974
# Shear Modulus (GPa) = 25.81230 16.90798 21.36014
#
# Velocity S-wave (km/s) = 3.33627 2.70019 3.03494
# Velocity P-wave (km/s) = 6.44953 3.47831 5.18146
#
# Compressibility (1/GPa) = 0.01611697
#
# Stress axis : x y z
#
# Youngs Moduli (GPa) = 61.17530 45.83605 59.72698
#
# Poissons Ratio (x) = 0.16925 0.61866
# Poissons Ratio (y) = 0.22588 0.31918
# Poissons Ratio (z) = 0.63366 0.24495
#
# Static dielectric constant tensor:
#      x y z
#    x 1.922240 0.015200 -0.048090 
#    y 0.015200 1.937470 -0.044390 
#    z -0.048090 -0.044390 1.943630 
# 
# From -- ./inp_files/472984.got.cif
#   From: 2010.05.17/outbox.cif.g08.bks.cpg/sg2_237_cif.got.tgz:472984.got - 2010.06.03 11:33:40.
