data_PCOD9080512
_publ_section_title
;
Structure prediction by ZEFSAII (Michael W. Deem and Ramdas Pophale) SiO2 
 PCOD9080512
Probable space group: P -1
;
_chemical_formula_sum "Si O2"
_cell_formula_units_Z 16
_cell_length_a 12.602303
_cell_length_b 18.380291
_cell_length_c 14.988285
_cell_angle_alpha 29.881264
_cell_angle_beta 46.803960
_cell_angle_gamma 26.005767
_cell_volume 683.296691
_symmetry_space_group_name_H-M "P -1"
_symmetry_group_IT_number 2
_symmetry_cell_setting 'triclinic'
loop_
_space_group_symop_operation_xyz
x,y,z
-x,-y,-z
loop_
_atom_site_type_symbol
_atom_site_label
_atom_site_fract_x
_atom_site_fract_y
_atom_site_fract_z
Si Si1 0.546678 0.418394 0.456863
Si Si2 0.526607 0.893593 0.507311
Si Si3 0.952268 0.336562 0.942242
Si Si4 0.636883 0.013891 0.781720
Si Si5 0.861722 0.965584 0.525503
Si Si6 0.477384 0.479092 0.928919
Si Si7 0.071276 0.020891 0.055589
Si Si8 0.232679 0.186447 0.713735
O O1 0.500000 0.500000 0.500000
O O2 0.525998 0.263078 0.615737
O O3 0.306363 0.708164 0.240128
O O4 0.837632 0.232826 0.454305
O O5 0.784680 0.570676 0.718127
O O6 0.261325 0.027173 0.491857
O O7 0.585346 0.952285 0.330596
O O8 0.500000 0.000000 0.500000
O O9 0.730050 0.477155 0.993535
O O10 0.062157 0.102032 0.074730
O O11 0.188300 0.201902 0.009578
O O12 0.811278 0.918490 0.695729
O O13 0.412593 0.091799 0.793235
O O14 0.663159 0.273084 0.308876
O O15 0.500000 0.500000 0.000000
O O16 0.778029 0.200471 0.020915
O O17 0.120994 0.120456 0.861386
O O18 0.000000 0.500000 0.500000
#
# Coordination Sequence:
#
# PCOD9080512 Si02
#       8
#     2   2   2   2   2   2   2   2
#     4  12  24  40  65 113 141 168 237 298 341 393
#     4  11  25  44  72  98 131 188 244 277 331 426
#     4  11  21  42  71  99 132 185 232 273 353 414
#     4  11  25  43  73  99 138 193 225 278 354 423
#     4  11  22  44  68  94 142 182 226 284 344 418
#     4  10  18  39  70  92 131 184 223 267 344 414
#     4  11  22  42  70 103 145 177 226 295 347 402
#     4  11  24  49  68  96 144 187 226 281 359 414
#
# _framework density 23.415890000000001
#
# number of rings (size 3 to 8) (size 9 to 14) (size 15 to 20)
#    0.000    1.000    6.250    1.875    0.000    3.500 
#    0.000    3.750    0.000    0.000    0.000    0.000 
#    0.000    0.000    0.000    0.000    0.000    0.000 
#
# Total GULP energy -89516.148593 kJ/mol
# GULP energy per Si atom -5594.759287 kJ/mol
# Density = 2.336259 g / cm^3
# Si number density = 23.415890 Si / 1000 Ang^3
#
#
#
# Elastic Constant Matrix: (Units=GPa)
#
#
# Indices 1 2 3 4 5 6 
#
# 1 107.5413 33.3152 7.9220 -9.0121 18.4373 10.9946
# 2 33.3152 81.3384 29.5972 -16.1508 4.9892 -15.3691
# 3 7.9220 29.5972 68.7754 -7.7748 8.8081 -8.6172
# 4 -9.0121 -16.1508 -7.7748 42.2375 -1.9392 3.6971
# 5 18.4373 4.9892 8.8081 -1.9392 34.9764 -7.7338
# 6 10.9946 -15.3691 -8.6172 3.6971 -7.7338 30.4063
#
#
#
# Elastic Compliance Matrix: (Units=1/GPa)
#
#
# Indices 1 2 3 4 5 6 
#
# 1 0.014442 -0.007868 0.001615 0.000924 -0.009328 -0.011226
# 2 -0.007868 0.020802 -0.006764 0.004212 0.005864 0.012422
# 3 0.001615 -0.006764 0.017905 0.000866 -0.004380 -0.000148
# 4 0.000924 0.004212 0.000866 0.025735 -0.000127 -0.001121
# 5 -0.009328 0.005864 -0.004380 -0.000127 0.036977 0.014516
# 6 -0.011226 0.012422 -0.000148 -0.001121 0.014516 0.047013
#
#
# Mechanical properties :
#
#
# Convention : Reuss Voigt Hill
#
# Bulk Modulus (GPa) = 36.88061 44.36930 40.62496
# Shear Modulus (GPa) = 25.25914 33.97876 29.61895
#
# Velocity S-wave (km/s) = 3.28795 3.81346 3.56041
# Velocity P-wave (km/s) = 5.49532 6.19512 5.85568
#
# Compressibility (1/GPa) = 0.02711452
#
# Stress axis : x y z
#
# Youngs Moduli (GPa) = 69.24340 48.07122 55.84930
#
# Poissons Ratio (x) = 0.37825 -0.09021
# Poissons Ratio (y) = 0.54484 0.37778
# Poissons Ratio (z) = -0.11184 0.32517
#
# Static dielectric constant tensor:
#      x y z
#    x 1.878170 0.027720 0.021610 
#    y 0.027720 1.910910 0.000480 
#    z 0.021610 0.000480 1.927990 
# 
# From -- ./inp_files/523433.got.cif
#   From: 2010.05.17/outbox.cif.g08.bks.cpg/sg2_262_cif.got.tgz:523433.got - 2010.06.03 11:33:40.
