data_PCOD9080913
_publ_section_title
;
Structure prediction by ZEFSAII (Michael W. Deem and Ramdas Pophale) SiO2 
 PCOD9080913
Probable space group: P -1
;
_chemical_formula_sum "Si O2"
_cell_formula_units_Z 16
_cell_length_a 15.304276
_cell_length_b 14.038827
_cell_length_c 12.197056
_cell_angle_alpha 159.236324
_cell_angle_beta 68.378124
_cell_angle_gamma 109.592448
_cell_volume 863.326709
_symmetry_space_group_name_H-M "P -1"
_symmetry_group_IT_number 2
_symmetry_cell_setting 'triclinic'
loop_
_space_group_symop_operation_xyz
x,y,z
-x,-y,-z
loop_
_atom_site_type_symbol
_atom_site_label
_atom_site_fract_x
_atom_site_fract_y
_atom_site_fract_z
Si Si1 0.892210 0.088141 0.634234
Si Si2 0.682599 0.782028 0.008474
Si Si3 0.345845 0.440625 0.880410
Si Si4 0.757635 0.011349 0.423196
Si Si5 0.305268 0.300564 0.338316
Si Si6 0.443189 0.691906 0.404135
Si Si7 0.206374 0.367119 0.675727
Si Si8 0.425334 0.786757 0.763831
O O1 0.853484 0.047134 0.484281
O O2 0.832020 0.906208 0.549372
O O3 0.868088 0.396243 0.005697
O O4 0.000000 0.000000 0.500000
O O5 0.760671 0.905045 0.183445
O O6 0.599800 0.013239 0.285955
O O7 0.715402 0.694243 0.777010
O O8 0.635663 0.527466 0.812732
O O9 0.298105 0.204288 0.713361
O O10 0.457316 0.394442 0.785589
O O11 0.302993 0.427348 0.762315
O O12 0.305728 0.718056 0.246958
O O13 0.227589 0.364562 0.534348
O O14 0.388522 0.518743 0.551403
O O15 0.336043 0.990880 0.011832
O O16 0.459697 0.691171 0.526416
O O17 0.500000 0.000000 0.000000
#
# Coordination Sequence:
#
# PCOD9080913 Si02
#       8
#     2   2   2   2   2   2   2   2
#     4  10  21  38  60  82 101 124 160 211 268 321
#     4  10  21  34  48  71 103 143 177 202 244 293
#     4  10  20  32  49  74 101 134 176 216 249 285
#     4  10  21  35  52  73 100 134 168 209 259 306
#     4  10  20  33  50  72 102 137 171 209 250 302
#     4  10  20  31  46  71 103 141 180 211 241 283
#     4  10  20  35  56  80 104 130 165 211 263 305
#     4  10  19  30  46  69 101 141 181 216 247 279
#
# _framework density 18.532959999999999
#
# number of rings (size 3 to 8) (size 9 to 14) (size 15 to 20)
#    0.000    2.000    0.000    3.750    0.000    7.000 
#    0.000    0.000    0.000    1.500    0.000    0.000 
#    0.000    0.000    0.000    0.000    0.000    0.000 
#
# Total GULP energy -89217.606719 kJ/mol
# GULP energy per Si atom -5576.100420 kJ/mol
# Density = 1.849078 g / cm^3
# Si number density = 18.532960 Si / 1000 Ang^3
#
#
#
# Elastic Constant Matrix: (Units=GPa)
#
#
# Indices 1 2 3 4 5 6 
#
# 1 57.4008 18.5118 12.8709 -24.1106 5.5308 -7.0688
# 2 18.5118 55.8634 24.1885 1.2220 2.7686 -9.2121
# 3 12.8709 24.1885 79.7537 1.9806 6.8315 -10.5729
# 4 -24.1106 1.2220 1.9806 44.0881 -10.9277 2.1938
# 5 5.5308 2.7686 6.8315 -10.9277 21.0729 2.0709
# 6 -7.0688 -9.2121 -10.5729 2.1938 2.0709 15.7650
#
#
#
# Elastic Compliance Matrix: (Units=1/GPa)
#
#
# Indices 1 2 3 4 5 6 
#
# 1 0.027244 -0.007977 -0.002072 0.015598 0.002295 0.003693
# 2 -0.007977 0.024257 -0.004397 -0.006223 -0.003781 0.009012
# 3 -0.002072 -0.004397 0.016056 -0.003891 -0.006959 0.008726
# 4 0.015598 -0.006223 -0.003891 0.036200 0.017404 -0.006576
# 5 0.002295 -0.003781 -0.006959 0.017404 0.060220 -0.016179
# 6 0.003693 0.009012 0.008726 -0.006576 -0.016179 0.079246
#
#
# Mechanical properties :
#
#
# Convention : Reuss Voigt Hill
#
# Bulk Modulus (GPa) = 25.86205 33.79559 29.82882
# Shear Modulus (GPa) = 17.54369 25.34830 21.44599
#
# Velocity S-wave (km/s) = 3.08006 3.70231 3.40543
# Velocity P-wave (km/s) = 5.16081 6.04575 5.62072
#
# Compressibility (1/GPa) = 0.03866670
#
# Stress axis : x y z
#
# Youngs Moduli (GPa) = 36.70533 41.22441 62.28239
#
# Poissons Ratio (x) = 0.32884 0.12903
# Poissons Ratio (y) = 0.29280 0.27383
# Poissons Ratio (z) = 0.07604 0.18125
#
# Static dielectric constant tensor:
#      x y z
#    x 1.646860 -0.037020 0.055080 
#    y -0.037020 1.643310 -0.009810 
#    z 0.055080 -0.009810 1.658770 
# 
# From -- ./inp_files/75699.got.cif
#   From: 2010.05.17/outbox.cif.g08.bks.cpg/sg2_38_cif.got.tgz:75699.got - 2010.06.03 11:33:40.
