data_PCOD9080311
_publ_section_title
;
Structure prediction by ZEFSAII (Michael W. Deem and Ramdas Pophale) SiO2 
 PCOD9080311
Probable space group: P -1
;
_chemical_formula_sum "Si O2"
_cell_formula_units_Z 16
_cell_length_a 12.922988
_cell_length_b 11.286884
_cell_length_c 13.214498
_cell_angle_alpha 44.509737
_cell_angle_beta 64.633347
_cell_angle_gamma 100.329396
_cell_volume 785.777581
_symmetry_space_group_name_H-M "P -1"
_symmetry_group_IT_number 2
_symmetry_cell_setting 'triclinic'
loop_
_space_group_symop_operation_xyz
x,y,z
-x,-y,-z
loop_
_atom_site_type_symbol
_atom_site_label
_atom_site_fract_x
_atom_site_fract_y
_atom_site_fract_z
Si Si1 0.826553 0.907310 0.088406
Si Si2 0.826755 0.036050 0.777974
Si Si3 0.674949 0.231741 0.719876
Si Si4 0.086574 0.836694 0.910415
Si Si5 0.587226 0.930053 0.463152
Si Si6 0.184318 0.310394 0.481753
Si Si7 0.500138 0.506724 0.116449
Si Si8 0.674954 0.401274 0.410047
O O1 0.681828 0.596156 0.337337
O O2 0.823752 0.052311 0.083074
O O3 0.826992 0.974956 0.932554
O O4 0.000000 0.000000 0.000000
O O5 0.793141 0.197271 0.693965
O O6 0.019618 0.201832 0.556763
O O7 0.679796 0.773672 0.933009
O O8 0.768196 0.500523 0.566528
O O9 0.634898 0.228249 0.622555
O O10 0.500000 0.000000 0.000000
O O11 0.203123 0.835629 0.797466
O O12 0.128321 0.066373 0.701498
O O13 0.872875 0.582509 0.169990
O O14 0.550982 0.735782 0.673236
O O15 0.471749 0.762111 0.514383
O O16 0.500000 0.000000 0.500000
O O17 0.351193 0.465748 0.246281
O O18 0.500000 0.500000 0.000000
#
# Coordination Sequence:
#
# PCOD9080311 Si02
#       8
#     2   2   2   2   2   2   2   2
#     4  10  18  38  70  99 124 161 215 261 324 406
#     4  12  23  43  68  98 136 175 214 268 342 391
#     4  12  26  40  64 107 144 170 206 272 341 405
#     4  10  21  41  70  98 125 170 218 272 325 388
#     4  11  26  42  68  94 123 175 229 276 321 376
#     4  11  21  43  70  96 132 173 221 267 327 406
#     4  11  26  46  66  93 134 176 226 277 324 397
#     4  11  22  44  66  95 134 168 220 270 324 399
#
# _framework density 20.361996999999999
#
# number of rings (size 3 to 8) (size 9 to 14) (size 15 to 20)
#    0.000    1.000    6.250    1.125    3.500    1.500 
#    2.250    0.000    0.000    0.000    0.000    0.000 
#    0.000    0.000    0.000    0.000    0.000    0.000 
#
# Total GULP energy -89334.940952 kJ/mol
# GULP energy per Si atom -5583.433809 kJ/mol
# Density = 2.031565 g / cm^3
# Si number density = 20.361997 Si / 1000 Ang^3
#
#
#
# Elastic Constant Matrix: (Units=GPa)
#
#
# Indices 1 2 3 4 5 6 
#
# 1 93.2888 26.5423 29.4536 13.5452 1.4440 5.8027
# 2 26.5423 55.6630 12.5042 19.9369 -0.1544 11.3749
# 3 29.4536 12.5042 73.1816 11.8745 -4.6126 17.4867
# 4 13.5452 19.9369 11.8745 21.5951 5.4263 8.6550
# 5 1.4440 -0.1544 -4.6126 5.4263 43.4327 3.4496
# 6 5.8027 11.3749 17.4867 8.6550 3.4496 39.4088
#
#
#
# Elastic Compliance Matrix: (Units=1/GPa)
#
#
# Indices 1 2 3 4 5 6 
#
# 1 0.013952 -0.005382 -0.005008 -0.001651 -0.000981 0.002170
# 2 -0.005382 0.029650 0.002236 -0.024739 0.003904 -0.003667
# 3 -0.005008 0.002236 0.018302 -0.007168 0.003551 -0.006766
# 4 -0.001651 -0.024739 -0.007168 0.079053 -0.010202 -0.005905
# 5 -0.000981 0.003904 0.003551 -0.010202 0.024921 -0.002499
# 6 0.002170 -0.003667 -0.006766 -0.005905 -0.002499 0.030631
#
#
# Mechanical properties :
#
#
# Convention : Reuss Voigt Hill
#
# Bulk Modulus (GPa) = 21.93191 39.90375 30.91783
# Shear Modulus (GPa) = 21.92830 31.12954 26.52892
#
# Velocity S-wave (km/s) = 3.28521 3.91424 3.61344
# Velocity P-wave (km/s) = 5.01842 6.32993 5.71194
#
# Compressibility (1/GPa) = 0.04559567
#
# Stress axis : x y z
#
# Youngs Moduli (GPa) = 71.67455 33.72648 54.64007
#
# Poissons Ratio (x) = 0.18153 0.27364
# Poissons Ratio (y) = 0.38579 -0.12220
# Poissons Ratio (z) = 0.35894 -0.07543
#
# Static dielectric constant tensor:
#      x y z
#    x 1.729450 -0.017100 -0.037680 
#    y -0.017100 1.738800 0.018970 
#    z -0.037680 0.018970 1.763690 
# 
# From -- ./inp_files/273523.got.cif
#   From: 2010.05.17/outbox.cif.g08.bks.cpg/sg2_137_cif.got.tgz:273523.got - 2010.06.03 11:33:40.
