data_PCOD9080648
_publ_section_title
;
Structure prediction by ZEFSAII (Michael W. Deem and Ramdas Pophale) SiO2 
 PCOD9080648
Probable space group: P -1
;
_chemical_formula_sum "Si O2"
_cell_formula_units_Z 16
_cell_length_a 11.184084
_cell_length_b 10.077682
_cell_length_c 14.358854
_cell_angle_alpha 126.249387
_cell_angle_beta 149.741409
_cell_angle_gamma 52.782036
_cell_volume 639.789559
_symmetry_space_group_name_H-M "P -1"
_symmetry_group_IT_number 2
_symmetry_cell_setting 'triclinic'
loop_
_space_group_symop_operation_xyz
x,y,z
-x,-y,-z
loop_
_atom_site_type_symbol
_atom_site_label
_atom_site_fract_x
_atom_site_fract_y
_atom_site_fract_z
Si Si1 0.743262 0.167875 0.263946
Si Si2 0.511157 0.256127 0.771745
Si Si3 0.183435 0.743361 0.856905
Si Si4 0.184069 0.220513 0.911103
Si Si5 0.980291 0.860168 0.041128
Si Si6 0.704940 0.632306 0.508312
Si Si7 0.514807 0.113016 0.392455
Si Si8 0.169644 0.688767 0.435122
O O1 0.776628 0.253302 0.224480
O O2 0.899195 0.211219 0.472701
O O3 0.791617 0.968088 0.193223
O O4 0.457255 0.229595 0.123144
O O5 0.358152 0.385206 0.649019
O O6 0.778308 0.201975 0.881375
O O7 0.401216 0.089352 0.631251
O O8 0.571428 0.305040 0.936538
O O9 0.986684 0.637965 0.705355
O O10 0.062513 0.940848 0.881805
O O11 0.029010 0.235142 0.907273
O O12 0.050331 0.340200 0.789197
O O13 0.744861 0.845998 0.817567
O O14 0.537361 0.806234 0.507226
O O15 0.666826 0.487655 0.492186
O O16 0.690468 0.202077 0.489244
#
# Coordination Sequence:
#
# PCOD9080648 Si02
#       8
#     2   2   2   2   2   2   2   2
#     4  10  23  43  66  91 119 162 218 256 297 368
#     4  11  22  39  69  93 120 166 210 256 303 360
#     4  10  22  40  64  92 121 159 214 260 298 360
#     4  10  22  41  67  91 121 161 208 262 308 353
#     4  10  18  40  68  93 119 158 213 264 298 353
#     4  12  25  40  61  96 133 163 198 251 319 376
#     4  11  21  41  66  94 126 162 210 254 302 371
#     4  12  26  41  61  96 132 162 199 255 317 372
#
# _framework density 25.008222
#
# number of rings (size 3 to 8) (size 9 to 14) (size 15 to 20)
#    0.000    1.250    3.750    2.625    5.250    2.500 
#    0.000    2.500    0.000    0.000    0.000    0.000 
#    0.000    0.000    0.000    0.000    0.000    0.000 
#
# Total GULP energy -89656.092275 kJ/mol
# GULP energy per Si atom -5603.505767 kJ/mol
# Density = 2.495130 g / cm^3
# Si number density = 25.008222 Si / 1000 Ang^3
#
#
#
# Elastic Constant Matrix: (Units=GPa)
#
#
# Indices 1 2 3 4 5 6 
#
# 1 68.3130 22.9794 -1.6275 0.9442 -8.3828 31.0920
# 2 22.9794 72.4199 24.7207 -15.8926 -0.1913 15.2866
# 3 -1.6275 24.7207 69.8854 -19.2632 -10.3862 17.4176
# 4 0.9442 -15.8926 -19.2632 27.2896 18.0301 -13.7000
# 5 -8.3828 -0.1913 -10.3862 18.0301 40.5000 -2.6657
# 6 31.0920 15.2866 17.4176 -13.7000 -2.6657 36.3494
#
#
#
# Elastic Compliance Matrix: (Units=1/GPa)
#
#
# Indices 1 2 3 4 5 6 
#
# 1 0.068209 -0.027497 0.016923 -0.078956 0.048139 -0.081117
# 2 -0.027497 0.028888 -0.010554 0.042163 -0.025026 0.030485
# 3 0.016923 -0.010554 0.023419 -0.010828 0.012672 -0.024410
# 4 -0.078956 0.042163 -0.010828 0.170830 -0.087537 0.112959
# 5 0.048139 -0.025026 0.012672 -0.087537 0.072518 -0.064399
# 6 -0.081117 0.030485 -0.024410 0.112959 -0.064399 0.133623
#
#
# Mechanical properties :
#
#
# Convention : Reuss Voigt Hill
#
# Bulk Modulus (GPa) = 12.77804 33.64040 23.20922
# Shear Modulus (GPa) = 8.83656 31.79751 20.31703
#
# Velocity S-wave (km/s) = 1.88179 3.56965 2.85338
# Velocity P-wave (km/s) = 3.13722 5.52004 4.48960
#
# Compressibility (1/GPa) = 0.07825927
#
# Stress axis : x y z
#
# Youngs Moduli (GPa) = 14.66076 34.61649 42.70026
#
# Poissons Ratio (x) = 0.95186 -0.72261
# Poissons Ratio (y) = 0.40313 0.45066
# Poissons Ratio (z) = -0.24810 0.36534
#
# Static dielectric constant tensor:
#      x y z
#    x 1.948840 -0.039810 -0.011100 
#    y -0.039810 2.010890 0.000130 
#    z -0.011100 0.000130 1.980480 
# 
# From -- ./inp_files/272481.got.cif
#   From: 2010.05.17/outbox.cif.g08.bks.cpg/sg2_137_cif.got.tgz:272481.got - 2010.06.03 11:33:40.
