data_PCOD9080365
_publ_section_title
;
Structure prediction by ZEFSAII (Michael W. Deem and Ramdas Pophale) SiO2 
 PCOD9080365
Probable space group: P -1
;
_chemical_formula_sum "Si O2"
_cell_formula_units_Z 16
_cell_length_a 8.605873
_cell_length_b 27.230797
_cell_length_c 13.067753
_cell_angle_alpha 153.965220
_cell_angle_beta 133.844996
_cell_angle_gamma 39.546403
_cell_volume 855.805463
_symmetry_space_group_name_H-M "P -1"
_symmetry_group_IT_number 2
_symmetry_cell_setting 'triclinic'
loop_
_space_group_symop_operation_xyz
x,y,z
-x,-y,-z
loop_
_atom_site_type_symbol
_atom_site_label
_atom_site_fract_x
_atom_site_fract_y
_atom_site_fract_z
Si Si1 0.782502 0.037178 0.269519
Si Si2 0.586384 0.545800 0.821667
Si Si3 0.440759 0.684881 0.805558
Si Si4 0.666391 0.807075 0.782335
Si Si5 0.717567 0.594587 0.563471
Si Si6 0.980293 0.688955 0.505902
Si Si7 0.520460 0.797099 0.373409
Si Si8 0.655058 0.066139 0.661645
O O1 0.337907 0.863193 0.507205
O O2 0.056965 0.010750 0.332795
O O3 0.604741 0.101306 0.212216
O O4 0.777738 0.903425 0.037793
O O5 0.457446 0.602660 0.759495
O O6 0.454093 0.469144 0.665306
O O7 0.863928 0.449860 0.734022
O O8 0.556146 0.660731 0.095431
O O9 0.660365 0.620370 0.705799
O O10 0.195389 0.720070 0.695834
O O11 0.436591 0.808233 0.078732
O O12 0.660552 0.721371 0.712052
O O13 0.824300 0.713617 0.585888
O O14 0.000000 0.500000 0.500000
O O15 0.782606 0.775245 0.493703
O O16 0.407994 0.891095 0.403924
O O17 0.500000 0.000000 0.500000
#
# Coordination Sequence:
#
# PCOD9080365 Si02
#       8
#     2   2   2   2   2   2   2   2
#     4  10  22  42  61  85 125 163 201 245 302 363
#     4  10  21  38  59  89 124 157 195 251 311 358
#     4  10  21  38  59  85 122 159 200 247 301 360
#     4  10  21  38  65  92 115 159 209 252 293 349
#     4  11  22  34  61  94 118 153 206 253 295 356
#     4  10  18  39  62  84 114 161 199 241 302 360
#     4  10  23  38  62  87 119 161 196 245 315 361
#     4  11  24  39  58  88 121 158 200 249 300 358
#
# _framework density 18.695838999999999
#
# number of rings (size 3 to 8) (size 9 to 14) (size 15 to 20)
#    0.000    1.750    1.250    3.750    3.500    3.000 
#    0.000    3.750    0.000    0.000    0.000    0.000 
#    0.000    0.000    0.000    0.000    0.000    0.000 
#
# Total GULP energy -89211.646656 kJ/mol
# GULP energy per Si atom -5575.727916 kJ/mol
# Density = 1.865329 g / cm^3
# Si number density = 18.695839 Si / 1000 Ang^3
#
#
#
# Elastic Constant Matrix: (Units=GPa)
#
#
# Indices 1 2 3 4 5 6 
#
# 1 97.7142 45.7865 45.4601 6.4720 9.9413 -12.9820
# 2 45.7865 74.4564 26.6133 -0.4815 14.2683 -14.8109
# 3 45.4601 26.6133 65.8039 4.6529 -5.9614 7.6739
# 4 6.4720 -0.4815 4.6529 29.1865 2.7099 1.4838
# 5 9.9413 14.2683 -5.9614 2.7099 30.4316 4.2740
# 6 -12.9820 -14.8109 7.6739 1.4838 4.2740 28.2871
#
#
#
# Elastic Compliance Matrix: (Units=1/GPa)
#
#
# Indices 1 2 3 4 5 6 
#
# 1 0.023172 -0.002318 -0.017914 -0.002023 -0.012089 0.016214
# 2 -0.002318 0.026704 -0.013242 0.003713 -0.017348 0.018937
# 3 -0.017914 -0.013242 0.038724 -0.003169 0.024019 -0.029123
# 4 -0.002023 0.003713 -0.003169 0.035702 -0.004987 0.000756
# 5 -0.012089 -0.017348 0.024019 -0.004987 0.054176 -0.029072
# 6 0.016214 0.018937 -0.029123 0.000756 -0.029072 0.064962
#
#
# Mechanical properties :
#
#
# Convention : Reuss Voigt Hill
#
# Bulk Modulus (GPa) = 46.18072 52.63270 49.40671
# Shear Modulus (GPa) = 15.74288 25.58869 20.66578
#
# Velocity S-wave (km/s) = 2.90496 3.70359 3.32831
# Velocity P-wave (km/s) = 6.00054 6.81923 6.42294
#
# Compressibility (1/GPa) = 0.02165406
#
# Stress axis : x y z
#
# Youngs Moduli (GPa) = 43.15533 37.44725 25.82384
#
# Poissons Ratio (x) = 0.08679 0.46261
# Poissons Ratio (y) = 0.10002 0.34195
# Poissons Ratio (z) = 0.77308 0.49586
#
# Static dielectric constant tensor:
#      x y z
#    x 1.644230 0.009040 -0.011030 
#    y 0.009040 1.675000 0.018390 
#    z -0.011030 0.018390 1.675190 
# 
# From -- ./inp_files/406710.got.cif
#   From: 2010.05.17/outbox.cif.g08.bks.cpg/sg2_204_cif.got.tgz:406710.got - 2010.06.03 11:33:40.
