data_PCOD9080274
_publ_section_title
;
Structure prediction by ZEFSAII (Michael W. Deem and Ramdas Pophale) SiO2 
 PCOD9080274
Probable space group: P -1
;
_chemical_formula_sum "Si O2"
_cell_formula_units_Z 12
_cell_length_a 18.507467
_cell_length_b 18.245626
_cell_length_c 8.661628
_cell_angle_alpha 31.046204
_cell_angle_beta 157.176025
_cell_angle_gamma 158.495914
_cell_volume 415.885563
_symmetry_space_group_name_H-M "P -1"
_symmetry_group_IT_number 2
_symmetry_cell_setting 'triclinic'
loop_
_space_group_symop_operation_xyz
x,y,z
-x,-y,-z
loop_
_atom_site_type_symbol
_atom_site_label
_atom_site_fract_x
_atom_site_fract_y
_atom_site_fract_z
Si Si1 0.793180 0.333445 0.518603
Si Si2 0.779209 0.415353 0.875973
Si Si3 0.641612 0.927279 0.507600
Si Si4 0.784533 0.021707 0.945279
Si Si5 0.645677 0.680797 0.582126
Si Si6 0.172166 0.280083 0.784461
O O1 0.814986 0.173476 0.842112
O O2 0.000000 0.500000 0.500000
O O3 0.485000 0.203887 0.132946
O O4 0.932504 0.460545 0.719335
O O5 0.640412 0.217845 0.862256
O O6 0.574073 0.331423 0.762445
O O7 0.791186 0.566772 0.528974
O O8 0.691122 0.033379 0.572467
O O9 0.685889 0.782541 0.894647
O O10 0.869892 0.074787 0.569375
O O11 0.076317 0.118426 0.307363
O O12 0.500000 0.500000 0.500000
O O13 0.737498 0.659473 0.966494
#
# Coordination Sequence:
#
# PCOD9080274 Si02
#       6
#     2   2   2   2   2   2
#     4  11  26  45  63  88 134 177 218 263 320 380
#     4  11  22  41  67  96 129 170 212 263 320 379
#     4   9  19  38  65  97 127 161 211 260 326 383
#     4  10  23  44  63  93 134 164 215 270 318 378
#     4  10  18  38  68  97 121 162 209 257 322 379
#     4   9  20  37  66  98 138 157 204 271 320 381
#
# _framework density 28.854092999999999
#
# number of rings (size 3 to 8) (size 9 to 14) (size 15 to 20)
#    0.000    2.000    1.667    3.000    0.000    7.333 
#    0.000    5.833    0.000    0.000    0.000    0.000 
#    0.000    0.000    0.000    0.000    0.000    0.000 
#
# Total GULP energy -67223.654640 kJ/mol
# GULP energy per Si atom -5601.971220 kJ/mol
# Density = 2.878842 g / cm^3
# Si number density = 28.854093 Si / 1000 Ang^3
#
#
#
# Elastic Constant Matrix: (Units=GPa)
#
#
# Indices 1 2 3 4 5 6 
#
# 1 142.4995 37.0808 37.4016 23.6684 17.7836 30.7435
# 2 37.0808 152.4569 65.9105 53.5186 11.8126 42.8042
# 3 37.4016 65.9105 144.6738 44.9511 21.4328 4.8052
# 4 23.6684 53.5186 44.9511 66.4116 -9.0561 0.5584
# 5 17.7836 11.8126 21.4328 -9.0561 52.6112 8.0918
# 6 30.7435 42.8042 4.8052 0.5584 8.0918 74.2369
#
#
#
# Elastic Compliance Matrix: (Units=1/GPa)
#
#
# Indices 1 2 3 4 5 6 
#
# 1 0.008790 0.000733 -0.001035 -0.003364 -0.002728 -0.003673
# 2 0.000733 0.013008 -0.002613 -0.009266 -0.002579 -0.007284
# 3 -0.001035 -0.002613 0.010669 -0.005391 -0.004613 0.001788
# 4 -0.003364 -0.009266 -0.005391 0.028611 0.009440 0.005841
# 5 -0.002728 -0.002579 -0.004613 0.009440 0.023977 0.000231
# 6 -0.003673 -0.007284 0.001788 0.005841 0.000231 0.019007
#
#
# Mechanical properties :
#
#
# Convention : Reuss Voigt Hill
#
# Bulk Modulus (GPa) = 37.54038 80.04623 58.79330
# Shear Modulus (GPa) = 42.09792 58.60108 50.34950
#
# Velocity S-wave (km/s) = 3.82382 4.51149 4.18181
# Velocity P-wave (km/s) = 5.70387 7.41215 6.61340
#
# Compressibility (1/GPa) = 0.02663798
#
# Stress axis : x y z
#
# Youngs Moduli (GPa) = 113.76303 76.87516 93.72923
#
# Poissons Ratio (x) = -0.05636 0.09701
# Poissons Ratio (y) = -0.08341 0.24490
# Poissons Ratio (z) = 0.11775 0.20086
#
# Static dielectric constant tensor:
#      x y z
#    x 2.179310 0.038000 -0.081760 
#    y 0.038000 2.214580 -0.039950 
#    z -0.081760 -0.039950 2.332090 
# 
# From -- ./inp_files/349209.got.cif
#   From: 2010.05.17/outbox.cif.g08.bks.cpg/sg2_175_cif.got.tgz:349209.got - 2010.06.03 11:33:40.
