data_PCOD9080287
_publ_section_title
;
Structure prediction by ZEFSAII (Michael W. Deem and Ramdas Pophale) SiO2 
 PCOD9080287
Probable space group: P -1
;
_chemical_formula_sum "Si O2"
_cell_formula_units_Z 14
_cell_length_a 8.451157
_cell_length_b 11.850166
_cell_length_c 7.449473
_cell_angle_alpha 115.997335
_cell_angle_beta 122.976281
_cell_angle_gamma 68.822046
_cell_volume 555.031729
_symmetry_space_group_name_H-M "P -1"
_symmetry_group_IT_number 2
_symmetry_cell_setting 'triclinic'
loop_
_space_group_symop_operation_xyz
x,y,z
-x,-y,-z
loop_
_atom_site_type_symbol
_atom_site_label
_atom_site_fract_x
_atom_site_fract_y
_atom_site_fract_z
Si Si1 0.872665 0.319479 0.343029
Si Si2 0.523181 0.732502 0.343615
Si Si3 0.209721 0.081782 0.868440
Si Si4 0.822376 0.915277 0.734247
Si Si5 0.211785 0.873156 0.443289
Si Si6 0.537382 0.712191 0.931577
Si Si7 0.811260 0.537606 0.207794
O O1 0.856430 0.391724 0.189385
O O2 0.992864 0.181408 0.286198
O O3 0.002827 0.396718 0.600206
O O4 0.662002 0.316419 0.286562
O O5 0.652355 0.833433 0.556458
O O6 0.347425 0.746551 0.377535
O O7 0.473703 0.764803 0.128406
O O8 0.660264 0.597605 0.312771
O O9 0.352270 0.183740 0.015171
O O10 0.009357 0.141237 0.690710
O O11 0.273089 0.953316 0.704225
O O12 0.168908 0.053601 0.029535
O O13 0.780632 0.032330 0.655648
O O14 0.696150 0.588008 0.992995
#
# Coordination Sequence:
#
# PCOD9080287 Si02
#       7
#     2   2   2   2   2   2   2
#     4  10  18  38  69  90 122 163 209 246 320 365
#     4   9  20  39  63  83 127 158 206 252 310 355
#     4  11  24  38  60  91 125 161 216 244 318 361
#     4  11  22  40  60  92 123 166 207 253 303 383
#     4  11  22  44  58  86 130 167 201 265 296 373
#     4  10  20  39  61  94 124 158 204 263 302 371
#     4   8  19  37  68  93 116 165 206 255 303 379
#
# _framework density 25.223780999999999
#
# number of rings (size 3 to 8) (size 9 to 14) (size 15 to 20)
#    0.857    1.143    1.429    2.143    0.000    0.571 
#    7.714    0.714    0.000    2.571    0.000    0.000 
#    0.000    0.000    0.000    0.000    0.000    0.000 
#
# Total GULP energy -78321.963004 kJ/mol
# GULP energy per Si atom -5594.425929 kJ/mol
# Density = 2.516637 g / cm^3
# Si number density = 25.223781 Si / 1000 Ang^3
#
#
#
# Elastic Constant Matrix: (Units=GPa)
#
#
# Indices 1 2 3 4 5 6 
#
# 1 65.6764 38.4608 28.5663 -17.1643 20.5201 10.0279
# 2 38.4608 82.2543 30.1244 -12.1482 7.4342 14.3445
# 3 28.5663 30.1244 73.0275 -10.3881 4.7335 16.1967
# 4 -17.1643 -12.1482 -10.3881 27.4180 8.2618 5.1617
# 5 20.5201 7.4342 4.7335 8.2618 55.0433 -10.0993
# 6 10.0279 14.3445 16.1967 5.1617 -10.0993 37.3407
#
#
#
# Elastic Compliance Matrix: (Units=1/GPa)
#
#
# Indices 1 2 3 4 5 6 
#
# 1 0.035694 -0.007698 -0.002753 0.026122 -0.018530 -0.014057
# 2 -0.007698 0.018078 -0.003093 0.002936 -0.000494 -0.004076
# 3 -0.002753 -0.003093 0.018834 0.006279 -0.002549 -0.007800
# 4 0.026122 0.002936 0.006279 0.069582 -0.026176 -0.027565
# 5 -0.018530 -0.000494 -0.002549 -0.026176 0.032729 0.018743
# 6 -0.014057 -0.004076 -0.007800 -0.027565 0.018743 0.044384
#
#
# Mechanical properties :
#
#
# Convention : Reuss Voigt Hill
#
# Bulk Modulus (GPa) = 21.96790 46.14014 34.05402
# Shear Modulus (GPa) = 19.11593 32.21417 25.66505
#
# Velocity S-wave (km/s) = 2.75590 3.57758 3.19328
# Velocity P-wave (km/s) = 4.34221 5.94958 5.20827
#
# Compressibility (1/GPa) = 0.04552097
#
# Stress axis : x y z
#
# Youngs Moduli (GPa) = 28.01574 55.31442 53.09472
#
# Poissons Ratio (x) = 0.42579 0.14614
# Poissons Ratio (y) = 0.21566 0.16421
# Poissons Ratio (z) = 0.07711 0.17108
#
# Static dielectric constant tensor:
#      x y z
#    x 1.988700 -0.023290 0.063200 
#    y -0.023290 1.991160 -0.051470 
#    z 0.063200 -0.051470 2.000890 
# 
# From -- ./inp_files/165759.got.cif
#   From: 2010.05.17/outbox.cif.g08.bks.cpg/sg2_83_cif.got.tgz:165759.got - 2010.06.03 11:33:40.
