data_PCOD9080872
_publ_section_title
;
Structure prediction by ZEFSAII (Michael W. Deem and Ramdas Pophale) SiO2 
 PCOD9080872
Probable space group: P -1
;
_chemical_formula_sum "Si O2"
_cell_formula_units_Z 16
_cell_length_a 8.968150
_cell_length_b 13.483043
_cell_length_c 9.132277
_cell_angle_alpha 55.447205
_cell_angle_beta 104.456307
_cell_angle_gamma 65.118048
_cell_volume 624.491268
_symmetry_space_group_name_H-M "P -1"
_symmetry_group_IT_number 2
_symmetry_cell_setting 'triclinic'
loop_
_space_group_symop_operation_xyz
x,y,z
-x,-y,-z
loop_
_atom_site_type_symbol
_atom_site_label
_atom_site_fract_x
_atom_site_fract_y
_atom_site_fract_z
Si Si1 0.767218 0.816758 0.647426
Si Si2 0.256337 0.491549 0.519508
Si Si3 0.509371 0.801159 0.373101
Si Si4 0.749314 0.305216 0.869201
Si Si5 0.492888 0.400552 0.225519
Si Si6 0.097011 0.657029 0.631774
Si Si7 0.511049 0.820637 0.794542
Si Si8 0.241453 0.963161 0.891582
O O1 0.591310 0.856317 0.457959
O O2 0.718523 0.780960 0.819784
O O3 0.989374 0.667566 0.744271
O O4 0.698829 0.994267 0.483595
O O5 0.284848 0.359337 0.537109
O O6 0.506832 0.395844 0.686587
O O7 0.158356 0.656548 0.263439
O O8 0.152493 0.536113 0.615119
O O9 0.443483 0.722354 0.520135
O O10 0.329644 0.936897 0.098154
O O11 0.701197 0.412048 0.910554
O O12 0.861863 0.114413 0.078422
O O13 0.691737 0.378213 0.259435
O O14 0.461726 0.325019 0.148318
O O15 0.920081 0.846546 0.362412
O O16 0.445624 0.851899 0.921359
#
# Coordination Sequence:
#
# PCOD9080872 Si02
#       8
#     2   2   2   2   2   2   2   2
#     4   9  19  34  50  69  97 133 166 194 235 293
#     4   8  15  29  48  71  99 128 156 191 241 294
#     4   9  18  34  53  71  97 132 161 191 241 296
#     4   8  15  29  48  71  99 128 156 191 241 294
#     4   9  18  34  53  71  97 132 161 191 241 296
#     4  10  19  29  50  78  99 121 162 207 239 276
#     4   9  19  34  50  69  97 133 166 194 235 293
#     4  10  19  29  50  78  99 121 162 207 239 276
#
# _framework density 25.620854999999999
#
# number of rings (size 3 to 8) (size 9 to 14) (size 15 to 20)
#    0.000    3.000    0.000    2.250    0.000    7.000 
#    0.000    0.000    0.000    9.750    0.000    0.000 
#    0.000    0.000    0.000    0.000    0.000    0.000 
#
# Total GULP energy -89467.599052 kJ/mol
# GULP energy per Si atom -5591.724941 kJ/mol
# Density = 2.556254 g / cm^3
# Si number density = 25.620855 Si / 1000 Ang^3
#
#
#
# Elastic Constant Matrix: (Units=GPa)
#
#
# Indices 1 2 3 4 5 6 
#
# 1 55.6032 15.0595 11.8766 7.8908 -8.7491 -16.8307
# 2 15.0595 119.7804 13.1129 5.0128 11.5029 -9.5639
# 3 11.8766 13.1129 67.5154 9.8630 -12.2032 4.9412
# 4 7.8908 5.0128 9.8630 40.4468 2.7022 -8.1697
# 5 -8.7491 11.5029 -12.2032 2.7022 20.2621 4.0005
# 6 -16.8307 -9.5639 4.9412 -8.1697 4.0005 46.2151
#
#
#
# Elastic Compliance Matrix: (Units=1/GPa)
#
#
# Indices 1 2 3 4 5 6 
#
# 1 0.023136 -0.002992 -0.001776 -0.003021 0.009715 0.006621
# 2 -0.002992 0.010227 -0.003650 0.001383 -0.009979 0.002525
# 3 -0.001776 -0.003650 0.019966 -0.006303 0.015352 -0.005980
# 4 -0.003021 0.001383 -0.006303 0.028586 -0.010854 0.005853
# 5 0.009715 -0.009979 0.015352 -0.010854 0.071541 -0.008280
# 6 0.006621 0.002525 -0.005980 0.005853 -0.008280 0.026963
#
#
# Mechanical properties :
#
#
# Convention : Reuss Voigt Hill
#
# Bulk Modulus (GPa) = 27.40384 35.88856 31.64620
# Shear Modulus (GPa) = 23.87548 34.90812 29.39180
#
# Velocity S-wave (km/s) = 3.05598 3.69519 3.39068
# Velocity P-wave (km/s) = 4.81364 5.67837 5.26379
#
# Compressibility (1/GPa) = 0.03649124
#
# Stress axis : x y z
#
# Youngs Moduli (GPa) = 43.22289 97.78506 50.08480
#
# Poissons Ratio (x) = 0.29259 0.08895
# Poissons Ratio (y) = 0.12933 0.18283
# Poissons Ratio (z) = 0.07677 0.35696
#
# Static dielectric constant tensor:
#      x y z
#    x 2.034380 0.006720 -0.016320 
#    y 0.006720 2.022980 -0.017930 
#    z -0.016320 -0.017930 2.089130 
# 
# From -- ./inp_files/205980.got.cif
#   From: 2010.05.17/outbox.cif.g08.bks.cpg/sg2_103_cif.got.tgz:205980.got - 2010.06.03 11:33:40.
