data_PCOD9080395
_publ_section_title
;
Structure prediction by ZEFSAII (Michael W. Deem and Ramdas Pophale) SiO2 
 PCOD9080395
Probable space group: P -1
;
_chemical_formula_sum "Si O2"
_cell_formula_units_Z 16
_cell_length_a 26.910594
_cell_length_b 14.075474
_cell_length_c 9.964961
_cell_angle_alpha 152.957459
_cell_angle_beta 139.804078
_cell_angle_gamma 29.320521
_cell_volume 838.987835
_symmetry_space_group_name_H-M "P -1"
_symmetry_group_IT_number 2
_symmetry_cell_setting 'triclinic'
loop_
_space_group_symop_operation_xyz
x,y,z
-x,-y,-z
loop_
_atom_site_type_symbol
_atom_site_label
_atom_site_fract_x
_atom_site_fract_y
_atom_site_fract_z
Si Si1 0.966967 0.510374 0.597970
Si Si2 0.818057 0.388412 0.154887
Si Si3 0.652451 0.018854 0.522720
Si Si4 0.549105 0.831599 0.750708
Si Si5 0.156646 0.021452 0.525926
Si Si6 0.305015 0.095911 0.849758
Si Si7 0.769271 0.347493 0.559307
Si Si8 0.212466 0.843288 0.938402
O O1 0.911905 0.382865 0.335809
O O2 0.000000 0.500000 0.500000
O O3 0.063155 0.322151 0.657044
O O4 0.885214 0.832597 0.869452
O O5 0.805490 0.283526 0.135198
O O6 0.721696 0.707264 0.328563
O O7 0.830311 0.195116 0.821125
O O8 0.536786 0.152501 0.477092
O O9 0.670689 0.996413 0.371110
O O10 0.693952 0.163429 0.847899
O O11 0.653098 0.516799 0.585230
O O12 0.402538 0.038417 0.045583
O O13 0.500000 0.000000 0.000000
O O14 0.257720 0.981269 0.676165
O O15 0.151503 0.935909 0.555725
O O16 0.219701 0.429453 0.098692
O O17 0.771359 0.306652 0.354879
#
# Coordination Sequence:
#
# PCOD9080395 Si02
#       8
#     2   2   2   2   2   2   2   2
#     4  11  24  38  66  94 119 150 213 256 283 364
#     4  11  21  38  65  92 116 159 207 243 303 362
#     4  10  18  39  63  87 120 160 204 248 294 355
#     4   8  17  39  61  87 124 155 201 258 286 354
#     4  12  20  38  66  85 115 171 200 239 309 358
#     4   9  19  36  59  89 121 152 200 252 291 355
#     4  10  24  39  59  90 130 156 195 256 304 354
#     4  11  24  40  58  93 127 156 198 259 303 349
#
# _framework density 19.070596999999999
#
# number of rings (size 3 to 8) (size 9 to 14) (size 15 to 20)
#    0.750    1.000    3.750    1.125    0.000    3.000 
#    2.250    3.750    0.000    0.000    0.000    0.000 
#    0.000    0.000    0.000    0.000    0.000    0.000 
#
# Total GULP energy -89104.428126 kJ/mol
# GULP energy per Si atom -5569.026758 kJ/mol
# Density = 1.902719 g / cm^3
# Si number density = 19.070597 Si / 1000 Ang^3
#
#
#
# Elastic Constant Matrix: (Units=GPa)
#
#
# Indices 1 2 3 4 5 6 
#
# 1 66.2030 29.7191 21.3931 -7.1731 20.2412 3.2808
# 2 29.7191 64.8118 4.4091 -3.9418 10.4796 -2.9628
# 3 21.3931 4.4091 2.3345 -0.9532 8.8306 -4.9619
# 4 -7.1731 -3.9418 -0.9532 19.4158 -0.1065 -0.1606
# 5 20.2412 10.4796 8.8306 -0.1065 31.7456 -6.2556
# 6 3.2808 -2.9628 -4.9619 -0.1606 -6.2556 27.8622
#
#
#
# Elastic Compliance Matrix: (Units=1/GPa)
#
#
# Indices 1 2 3 4 5 6 
#
# 1 0.002110 -0.001899 0.057591 0.003189 -0.015477 0.006349
# 2 -0.001899 0.017558 -0.017871 0.001978 0.000188 -0.001038
# 3 0.057591 -0.017871 -0.148285 0.010106 0.003723 -0.034195
# 4 0.003189 0.001978 0.010106 0.053559 -0.005163 0.000784
# 5 -0.015477 0.000188 0.003723 -0.005163 0.042627 0.012046
# 6 0.006349 -0.001038 -0.034195 0.000784 0.012046 0.031652
#
#
# Mechanical properties :
#
#
# Convention : Reuss Voigt Hill
#
# Bulk Modulus (GPa) = -18.87732 27.15464 4.13866
# Shear Modulus (GPa) = -53.14676 20.99326 -16.07675
#
# Velocity S-wave (km/s) = -5.28478 3.32146 -2.90662
# Velocity P-wave (km/s) = 6.86722 5.38325 3.01491
#
# Compressibility (1/GPa) = -0.05297361
#
# Stress axis : x y z
#
# Youngs Moduli (GPa) = 473.93179 56.95352 -6.74378
#
# Poissons Ratio (x) = 0.10814 0.38838
# Poissons Ratio (y) = 0.89986 -0.12052
# Poissons Ratio (z) = -27.29425 1.01781
#
# Static dielectric constant tensor:
#      x y z
#    x 1.659390 -0.028670 0.025240 
#    y -0.028670 1.704880 -0.004540 
#    z 0.025240 -0.004540 1.675280 
# 
# From -- ./inp_files/346538.got.cif
#   From: 2010.05.17/outbox.cif.g08.bks.cpg/sg2_174_cif.got.tgz:346538.got - 2010.06.03 11:33:40.
