data_PCOD9080460
_publ_section_title
;
Structure prediction by ZEFSAII (Michael W. Deem and Ramdas Pophale) SiO2 
 PCOD9080460
Probable space group: P -1
;
_chemical_formula_sum "Si O2"
_cell_formula_units_Z 16
_cell_length_a 19.654608
_cell_length_b 10.055286
_cell_length_c 10.351751
_cell_angle_alpha 42.121769
_cell_angle_beta 138.419090
_cell_angle_gamma 129.197989
_cell_volume 896.881264
_symmetry_space_group_name_H-M "P -1"
_symmetry_group_IT_number 2
_symmetry_cell_setting 'triclinic'
loop_
_space_group_symop_operation_xyz
x,y,z
-x,-y,-z
loop_
_atom_site_type_symbol
_atom_site_label
_atom_site_fract_x
_atom_site_fract_y
_atom_site_fract_z
Si Si1 0.685008 0.924323 0.078197
Si Si2 0.717916 0.847941 0.697892
Si Si3 0.010129 0.947329 0.702673
Si Si4 0.785030 0.748922 0.588606
Si Si5 0.195178 0.279176 0.822622
Si Si6 0.181258 0.693192 0.122173
Si Si7 0.747412 0.280406 0.501423
Si Si8 0.466580 0.955558 0.633052
O O1 0.712363 0.825182 0.321678
O O2 0.725434 0.796395 0.111882
O O3 0.753486 0.146102 0.998225
O O4 0.565942 0.938866 0.872001
O O5 0.734913 0.750022 0.657051
O O6 0.774799 0.082841 0.613111
O O7 0.598491 0.872716 0.537665
O O8 0.763486 0.744206 0.958250
O O9 0.896265 0.896514 0.637237
O O10 0.086759 0.129862 0.748945
O O11 0.067590 0.753411 0.926643
O O12 0.000000 0.000000 0.500000
O O13 0.809428 0.530884 0.742068
O O14 0.195027 0.510460 0.622647
O O15 0.229137 0.734091 0.303500
O O16 0.621536 0.245440 0.337025
O O17 0.500000 0.000000 0.500000
#
# Coordination Sequence:
#
# PCOD9080460 Si02
#       8
#     2   2   2   2   2   2   2   2
#     4  11  20  38  63  89 122 157 210 251 287 368
#     4  10  24  42  57  93 130 153 200 267 300 345
#     4  11  20  40  67  90 120 162 204 246 298 370
#     4  12  25  39  62  92 129 157 199 261 309 341
#     4  11  20  39  63  90 119 159 210 246 294 375
#     4  11  20  39  65  90 116 161 208 241 296 374
#     4  10  20  39  66  89 118 159 206 245 302 362
#     4  10  18  39  67  85 121 166 203 247 302 359
#
# _framework density 17.839597999999999
#
# number of rings (size 3 to 8) (size 9 to 14) (size 15 to 20)
#    0.750    0.500    8.750    0.375    0.000    2.500 
#    2.250    1.250    0.000    0.000    0.000    0.000 
#    0.000    0.000    0.000    0.000    0.000    0.000 
#
# Total GULP energy -89197.791377 kJ/mol
# GULP energy per Si atom -5574.861961 kJ/mol
# Density = 1.779899 g / cm^3
# Si number density = 17.839598 Si / 1000 Ang^3
#
#
#
# Elastic Constant Matrix: (Units=GPa)
#
#
# Indices 1 2 3 4 5 6 
#
# 1 53.7864 3.5975 28.0370 21.6493 1.6209 -9.7540
# 2 3.5975 46.2743 23.7346 -3.8582 -4.0407 -1.6974
# 3 28.0370 23.7346 95.7909 15.6305 -10.9961 -3.8961
# 4 21.6493 -3.8582 15.6305 30.9822 3.9563 -5.9021
# 5 1.6209 -4.0407 -10.9961 3.9563 27.0008 2.9397
# 6 -9.7540 -1.6974 -3.8961 -5.9021 2.9397 13.7539
#
#
#
# Elastic Compliance Matrix: (Units=1/GPa)
#
#
# Indices 1 2 3 4 5 6 
#
# 1 0.030667 -0.000204 -0.006323 -0.015060 -0.003795 0.014281
# 2 -0.000204 0.026394 -0.007760 0.008360 -0.000935 0.004701
# 3 -0.006323 -0.007760 0.015885 -0.006486 0.007211 -0.005267
# 4 -0.015060 0.008360 -0.006486 0.050618 -0.009232 0.012209
# 5 -0.003795 -0.000935 0.007211 -0.009232 0.042927 -0.013901
# 6 0.014281 0.004701 -0.005267 0.012209 -0.013901 0.090133
#
#
# Mechanical properties :
#
#
# Convention : Reuss Voigt Hill
#
# Bulk Modulus (GPa) = 22.53684 34.06555 28.30120
# Shear Modulus (GPa) = 16.66726 23.71289 20.19007
#
# Velocity S-wave (km/s) = 3.05992 3.64981 3.36781
# Velocity P-wave (km/s) = 5.01444 6.07441 5.56970
#
# Compressibility (1/GPa) = 0.04437179
#
# Stress axis : x y z
#
# Youngs Moduli (GPa) = 32.60790 37.88699 62.95340
#
# Poissons Ratio (x) = 0.00774 0.39804
# Poissons Ratio (y) = 0.00666 0.48853
# Poissons Ratio (z) = 0.20617 0.29401
#
# Static dielectric constant tensor:
#      x y z
#    x 1.598980 0.018480 0.014960 
#    y 0.018480 1.619890 -0.008870 
#    z 0.014960 -0.008870 1.604660 
# 
# From -- ./inp_files/343356.got.cif
#   From: 2010.05.17/outbox.cif.g08.bks.cpg/sg2_172_cif.got.tgz:343356.got - 2010.06.03 11:33:40.
