data_PCOD9080024
_publ_section_title
;
Structure prediction by ZEFSAII (Michael W. Deem and Ramdas Pophale) SiO2 
 PCOD9080024
Probable space group: P -1
;
_chemical_formula_sum "Si O2"
_cell_formula_units_Z 14
_cell_length_a 12.277172
_cell_length_b 10.543989
_cell_length_c 11.535838
_cell_angle_alpha 94.868722
_cell_angle_beta 34.647233
_cell_angle_gamma 68.243493
_cell_volume 531.885368
_symmetry_space_group_name_H-M "P -1"
_symmetry_group_IT_number 2
_symmetry_cell_setting 'triclinic'
loop_
_space_group_symop_operation_xyz
x,y,z
-x,-y,-z
loop_
_atom_site_type_symbol
_atom_site_label
_atom_site_fract_x
_atom_site_fract_y
_atom_site_fract_z
Si Si1 0.474881 0.412244 0.179868
Si Si2 0.735207 0.629407 0.445155
Si Si3 0.843823 0.446212 0.765209
Si Si4 0.898828 0.885097 0.936793
Si Si5 0.888799 0.006407 0.378011
Si Si6 0.456442 0.970185 0.164073
Si Si7 0.148355 0.202013 0.793447
O O1 0.371575 0.448385 0.406457
O O2 0.248739 0.486235 0.281416
O O3 0.581979 0.498484 0.060367
O O4 0.769203 0.168320 0.884275
O O5 0.885656 0.635919 0.209471
O O6 0.999848 0.521922 0.299761
O O7 0.397551 0.871240 0.755713
O O8 0.137580 0.202452 0.489954
O O9 0.011040 0.752891 0.942632
O O10 0.141396 0.852900 0.663017
O O11 0.735792 0.876160 0.988054
O O12 0.639897 0.117461 0.706211
O O13 0.901339 0.879855 0.267515
O O14 0.500000 0.000000 0.000000
O O15 0.500000 0.000000 0.500000
#
# Coordination Sequence:
#
# PCOD9080024 Si02
#       7
#     2   2   2   2   2   2   2
#     4   9  16  25  44  63  93 116 138 179 230 269
#     4   9  15  25  40  65  91 114 138 176 227 273
#     4   9  16  29  40  64  91 117 148 177 218 266
#     4   9  18  28  45  66  92 120 145 182 227 266
#     4  10  17  30  45  70  93 115 144 184 228 271
#     4  10  19  32  45  64  93 123 153 182 209 259
#     4  10  15  28  44  66  98 114 140 182 234 275
#
# _framework density 26.321462
#
# number of rings (size 3 to 8) (size 9 to 14) (size 15 to 20)
#    0.000    2.571    5.714    0.857    0.000    0.571 
#    0.000    0.000    0.000    0.000    0.000    2.000 
#    0.000    0.000    0.000    0.000    0.000    0.000 
#
# Total GULP energy -77956.456042 kJ/mol
# GULP energy per Si atom -5568.318289 kJ/mol
# Density = 2.626155 g / cm^3
# Si number density = 26.321462 Si / 1000 Ang^3
#
#
#
# Elastic Constant Matrix: (Units=GPa)
#
#
# Indices 1 2 3 4 5 6 
#
# 1 64.1099 48.4279 38.4979 -30.3602 4.5950 -28.1495
# 2 48.4279 148.9260 69.3061 -76.1478 18.4998 -20.9596
# 3 38.4979 69.3061 120.5462 -68.8346 10.2950 -6.2336
# 4 -30.3602 -76.1478 -68.8346 82.3740 -15.4413 3.2644
# 5 4.5950 18.4998 10.2950 -15.4413 27.3083 -3.9698
# 6 -28.1495 -20.9596 -6.2336 3.2644 -3.9698 36.9869
#
#
#
# Elastic Compliance Matrix: (Units=1/GPa)
#
#
# Indices 1 2 3 4 5 6 
#
# 1 0.032943 -0.003298 -0.005129 0.004778 0.004584 0.022409
# 2 -0.003298 0.014775 -0.000479 0.011463 -0.002132 0.004542
# 3 -0.005129 -0.000479 0.016909 0.012139 0.001349 -0.002252
# 4 0.004778 0.011463 0.012139 0.035854 0.008572 0.009934
# 5 0.004584 -0.002132 0.001349 0.008572 0.042549 0.006318
# 6 0.022409 0.004542 -0.002252 0.009934 0.006318 0.046087
#
#
# Mechanical properties :
#
#
# Convention : Reuss Voigt Hill
#
# Bulk Modulus (GPa) = 21.36044 71.78290 46.57167
# Shear Modulus (GPa) = 22.46857 41.15717 31.81287
#
# Velocity S-wave (km/s) = 2.92485 3.95857 3.48031
# Velocity P-wave (km/s) = 4.42031 6.94439 5.82081
#
# Compressibility (1/GPa) = 0.04681551
#
# Stress axis : x y z
#
# Youngs Moduli (GPa) = 30.35548 67.68010 59.14159
#
# Poissons Ratio (x) = 0.22322 0.30332
# Poissons Ratio (y) = 0.10012 0.02832
# Poissons Ratio (z) = 0.15568 0.03241
#
# Static dielectric constant tensor:
#      x y z
#    x 2.365070 -0.060750 0.124260 
#    y -0.060750 2.334980 -0.097820 
#    z 0.124260 -0.097820 2.201800 
# 
# From -- ./inp_files/247759.got.cif
#   From: 2010.05.17/outbox.cif.g08.bks.cpg/sg2_124_cif.got.tgz:247759.got - 2010.06.03 11:33:40.
