data_PCOD9080457
_publ_section_title
;
Structure prediction by ZEFSAII (Michael W. Deem and Ramdas Pophale) SiO2 
 PCOD9080457
Probable space group: P -1
;
_chemical_formula_sum "Si O2"
_cell_formula_units_Z 12
_cell_length_a 8.955997
_cell_length_b 8.153472
_cell_length_c 8.724302
_cell_angle_alpha 70.075724
_cell_angle_beta 127.962871
_cell_angle_gamma 94.129008
_cell_volume 463.996731
_symmetry_space_group_name_H-M "P -1"
_symmetry_group_IT_number 2
_symmetry_cell_setting 'triclinic'
loop_
_space_group_symop_operation_xyz
x,y,z
-x,-y,-z
loop_
_atom_site_type_symbol
_atom_site_label
_atom_site_fract_x
_atom_site_fract_y
_atom_site_fract_z
Si Si1 0.954365 0.862226 0.703544
Si Si2 0.194926 0.989458 0.021838
Si Si3 0.114476 0.359618 0.968789
Si Si4 0.366205 0.856029 0.458387
Si Si5 0.471493 0.510376 0.160619
Si Si6 0.850618 0.588200 0.507237
O O1 0.908374 0.768110 0.550670
O O2 0.161172 0.909991 0.861552
O O3 0.816034 0.051999 0.585232
O O4 0.904329 0.734604 0.850805
O O5 0.221690 0.193049 0.984004
O O6 0.332993 0.849281 0.257404
O O7 0.000000 0.000000 0.000000
O O8 0.914807 0.443745 0.731363
O O9 0.240602 0.513358 0.021179
O O10 0.457376 0.675379 0.649052
O O11 0.500000 0.000000 0.500000
O O12 0.630676 0.614933 0.300779
O O13 0.500000 0.500000 0.000000
O O14 0.000000 0.500000 0.500000
#
# Coordination Sequence:
#
# PCOD9080457 Si02
#       6
#     2   2   2   2   2   2
#     4  10  21  40  68 100 120 170 228 265 318 389
#     4   8  16  35  65  92 122 156 215 271 313 371
#     4  10  20  42  67  95 126 169 217 270 325 384
#     4  10  18  39  66  97 128 160 219 275 314 381
#     4  12  23  41  67  91 137 176 207 266 339 383
#     4  12  25  42  62  93 142 176 208 268 332 387
#
# _framework density 25.86225
#
# number of rings (size 3 to 8) (size 9 to 14) (size 15 to 20)
#    0.000    2.000    5.000    3.500    0.000    0.667 
#    3.000    4.167    0.000    0.000    0.000    0.000 
#    0.000    0.000    0.000    0.000    0.000    0.000 
#
# Total GULP energy -66926.723059 kJ/mol
# GULP energy per Si atom -5577.226922 kJ/mol
# Density = 2.580339 g / cm^3
# Si number density = 25.862250 Si / 1000 Ang^3
#
#
#
# Elastic Constant Matrix: (Units=GPa)
#
#
# Indices 1 2 3 4 5 6 
#
# 1 58.4870 19.4853 19.3973 16.9437 5.7614 6.8589
# 2 19.4853 120.3839 42.9541 52.0091 0.7123 -5.2888
# 3 19.3973 42.9541 144.5388 34.3382 20.6216 11.8515
# 4 16.9437 52.0091 34.3382 59.1647 12.9986 -0.8872
# 5 5.7614 0.7123 20.6216 12.9986 30.3023 2.7361
# 6 6.8589 -5.2888 11.8515 -0.8872 2.7361 26.3197
#
#
#
# Elastic Compliance Matrix: (Units=1/GPa)
#
#
# Indices 1 2 3 4 5 6 
#
# 1 0.019628 -0.001562 -0.000715 -0.003649 -0.001182 -0.005107
# 2 -0.001562 0.015100 -0.002483 -0.012834 0.006829 0.003417
# 3 -0.000715 -0.002483 0.009248 -0.001965 -0.004892 -0.004035
# 4 -0.003649 -0.012834 -0.001965 0.033026 -0.011980 0.001616
# 5 -0.001182 0.006829 -0.004892 -0.011980 0.041609 -0.000846
# 6 -0.005107 0.003417 -0.004035 0.001616 -0.000846 0.041971
#
#
# Mechanical properties :
#
#
# Convention : Reuss Voigt Hill
#
# Bulk Modulus (GPa) = 29.02393 54.12033 41.57213
# Shear Modulus (GPa) = 27.53448 39.26221 33.39834
#
# Velocity S-wave (km/s) = 3.26645 3.90054 3.59750
# Velocity P-wave (km/s) = 5.04709 6.42320 5.77627
#
# Compressibility (1/GPa) = 0.03445433
#
# Stress axis : x y z
#
# Youngs Moduli (GPa) = 50.94708 66.22420 108.12882
#
# Poissons Ratio (x) = 0.10348 0.07736
# Poissons Ratio (y) = 0.07960 0.26851
# Poissons Ratio (z) = 0.03645 0.16445
#
# Static dielectric constant tensor:
#      x y z
#    x 2.188110 -0.049740 0.111070 
#    y -0.049740 2.184190 0.019400 
#    z 0.111070 0.019400 2.190980 
# 
# From -- ./inp_files/238776.got.cif
#   From: 2010.05.17/outbox.cif.g08.bks.cpg/sg2_120_cif.got.tgz:238776.got - 2010.06.03 11:33:40.
