data_PCOD9080022
_publ_section_title
;
Structure prediction by ZEFSAII (Michael W. Deem and Ramdas Pophale) SiO2 
 PCOD9080022
Probable space group: P -1
;
_chemical_formula_sum "Si O2"
_cell_formula_units_Z 14
_cell_length_a 9.309797
_cell_length_b 7.607368
_cell_length_c 8.874917
_cell_angle_alpha 90.163792
_cell_angle_beta 81.278753
_cell_angle_gamma 99.039439
_cell_volume 613.423695
_symmetry_space_group_name_H-M "P -1"
_symmetry_group_IT_number 2
_symmetry_cell_setting 'triclinic'
loop_
_space_group_symop_operation_xyz
x,y,z
-x,-y,-z
loop_
_atom_site_type_symbol
_atom_site_label
_atom_site_fract_x
_atom_site_fract_y
_atom_site_fract_z
Si Si1 0.222802 0.396604 0.013314
Si Si2 0.924901 0.157020 0.086664
Si Si3 0.650372 0.460048 0.677431
Si Si4 0.685115 0.545344 0.327811
Si Si5 0.665987 0.964739 0.972537
Si Si6 0.718226 0.969047 0.346478
Si Si7 0.396621 0.959408 0.313158
O O1 0.282072 0.466803 0.170384
O O2 0.303078 0.222105 0.968459
O O3 0.049531 0.325659 0.061673
O O4 0.245352 0.498673 0.846623
O O5 0.862115 0.089421 0.258830
O O6 0.777276 0.135985 0.010782
O O7 0.000000 0.000000 0.000000
O O8 0.721096 0.484737 0.494126
O O9 0.489823 0.516995 0.673987
O O10 0.624512 0.249961 0.708954
O O11 0.722524 0.759837 0.335861
O O12 0.691265 0.944468 0.791881
O O13 0.500000 0.000000 0.000000
O O14 0.573107 0.016373 0.284201
O O15 0.675602 0.008026 0.519697
#
# Coordination Sequence:
#
# PCOD9080022 Si02
#       7
#     2   2   2   2   2   2   2
#     4  11  22  40  63  91 123 162 201 250 310 366
#     4  10  20  38  61  90 123 153 202 255 302 362
#     4  10  22  39  58  91 125 162 204 245 304 370
#     4  10  19  38  62  87 119 159 209 250 291 359
#     4  11  19  37  63  92 119 151 211 258 296 354
#     4  10  18  38  61  89 119 152 206 260 297 349
#     4  10  21  36  61  92 121 154 202 259 304 348
#
# _framework density 22.822725999999999
#
# number of rings (size 3 to 8) (size 9 to 14) (size 15 to 20)
#    0.000    1.714    4.286    2.143    0.000    1.143 
#    5.143    3.571    0.000    0.000    0.000    0.000 
#    0.000    0.000    0.000    0.000    0.000    0.000 
#
# Total GULP energy -77952.526613 kJ/mol
# GULP energy per Si atom -5568.037615 kJ/mol
# Density = 2.277078 g / cm^3
# Si number density = 22.822726 Si / 1000 Ang^3
#
#
#
# Elastic Constant Matrix: (Units=GPa)
#
#
# Indices 1 2 3 4 5 6 
#
# 1 72.8732 27.5380 59.2807 1.2212 -8.7226 23.4728
# 2 27.5380 47.9082 47.9659 4.1955 0.7303 12.7155
# 3 59.2807 47.9659 137.4654 -7.9848 1.8285 28.6221
# 4 1.2212 4.1955 -7.9848 41.2775 5.8166 3.2165
# 5 -8.7226 0.7303 1.8285 5.8166 26.6576 1.4985
# 6 23.4728 12.7155 28.6221 3.2165 1.4985 35.6567
#
#
#
# Elastic Compliance Matrix: (Units=1/GPa)
#
#
# Indices 1 2 3 4 5 6 
#
# 1 0.026346 -0.004407 -0.008153 -0.002641 0.010407 -0.009427
# 2 -0.004407 0.034273 -0.010225 -0.005211 -0.000507 -0.000622
# 3 -0.008153 -0.010225 0.015488 0.005181 -0.004372 -0.003703
# 4 -0.002641 -0.005211 0.005181 0.027008 -0.006817 -0.002712
# 5 0.010407 -0.000507 -0.004372 -0.006817 0.042964 -0.004351
# 6 -0.009427 -0.000622 -0.003703 -0.002712 -0.004351 0.037873
#
#
# Mechanical properties :
#
#
# Convention : Reuss Voigt Hill
#
# Bulk Modulus (GPa) = 32.74576 58.64620 45.69598
# Shear Modulus (GPa) = 20.85936 28.94917 24.90426
#
# Velocity S-wave (km/s) = 3.02648 3.56537 3.30692
# Velocity P-wave (km/s) = 5.15672 6.53463 5.88614
#
# Compressibility (1/GPa) = 0.03053831
#
# Stress axis : x y z
#
# Youngs Moduli (GPa) = 37.95596 29.17783 64.56465
#
# Poissons Ratio (x) = 0.12857 0.52640
# Poissons Ratio (y) = 0.16726 0.66017
# Poissons Ratio (z) = 0.30945 0.29834
#
# Static dielectric constant tensor:
#      x y z
#    x 1.898800 -0.050620 0.062570 
#    y -0.050620 1.937100 0.024040 
#    z 0.062570 0.024040 2.092260 
# 
# From -- ./inp_files/159127.got.cif
#   From: 2010.05.17/outbox.cif.g08.bks.cpg/sg2_80_cif.got.tgz:159127.got - 2010.06.03 11:33:40.
