data_PCOD9080106
_publ_section_title
;
Structure prediction by ZEFSAII (Michael W. Deem and Ramdas Pophale) SiO2 
 PCOD9080106
Probable space group: P -1
;
_chemical_formula_sum "Si O2"
_cell_formula_units_Z 15
_cell_length_a 9.243525
_cell_length_b 8.816968
_cell_length_c 13.023583
_cell_angle_alpha 75.105941
_cell_angle_beta 51.722861
_cell_angle_gamma 63.915953
_cell_volume 748.197342
_symmetry_space_group_name_H-M "P -1"
_symmetry_group_IT_number 2
_symmetry_cell_setting 'triclinic'
loop_
_space_group_symop_operation_xyz
x,y,z
-x,-y,-z
loop_
_atom_site_type_symbol
_atom_site_label
_atom_site_fract_x
_atom_site_fract_y
_atom_site_fract_z
Si Si1 0.020259 0.055782 0.366960
Si Si2 0.394370 0.564455 0.143362
Si Si3 0.411168 0.763239 0.749966
Si Si4 0.985083 0.824643 0.242022
Si Si5 0.640764 0.310075 0.450423
Si Si6 0.000000 0.000000 0.000000
Si Si7 0.463990 0.897307 0.129316
Si Si8 0.575897 0.893821 0.300698
O O1 0.874531 0.248958 0.381642
O O2 0.951758 0.943299 0.335445
O O3 0.000000 0.000000 0.500000
O O4 0.249035 0.011055 0.248598
O O5 0.465353 0.407786 0.216621
O O6 0.455404 0.718769 0.129823
O O7 0.156686 0.646499 0.221751
O O8 0.500000 0.500000 0.000000
O O9 0.380280 0.725603 0.652929
O O10 0.508921 0.905106 0.681904
O O11 0.200100 0.858333 0.882018
O O12 0.781450 0.820993 0.286148
O O13 0.065717 0.908527 0.099727
O O14 0.500000 0.500000 0.500000
O O15 0.564779 0.194891 0.578039
O O16 0.612641 0.866810 0.166480
O O17 0.500000 0.000000 0.000000
#
# Coordination Sequence:
#
# PCOD9080106 Si02
#       8
#     2   2   2   2   2   1   2   2
#     4  11  23  44  69  95 140 187 226 279 350 414
#     4  11  22  43  65 100 137 174 223 282 349 405
#     4  11  23  39  72  93 132 181 225 286 340 412
#     4  10  23  39  70  95 135 173 230 273 348 407
#     4  12  25  44  65  99 136 183 230 284 350 411
#     4  10  18  38  64 100 122 178 218 268 348 408
#     4  11  25  42  71 103 139 178 228 286 343 415
#     4  11  23  45  66  97 134 175 235 277 342 415
#
# _framework density 20.048186999999999
#
# number of rings (size 3 to 8) (size 9 to 14) (size 15 to 20)
#    0.000    1.067    5.333    2.000    7.467    0.000 
#    4.800    1.333    0.000    0.000    0.000    0.000 
#    0.000    0.000    0.000    0.000    0.000    0.000 
#
# Total GULP energy -83534.153804 kJ/mol
# GULP energy per Si atom -5568.943587 kJ/mol
# Density = 2.000256 g / cm^3
# Si number density = 20.048187 Si / 1000 Ang^3
#
#
#
# Elastic Constant Matrix: (Units=GPa)
#
#
# Indices 1 2 3 4 5 6 
#
# 1 75.3356 34.6268 20.5894 3.9636 16.7705 -14.1602
# 2 34.6268 161.3826 46.6003 -1.5797 -1.0857 -30.5908
# 3 20.5894 46.6003 136.4092 -1.3794 24.6830 -4.2217
# 4 3.9636 -1.5797 -1.3794 41.0912 -5.6330 5.0060
# 5 16.7705 -1.0857 24.6830 -5.6330 33.9607 0.0048
# 6 -14.1602 -30.5908 -4.2217 5.0060 0.0048 34.5850
#
#
#
# Elastic Compliance Matrix: (Units=1/GPa)
#
#
# Indices 1 2 3 4 5 6 
#
# 1 0.017968 -0.003021 0.000210 -0.003821 -0.009756 0.005265
# 2 -0.003021 0.008977 -0.003161 0.000333 0.004130 0.006268
# 3 0.000210 -0.003161 0.009654 -0.000647 -0.007328 -0.001437
# 4 -0.003821 0.000333 -0.000647 0.026244 0.006722 -0.005149
# 5 -0.009756 0.004130 -0.007328 0.006722 0.040837 -0.002214
# 6 0.005265 0.006268 -0.001437 -0.005149 -0.002214 0.037184
#
#
# Mechanical properties :
#
#
# Convention : Reuss Voigt Hill
#
# Bulk Modulus (GPa) = 40.56053 64.08448 52.32251
# Shear Modulus (GPa) = 31.05089 40.01477 35.53283
#
# Velocity S-wave (km/s) = 3.93977 4.47243 4.21452
# Velocity P-wave (km/s) = 6.40087 7.66191 7.05960
#
# Compressibility (1/GPa) = 0.02465451
#
# Stress axis : x y z
#
# Youngs Moduli (GPa) = 55.65595 111.40182 103.58379
#
# Poissons Ratio (x) = 0.33653 -0.02172
# Poissons Ratio (y) = 0.16813 0.32739
# Poissons Ratio (z) = -0.01167 0.35210
#
# Static dielectric constant tensor:
#      x y z
#    x 1.787270 0.001710 -0.024910 
#    y 0.001710 1.705290 0.001290 
#    z -0.024910 0.001290 1.697920 
# 
# From -- ./inp_files/327265.got.cif
#   From: 2010.05.17/outbox.cif.g08.bks.cpg/sg2_164_cif.got.tgz:327265.got - 2010.06.03 11:33:40.
