data_PCOD9080239
_publ_section_title
;
Structure prediction by ZEFSAII (Michael W. Deem and Ramdas Pophale) SiO2 
 PCOD9080239
Probable space group: P -1
;
_chemical_formula_sum "Si O2"
_cell_formula_units_Z 16
_cell_length_a 9.103928
_cell_length_b 17.102299
_cell_length_c 12.552310
_cell_angle_alpha 132.121625
_cell_angle_beta 131.478098
_cell_angle_gamma 33.993649
_cell_volume 783.420135
_symmetry_space_group_name_H-M "P -1"
_symmetry_group_IT_number 2
_symmetry_cell_setting 'triclinic'
loop_
_space_group_symop_operation_xyz
x,y,z
-x,-y,-z
loop_
_atom_site_type_symbol
_atom_site_label
_atom_site_fract_x
_atom_site_fract_y
_atom_site_fract_z
Si Si1 0.871737 0.581350 0.625032
Si Si2 0.598970 0.488617 0.420387
Si Si3 0.112554 0.099229 0.820221
Si Si4 0.651185 0.608542 0.179021
Si Si5 0.822912 0.842539 0.633697
Si Si6 0.740400 0.873568 0.854857
Si Si7 0.324750 0.576113 0.151184
Si Si8 0.693600 0.078984 0.631876
O O1 0.598885 0.616003 0.528265
O O2 0.848799 0.713660 0.750858
O O3 0.000000 0.500000 0.500000
O O4 0.054633 0.471142 0.709053
O O5 0.500000 0.500000 0.500000
O O6 0.418759 0.518349 0.262375
O O7 0.899764 0.326984 0.399942
O O8 0.957082 0.256142 0.837172
O O9 0.934809 0.059844 0.680457
O O10 0.418765 0.983118 0.819875
O O11 0.130484 0.116779 0.972249
O O12 0.527738 0.580320 0.188685
O O13 0.462142 0.780370 0.237324
O O14 0.672710 0.530560 0.013931
O O15 0.809225 0.897003 0.794993
O O16 0.550236 0.871754 0.516571
O O17 0.805257 0.938111 0.621933
#
# Coordination Sequence:
#
# PCOD9080239 Si02
#       8
#     2   2   2   2   2   2   2   2
#     4  12  20  40  68  94 121 166 217 264 316 373
#     4  12  27  42  62  96 131 167 210 266 326 376
#     4  10  24  42  65  97 127 165 214 271 314 374
#     4  10  18  38  67  93 117 162 220 255 310 374
#     4  11  24  43  61  91 132 172 209 260 321 388
#     4  11  23  42  66  96 129 163 214 268 320 377
#     4  10  21  39  65  94 123 161 212 266 306 378
#     4  10  23  40  63  94 127 171 210 258 321 383
#
# _framework density 20.423271
#
# number of rings (size 3 to 8) (size 9 to 14) (size 15 to 20)
#    0.000    1.250    5.000    0.000    7.000    3.000 
#    0.000    0.625    0.000    0.000    0.000    0.000 
#    0.000    0.000    0.000    0.000    0.000    0.000 
#
# Total GULP energy -89333.349396 kJ/mol
# GULP energy per Si atom -5583.334337 kJ/mol
# Density = 2.037679 g / cm^3
# Si number density = 20.423271 Si / 1000 Ang^3
#
#
#
# Elastic Constant Matrix: (Units=GPa)
#
#
# Indices 1 2 3 4 5 6 
#
# 1 43.2174 5.9950 27.7749 -4.7647 -17.7936 -1.7858
# 2 5.9950 100.4794 21.4101 -14.5857 -4.1249 -2.0059
# 3 27.7749 21.4101 92.2332 -15.3791 -14.2547 -5.3239
# 4 -4.7647 -14.5857 -15.3791 27.8195 7.6095 0.3319
# 5 -17.7936 -4.1249 -14.2547 7.6095 31.0132 1.6004
# 6 -1.7858 -2.0059 -5.3239 0.3319 1.6004 20.6783
#
#
#
# Elastic Compliance Matrix: (Units=1/GPa)
#
#
# Indices 1 2 3 4 5 6 
#
# 1 0.035333 -0.000084 -0.008560 -0.003421 0.017189 -0.000436
# 2 -0.000084 0.011041 -0.001777 0.004961 -0.000643 0.000577
# 3 -0.008560 -0.001777 0.014991 0.005809 0.000171 0.002842
# 4 -0.003421 0.004961 0.005809 0.043738 -0.009453 0.001711
# 5 0.017189 -0.000643 0.000171 -0.009453 0.044513 -0.001827
# 6 -0.000436 0.000577 0.002842 0.001711 -0.001827 0.049224
#
#
# Mechanical properties :
#
#
# Convention : Reuss Voigt Hill
#
# Bulk Modulus (GPa) = 24.67590 38.47665 31.57628
# Shear Modulus (GPa) = 21.44180 27.95220 24.69700
#
# Velocity S-wave (km/s) = 3.24369 3.70353 3.48121
# Velocity P-wave (km/s) = 5.11245 6.09662 5.62609
#
# Compressibility (1/GPa) = 0.04052537
#
# Stress axis : x y z
#
# Youngs Moduli (GPa) = 28.30184 90.57025 66.70553
#
# Poissons Ratio (x) = 0.00759 0.57098
# Poissons Ratio (y) = 0.00237 0.11851
# Poissons Ratio (z) = 0.24226 0.16091
#
# Static dielectric constant tensor:
#      x y z
#    x 1.807950 0.035360 -0.026610 
#    y 0.035360 1.772740 -0.054180 
#    z -0.026610 -0.054180 1.762210 
# 
# From -- ./inp_files/391050.got.cif
#   From: 2010.05.17/outbox.cif.g08.bks.cpg/sg2_196_cif.got.tgz:391050.got - 2010.06.03 11:33:40.
