data_PCOD9080285
_publ_section_title
;
Structure prediction by ZEFSAII (Michael W. Deem and Ramdas Pophale) SiO2 
 PCOD9080285
Probable space group: P -1
;
_chemical_formula_sum "Si O2"
_cell_formula_units_Z 16
_cell_length_a 15.233995
_cell_length_b 5.734958
_cell_length_c 16.496729
_cell_angle_alpha 67.065090
_cell_angle_beta 39.747827
_cell_angle_gamma 84.802272
_cell_volume 793.438078
_symmetry_space_group_name_H-M "P -1"
_symmetry_group_IT_number 2
_symmetry_cell_setting 'triclinic'
loop_
_space_group_symop_operation_xyz
x,y,z
-x,-y,-z
loop_
_atom_site_type_symbol
_atom_site_label
_atom_site_fract_x
_atom_site_fract_y
_atom_site_fract_z
Si Si1 0.110944 0.425338 0.170339
Si Si2 0.663349 0.208168 0.376241
Si Si3 0.686846 0.108152 0.562417
Si Si4 0.891961 0.626075 0.395325
Si Si5 0.963898 0.950012 0.439271
Si Si6 0.256406 0.290794 0.847226
Si Si7 0.049215 0.857397 0.831454
Si Si8 0.641657 0.233185 0.150176
O O1 0.021018 0.543667 0.277279
O O2 0.094248 0.144693 0.263391
O O3 0.026999 0.375479 0.149893
O O4 0.272682 0.615876 0.010000
O O5 0.689081 0.158481 0.458106
O O6 0.691041 0.521916 0.295092
O O7 0.800834 0.163574 0.238484
O O8 0.500000 0.000000 0.500000
O O9 0.730704 0.404766 0.529586
O O10 0.818586 0.015539 0.510366
O O11 0.531089 0.893917 0.722293
O O12 0.925390 0.665028 0.461486
O O13 0.903511 0.877217 0.294730
O O14 0.000000 0.000000 0.500000
O O15 0.323136 0.528695 0.837565
O O16 0.309235 0.032726 0.839029
O O17 0.080965 0.171681 0.008311
#
# Coordination Sequence:
#
# PCOD9080285 Si02
#       8
#     2   2   2   2   2   2   2   2
#     4   9  19  39  63  93 123 166 214 266 320 387
#     4  12  23  40  58  94 136 175 222 271 319 379
#     4  11  24  39  61  93 134 168 215 271 332 377
#     4  10  18  38  69  84 122 166 206 270 321 387
#     4  10  22  42  71  98 122 161 216 269 334 400
#     4  11  25  40  64  90 131 180 234 263 313 388
#     4  10  20  40  58  89 124 174 222 268 319 368
#     4  11  24  42  63  97 130 180 218 268 325 382
#
# _framework density 20.165403999999999
#
# number of rings (size 3 to 8) (size 9 to 14) (size 15 to 20)
#    0.000    1.500    6.250    0.375    3.500    3.500 
#    0.000    3.125    0.000    1.500    0.000    0.000 
#    0.000    0.000    0.000    0.000    0.000    0.000 
#
# Total GULP energy -89110.436429 kJ/mol
# GULP energy per Si atom -5569.402277 kJ/mol
# Density = 2.011951 g / cm^3
# Si number density = 20.165404 Si / 1000 Ang^3
#
#
#
# Elastic Constant Matrix: (Units=GPa)
#
#
# Indices 1 2 3 4 5 6 
#
# 1 102.5652 23.0248 43.2838 5.1870 -0.4474 19.7545
# 2 23.0248 59.7898 7.7552 -0.9289 -5.7706 17.0899
# 3 43.2838 7.7552 133.1090 -9.9889 -24.4250 8.7578
# 4 5.1870 -0.9289 -9.9889 22.2012 3.8307 -0.8165
# 5 -0.4474 -5.7706 -24.4250 3.8307 19.2725 -0.7884
# 6 19.7545 17.0899 8.7578 -0.8165 -0.7884 20.5102
#
#
#
# Elastic Compliance Matrix: (Units=1/GPa)
#
#
# Indices 1 2 3 4 5 6 
#
# 1 0.015021 -0.002944 -0.005775 -0.005358 -0.007198 -0.010039
# 2 -0.002944 0.023395 0.002474 0.000545 0.009255 -0.017337
# 3 -0.005775 0.002474 0.012493 0.004355 0.015531 -0.001063
# 4 -0.005358 0.000545 0.004355 0.049141 -0.004019 0.004649
# 5 -0.007198 0.009255 0.015531 -0.004019 0.074781 -0.004696
# 6 -0.010039 -0.017337 -0.001063 0.004649 -0.004696 0.073330
#
#
# Mechanical properties :
#
#
# Convention : Reuss Voigt Hill
#
# Bulk Modulus (GPa) = 26.02892 49.28795 37.65843
# Shear Modulus (GPa) = 18.28432 27.15679 22.72055
#
# Velocity S-wave (km/s) = 3.01444 3.67372 3.36029
# Velocity P-wave (km/s) = 5.00515 6.51843 5.81126
#
# Compressibility (1/GPa) = 0.03841881
#
# Stress axis : x y z
#
# Youngs Moduli (GPa) = 66.57278 42.74353 80.04424
#
# Poissons Ratio (x) = 0.12584 0.46229
# Poissons Ratio (y) = 0.19600 -0.19804
# Poissons Ratio (z) = 0.38448 -0.10575
#
# Static dielectric constant tensor:
#      x y z
#    x 1.719270 0.014900 0.007860 
#    y 0.014900 1.940540 -0.051520 
#    z 0.007860 -0.051520 1.733200 
# 
# From -- ./inp_files/54688.got.cif
#   From: 2010.05.17/outbox.cif.g08.bks.cpg/sg2_28_cif.got.tgz:54688.got - 2010.06.03 11:33:40.
