data_PCOD9080434
_publ_section_title
;
Structure prediction by ZEFSAII (Michael W. Deem and Ramdas Pophale) SiO2 
 PCOD9080434
Probable space group: P -1
;
_chemical_formula_sum "Si O2"
_cell_formula_units_Z 12
_cell_length_a 9.187708
_cell_length_b 14.243533
_cell_length_c 8.908453
_cell_angle_alpha 125.077005
_cell_angle_beta 89.497931
_cell_angle_gamma 51.751908
_cell_volume 617.097042
_symmetry_space_group_name_H-M "P -1"
_symmetry_group_IT_number 2
_symmetry_cell_setting 'triclinic'
loop_
_space_group_symop_operation_xyz
x,y,z
-x,-y,-z
loop_
_atom_site_type_symbol
_atom_site_label
_atom_site_fract_x
_atom_site_fract_y
_atom_site_fract_z
Si Si1 0.888180 0.728839 0.092846
Si Si2 0.866974 0.322575 0.378519
Si Si3 0.634039 0.526839 0.083143
Si Si4 0.453762 0.690141 0.546989
Si Si5 0.336241 0.017311 0.922302
Si Si6 0.936028 0.446723 0.771535
O O1 0.872611 0.700918 0.242380
O O2 0.694310 0.912082 0.179498
O O3 0.942143 0.578344 0.864105
O O4 0.121382 0.659514 0.028198
O O5 0.670386 0.503662 0.453578
O O6 0.755264 0.270435 0.386946
O O7 0.932936 0.365884 0.556276
O O8 0.089585 0.168914 0.138671
O O9 0.503373 0.664908 0.345848
O O10 0.500000 0.500000 0.000000
O O11 0.706861 0.562137 0.975263
O O12 0.416951 0.838465 0.747965
O O13 0.500000 0.000000 0.000000
#
# Coordination Sequence:
#
# PCOD9080434 Si02
#       6
#     2   2   2   2   2   2
#     4   9  20  39  59  88 127 155 204 252 298 365
#     4  11  22  42  63  90 125 161 211 253 306 365
#     4  10  18  39  65  93 113 159 208 246 312 358
#     4  11  23  40  67  88 126 165 201 260 307 361
#     4  12  26  39  61  95 127 166 205 248 308 370
#     4   9  19  36  67  84 120 165 196 257 305 356
#
# _framework density 19.445888
#
# number of rings (size 3 to 8) (size 9 to 14) (size 15 to 20)
#    1.000    0.667    3.333    1.500    2.333    1.333 
#    0.000    8.333    0.000    0.000    0.000    0.000 
#    0.000    0.000    0.000    0.000    0.000    0.000 
#
# Total GULP energy -66893.243059 kJ/mol
# GULP energy per Si atom -5574.436922 kJ/mol
# Density = 1.940163 g / cm^3
# Si number density = 19.445888 Si / 1000 Ang^3
#
#
#
# Elastic Constant Matrix: (Units=GPa)
#
#
# Indices 1 2 3 4 5 6 
#
# 1 86.2651 20.7068 26.6645 8.1436 21.1032 -10.9929
# 2 20.7068 37.9647 11.2670 10.5714 6.8128 0.8088
# 3 26.6645 11.2670 95.9552 -2.6228 15.6110 2.2265
# 4 8.1436 10.5714 -2.6228 23.4222 -2.9160 2.5556
# 5 21.1032 6.8128 15.6110 -2.9160 38.8314 -4.9230
# 6 -10.9929 0.8088 2.2265 2.5556 -4.9230 27.2497
#
#
#
# Elastic Compliance Matrix: (Units=1/GPa)
#
#
# Indices 1 2 3 4 5 6 
#
# 1 0.016880 -0.005803 -0.003261 -0.005128 -0.006396 0.006574
# 2 -0.005803 0.034755 -0.002240 -0.014073 -0.003416 -0.002487
# 3 -0.003261 -0.002240 0.012227 0.003493 -0.002880 -0.003096
# 4 -0.005128 -0.014073 0.003493 0.052715 0.007101 -0.005598
# 5 -0.006396 -0.003416 -0.002880 0.007101 0.031880 0.002850
# 6 0.006574 -0.002487 -0.003096 -0.005598 0.002850 0.040716
#
#
# Mechanical properties :
#
#
# Convention : Reuss Voigt Hill
#
# Bulk Modulus (GPa) = 24.24053 37.49573 30.86813
# Shear Modulus (GPa) = 22.16986 28.67045 25.42015
#
# Velocity S-wave (km/s) = 3.38017 3.84392 3.61948
# Velocity P-wave (km/s) = 5.26562 6.24699 5.77718
#
# Compressibility (1/GPa) = 0.04125322
#
# Stress axis : x y z
#
# Youngs Moduli (GPa) = 59.24306 28.77311 81.78823
#
# Poissons Ratio (x) = 0.16697 0.26674
# Poissons Ratio (y) = 0.34378 0.18317
# Poissons Ratio (z) = 0.19321 0.06444
#
# Static dielectric constant tensor:
#      x y z
#    x 1.695190 0.013660 -0.032320 
#    y 0.013660 1.699180 -0.028250 
#    z -0.032320 -0.028250 1.665300 
# 
# From -- ./inp_files/194434.got.cif
#   From: 2010.05.17/outbox.cif.g08.bks.cpg/sg2_98_cif.got.tgz:194434.got - 2010.06.03 11:33:40.
