data_PCOD9080538
_publ_section_title
;
Structure prediction by ZEFSAII (Michael W. Deem and Ramdas Pophale) SiO2 
 PCOD9080538
Probable space group: P -1
;
_chemical_formula_sum "Si O2"
_cell_formula_units_Z 16
_cell_length_a 14.100963
_cell_length_b 15.243968
_cell_length_c 8.904946
_cell_angle_alpha 140.531495
_cell_angle_beta 133.136179
_cell_angle_gamma 44.736235
_cell_volume 816.262148
_symmetry_space_group_name_H-M "P -1"
_symmetry_group_IT_number 2
_symmetry_cell_setting 'triclinic'
loop_
_space_group_symop_operation_xyz
x,y,z
-x,-y,-z
loop_
_atom_site_type_symbol
_atom_site_label
_atom_site_fract_x
_atom_site_fract_y
_atom_site_fract_z
Si Si1 0.483601 0.716291 0.892371
Si Si2 0.223308 0.096477 0.959311
Si Si3 0.501374 0.984013 0.661545
Si Si4 0.690756 0.384389 0.679531
Si Si5 0.287502 0.884402 0.464307
Si Si6 0.199353 0.935947 0.997461
Si Si7 0.066244 0.115437 0.348574
Si Si8 0.998418 0.658814 0.159646
O O1 0.608180 0.559606 0.861603
O O2 0.401215 0.668033 0.607942
O O3 0.356164 0.808483 0.990490
O O4 0.542869 0.845683 0.095186
O O5 0.346496 0.104876 0.211331
O O6 0.160609 0.005275 0.880853
O O7 0.111090 0.249169 0.968763
O O8 0.288820 0.983144 0.742297
O O9 0.402396 0.902687 0.502796
O O10 0.500000 0.000000 0.500000
O O11 0.697703 0.278887 0.688108
O O12 0.845028 0.354121 0.737165
O O13 0.138173 0.968002 0.333400
O O14 0.165417 0.076559 0.258825
O O15 0.091082 0.863869 0.835289
O O16 0.055582 0.245890 0.620893
O O17 0.000000 0.500000 0.000000
#
# Coordination Sequence:
#
# PCOD9080538 Si02
#       8
#     2   2   2   2   2   2   2   2
#     4  10  22  38  62  92 130 165 208 264 321 372
#     4  10  21  37  63  90 121 161 220 260 303 377
#     4  11  23  41  63  93 130 167 212 265 320 378
#     4  11  22  38  63  94 129 162 212 268 316 376
#     4  11  20  36  64  93 120 164 220 259 311 373
#     4  10  18  40  60  90 123 160 211 261 315 378
#     4  10  21  35  65  88 121 165 208 264 317 378
#     4  11  24  41  63  96 128 167 214 266 324 370
#
# _framework density 19.601547
#
# number of rings (size 3 to 8) (size 9 to 14) (size 15 to 20)
#    0.000    1.500    3.750    2.625    3.500    3.000 
#    0.000    3.125    2.750    0.000    0.000    0.000 
#    0.000    0.000    0.000    0.000    0.000    0.000 
#
# Total GULP energy -89107.363322 kJ/mol
# GULP energy per Si atom -5569.210208 kJ/mol
# Density = 1.955693 g / cm^3
# Si number density = 19.601547 Si / 1000 Ang^3
#
#
#
# Elastic Constant Matrix: (Units=GPa)
#
#
# Indices 1 2 3 4 5 6 
#
# 1 92.8438 31.5397 27.2572 11.0635 -14.2830 8.2084
# 2 31.5397 129.7133 49.2754 24.7475 -6.8947 5.9233
# 3 27.2572 49.2754 76.2490 6.1935 -10.7536 7.3140
# 4 11.0635 24.7475 6.1935 36.9239 4.7704 1.2662
# 5 -14.2830 -6.8947 -10.7536 4.7704 36.5319 0.8597
# 6 8.2084 5.9233 7.3140 1.2662 0.8597 27.5953
#
#
#
# Elastic Compliance Matrix: (Units=1/GPa)
#
#
# Indices 1 2 3 4 5 6 
#
# 1 0.013364 -0.001180 -0.002807 -0.003244 0.004669 -0.002974
# 2 -0.001180 0.011769 -0.006541 -0.006521 0.000690 -0.000164
# 3 -0.002807 -0.006541 0.018920 0.001755 0.003078 -0.002952
# 4 -0.003244 -0.006521 0.001755 0.032924 -0.006295 0.000585
# 5 0.004669 0.000690 0.003078 -0.006295 0.031128 -0.003034
# 6 -0.002974 -0.000164 -0.002952 0.000585 -0.003034 0.038008
#
#
# Mechanical properties :
#
#
# Convention : Reuss Voigt Hill
#
# Bulk Modulus (GPa) = 43.48588 57.21674 50.35131
# Shear Modulus (GPa) = 28.59813 32.92582 30.76198
#
# Velocity S-wave (km/s) = 3.82379 4.10293 3.96582
# Velocity P-wave (km/s) = 6.45974 7.19018 6.83473
#
# Compressibility (1/GPa) = 0.02299597
#
# Stress axis : x y z
#
# Youngs Moduli (GPa) = 74.83006 84.96589 52.85296
#
# Poissons Ratio (x) = 0.10027 0.14837
# Poissons Ratio (y) = 0.08831 0.34573
# Poissons Ratio (z) = 0.21007 0.55580
#
# Static dielectric constant tensor:
#      x y z
#    x 1.748540 -0.027000 -0.002840 
#    y -0.027000 1.695230 -0.029690 
#    z -0.002840 -0.029690 1.742690 
# 
# From -- ./inp_files/314287.got.cif
#   From: 2010.05.17/outbox.cif.g08.bks.cpg/sg2_158_cif.got.tgz:314287.got - 2010.06.03 11:33:40.
