data_PCOD9080849
_publ_section_title
;
Structure prediction by ZEFSAII (Michael W. Deem and Ramdas Pophale) SiO2 
 PCOD9080849
Probable space group: P -1
;
_chemical_formula_sum "Si O2"
_cell_formula_units_Z 16
_cell_length_a 6.644548
_cell_length_b 13.395488
_cell_length_c 8.282360
_cell_angle_alpha 125.836631
_cell_angle_beta 80.916561
_cell_angle_gamma 94.889310
_cell_volume 590.111998
_symmetry_space_group_name_H-M "P -1"
_symmetry_group_IT_number 2
_symmetry_cell_setting 'triclinic'
loop_
_space_group_symop_operation_xyz
x,y,z
-x,-y,-z
loop_
_atom_site_type_symbol
_atom_site_label
_atom_site_fract_x
_atom_site_fract_y
_atom_site_fract_z
Si Si1 0.790661 0.481828 0.601018
Si Si2 0.355082 0.211081 0.769089
Si Si3 0.592373 0.731531 0.816668
Si Si4 0.374756 0.102693 0.335047
Si Si5 0.742245 0.524241 0.007385
Si Si6 0.185829 0.802571 0.632337
Si Si7 0.163301 0.855583 0.021334
Si Si8 0.153495 0.746131 0.234371
O O1 0.633195 0.585949 0.663090
O O2 0.830315 0.520537 0.814679
O O3 0.735429 0.338763 0.485300
O O4 0.000000 0.500000 0.500000
O O5 0.318562 0.110318 0.539391
O O6 0.604143 0.223938 0.750211
O O7 0.318362 0.216579 0.973577
O O8 0.260724 0.333773 0.807906
O O9 0.662654 0.792127 0.697031
O O10 0.353091 0.760101 0.893669
O O11 0.623807 0.104410 0.309105
O O12 0.270800 0.984221 0.160825
O O13 0.840985 0.399914 0.947725
O O14 0.500000 0.500000 0.000000
O O15 0.076730 0.790636 0.462253
O O16 0.063948 0.842679 0.846153
O O17 0.055287 0.819087 0.166594
#
# Coordination Sequence:
#
# PCOD9080849 Si02
#       8
#     2   2   2   2   2   2   2   2
#     4  10  20  34  54  80 108 140 177 214 267 335
#     4   8  15  26  44  70 101 130 159 205 262 310
#     4   9  18  31  48  72 104 135 169 216 265 311
#     4  10  19  29  48  79 106 134 177 220 260 308
#     4   8  14  29  50  74  99 127 168 217 264 310
#     4   9  18  31  48  72 104 135 169 216 265 311
#     4  10  19  29  48  79 106 134 177 220 260 308
#     4   8  15  26  44  70 101 130 159 205 262 310
#
# _framework density 27.113496999999999
#
# number of rings (size 3 to 8) (size 9 to 14) (size 15 to 20)
#    0.000    3.000    0.000    3.000    0.000    8.500 
#    0.000    0.000    0.000   15.000    0.000    7.000 
#    0.000    0.000    0.000    0.000    0.000    0.000 
#
# Total GULP energy -89350.082764 kJ/mol
# GULP energy per Si atom -5584.380173 kJ/mol
# Density = 2.705179 g / cm^3
# Si number density = 27.113497 Si / 1000 Ang^3
#
#
#
# Elastic Constant Matrix: (Units=GPa)
#
#
# Indices 1 2 3 4 5 6 
#
# 1 82.2919 -2.5206 30.9946 -20.1669 16.8012 -7.1095
# 2 -2.5206 95.4959 43.2093 -25.6321 12.0115 5.5588
# 3 30.9946 43.2093 191.2099 -46.6283 30.4952 4.9381
# 4 -20.1669 -25.6321 -46.6283 45.0199 0.7294 -6.5323
# 5 16.8012 12.0115 30.4952 0.7294 49.5059 -13.8992
# 6 -7.1095 5.5588 4.9381 -6.5323 -13.8992 19.5861
#
#
#
# Elastic Compliance Matrix: (Units=1/GPa)
#
#
# Indices 1 2 3 4 5 6 
#
# 1 0.016174 0.003535 -0.000422 0.009580 -0.004914 0.004682
# 2 0.003535 0.014009 -0.000793 0.008330 -0.005187 -0.003396
# 3 -0.000422 -0.000793 0.008383 0.007593 -0.005997 -0.003765
# 4 0.009580 0.008330 0.007593 0.040180 -0.008747 0.006392
# 5 -0.004914 -0.005187 -0.005997 -0.008747 0.033052 0.021739
# 6 0.004682 -0.003396 -0.003765 0.006392 0.021739 0.072228
#
#
# Mechanical properties :
#
#
# Convention : Reuss Voigt Hill
#
# Bulk Modulus (GPa) = 23.14426 56.92936 40.03681
# Shear Modulus (GPa) = 25.80141 42.64336 34.22238
#
# Velocity S-wave (km/s) = 3.08816 3.97012 3.55659
# Velocity P-wave (km/s) = 4.61197 6.48522 5.62709
#
# Compressibility (1/GPa) = 0.04320725
#
# Stress axis : x y z
#
# Youngs Moduli (GPa) = 61.82596 71.38043 119.29529
#
# Poissons Ratio (x) = -0.25230 0.05030
# Poissons Ratio (y) = -0.21853 0.09455
# Poissons Ratio (z) = 0.02607 0.05657
#
# Static dielectric constant tensor:
#      x y z
#    x 2.161550 0.031660 -0.004670 
#    y 0.031660 2.176800 -0.029410 
#    z -0.004670 -0.029410 2.080120 
# 
# From -- ./inp_files/208940.got.cif
#   From: 2010.05.17/outbox.cif.g08.bks.cpg/sg2_105_cif.got.tgz:208940.got - 2010.06.03 11:33:40.
