data_PCOD9080727
_publ_section_title
;
Structure prediction by ZEFSAII (Michael W. Deem and Ramdas Pophale) SiO2 
 PCOD9080727
Probable space group: P -1
;
_chemical_formula_sum "Si O2"
_cell_formula_units_Z 15
_cell_length_a 16.604498
_cell_length_b 10.861320
_cell_length_c 7.353028
_cell_angle_alpha 42.522374
_cell_angle_beta 122.071858
_cell_angle_gamma 137.063718
_cell_volume 610.424682
_symmetry_space_group_name_H-M "P -1"
_symmetry_group_IT_number 2
_symmetry_cell_setting 'triclinic'
loop_
_space_group_symop_operation_xyz
x,y,z
-x,-y,-z
loop_
_atom_site_type_symbol
_atom_site_label
_atom_site_fract_x
_atom_site_fract_y
_atom_site_fract_z
Si Si1 0.982494 0.302868 0.473621
Si Si2 0.222014 0.408763 0.758752
Si Si3 0.326245 0.170082 0.950865
Si Si4 0.926568 0.220131 0.925595
Si Si5 0.644773 0.526354 0.635176
Si Si6 0.556843 0.256975 0.157502
Si Si7 0.889430 0.848790 0.713503
Si Si8 0.500000 0.000000 0.000000
O O1 0.117948 0.387574 0.546792
O O2 0.990068 0.520979 0.191270
O O3 0.935422 0.235052 0.699153
O O4 0.904053 0.081388 0.499064
O O5 0.276589 0.290479 0.863086
O O6 0.334466 0.661675 0.669526
O O7 0.153452 0.271519 0.008999
O O8 0.376763 0.308218 0.671518
O O9 0.432731 0.188905 0.157375
O O10 0.211169 0.919259 0.044295
O O11 0.983402 0.101670 0.202865
O O12 0.610083 0.484397 0.851366
O O13 0.787038 0.668814 0.652298
O O14 0.577486 0.276564 0.743720
O O15 0.528922 0.074450 0.170436
#
# Coordination Sequence:
#
# PCOD9080727 Si02
#       8
#     2   2   2   2   2   2   2   1
#     4  10  19  39  60  88 126 161 199 243 307 360
#     4  10  19  37  65  87 118 162 195 256 302 349
#     4  12  20  37  60  94 124 149 208 257 291 357
#     4  10  21  34  61  91 122 158 201 252 294 359
#     4   9  22  39  63  81 119 169 191 245 312 349
#     4   9  21  40  61  85 117 164 199 245 306 363
#     4  10  18  42  61  85 125 166 198 235 313 366
#     4   8  20  44  58  78 116 162 206 238 296 368
#
# _framework density 24.573058
#
# number of rings (size 3 to 8) (size 9 to 14) (size 15 to 20)
#    0.800    1.333    2.667    1.600    0.000    1.600 
#    2.400    4.667    0.000    0.000    0.000    0.000 
#    0.000    0.000    0.000    0.000    0.000    0.000 
#
# Total GULP energy -83504.162341 kJ/mol
# GULP energy per Si atom -5566.944156 kJ/mol
# Density = 2.451713 g / cm^3
# Si number density = 24.573058 Si / 1000 Ang^3
#
#
#
# Elastic Constant Matrix: (Units=GPa)
#
#
# Indices 1 2 3 4 5 6 
#
# 1 48.5335 10.6408 4.6295 1.4799 -9.1562 12.1112
# 2 10.6408 125.4906 31.1610 -29.7008 10.1234 13.8036
# 3 4.6295 31.1610 54.1216 -23.1840 -7.7784 6.1810
# 4 1.4799 -29.7008 -23.1840 38.2432 0.3257 3.3230
# 5 -9.1562 10.1234 -7.7784 0.3257 21.6020 2.7687
# 6 12.1112 13.8036 6.1810 3.3230 2.7687 44.5014
#
#
#
# Elastic Compliance Matrix: (Units=1/GPa)
#
#
# Indices 1 2 3 4 5 6 
#
# 1 0.025624 -0.003489 0.001656 -0.002223 0.014001 -0.006827
# 2 -0.003489 0.011968 -0.004646 0.006868 -0.008595 -0.002096
# 3 0.001656 -0.004646 0.029981 0.014831 0.014112 -0.005159
# 4 -0.002223 0.006868 0.014831 0.041133 0.001424 -0.006745
# 5 0.014001 -0.008595 0.014112 0.001424 0.062222 -0.007082
# 6 -0.006827 -0.002096 -0.005159 -0.006745 -0.007082 0.026640
#
#
# Mechanical properties :
#
#
# Convention : Reuss Voigt Hill
#
# Bulk Modulus (GPa) = 18.30972 35.66759 26.98866
# Shear Modulus (GPa) = 21.85997 32.98361 27.42179
#
# Velocity S-wave (km/s) = 2.98584 3.66767 3.34418
# Velocity P-wave (km/s) = 4.39935 5.69931 5.09099
#
# Compressibility (1/GPa) = 0.05461579
#
# Stress axis : x y z
#
# Youngs Moduli (GPa) = 39.02612 83.55903 33.35494
#
# Poissons Ratio (x) = 0.29151 -0.05525
# Poissons Ratio (y) = 0.13615 0.15496
# Poissons Ratio (z) = -0.06464 0.38820
#
# Static dielectric constant tensor:
#      x y z
#    x 2.010560 0.017220 -0.063310 
#    y 0.017220 1.944870 0.012050 
#    z -0.063310 0.012050 2.009120 
# 
# From -- ./inp_files/330635.got.cif
#   From: 2010.05.17/outbox.cif.g08.bks.cpg/sg2_166_cif.got.tgz:330635.got - 2010.06.03 11:33:40.
