data_PCOD9080730
_publ_section_title
;
Structure prediction by ZEFSAII (Michael W. Deem and Ramdas Pophale) SiO2 
 PCOD9080730
Probable space group: P -1
;
_chemical_formula_sum "Si O2"
_cell_formula_units_Z 15
_cell_length_a 14.659064
_cell_length_b 10.136021
_cell_length_c 11.888553
_cell_angle_alpha 61.303650
_cell_angle_beta 28.769076
_cell_angle_gamma 77.425205
_cell_volume 653.688475
_symmetry_space_group_name_H-M "P -1"
_symmetry_group_IT_number 2
_symmetry_cell_setting 'triclinic'
loop_
_space_group_symop_operation_xyz
x,y,z
-x,-y,-z
loop_
_atom_site_type_symbol
_atom_site_label
_atom_site_fract_x
_atom_site_fract_y
_atom_site_fract_z
Si Si1 0.083996 0.838871 0.749894
Si Si2 0.500000 0.500000 0.000000
Si Si3 0.971960 0.380546 0.892542
Si Si4 0.823689 0.886887 0.829574
Si Si5 0.550219 0.184624 0.318510
Si Si6 0.589777 0.075131 0.078144
Si Si7 0.165867 0.186847 0.624044
Si Si8 0.393041 0.685979 0.235860
O O1 0.930211 0.799142 0.825911
O O2 0.340068 0.926973 0.409882
O O3 0.064908 0.989703 0.776867
O O4 0.025559 0.682774 0.959556
O O5 0.299066 0.300877 0.326041
O O6 0.433247 0.562691 0.159436
O O7 0.013652 0.254492 0.814287
O O8 0.163558 0.570219 0.589415
O O9 0.732818 0.336406 0.131351
O O10 0.596725 0.766307 0.064662
O O11 0.000000 0.000000 0.500000
O O12 0.760476 0.006458 0.924846
O O13 0.620426 0.188268 0.110205
O O14 0.338838 0.205336 0.525694
O O15 0.500000 0.000000 0.500000
O O16 0.621095 0.176281 0.887101
#
# Coordination Sequence:
#
# PCOD9080730 Si02
#       8
#     2   1   2   2   2   2   2   2
#     4  11  22  41  67  94 127 176 218 263 320 385
#     4  10  18  42  62  92 132 160 202 280 316 372
#     4  11  24  39  63  96 139 163 210 276 323 379
#     4  12  25  43  72  93 124 180 224 263 323 385
#     4  11  21  38  67  98 127 172 217 258 326 382
#     4  11  23  44  70  95 129 170 228 264 312 399
#     4  10  20  37  64  93 133 167 214 266 319 382
#     4  11  24  44  64  99 133 165 217 275 323 382
#
# _framework density 22.946708999999998
#
# number of rings (size 3 to 8) (size 9 to 14) (size 15 to 20)
#    0.000    1.067    6.667    1.600    1.867    2.133 
#    7.200    0.667    0.000    0.000    0.000    0.000 
#    0.000    0.000    0.000    0.000    0.000    0.000 
#
# Total GULP energy -83690.711723 kJ/mol
# GULP energy per Si atom -5579.380782 kJ/mol
# Density = 2.289448 g / cm^3
# Si number density = 22.946709 Si / 1000 Ang^3
#
#
#
# Elastic Constant Matrix: (Units=GPa)
#
#
# Indices 1 2 3 4 5 6 
#
# 1 152.1199 -4.4700 65.2169 -10.2947 -8.5277 -16.8453
# 2 -4.4700 39.7017 -0.4287 10.5704 -4.6820 4.9448
# 3 65.2169 -0.4287 128.9454 -24.7284 13.4203 -10.1048
# 4 -10.2947 10.5704 -24.7284 33.3724 -8.4468 -3.4519
# 5 -8.5277 -4.6820 13.4203 -8.4468 44.0627 -1.4773
# 6 -16.8453 4.9448 -10.1048 -3.4519 -1.4773 14.5264
#
#
#
# Elastic Compliance Matrix: (Units=1/GPa)
#
#
# Indices 1 2 3 4 5 6 
#
# 1 0.009755 -0.000125 -0.004264 0.001811 0.003829 0.009209
# 2 -0.000125 0.031189 -0.004029 -0.014341 0.001203 -0.016850
# 3 -0.004264 -0.004029 0.012531 0.009194 -0.003072 0.007016
# 4 0.001811 -0.014341 0.009194 0.045881 0.005655 0.024856
# 5 0.003829 0.001203 -0.003072 0.005655 0.025780 0.005860
# 6 0.009209 -0.016850 0.007016 0.024856 0.005860 0.096638
#
#
# Mechanical properties :
#
#
# Convention : Reuss Voigt Hill
#
# Bulk Modulus (GPa) = 27.29309 49.04481 38.16895
# Shear Modulus (GPa) = 19.93435 35.75556 27.84495
#
# Velocity S-wave (km/s) = 2.95061 3.95169 3.48726
# Velocity P-wave (km/s) = 4.85057 6.49930 5.73450
#
# Compressibility (1/GPa) = 0.03663931
#
# Stress axis : x y z
#
# Youngs Moduli (GPa) = 102.51120 32.06250 79.80125
#
# Poissons Ratio (x) = 0.00402 0.34025
# Poissons Ratio (y) = 0.01285 0.32151
# Poissons Ratio (z) = 0.43708 0.12918
#
# Static dielectric constant tensor:
#      x y z
#    x 1.834390 0.010150 0.009940 
#    y 0.010150 1.924660 -0.034540 
#    z 0.009940 -0.034540 1.857510 
# 
# From -- ./inp_files/433694.got.cif
#   From: 2010.05.17/outbox.cif.g08.bks.cpg/sg2_217_cif.got.tgz:433694.got - 2010.06.03 11:33:40.
