data_PCOD9080130
_publ_section_title
;
Structure prediction by ZEFSAII (Michael W. Deem and Ramdas Pophale) SiO2 
 PCOD9080130
Probable space group: P -1
;
_chemical_formula_sum "Si O2"
_cell_formula_units_Z 16
_cell_length_a 8.821391
_cell_length_b 19.162073
_cell_length_c 5.677638
_cell_angle_alpha 70.051922
_cell_angle_beta 111.563125
_cell_angle_gamma 65.790556
_cell_volume 663.205871
_symmetry_space_group_name_H-M "P -1"
_symmetry_group_IT_number 2
_symmetry_cell_setting 'triclinic'
loop_
_space_group_symop_operation_xyz
x,y,z
-x,-y,-z
loop_
_atom_site_type_symbol
_atom_site_label
_atom_site_fract_x
_atom_site_fract_y
_atom_site_fract_z
Si Si1 0.757100 0.547867 0.285897
Si Si2 0.858507 0.916888 0.810099
Si Si3 0.505373 0.060489 0.141879
Si Si4 0.656450 0.650827 0.605448
Si Si5 0.245818 0.779507 0.427332
Si Si6 0.187255 0.260449 0.648371
Si Si7 0.826253 0.365436 0.641466
Si Si8 0.877970 0.254712 0.191484
O O1 0.655789 0.606863 0.405738
O O2 0.724226 0.468465 0.373698
O O3 0.000000 0.500000 0.500000
O O4 0.700203 0.594262 0.938536
O O5 0.674594 0.920187 0.812430
O O6 0.000970 0.824602 0.841892
O O7 0.726373 0.005757 0.459454
O O8 0.036591 0.885275 0.139402
O O9 0.416692 0.165604 0.907799
O O10 0.500000 0.000000 0.000000
O O11 0.442050 0.751832 0.429993
O O12 0.821905 0.667879 0.615163
O O13 0.246564 0.690557 0.458112
O O14 0.269232 0.761102 0.740414
O O15 0.057406 0.230376 0.495981
O O16 0.067970 0.308659 0.769529
O O17 0.793774 0.352652 0.909422
#
# Coordination Sequence:
#
# PCOD9080130 Si02
#       8
#     2   2   2   2   2   2   2   2
#     4  12  26  47  68  97 133 167 227 275 321 381
#     4  10  19  35  63  94 131 158 213 271 318 380
#     4  11  19  34  62 102 120 160 216 271 315 375
#     4  12  29  43  68  97 134 177 213 269 332 392
#     4  10  23  41  60  97 132 174 209 262 331 388
#     4  11  21  39  62  97 124 170 214 264 326 385
#     4  10  22  39  69  89 126 173 214 270 321 373
#     4  10  18  38  64  89 126 168 214 263 320 378
#
# _framework density 24.125240000000002
#
# number of rings (size 3 to 8) (size 9 to 14) (size 15 to 20)
#    0.000    1.250    6.250    1.125    7.000    1.000 
#    0.000    0.625    0.000    3.000    0.000    0.000 
#    0.000    0.000    0.000    0.000    0.000    0.000 
#
# Total GULP energy -89077.644503 kJ/mol
# GULP energy per Si atom -5567.352781 kJ/mol
# Density = 2.407033 g / cm^3
# Si number density = 24.125240 Si / 1000 Ang^3
#
#
#
# Elastic Constant Matrix: (Units=GPa)
#
#
# Indices 1 2 3 4 5 6 
#
# 1 57.4164 12.3760 21.2051 2.1573 -9.1562 -30.6331
# 2 12.3760 68.3506 21.9623 11.7125 -14.5552 -28.1196
# 3 21.2051 21.9623 154.3739 1.1284 -12.9527 -19.2919
# 4 2.1573 11.7125 1.1284 24.7895 -9.7642 -5.5713
# 5 -9.1562 -14.5552 -12.9527 -9.7642 32.7243 4.2342
# 6 -30.6331 -28.1196 -19.2919 -5.5713 4.2342 32.7272
#
#
#
# Elastic Compliance Matrix: (Units=1/GPa)
#
#
# Indices 1 2 3 4 5 6 
#
# 1 0.046812 0.017550 -0.000479 0.006635 0.015219 0.057775
# 2 0.017550 0.031748 -0.000682 -0.002191 0.012767 0.041279
# 3 -0.000479 -0.000682 0.007241 0.001754 0.002538 0.003205
# 4 0.006635 -0.002191 0.001754 0.049173 0.014718 0.011829
# 5 0.015219 0.012767 0.002538 0.014718 0.042828 0.023675
# 6 0.057775 0.041279 0.003205 0.011829 0.023675 0.120941
#
#
# Mechanical properties :
#
#
# Convention : Reuss Voigt Hill
#
# Bulk Modulus (GPa) = 8.43301 43.46974 25.95137
# Shear Modulus (GPa) = 16.36711 33.02137 24.69424
#
# Velocity S-wave (km/s) = 2.60748 3.70367 3.20282
# Velocity P-wave (km/s) = 3.54519 6.02885 4.94547
#
# Compressibility (1/GPa) = 0.11858168
#
# Stress axis : x y z
#
# Youngs Moduli (GPa) = 21.36185 31.49787 138.09996
#
# Poissons Ratio (x) = -0.55279 0.06610
# Poissons Ratio (y) = -0.37491 0.09413
# Poissons Ratio (z) = 0.01022 0.02147
#
# Static dielectric constant tensor:
#      x y z
#    x 1.941700 -0.046910 -0.047450 
#    y -0.046910 2.041180 0.158950 
#    z -0.047450 0.158950 2.390530 
# 
# From -- ./inp_files/55369.got.cif
#   From: 2010.05.17/outbox.cif.g08.bks.cpg/sg2_28_cif.got.tgz:55369.got - 2010.06.03 11:33:40.
