data_PCOD9080567
_publ_section_title
;
Structure prediction by ZEFSAII (Michael W. Deem and Ramdas Pophale) SiO2 
 PCOD9080567
Probable space group: P -1
;
_chemical_formula_sum "Si O2"
_cell_formula_units_Z 16
_cell_length_a 24.303012
_cell_length_b 8.366037
_cell_length_c 17.945264
_cell_angle_alpha 140.224625
_cell_angle_beta 20.127126
_cell_angle_gamma 139.859120
_cell_volume 787.895349
_symmetry_space_group_name_H-M "P -1"
_symmetry_group_IT_number 2
_symmetry_cell_setting 'triclinic'
loop_
_space_group_symop_operation_xyz
x,y,z
-x,-y,-z
loop_
_atom_site_type_symbol
_atom_site_label
_atom_site_fract_x
_atom_site_fract_y
_atom_site_fract_z
Si Si1 0.124071 0.190841 0.860527
Si Si2 0.373643 0.465948 0.474011
Si Si3 0.499059 0.697950 0.897016
Si Si4 0.336756 0.500794 0.254676
Si Si5 0.931008 0.910895 0.278723
Si Si6 0.249591 0.764418 0.867374
Si Si7 0.563061 0.922180 0.618314
Si Si8 0.164612 0.582339 0.365869
O O1 0.075522 0.095292 0.804401
O O2 0.148003 0.496971 0.934466
O O3 0.308686 0.158787 0.631325
O O4 0.000000 0.000000 0.000000
O O5 0.478578 0.453633 0.261889
O O6 0.188747 0.351787 0.641746
O O7 0.346092 0.695317 0.645607
O O8 0.432429 0.264816 0.384159
O O9 0.645492 0.667540 0.756364
O O10 0.324552 0.577828 0.112014
O O11 0.500000 0.000000 0.000000
O O12 0.188628 0.441475 0.363126
O O13 0.360222 0.790703 0.355556
O O14 0.500000 0.500000 0.000000
O O15 0.843403 0.129405 0.498413
O O16 0.114067 0.927264 0.078826
O O17 0.385464 0.890409 0.798076
O O18 0.000000 0.500000 0.500000
#
# Coordination Sequence:
#
# PCOD9080567 Si02
#       8
#     2   2   2   2   2   2   2   2
#     4  10  20  39  62  87 125 161 205 250 306 367
#     4  10  18  40  63  88 122 162 208 248 303 370
#     4  11  22  41  68  90 119 162 212 258 305 373
#     4  10  21  39  64  86 117 163 201 250 315 361
#     4  10  20  40  60  84 130 160 201 250 308 371
#     4  10  22  37  63  94 122 169 203 249 312 363
#     4  10  20  41  62  88 127 162 205 253 306 373
#     4  11  23  44  63  91 123 161 209 256 316 365
#
# _framework density 20.307265999999998
#
# number of rings (size 3 to 8) (size 9 to 14) (size 15 to 20)
#    0.000    2.000    3.750    3.750    3.500    2.000 
#    4.500    1.875    0.000    0.000    0.000    0.000 
#    0.000    0.000    0.000    0.000    0.000    0.000 
#
# Total GULP energy -89122.654899 kJ/mol
# GULP energy per Si atom -5570.165931 kJ/mol
# Density = 2.026105 g / cm^3
# Si number density = 20.307266 Si / 1000 Ang^3
#
#
#
# Elastic Constant Matrix: (Units=GPa)
#
#
# Indices 1 2 3 4 5 6 
#
# 1 115.0805 18.5319 58.2778 -17.2835 -22.3238 5.8307
# 2 18.5319 19.3181 10.0662 -4.1951 3.3356 2.2191
# 3 58.2778 10.0662 89.0623 -6.9483 -15.1985 -11.8913
# 4 -17.2835 -4.1951 -6.9483 30.6334 0.7275 -7.8614
# 5 -22.3238 3.3356 -15.1985 0.7275 45.4794 -11.5341
# 6 5.8307 2.2191 -11.8913 -7.8614 -11.5341 21.3965
#
#
#
# Elastic Compliance Matrix: (Units=1/GPa)
#
#
# Indices 1 2 3 4 5 6 
#
# 1 0.017007 -0.010793 -0.009272 0.004802 0.004881 -0.004273
# 2 -0.010793 0.069892 -0.006257 -0.002076 -0.016970 -0.017696
# 3 -0.009272 -0.006257 0.022979 0.004723 0.009262 0.022674
# 4 0.004802 -0.002076 0.004723 0.041462 0.008892 0.021558
# 5 0.004881 -0.016970 0.009262 0.008892 0.035706 0.028092
# 6 -0.004273 -0.017696 0.022674 0.021558 0.028092 0.085402
#
#
# Mechanical properties :
#
#
# Convention : Reuss Voigt Hill
#
# Bulk Modulus (GPa) = 17.47244 44.13475 30.80360
# Shear Modulus (GPa) = 14.52771 28.60754 21.56763
#
# Velocity S-wave (km/s) = 2.67759 3.75738 3.26247
# Velocity P-wave (km/s) = 4.26404 6.37217 5.42156
#
# Compressibility (1/GPa) = 0.05723299
#
# Stress axis : x y z
#
# Youngs Moduli (GPa) = 58.79761 14.30787 43.51849
#
# Poissons Ratio (x) = 0.15443 0.40350
# Poissons Ratio (y) = 0.63461 0.27231
# Poissons Ratio (z) = 0.54516 0.08953
#
# Static dielectric constant tensor:
#      x y z
#    x 1.750420 0.012470 0.047040 
#    y 0.012470 1.723940 -0.033690 
#    z 0.047040 -0.033690 1.736160 
# 
# From -- ./inp_files/216429.got.cif
#   From: 2010.05.17/outbox.cif.g08.bks.cpg/sg2_109_cif.got.tgz:216429.got - 2010.06.03 11:33:40.
