data_PCOD9080662
_publ_section_title
;
Structure prediction by ZEFSAII (Michael W. Deem and Ramdas Pophale) SiO2 
 PCOD9080662
Probable space group: P -1
;
_chemical_formula_sum "Si O2"
_cell_formula_units_Z 14
_cell_length_a 7.764256
_cell_length_b 8.343698
_cell_length_c 10.779233
_cell_angle_alpha 107.176994
_cell_angle_beta 111.820442
_cell_angle_gamma 53.309395
_cell_volume 517.313176
_symmetry_space_group_name_H-M "P -1"
_symmetry_group_IT_number 2
_symmetry_cell_setting 'triclinic'
loop_
_space_group_symop_operation_xyz
x,y,z
-x,-y,-z
loop_
_atom_site_type_symbol
_atom_site_label
_atom_site_fract_x
_atom_site_fract_y
_atom_site_fract_z
Si Si1 0.988667 0.818311 0.403290
Si Si2 0.737791 0.296540 0.239981
Si Si3 0.340687 0.957954 0.023189
Si Si4 0.949100 0.283128 0.866352
Si Si5 0.528426 0.247867 0.737075
Si Si6 0.769902 0.859250 0.591232
Si Si7 0.677560 0.600893 0.692421
O O1 0.909584 0.847983 0.246667
O O2 0.838908 0.787573 0.451354
O O3 0.226597 0.607185 0.405843
O O4 0.000000 0.000000 0.500000
O O5 0.682430 0.212965 0.085833
O O6 0.674982 0.524424 0.266399
O O7 0.569675 0.304931 0.301474
O O8 0.999390 0.170573 0.305373
O O9 0.099914 0.165679 0.996754
O O10 0.447707 0.880768 0.167290
O O11 0.500000 0.000000 0.000000
O O12 0.733677 0.274635 0.813275
O O13 0.842182 0.509751 0.838076
O O14 0.589634 0.099121 0.603675
O O15 0.715376 0.738410 0.644621
#
# Coordination Sequence:
#
# PCOD9080662 Si02
#       7
#     2   2   2   2   2   2   2
#     4  10  18  40  69  95 132 173 215 264 335 388
#     4  11  24  44  65 100 133 170 223 269 327 399
#     4  12  24  41  67  94 131 174 220 276 330 386
#     4   9  21  41  62  91 132 166 214 270 318 383
#     4  11  23  43  63  96 131 167 227 262 327 394
#     4  12  22  42  74  93 134 182 206 274 336 380
#     4   9  23  41  62 102 134 162 229 263 320 398
#
# _framework density 27.062909000000001
#
# number of rings (size 3 to 8) (size 9 to 14) (size 15 to 20)
#    0.857    0.571    2.857    2.143    2.000    0.571 
#    0.000    2.143    0.000    5.143    0.000    0.000 
#    0.000    0.000    0.000    0.000    0.000    0.000 
#
# Total GULP energy -78368.737045 kJ/mol
# GULP energy per Si atom -5597.766932 kJ/mol
# Density = 2.700131 g / cm^3
# Si number density = 27.062909 Si / 1000 Ang^3
#
#
#
# Elastic Constant Matrix: (Units=GPa)
#
#
# Indices 1 2 3 4 5 6 
#
# 1 107.3704 33.3144 18.2921 -11.4472 -22.2126 18.5964
# 2 33.3144 146.4330 28.0159 11.8765 2.3028 13.7967
# 3 18.2921 28.0159 65.9833 10.5574 -15.4766 9.9082
# 4 -11.4472 11.8765 10.5574 53.7799 13.2344 -0.1500
# 5 -22.2126 2.3028 -15.4766 13.2344 38.6120 -10.2860
# 6 18.5964 13.7967 9.9082 -0.1500 -10.2860 50.7488
#
#
#
# Elastic Compliance Matrix: (Units=1/GPa)
#
#
# Indices 1 2 3 4 5 6 
#
# 1 0.012011 -0.002570 -0.000933 0.001981 0.005364 -0.002427
# 2 -0.002570 0.008287 -0.003229 -0.000933 -0.003308 -0.001354
# 3 -0.000933 -0.003229 0.020039 -0.005746 0.009446 -0.000795
# 4 0.001981 -0.000933 -0.005746 0.022600 -0.009158 -0.001140
# 5 0.005364 -0.003308 0.009446 -0.009158 0.037340 0.004631
# 6 -0.002427 -0.001354 -0.000795 -0.001140 0.004631 0.022053
#
#
# Mechanical properties :
#
#
# Convention : Reuss Voigt Hill
#
# Bulk Modulus (GPa) = 37.21277 53.22571 45.21924
# Shear Modulus (GPa) = 34.54137 44.63909 39.59023
#
# Velocity S-wave (km/s) = 3.57646 4.06576 3.82893
# Velocity P-wave (km/s) = 5.55293 6.46147 6.02435
#
# Compressibility (1/GPa) = 0.02687250
#
# Stress axis : x y z
#
# Youngs Moduli (GPa) = 83.25536 120.67167 49.90164
#
# Poissons Ratio (x) = 0.31018 0.04654
# Poissons Ratio (y) = 0.21400 0.16115
# Poissons Ratio (z) = 0.07765 0.38969
#
# Static dielectric constant tensor:
#      x y z
#    x 2.091490 0.013220 0.024600 
#    y 0.013220 2.156460 0.002240 
#    z 0.024600 0.002240 2.241690 
# 
# From -- ./inp_files/380049.got.cif
#   From: 2010.05.17/outbox.cif.g08.bks.cpg/sg2_191_cif.got.tgz:380049.got - 2010.06.03 11:33:40.
