data_PCOD9080313
_publ_section_title
;
Structure prediction by ZEFSAII (Michael W. Deem and Ramdas Pophale) SiO2 
 PCOD9080313
Probable space group: P -1
;
_chemical_formula_sum "Si O2"
_cell_formula_units_Z 14
_cell_length_a 8.758337
_cell_length_b 11.120662
_cell_length_c 9.398028
_cell_angle_alpha 103.549920
_cell_angle_beta 64.093992
_cell_angle_gamma 71.486376
_cell_volume 702.141304
_symmetry_space_group_name_H-M "P -1"
_symmetry_group_IT_number 2
_symmetry_cell_setting 'triclinic'
loop_
_space_group_symop_operation_xyz
x,y,z
-x,-y,-z
loop_
_atom_site_type_symbol
_atom_site_label
_atom_site_fract_x
_atom_site_fract_y
_atom_site_fract_z
Si Si1 0.188641 0.916150 0.800400
Si Si2 0.124698 0.429791 0.070656
Si Si3 0.160834 0.024784 0.527395
Si Si4 0.420348 0.762860 0.187681
Si Si5 0.337061 0.959207 0.021171
Si Si6 0.030599 0.737766 0.724692
Si Si7 0.098612 0.669313 0.358725
O O1 0.162549 0.996323 0.685865
O O2 0.203434 0.765575 0.717416
O O3 0.347072 0.917303 0.840581
O O4 0.000000 0.000000 0.000000
O O5 0.045039 0.332901 0.149668
O O6 0.108497 0.544288 0.225474
O O7 0.352643 0.338928 0.919108
O O8 0.000000 0.500000 0.000000
O O9 0.357686 0.901071 0.349682
O O10 0.000000 0.000000 0.500000
O O11 0.091857 0.186821 0.570823
O O12 0.365539 0.828345 0.069817
O O13 0.285642 0.692416 0.260632
O O14 0.140752 0.100953 0.182442
O O15 0.500000 0.000000 0.000000
O O16 0.081879 0.657930 0.531914
#
# Coordination Sequence:
#
# PCOD9080313 Si02
#       7
#     2   2   2   2   2   2   2
#     4  10  20  35  68 100 127 169 214 271 329 386
#     4  12  29  43  62  95 140 177 216 270 328 396
#     4  10  18  38  71 101 126 161 223 280 321 383
#     4  11  22  45  69  96 130 170 222 273 330 390
#     4  11  22  39  69 103 132 164 219 282 327 379
#     4  11  21  44  65  95 132 174 219 265 331 392
#     4  11  22  43  69  94 130 181 214 263 336 392
#
# _framework density 19.939005999999999
#
# number of rings (size 3 to 8) (size 9 to 14) (size 15 to 20)
#    0.000    1.143    5.714    3.429    6.000    0.000 
#    2.571    2.143    0.000    0.000    0.000    0.000 
#    0.000    0.000    0.000    0.000    0.000    0.000 
#
# Total GULP energy -78146.093923 kJ/mol
# GULP energy per Si atom -5581.863852 kJ/mol
# Density = 1.989362 g / cm^3
# Si number density = 19.939006 Si / 1000 Ang^3
#
#
#
# Elastic Constant Matrix: (Units=GPa)
#
#
# Indices 1 2 3 4 5 6 
#
# 1 97.9308 31.7216 41.0333 -2.5548 17.4497 -9.3026
# 2 31.7216 74.3306 32.2367 -4.2136 0.6833 -16.1816
# 3 41.0333 32.2367 108.3347 -0.6606 27.9055 -22.9614
# 4 -2.5548 -4.2136 -0.6606 48.0184 -3.1155 4.9609
# 5 17.4497 0.6833 27.9055 -3.1155 23.1119 -7.3536
# 6 -9.3026 -16.1816 -22.9614 4.9609 -7.3536 24.4437
#
#
#
# Elastic Compliance Matrix: (Units=1/GPa)
#
#
# Indices 1 2 3 4 5 6 
#
# 1 0.014264 -0.005824 -0.001928 -0.000068 -0.009234 -0.003002
# 2 -0.005824 0.020329 -0.005121 0.001217 0.013393 0.010213
# 3 -0.001928 -0.005121 0.017591 -0.002230 -0.017521 0.007582
# 4 -0.000068 0.001217 -0.002230 0.021630 0.004212 -0.004437
# 5 -0.009234 0.013393 -0.017521 0.004212 0.074933 0.010581
# 6 -0.003002 0.010213 0.007582 -0.004437 0.010581 0.057735
#
#
# Mechanical properties :
#
#
# Convention : Reuss Voigt Hill
#
# Bulk Modulus (GPa) = 37.82340 54.50880 46.16610
# Shear Modulus (GPa) = 20.74348 30.82178 25.78263
#
# Velocity S-wave (km/s) = 3.22894 3.93594 3.59984
# Velocity P-wave (km/s) = 5.73691 6.93200 6.36257
#
# Compressibility (1/GPa) = 0.02643866
#
# Stress axis : x y z
#
# Youngs Moduli (GPa) = 70.10731 49.19108 56.84590
#
# Poissons Ratio (x) = 0.28647 0.10960
# Poissons Ratio (y) = 0.40828 0.29112
# Poissons Ratio (z) = 0.13516 0.25192
#
# Static dielectric constant tensor:
#      x y z
#    x 1.813150 -0.031180 -0.013690 
#    y -0.031180 1.723540 0.000520 
#    z -0.013690 0.000520 1.724280 
# 
# From -- ./inp_files/180028.got.cif
#   From: 2010.05.17/outbox.cif.g08.bks.cpg/sg2_91_cif.got.tgz:180028.got - 2010.06.03 11:33:40.
