data_PCOD9080631
_publ_section_title
;
Structure prediction by ZEFSAII (Michael W. Deem and Ramdas Pophale) SiO2 
 PCOD9080631
Probable space group: P -1
;
_chemical_formula_sum "Si O2"
_cell_formula_units_Z 16
_cell_length_a 14.715932
_cell_length_b 11.488714
_cell_length_c 8.604620
_cell_angle_alpha 118.714750
_cell_angle_beta 116.611040
_cell_angle_gamma 38.154425
_cell_volume 781.571476
_symmetry_space_group_name_H-M "P -1"
_symmetry_group_IT_number 2
_symmetry_cell_setting 'triclinic'
loop_
_space_group_symop_operation_xyz
x,y,z
-x,-y,-z
loop_
_atom_site_type_symbol
_atom_site_label
_atom_site_fract_x
_atom_site_fract_y
_atom_site_fract_z
Si Si1 0.598269 0.446213 0.796316
Si Si2 0.572071 0.066772 0.653943
Si Si3 0.269648 0.914641 0.461689
Si Si4 0.725333 0.882022 0.133810
Si Si5 0.414670 0.249566 0.960162
Si Si6 0.285980 0.733477 0.884854
Si Si7 0.142608 0.160218 0.081234
Si Si8 0.982138 0.156178 0.181384
O O1 0.665561 0.294846 0.613159
O O2 0.422684 0.601924 0.788143
O O3 0.639723 0.560768 0.889519
O O4 0.661078 0.331825 0.936803
O O5 0.607111 0.127862 0.576373
O O6 0.464516 0.228609 0.807158
O O7 0.500000 0.000000 0.500000
O O8 0.732753 0.893472 0.746339
O O9 0.247464 0.025965 0.665267
O O10 0.117363 0.047412 0.333410
O O11 0.696275 0.768165 0.119287
O O12 0.853196 0.762237 0.024327
O O13 0.568942 0.063102 0.043845
O O14 0.170394 0.723662 0.769134
O O15 0.209302 0.950780 0.954227
O O16 0.998339 0.259664 0.135158
O O17 0.000000 0.000000 0.000000
#
# Coordination Sequence:
#
# PCOD9080631 Si02
#       8
#     2   2   2   2   2   2   2   2
#     4  11  18  32  57  86 105 134 177 233 268 308
#     4  10  15  28  49  78 101 131 182 219 247 306
#     4  11  20  31  56  86 107 135 186 225 259 316
#     4  10  20  34  50  79 114 147 173 213 264 333
#     4  10  20  33  51  75 117 144 169 215 283 310
#     4  10  17  32  56  79 106 135 178 224 273 308
#     4   9  17  33  51  75 107 141 176 216 260 316
#     4   9  17  34  55  81 102 143 182 222 262 318
#
# _framework density 20.471578000000001
#
# number of rings (size 3 to 8) (size 9 to 14) (size 15 to 20)
#    0.000    2.000    7.500    0.750    0.000    0.500 
#    0.000    2.500    0.000    1.500    0.000    0.000 
#    0.000    0.000    0.000    0.000    0.000    0.000 
#
# Total GULP energy -89222.894823 kJ/mol
# GULP energy per Si atom -5576.430926 kJ/mol
# Density = 2.042498 g / cm^3
# Si number density = 20.471578 Si / 1000 Ang^3
#
#
#
# Elastic Constant Matrix: (Units=GPa)
#
#
# Indices 1 2 3 4 5 6 
#
# 1 101.7939 12.6036 32.9188 0.8367 21.5963 -8.2525
# 2 12.6036 25.8310 3.8420 6.7393 6.0514 -1.7104
# 3 32.9188 3.8420 82.3150 8.6230 20.2212 -4.4370
# 4 0.8367 6.7393 8.6230 15.7397 5.9750 6.5052
# 5 21.5963 6.0514 20.2212 5.9750 28.8998 -5.4834
# 6 -8.2525 -1.7104 -4.4370 6.5052 -5.4834 20.2422
#
#
#
# Elastic Compliance Matrix: (Units=1/GPa)
#
#
# Indices 1 2 3 4 5 6 
#
# 1 0.013353 -0.006005 -0.003975 0.006915 -0.007400 -0.000162
# 2 -0.006005 0.049022 0.003705 -0.026969 -0.000710 0.010981
# 3 -0.003975 0.003705 0.016360 -0.009210 -0.006699 0.003424
# 4 0.006915 -0.026969 -0.009210 0.105606 -0.022802 -0.041593
# 5 -0.007400 -0.000710 -0.006699 -0.022802 0.052931 0.017121
# 6 -0.000162 0.010981 0.003424 -0.041593 0.017121 0.069019
#
#
# Mechanical properties :
#
#
# Convention : Reuss Voigt Hill
#
# Bulk Modulus (GPa) = 15.10924 34.29649 24.70287
# Shear Modulus (GPa) = 14.66699 23.68136 19.17417
#
# Velocity S-wave (km/s) = 2.67957 3.40485 3.06375
# Velocity P-wave (km/s) = 4.11948 5.67864 4.96070
#
# Compressibility (1/GPa) = 0.06618468
#
# Stress axis : x y z
#
# Youngs Moduli (GPa) = 74.89108 20.39903 61.12426
#
# Poissons Ratio (x) = 0.12250 0.24296
# Poissons Ratio (y) = 0.44974 -0.22647
# Poissons Ratio (z) = 0.29769 -0.07558
#
# Static dielectric constant tensor:
#      x y z
#    x 1.778690 0.002690 -0.011360 
#    y 0.002690 1.778850 -0.012410 
#    z -0.011360 -0.012410 1.744730 
# 
# From -- ./inp_files/308365.got.cif
#   From: 2010.05.17/outbox.cif.g08.bks.cpg/sg2_155_cif.got.tgz:308365.got - 2010.06.03 11:33:40.
