data_PCOD9080587
_publ_section_title
;
Structure prediction by ZEFSAII (Michael W. Deem and Ramdas Pophale) SiO2 
 PCOD9080587
Probable space group: P -1
;
_chemical_formula_sum "Si O2"
_cell_formula_units_Z 16
_cell_length_a 7.666870
_cell_length_b 12.956243
_cell_length_c 11.492844
_cell_angle_alpha 133.567515
_cell_angle_beta 90.683922
_cell_angle_gamma 120.958838
_cell_volume 572.813679
_symmetry_space_group_name_H-M "P -1"
_symmetry_group_IT_number 2
_symmetry_cell_setting 'triclinic'
loop_
_space_group_symop_operation_xyz
x,y,z
-x,-y,-z
loop_
_atom_site_type_symbol
_atom_site_label
_atom_site_fract_x
_atom_site_fract_y
_atom_site_fract_z
Si Si1 0.782507 0.500046 0.946130
Si Si2 0.421612 0.320076 0.007892
Si Si3 0.548280 0.905995 0.690058
Si Si4 0.234934 0.912077 0.391354
Si Si5 0.015337 0.850924 0.831177
Si Si6 0.452255 0.735712 0.799686
Si Si7 0.028295 0.641276 0.839852
Si Si8 0.098510 0.866384 0.608016
O O1 0.605103 0.355253 0.939770
O O2 0.047128 0.692135 0.157447
O O3 0.654355 0.569475 0.949498
O O4 0.856972 0.467920 0.801061
O O5 0.521095 0.365693 0.175362
O O6 0.186512 0.077318 0.808441
O O7 0.493964 0.761529 0.680808
O O8 0.676549 0.928575 0.587421
O O9 0.305254 0.861891 0.625912
O O10 0.757509 0.138736 0.923233
O O11 0.500000 0.000000 0.500000
O O12 0.077948 0.865833 0.468137
O O13 0.889090 0.674095 0.786149
O O14 0.913071 0.742670 0.620855
O O15 0.323377 0.019597 0.968622
O O16 0.000000 0.000000 0.000000
O O17 0.174982 0.628305 0.742634
#
# Coordination Sequence:
#
# PCOD9080587 Si02
#       8
#     2   2   2   2   2   2   2   2
#     4  10  22  37  51  79 114 146 181 222 273 327
#     4  10  21  35  54  79 112 145 180 225 275 322
#     4   9  15  30  50  78 111 132 173 230 268 312
#     4   9  20  35  57  79 111 144 177 223 275 319
#     4  10  17  26  47  79 109 135 172 225 275 313
#     4  10  17  30  51  77 106 135 179 230 271 311
#     4  10  15  28  49  73 104 136 175 231 266 302
#     4  10  17  33  54  81 106 142 178 219 269 324
#
# _framework density 27.932295
#
# number of rings (size 3 to 8) (size 9 to 14) (size 15 to 20)
#    0.000    2.250    3.750    2.250    0.000    1.000 
#    0.000    0.000    0.000    4.500    0.000    8.750 
#    0.000    0.000    0.000    0.250    0.000    0.000 
#
# Total GULP energy -89279.739864 kJ/mol
# GULP energy per Si atom -5579.983742 kJ/mol
# Density = 2.786872 g / cm^3
# Si number density = 27.932295 Si / 1000 Ang^3
#
#
#
# Elastic Constant Matrix: (Units=GPa)
#
#
# Indices 1 2 3 4 5 6 
#
# 1 88.2680 55.3799 5.9100 -24.0339 -5.8696 -1.0161
# 2 55.3799 223.2341 43.1427 -82.6074 4.7086 -2.5436
# 3 5.9100 43.1427 99.9054 -19.0791 -13.7277 -1.9208
# 4 -24.0339 -82.6074 -19.0791 65.4468 10.3202 -0.3515
# 5 -5.8696 4.7086 -13.7277 10.3202 19.0204 -11.2309
# 6 -1.0161 -2.5436 -1.9208 -0.3515 -11.2309 42.7679
#
#
#
# Elastic Compliance Matrix: (Units=1/GPa)
#
#
# Indices 1 2 3 4 5 6 
#
# 1 0.014427 -0.004797 0.002307 -0.001612 0.009784 0.002717
# 2 -0.004797 0.013109 -0.005089 0.016446 -0.020100 -0.004706
# 3 0.002307 -0.005089 0.013686 -0.004238 0.016977 0.004790
# 4 -0.001612 0.016446 -0.004238 0.039470 -0.033623 -0.007756
# 5 0.009784 -0.020100 0.016977 -0.033623 0.107445 0.027738
# 6 0.002717 -0.004706 0.004790 -0.007756 0.027738 0.030602
#
#
# Mechanical properties :
#
#
# Convention : Reuss Voigt Hill
#
# Bulk Modulus (GPa) = 38.36703 68.91919 53.64311
# Shear Modulus (GPa) = 20.61119 45.91201 33.26160
#
# Velocity S-wave (km/s) = 2.71938 4.05864 3.45453
# Velocity P-wave (km/s) = 4.86061 6.83306 5.92943
#
# Compressibility (1/GPa) = 0.02606404
#
# Stress axis : x y z
#
# Youngs Moduli (GPa) = 69.31367 76.28223 73.06616
#
# Poissons Ratio (x) = 0.36592 -0.16854
# Poissons Ratio (y) = 0.33250 0.37183
# Poissons Ratio (z) = -0.15989 0.38820
#
# Static dielectric constant tensor:
#      x y z
#    x 2.252010 -0.008320 0.011600 
#    y -0.008320 2.349940 -0.078230 
#    z 0.011600 -0.078230 2.265250 
# 
# From -- ./inp_files/281096.got.cif
#   From: 2010.05.17/outbox.cif.g08.bks.cpg/sg2_141_cif.got.tgz:281096.got - 2010.06.03 11:33:40.
