data_PCOD9080905
_publ_section_title
;
Structure prediction by ZEFSAII (Michael W. Deem and Ramdas Pophale) SiO2 
 PCOD9080905
Probable space group: P -1
;
_chemical_formula_sum "Si O2"
_cell_formula_units_Z 16
_cell_length_a 14.145809
_cell_length_b 5.262623
_cell_length_c 16.268511
_cell_angle_alpha 95.318156
_cell_angle_beta 54.134007
_cell_angle_gamma 111.311819
_cell_volume 902.669095
_symmetry_space_group_name_H-M "P -1"
_symmetry_group_IT_number 2
_symmetry_cell_setting 'triclinic'
loop_
_space_group_symop_operation_xyz
x,y,z
-x,-y,-z
loop_
_atom_site_type_symbol
_atom_site_label
_atom_site_fract_x
_atom_site_fract_y
_atom_site_fract_z
Si Si1 0.992422 0.166296 0.898988
Si Si2 0.311649 0.152644 0.233265
Si Si3 0.329289 0.722270 0.007305
Si Si4 0.105498 0.784863 0.218505
Si Si5 0.140489 0.108194 0.473489
Si Si6 0.064610 0.559072 0.559896
Si Si7 0.852684 0.570611 0.030825
Si Si8 0.545789 0.259704 0.891242
O O1 0.985142 0.182872 0.805038
O O2 0.904146 0.324345 0.983914
O O3 0.123983 0.329685 0.883759
O O4 0.936834 0.848153 0.946397
O O5 0.242326 0.115054 0.354469
O O6 0.406368 0.464323 0.177912
O O7 0.197926 0.069721 0.221796
O O8 0.378146 0.934065 0.180859
O O9 0.200804 0.675444 0.120038
O O10 0.285781 0.540601 0.942520
O O11 0.416503 0.664199 0.029929
O O12 0.401357 0.044807 0.957108
O O13 0.034327 0.585827 0.322895
O O14 0.162450 0.409084 0.503965
O O15 0.127324 0.886271 0.543570
O O16 0.000000 0.000000 0.500000
O O17 0.000000 0.500000 0.500000
#
# Coordination Sequence:
#
# PCOD9080905 Si02
#       8
#     2   2   2   2   2   2   2   2
#     4   9  18  29  46  71  88 122 157 189 228 286
#     4  11  20  32  48  64  97 126 155 194 223 274
#     4   9  20  33  47  67  96 131 156 192 221 270
#     4  10  19  30  50  69  98 128 155 187 238 274
#     4  10  19  30  46  65  89 124 152 187 235 280
#     4  10  19  30  44  68  91 124 151 185 229 290
#     4   9  17  32  47  63  95 121 157 191 231 263
#     4  10  22  32  45  68  93 127 167 184 219 272
#
# _framework density 17.725211999999999
#
# number of rings (size 3 to 8) (size 9 to 14) (size 15 to 20)
#    0.000    2.250    2.500    1.500    5.250    8.500 
#    0.000    0.000    0.000    0.000    0.000    0.000 
#    0.000    6.000    0.000    0.000    0.000    0.000 
#
# Total GULP energy -89134.351974 kJ/mol
# GULP energy per Si atom -5570.896998 kJ/mol
# Density = 1.768487 g / cm^3
# Si number density = 17.725212 Si / 1000 Ang^3
#
#
#
# Elastic Constant Matrix: (Units=GPa)
#
#
# Indices 1 2 3 4 5 6 
#
# 1 50.3344 28.8150 27.2836 1.6781 9.8569 7.3242
# 2 28.8150 83.5643 20.2746 -11.8073 3.2343 -11.3825
# 3 27.2836 20.2746 103.6520 -9.8819 1.9134 -2.4964
# 4 1.6781 -11.8073 -9.8819 18.6722 -5.4789 4.9330
# 5 9.8569 3.2343 1.9134 -5.4789 19.8690 5.4156
# 6 7.3242 -11.3825 -2.4964 4.9330 5.4156 38.2884
#
#
#
# Elastic Compliance Matrix: (Units=1/GPa)
#
#
# Indices 1 2 3 4 5 6 
#
# 1 0.038636 -0.014248 -0.009222 -0.021509 -0.020087 -0.006615
# 2 -0.014248 0.019119 0.001409 0.014421 0.006226 0.005763
# 3 -0.009222 0.001409 0.012654 0.009797 0.005567 0.000958
# 4 -0.021509 0.014421 0.009797 0.080436 0.031120 -0.005725
# 5 -0.020087 0.006226 0.005567 0.031120 0.069446 -0.007776
# 6 -0.006615 0.005763 0.000958 -0.005725 -0.007776 0.030996
#
#
# Mechanical properties :
#
#
# Convention : Reuss Voigt Hill
#
# Bulk Modulus (GPa) = 38.04031 43.36633 40.70332
# Shear Modulus (GPa) = 16.43816 26.11110 21.27463
#
# Velocity S-wave (km/s) = 3.04861 3.84227 3.46822
# Velocity P-wave (km/s) = 5.82235 6.64854 6.24911
#
# Compressibility (1/GPa) = 0.02628790
#
# Stress axis : x y z
#
# Youngs Moduli (GPa) = 25.88285 52.30276 79.02777
#
# Poissons Ratio (x) = 0.74519 0.72879
# Poissons Ratio (y) = 0.36877 -0.11137
# Poissons Ratio (z) = 0.23869 -0.07370
#
# Static dielectric constant tensor:
#      x y z
#    x 1.684270 -0.038360 -0.005200 
#    y -0.038360 1.660530 0.006000 
#    z -0.005200 0.006000 1.608280 
# 
# From -- ./inp_files/84058.got.cif
#   From: 2010.05.17/outbox.cif.g08.bks.cpg/sg2_43_cif.got.tgz:84058.got - 2010.06.03 11:33:40.
