data_PCOD9080015
_publ_section_title
;
Structure prediction by ZEFSAII (Michael W. Deem and Ramdas Pophale) SiO2 
 PCOD9080015
Probable space group: P -1
;
_chemical_formula_sum "Si O2"
_cell_formula_units_Z 16
_cell_length_a 11.666679
_cell_length_b 22.065656
_cell_length_c 14.027062
_cell_angle_alpha 26.672246
_cell_angle_beta 150.793143
_cell_angle_gamma 147.653747
_cell_volume 755.501751
_symmetry_space_group_name_H-M "P -1"
_symmetry_group_IT_number 2
_symmetry_cell_setting 'triclinic'
loop_
_space_group_symop_operation_xyz
x,y,z
-x,-y,-z
loop_
_atom_site_type_symbol
_atom_site_label
_atom_site_fract_x
_atom_site_fract_y
_atom_site_fract_z
Si Si1 0.238931 0.965133 0.412401
Si Si2 0.152504 0.422710 0.119339
Si Si3 0.379260 0.389754 0.753658
Si Si4 0.203356 0.216518 0.284224
Si Si5 0.346826 0.265413 0.107083
Si Si6 0.363694 0.804693 0.896369
Si Si7 0.902159 0.314049 0.398650
Si Si8 0.638230 0.028563 0.161090
O O1 0.290434 0.923093 0.615279
O O2 0.068194 0.827039 0.430865
O O3 0.500000 0.000000 0.500000
O O4 0.176962 0.111082 0.165686
O O5 0.390730 0.470699 0.293105
O O6 0.227384 0.344410 0.194155
O O7 0.892807 0.318827 0.107181
O O8 0.111121 0.570229 0.851432
O O9 0.124992 0.386856 0.526422
O O10 0.343333 0.367745 0.872379
O O11 0.457092 0.259533 0.945260
O O12 0.268244 0.279893 0.136957
O O13 0.358678 0.116332 0.579633
O O14 0.921379 0.117104 0.221299
O O15 0.633912 0.269773 0.314674
O O16 0.454131 0.874044 0.966889
O O17 0.500000 0.000000 0.000000
#
# Coordination Sequence:
#
# PCOD9080015 Si02
#       8
#     2   2   2   2   2   2   2   2
#     4  10  18  38  61  86 124 155 188 253 306 351
#     4  10  23  41  59  85 127 163 206 241 297 362
#     4  11  23  39  62  94 118 161 203 250 308 351
#     4  10  22  41  64  84 123 170 196 244 308 354
#     4  10  21  41  63  88 123 158 202 251 305 360
#     4  11  20  40  65  88 124 157 196 253 304 364
#     4  10  23  38  58  91 124 156 205 250 294 361
#     4  10  23  40  61  94 122 156 206 249 295 363
#
# _framework density 21.177978
#
# number of rings (size 3 to 8) (size 9 to 14) (size 15 to 20)
#    0.000    1.750    5.000    0.375    0.000    7.000 
#    0.000    1.250    0.000    0.000    0.000    0.000 
#    0.000    0.000    0.000    0.000    0.000    0.000 
#
# Total GULP energy -89258.982194 kJ/mol
# GULP energy per Si atom -5578.686387 kJ/mol
# Density = 2.112978 g / cm^3
# Si number density = 21.177978 Si / 1000 Ang^3
#
#
#
# Elastic Constant Matrix: (Units=GPa)
#
#
# Indices 1 2 3 4 5 6 
#
# 1 102.8154 18.5631 9.7905 -1.9889 -7.6313 -20.0008
# 2 18.5631 115.8077 28.2037 9.2752 -7.9431 -16.4612
# 3 9.7905 28.2037 22.5631 10.9440 -1.7386 -4.8247
# 4 -1.9889 9.2752 10.9440 33.9402 -4.0722 -9.9806
# 5 -7.6313 -7.9431 -1.7386 -4.0722 16.6948 -4.3248
# 6 -20.0008 -16.4612 -4.8247 -9.9806 -4.3248 32.7518
#
#
#
# Elastic Compliance Matrix: (Units=1/GPa)
#
#
# Indices 1 2 3 4 5 6 
#
# 1 0.013449 0.001661 -0.008344 0.007762 0.010976 0.011633
# 2 0.001661 0.014362 -0.019015 0.005897 0.009239 0.008449
# 3 -0.008344 -0.019015 0.080896 -0.026861 -0.014307 -0.012810
# 4 0.007762 0.005897 -0.026861 0.045276 0.019823 0.020162
# 5 0.010976 0.009239 -0.014307 0.019823 0.079329 0.025755
# 6 0.011633 0.008449 -0.012810 0.020162 0.025755 0.049541
#
#
# Mechanical properties :
#
#
# Convention : Reuss Voigt Hill
#
# Bulk Modulus (GPa) = 17.44837 39.36676 28.40757
# Shear Modulus (GPa) = 14.15022 28.98595 21.56809
#
# Velocity S-wave (km/s) = 2.58768 3.70359 3.19473
# Velocity P-wave (km/s) = 4.14547 6.07599 5.20108
#
# Compressibility (1/GPa) = 0.05731193
#
# Stress axis : x y z
#
# Youngs Moduli (GPa) = 74.35674 69.62847 12.36155
#
# Poissons Ratio (x) = -0.11565 0.10314
# Poissons Ratio (y) = -0.12351 0.23505
# Poissons Ratio (z) = 0.62040 1.32397
#
# Static dielectric constant tensor:
#      x y z
#    x 1.798900 -0.001480 0.015900 
#    y -0.001480 1.789140 -0.020070 
#    z 0.015900 -0.020070 1.771920 
# 
# From -- ./inp_files/524071.got.cif
#   From: 2010.05.17/outbox.cif.g08.bks.cpg/sg2_263_cif.got.tgz:524071.got - 2010.06.03 11:33:40.
