data_PCOD9080321
_publ_section_title
;
Structure prediction by ZEFSAII (Michael W. Deem and Ramdas Pophale) SiO2 
 PCOD9080321
Probable space group: P -1
;
_chemical_formula_sum "Si O2"
_cell_formula_units_Z 15
_cell_length_a 11.940818
_cell_length_b 9.410016
_cell_length_c 7.814376
_cell_angle_alpha 98.700414
_cell_angle_beta 53.234980
_cell_angle_gamma 93.705334
_cell_volume 694.935752
_symmetry_space_group_name_H-M "P -1"
_symmetry_group_IT_number 2
_symmetry_cell_setting 'triclinic'
loop_
_space_group_symop_operation_xyz
x,y,z
-x,-y,-z
loop_
_atom_site_type_symbol
_atom_site_label
_atom_site_fract_x
_atom_site_fract_y
_atom_site_fract_z
Si Si1 0.232158 0.407579 0.942872
Si Si2 0.318683 0.429534 0.256715
Si Si3 0.613970 0.280157 0.898470
Si Si4 0.815919 0.754476 0.375958
Si Si5 0.639227 0.179072 0.318760
Si Si6 0.415023 0.001341 0.325410
Si Si7 0.500000 0.500000 0.500000
Si Si8 0.129265 0.713644 0.076483
O O1 0.198336 0.278985 0.820278
O O2 0.376366 0.464967 0.746775
O O3 0.252687 0.384731 0.124642
O O4 0.121676 0.540450 0.038476
O O5 0.341285 0.600301 0.261024
O O6 0.234332 0.382294 0.491841
O O7 0.471598 0.353043 0.116515
O O8 0.576466 0.123884 0.842415
O O9 0.750376 0.268275 0.889164
O O10 0.977562 0.777763 0.269350
O O11 0.711472 0.882142 0.555211
O O12 0.620085 0.088071 0.488964
O O13 0.557872 0.331795 0.428528
O O14 0.557874 0.084158 0.236565
O O15 0.799442 0.211818 0.136934
#
# Coordination Sequence:
#
# PCOD9080321 Si02
#       8
#     2   2   2   2   2   2   1   2
#     4  10  22  40  68 102 126 171 225 280 322 389
#     4  10  24  42  71  97 131 171 228 278 328 389
#     4  10  23  43  64 101 128 168 223 282 330 387
#     4  12  25  43  66  98 136 180 216 271 336 403
#     4  10  22  40  66  98 128 168 220 277 320 398
#     4  11  24  40  66 101 129 172 222 273 340 387
#     4  10  18  38  72  96 128 162 222 278 326 376
#     4  10  24  43  64  94 135 176 223 267 335 394
#
# _framework density 21.58473
#
# number of rings (size 3 to 8) (size 9 to 14) (size 15 to 20)
#    0.000    1.600    1.333    2.000   11.200    5.333 
#    2.400    0.000    0.000    0.000    0.000    0.000 
#    0.000    0.000    0.000    0.000    0.000    0.000 
#
# Total GULP energy -83551.615839 kJ/mol
# GULP energy per Si atom -5570.107723 kJ/mol
# Density = 2.153560 g / cm^3
# Si number density = 21.584730 Si / 1000 Ang^3
#
#
#
# Elastic Constant Matrix: (Units=GPa)
#
#
# Indices 1 2 3 4 5 6 
#
# 1 85.9899 10.6568 20.9923 -3.2490 2.0135 5.3751
# 2 10.6568 85.5431 15.6089 -10.5686 -10.8491 0.3989
# 3 20.9923 15.6089 53.8325 -11.9392 -5.0689 -5.5791
# 4 -3.2490 -10.5686 -11.9392 22.4931 -5.9633 8.5741
# 5 2.0135 -10.8491 -5.0689 -5.9633 32.4981 -3.4112
# 6 5.3751 0.3989 -5.5791 8.5741 -3.4112 14.3408
#
#
#
# Elastic Compliance Matrix: (Units=1/GPa)
#
#
# Indices 1 2 3 4 5 6 
#
# 1 0.013885 -0.000806 -0.006146 0.000980 -0.002835 -0.008833
# 2 -0.000806 0.013913 -0.001744 0.008745 0.005537 -0.004675
# 3 -0.006146 -0.001744 0.025191 0.010563 0.006440 0.007369
# 4 0.000980 0.008745 0.010563 0.071758 0.013884 -0.036102
# 5 -0.002835 0.005537 0.006440 0.013884 0.036752 0.003855
# 6 -0.008833 -0.004675 0.007369 -0.036102 0.003855 0.098540
#
#
# Mechanical properties :
#
#
# Convention : Reuss Voigt Hill
#
# Bulk Modulus (GPa) = 28.09084 35.54238 31.81661
# Shear Modulus (GPa) = 17.28334 25.74022 21.51178
#
# Velocity S-wave (km/s) = 2.83277 3.45703 3.16035
# Velocity P-wave (km/s) = 4.87257 5.69535 5.29995
#
# Compressibility (1/GPa) = 0.03559879
#
# Stress axis : x y z
#
# Youngs Moduli (GPa) = 72.01962 71.87536 39.69661
#
# Poissons Ratio (x) = 0.05790 0.24398
# Poissons Ratio (y) = 0.05802 0.06921
# Poissons Ratio (z) = 0.44263 0.12532
#
# Static dielectric constant tensor:
#      x y z
#    x 1.866110 0.029460 0.098480 
#    y 0.029460 1.805560 0.027380 
#    z 0.098480 0.027380 1.828250 
# 
# From -- ./inp_files/154942.got.cif
#   From: 2010.05.17/outbox.cif.g08.bks.cpg/sg2_78_cif.got.tgz:154942.got - 2010.06.03 11:33:40.
