data_PCOD9080816
_publ_section_title
;
Structure prediction by ZEFSAII (Michael W. Deem and Ramdas Pophale) SiO2 
 PCOD9080816
Probable space group: P -1
;
_chemical_formula_sum "Si O2"
_cell_formula_units_Z 16
_cell_length_a 19.611103
_cell_length_b 8.051433
_cell_length_c 13.584847
_cell_angle_alpha 122.967869
_cell_angle_beta 150.054163
_cell_angle_gamma 79.590213
_cell_volume 646.393042
_symmetry_space_group_name_H-M "P -1"
_symmetry_group_IT_number 2
_symmetry_cell_setting 'triclinic'
loop_
_space_group_symop_operation_xyz
x,y,z
-x,-y,-z
loop_
_atom_site_type_symbol
_atom_site_label
_atom_site_fract_x
_atom_site_fract_y
_atom_site_fract_z
Si Si1 0.635541 0.164044 0.315394
Si Si2 0.610403 0.785309 0.890250
Si Si3 0.056244 0.573030 0.978670
Si Si4 0.811059 0.731974 0.278223
Si Si5 0.978574 0.172312 0.140754
Si Si6 0.971316 0.398682 0.541487
Si Si7 0.170356 0.251424 0.009099
Si Si8 0.385606 0.584563 0.884053
O O1 0.593013 0.322969 0.373581
O O2 0.844595 0.330169 0.592767
O O3 0.500000 0.000000 0.000000
O O4 0.556413 0.911378 0.201703
O O5 0.662443 0.706133 0.023596
O O6 0.674807 0.721918 0.853689
O O7 0.752002 0.116347 0.181451
O O8 0.090994 0.831281 0.058416
O O9 0.188837 0.511130 0.109854
O O10 0.000000 0.500000 0.000000
O O11 0.713740 0.499309 0.162593
O O12 0.923038 0.699121 0.336047
O O13 0.969331 0.009401 0.625636
O O14 0.937610 0.339268 0.196484
O O15 0.209505 0.391662 0.522113
O O16 0.870889 0.896000 0.982559
O O17 0.000000 0.500000 0.500000
O O18 0.500000 0.500000 0.000000
#
# Coordination Sequence:
#
# PCOD9080816 Si02
#       8
#     2   2   2   2   2   2   2   2
#     4  12  21  38  63  91 125 156 202 257 317 362
#     4  11  19  32  57  91 123 159 201 255 313 364
#     4  12  27  45  62  87 125 173 214 254 310 379
#     4  10  19  28  53  89 130 149 188 249 313 373
#     4  11  20  37  64  86 127 162 203 252 309 369
#     4  11  15  30  51  91 123 153 185 243 312 369
#     4  10  21  38  60  89 120 164 215 254 301 376
#     4  11  20  31  52  90 126 152 192 246 310 363
#
# _framework density 24.752739999999999
#
# number of rings (size 3 to 8) (size 9 to 14) (size 15 to 20)
#    0.000    1.000    6.250    6.000    0.000    0.500 
#    0.000    0.625    0.000    0.750    0.000    0.000 
#    0.000    0.000    0.000    0.000    0.000    0.000 
#
# Total GULP energy -89129.457840 kJ/mol
# GULP energy per Si atom -5570.591115 kJ/mol
# Density = 2.469640 g / cm^3
# Si number density = 24.752740 Si / 1000 Ang^3
#
#
#
# Elastic Constant Matrix: (Units=GPa)
#
#
# Indices 1 2 3 4 5 6 
#
# 1 85.6215 35.3427 5.5539 -10.4137 11.2504 12.9941
# 2 35.3427 149.1788 25.0082 -25.6469 5.1336 9.2807
# 3 5.5539 25.0082 33.4682 -1.8250 -13.8165 -3.5399
# 4 -10.4137 -25.6469 -1.8250 29.9733 5.4888 7.0793
# 5 11.2504 5.1336 -13.8165 5.4888 25.5403 -14.5010
# 6 12.9941 9.2807 -3.5399 7.0793 -14.5010 54.6821
#
#
#
# Elastic Compliance Matrix: (Units=1/GPa)
#
#
# Indices 1 2 3 4 5 6 
#
# 1 0.025273 0.008430 -0.033780 0.030236 -0.053312 -0.027675
# 2 0.008430 0.019772 -0.037272 0.032447 -0.048998 -0.024966
# 3 -0.033780 -0.037272 0.129067 -0.080742 0.151127 0.073238
# 4 0.030236 0.032447 -0.080742 0.104142 -0.122115 -0.063784
# 5 -0.053312 -0.048998 0.151127 -0.122115 0.243607 0.111178
# 6 -0.027675 -0.024966 0.073238 -0.063784 0.111178 0.071583
#
#
# Mechanical properties :
#
#
# Convention : Reuss Voigt Hill
#
# Bulk Modulus (GPa) = 20.46290 44.45314 32.45802
# Shear Modulus (GPa) = 6.80292 35.53007 21.16650
#
# Velocity S-wave (km/s) = 1.65961 3.79278 2.92741
# Velocity P-wave (km/s) = 3.45793 6.09738 4.95658
#
# Compressibility (1/GPa) = 0.04886892
#
# Stress axis : x y z
#
# Youngs Moduli (GPa) = 39.56732 50.57648 7.74790
#
# Poissons Ratio (x) = -0.42634 0.26172
# Poissons Ratio (y) = -0.33354 0.28878
# Poissons Ratio (z) = 1.33657 1.88508
#
# Static dielectric constant tensor:
#      x y z
#    x 2.748550 0.412480 0.272480 
#    y 0.412480 2.164090 0.161910 
#    z 0.272480 0.161910 2.147820 
# 
# From -- ./inp_files/508711.got.cif
#   From: 2010.05.17/outbox.cif.g08.bks.cpg/sg2_255_cif.got.tgz:508711.got - 2010.06.03 11:33:40.
