data_PCOD9080560
_publ_section_title
;
Structure prediction by ZEFSAII (Michael W. Deem and Ramdas Pophale) SiO2 
 PCOD9080560
Probable space group: P -1
;
_chemical_formula_sum "Si O2"
_cell_formula_units_Z 15
_cell_length_a 11.114053
_cell_length_b 8.472596
_cell_length_c 17.207161
_cell_angle_alpha 129.484875
_cell_angle_beta 32.312295
_cell_angle_gamma 137.369935
_cell_volume 586.140990
_symmetry_space_group_name_H-M "P -1"
_symmetry_group_IT_number 2
_symmetry_cell_setting 'triclinic'
loop_
_space_group_symop_operation_xyz
x,y,z
-x,-y,-z
loop_
_atom_site_type_symbol
_atom_site_label
_atom_site_fract_x
_atom_site_fract_y
_atom_site_fract_z
Si Si1 0.249194 0.952933 0.429627
Si Si2 0.297700 0.239616 0.043851
Si Si3 0.398043 0.317285 0.714236
Si Si4 0.523701 0.944820 0.880920
Si Si5 0.801602 0.604673 0.451694
Si Si6 0.831876 0.731982 0.698617
Si Si7 0.216437 0.854531 0.746897
Si Si8 0.000000 0.500000 0.000000
O O1 0.255381 0.204821 0.499798
O O2 0.550049 0.032242 0.284637
O O3 0.057336 0.768174 0.413512
O O4 0.115810 0.811298 0.537706
O O5 0.188369 0.230376 0.188056
O O6 0.059633 0.164939 0.092222
O O7 0.500000 0.500000 0.000000
O O8 0.475532 0.119132 0.911154
O O9 0.559535 0.446221 0.589867
O O10 0.599548 0.478330 0.722489
O O11 0.123466 0.314675 0.865842
O O12 0.331008 0.049806 0.677609
O O13 0.768369 0.907170 0.735940
O O14 0.286746 0.701169 0.914245
O O15 0.500000 0.000000 0.000000
O O16 0.837008 0.409024 0.323653
#
# Coordination Sequence:
#
# PCOD9080560 Si02
#       8
#     2   2   2   2   2   2   2   1
#     4  10  24  45  67 102 129 178 224 270 347 391
#     4  11  25  43  63  99 136 177 221 281 338 385
#     4  10  22  41  68 101 131 180 221 271 337 393
#     4   9  19  39  63  87 120 175 214 260 319 391
#     4  10  24  44  67 100 140 173 219 285 328 405
#     4   9  22  42  70  90 132 180 220 273 329 404
#     4  12  25  41  68 103 137 174 225 281 332 402
#     4  10  18  40  62  92 128 168 226 252 320 402
#
# _framework density 25.591111999999999
#
# number of rings (size 3 to 8) (size 9 to 14) (size 15 to 20)
#    0.000    1.867    1.333    0.800    7.467    1.067 
#    7.200    0.667    0.000    0.000    0.000    0.000 
#    0.000    0.000    0.000    0.000    0.000    0.000 
#
# Total GULP energy -83558.998566 kJ/mol
# GULP energy per Si atom -5570.599904 kJ/mol
# Density = 2.553287 g / cm^3
# Si number density = 25.591112 Si / 1000 Ang^3
#
#
#
# Elastic Constant Matrix: (Units=GPa)
#
#
# Indices 1 2 3 4 5 6 
#
# 1 78.8320 42.3996 53.6903 -2.5911 -20.4733 3.6384
# 2 42.3996 135.7330 19.5103 -3.4005 -11.3770 -12.1428
# 3 53.6903 19.5103 100.1732 -9.9479 -40.4402 -2.6186
# 4 -2.5911 -3.4005 -9.9479 38.9833 3.6108 -5.6402
# 5 -20.4733 -11.3770 -40.4402 3.6108 51.8296 1.2122
# 6 3.6384 -12.1428 -2.6186 -5.6402 1.2122 19.1908
#
#
#
# Elastic Compliance Matrix: (Units=1/GPa)
#
#
# Indices 1 2 3 4 5 6 
#
# 1 0.026409 -0.007620 -0.014087 -0.004217 -0.001637 -0.012887
# 2 -0.007620 0.010275 0.003059 0.002353 0.001259 0.008976
# 3 -0.014087 0.003059 0.022587 0.005189 0.012171 0.008445
# 4 -0.004217 0.002353 0.005189 0.028479 0.000650 0.011325
# 5 -0.001637 0.001259 0.012171 0.000650 0.028348 0.001168
# 6 -0.012887 0.008976 0.008445 0.011325 0.001168 0.064638
#
#
# Mechanical properties :
#
#
# Convention : Reuss Voigt Hill
#
# Bulk Modulus (GPa) = 45.50519 60.65986 53.08252
# Shear Modulus (GPa) = 22.18703 35.27661 28.73182
#
# Velocity S-wave (km/s) = 2.94765 3.71680 3.35435
# Velocity P-wave (km/s) = 5.42265 6.49419 5.98246
#
# Compressibility (1/GPa) = 0.02197552
#
# Stress axis : x y z
#
# Youngs Moduli (GPa) = 37.86590 97.31899 44.27386
#
# Poissons Ratio (x) = 0.74161 0.62368
# Poissons Ratio (y) = 0.28855 -0.13545
# Poissons Ratio (z) = 0.53341 -0.29774
#
# Static dielectric constant tensor:
#      x y z
#    x 2.550110 0.181630 -0.158300 
#    y 0.181630 2.128500 0.059950 
#    z -0.158300 0.059950 2.091690 
# 
# From -- ./inp_files/593726.got.cif
#   From: 2010.05.17/outbox.cif.g08.bks.cpg/sg2_297_cif.got.tgz:593726.got - 2010.06.03 11:33:40.
