data_PCOD9080412
_publ_section_title
;
Structure prediction by ZEFSAII (Michael W. Deem and Ramdas Pophale) SiO2 
 PCOD9080412
Probable space group: P -1
;
_chemical_formula_sum "Si O2"
_cell_formula_units_Z 16
_cell_length_a 11.407686
_cell_length_b 12.733842
_cell_length_c 14.298161
_cell_angle_alpha 30.049496
_cell_angle_beta 35.734222
_cell_angle_gamma 47.453903
_cell_volume 604.930195
_symmetry_space_group_name_H-M "P -1"
_symmetry_group_IT_number 2
_symmetry_cell_setting 'triclinic'
loop_
_space_group_symop_operation_xyz
x,y,z
-x,-y,-z
loop_
_atom_site_type_symbol
_atom_site_label
_atom_site_fract_x
_atom_site_fract_y
_atom_site_fract_z
Si Si1 0.955590 0.309680 0.800665
Si Si2 0.567874 0.043932 0.198847
Si Si3 0.720094 0.100409 0.850792
Si Si4 0.707177 0.600405 0.936992
Si Si5 0.306273 0.835581 0.678746
Si Si6 0.920289 0.572599 0.171117
Si Si7 0.841559 0.744236 0.480037
Si Si8 0.386646 0.329917 0.841840
O O1 0.825372 0.513226 0.715943
O O2 0.118767 0.308393 0.613421
O O3 0.786363 0.116865 0.043921
O O4 0.067650 0.314402 0.823363
O O5 0.418726 0.230507 0.158375
O O6 0.448696 0.862264 0.476014
O O7 0.600891 0.020263 0.084636
O O8 0.624123 0.303480 0.713863
O O9 0.941535 0.164725 0.691722
O O10 0.698209 0.910858 0.939137
O O11 0.631763 0.358091 0.147868
O O12 0.948486 0.625862 0.747171
O O13 0.674560 0.610487 0.061453
O O14 0.078350 0.731292 0.885166
O O15 0.285612 0.458695 0.727338
O O16 0.291349 0.061470 0.563205
#
# Coordination Sequence:
#
# PCOD9080412 Si02
#       8
#     2   2   2   2   2   2   2   2
#     4  10  23  40  66  87 125 163 201 254 309 358
#     4  10  21  43  62  91 126 161 203 251 305 361
#     4   9  19  38  66  89 118 165 203 249 307 358
#     4   9  21  38  61  90 125 162 199 252 302 357
#     4  10  22  38  63  94 125 157 206 249 304 367
#     4  10  21  37  59  95 120 160 201 248 305 357
#     4  10  20  42  63  92 120 161 206 250 303 371
#     4  10  18  39  64  84 124 163 201 252 305 357
#
# _framework density 26.449331000000001
#
# number of rings (size 3 to 8) (size 9 to 14) (size 15 to 20)
#    0.750    1.500    1.250    1.125    0.000    3.000 
#    2.250   11.250    0.000    0.000    0.000    0.000 
#    0.000    0.000    0.000    0.000    0.000    0.000 
#
# Total GULP energy -89475.095798 kJ/mol
# GULP energy per Si atom -5592.193487 kJ/mol
# Density = 2.638913 g / cm^3
# Si number density = 26.449331 Si / 1000 Ang^3
#
#
#
# Elastic Constant Matrix: (Units=GPa)
#
#
# Indices 1 2 3 4 5 6 
#
# 1 125.3702 36.8793 12.0408 13.5549 15.2565 -5.3098
# 2 36.8793 99.6424 17.8547 -11.8811 8.3704 0.8289
# 3 12.0408 17.8547 105.4153 13.4374 17.4332 7.2093
# 4 13.5549 -11.8811 13.4374 31.7625 2.0828 11.9215
# 5 15.2565 8.3704 17.4332 2.0828 36.4131 -6.0869
# 6 -5.3098 0.8289 7.2093 11.9215 -6.0869 38.0865
#
#
#
# Elastic Compliance Matrix: (Units=1/GPa)
#
#
# Indices 1 2 3 4 5 6 
#
# 1 0.010632 -0.004809 0.000807 -0.007790 -0.002715 0.003439
# 2 -0.004809 0.013540 -0.002550 0.009640 -0.001041 -0.003666
# 3 0.000807 -0.002550 0.011433 -0.005376 -0.005107 -0.001129
# 4 -0.007790 0.009640 -0.005376 0.046444 -0.001553 -0.015064
# 5 -0.002715 -0.001041 -0.005107 -0.001553 0.032423 0.006279
# 6 0.003439 -0.003666 -0.001129 -0.015064 0.006279 0.032748
#
#
# Mechanical properties :
#
#
# Convention : Reuss Voigt Hill
#
# Bulk Modulus (GPa) = 44.44238 51.55304 47.99771
# Shear Modulus (GPa) = 29.79304 38.82930 34.31117
#
# Velocity S-wave (km/s) = 3.35986 3.83569 3.60563
# Velocity P-wave (km/s) = 5.64720 6.25701 5.95991
#
# Compressibility (1/GPa) = 0.02250104
#
# Stress axis : x y z
#
# Youngs Moduli (GPa) = 94.05767 73.85447 87.46477
#
# Poissons Ratio (x) = 0.35517 -0.07058
# Poissons Ratio (y) = 0.45232 0.22304
# Poissons Ratio (z) = -0.07590 0.18833
#
# Static dielectric constant tensor:
#      x y z
#    x 2.080500 -0.112630 0.017330 
#    y -0.112630 2.163240 0.018460 
#    z 0.017330 0.018460 2.092290 
# 
# From -- ./inp_files/435958.got.cif
#   From: 2010.05.17/outbox.cif.g08.bks.cpg/sg2_218_cif.got.tgz:435958.got - 2010.06.03 11:33:40.
