data_PCOD9080959
_publ_section_title
;
Structure prediction by ZEFSAII (Michael W. Deem and Ramdas Pophale) SiO2 
 PCOD9080959
Probable space group: P -1
;
_chemical_formula_sum "Si O2"
_cell_formula_units_Z 14
_cell_length_a 5.316059
_cell_length_b 13.981693
_cell_length_c 11.745117
_cell_angle_alpha 81.402644
_cell_angle_beta 118.049838
_cell_angle_gamma 74.312800
_cell_volume 701.331308
_symmetry_space_group_name_H-M "P -1"
_symmetry_group_IT_number 2
_symmetry_cell_setting 'triclinic'
loop_
_space_group_symop_operation_xyz
x,y,z
-x,-y,-z
loop_
_atom_site_type_symbol
_atom_site_label
_atom_site_fract_x
_atom_site_fract_y
_atom_site_fract_z
Si Si1 0.662717 0.518336 0.148107
Si Si2 0.089502 0.115263 0.912380
Si Si3 0.237697 0.432290 0.161669
Si Si4 0.693770 0.204694 0.225452
Si Si5 0.598880 0.996115 0.208273
Si Si6 0.785174 0.934238 0.492155
Si Si7 0.546147 0.235763 0.939365
O O1 0.489021 0.483617 0.215836
O O2 0.610394 0.638950 0.125948
O O3 0.021199 0.446145 0.221358
O O4 0.500000 0.500000 0.000000
O O5 0.115035 0.055294 0.809189
O O6 0.290274 0.186673 0.916955
O O7 0.766685 0.184486 0.888851
O O8 0.291861 0.026038 0.061769
O O9 0.423479 0.313218 0.184659
O O10 0.000000 0.500000 0.000000
O O11 0.994078 0.169613 0.375698
O O12 0.580664 0.109159 0.225001
O O13 0.754466 0.213606 0.102765
O O14 0.651833 0.923499 0.342266
O O15 0.500000 0.000000 0.500000
O O16 0.000000 0.000000 0.500000
#
# Coordination Sequence:
#
# PCOD9080959 Si02
#       7
#     2   2   2   2   2   2   2
#     4  10  19  30  49  75 110 129 167 219 270 313
#     4  10  22  34  53  76 105 148 171 218 251 313
#     4  10  19  31  48  79 107 133 165 214 274 316
#     4  10  20  33  57  79 112 140 171 219 272 313
#     4   9  21  37  52  77 112 137 185 206 259 316
#     4  10  21  36  53  78 106 145 174 218 260 313
#     4  11  20  33  53  79 108 136 175 212 271 312
#
# _framework density 19.962033999999999
#
# number of rings (size 3 to 8) (size 9 to 14) (size 15 to 20)
#    0.000    2.000    2.857    1.714    6.000    9.714 
#    0.000    0.000    0.000    0.000    0.000    6.000 
#    0.000    0.000    0.000    0.000    0.000    0.000 
#
# Total GULP energy -78078.964984 kJ/mol
# GULP energy per Si atom -5577.068927 kJ/mol
# Density = 1.991660 g / cm^3
# Si number density = 19.962034 Si / 1000 Ang^3
#
#
#
# Elastic Constant Matrix: (Units=GPa)
#
#
# Indices 1 2 3 4 5 6 
#
# 1 137.5960 45.1996 17.0468 -4.3190 -0.8149 -21.3195
# 2 45.1996 128.5922 33.9489 -26.9308 4.2746 -12.0267
# 3 17.0468 33.9489 78.4568 -5.2889 -4.1451 -16.7523
# 4 -4.3190 -26.9308 -5.2889 18.5173 -5.3308 2.0865
# 5 -0.8149 4.2746 -4.1451 -5.3308 11.9636 -0.1019
# 6 -21.3195 -12.0267 -16.7523 2.0865 -0.1019 39.0690
#
#
#
# Elastic Compliance Matrix: (Units=1/GPa)
#
#
# Indices 1 2 3 4 5 6 
#
# 1 0.008926 -0.003532 0.000266 -0.003285 0.000533 0.004074
# 2 -0.003532 0.013919 -0.003963 0.018847 0.001808 -0.000344
# 3 0.000266 -0.003963 0.016041 0.000290 0.007171 0.005807
# 4 -0.003285 0.018847 0.000290 0.090423 0.033429 -0.000608
# 5 0.000533 0.001808 0.007171 0.033429 0.100377 0.002399
# 6 0.004074 -0.000344 0.005807 -0.000608 0.002399 0.030242
#
#
# Mechanical properties :
#
#
# Convention : Reuss Voigt Hill
#
# Bulk Modulus (GPa) = 40.93713 59.67063 50.30388
# Shear Modulus (GPa) = 17.69724 30.47330 24.08527
#
# Velocity S-wave (km/s) = 2.98072 3.91136 3.47732
# Velocity P-wave (km/s) = 5.69195 7.09615 6.43248
#
# Compressibility (1/GPa) = 0.02442770
#
# Stress axis : x y z
#
# Youngs Moduli (GPa) = 112.02656 71.84335 62.33972
#
# Poissons Ratio (x) = 0.25378 -0.01656
# Poissons Ratio (y) = 0.39572 0.24704
# Poissons Ratio (z) = -0.02976 0.28470
#
# Static dielectric constant tensor:
#      x y z
#    x 1.789480 0.033290 0.020710 
#    y 0.033290 1.715120 0.040450 
#    z 0.020710 0.040450 1.699120 
# 
# From -- ./inp_files/81745.got.cif
#   From: 2010.05.17/outbox.cif.g08.bks.cpg/sg2_41_cif.got.tgz:81745.got - 2010.06.03 11:33:40.
