data_PCOD9080211
_publ_section_title
;
Structure prediction by ZEFSAII (Michael W. Deem and Ramdas Pophale) SiO2 
 PCOD9080211
Probable space group: P -1
;
_chemical_formula_sum "Si O2"
_cell_formula_units_Z 14
_cell_length_a 11.861583
_cell_length_b 11.683420
_cell_length_c 18.213637
_cell_angle_alpha 25.927004
_cell_angle_beta 30.089892
_cell_angle_gamma 35.431610
_cell_volume 545.513462
_symmetry_space_group_name_H-M "P -1"
_symmetry_group_IT_number 2
_symmetry_cell_setting 'triclinic'
loop_
_space_group_symop_operation_xyz
x,y,z
-x,-y,-z
loop_
_atom_site_type_symbol
_atom_site_label
_atom_site_fract_x
_atom_site_fract_y
_atom_site_fract_z
Si Si1 0.500000 0.500000 0.500000
Si Si2 0.850491 0.079822 0.809851
Si Si3 0.898091 0.217519 0.871801
Si Si4 0.584179 0.610245 0.210278
Si Si5 0.832019 0.336451 0.493873
Si Si6 0.336244 0.985088 0.532070
Si Si7 0.534306 0.902707 0.766820
Si Si8 0.000000 0.000000 0.500000
O O1 0.790916 0.350702 0.419488
O O2 0.435381 0.197030 0.686175
O O3 0.083309 0.125469 0.614194
O O4 0.895514 0.120316 0.846333
O O5 0.633694 0.274539 0.784383
O O6 0.768127 0.798695 0.005937
O O7 0.043550 0.452909 0.661330
O O8 0.634470 0.288565 0.001005
O O9 0.000000 0.000000 0.000000
O O10 0.448280 0.601044 0.371333
O O11 0.678601 0.320781 0.298051
O O12 0.919904 0.027910 0.620621
O O13 0.448127 0.079065 0.341405
O O14 0.500000 0.000000 0.500000
O O15 0.788909 0.835187 0.691830
#
# Coordination Sequence:
#
# PCOD9080211 Si02
#       8
#     1   2   2   2   2   2   2   1
#     4  10  18  38  66  90 126 176 212 268 322 410
#     4  11  26  44  72 101 136 183 237 284 346 418
#     4  12  24  42  70 103 134 180 226 287 347 410
#     4  11  24  47  69  97 139 185 231 286 347 416
#     4  11  22  41  66  98 134 179 222 281 349 401
#     4  12  25  44  70 104 139 184 228 286 349 419
#     4  11  23  43  67 101 136 176 229 276 350 405
#     4  10  24  38  64  98 130 180 222 282 332 410
#
# _framework density 25.663895
#
# number of rings (size 3 to 8) (size 9 to 14) (size 15 to 20)
#    0.000    0.857    2.857    4.714    0.000    5.143 
#    0.000    8.571    0.000    0.000    0.000    0.000 
#    0.000    0.000    0.000    0.000    0.000    0.000 
#
# Total GULP energy -78029.528327 kJ/mol
# GULP energy per Si atom -5573.537738 kJ/mol
# Density = 2.560548 g / cm^3
# Si number density = 25.663895 Si / 1000 Ang^3
#
#
#
# Elastic Constant Matrix: (Units=GPa)
#
#
# Indices 1 2 3 4 5 6 
#
# 1 227.4158 49.3860 67.3998 0.9833 -11.0443 18.2847
# 2 49.3860 88.0286 23.8624 -3.5908 3.9292 6.2491
# 3 67.3998 23.8624 111.0779 1.4218 -17.1828 7.4800
# 4 0.9833 -3.5908 1.4218 37.6159 -8.2691 0.6819
# 5 -11.0443 3.9292 -17.1828 -8.2691 47.7836 9.7287
# 6 18.2847 6.2491 7.4800 0.6819 9.7287 35.7529
#
#
#
# Elastic Compliance Matrix: (Units=1/GPa)
#
#
# Indices 1 2 3 4 5 6 
#
# 1 0.006005 -0.002496 -0.002784 -0.000013 0.001066 -0.002342
# 2 -0.002496 0.013358 -0.001679 0.000949 -0.002083 -0.000159
# 3 -0.002784 -0.001679 0.011827 0.000426 0.004210 -0.001911
# 4 -0.000013 0.000949 0.000426 0.027876 0.005351 -0.002236
# 5 0.001066 -0.002083 0.004210 0.005351 0.025431 -0.008084
# 6 -0.002342 -0.000159 -0.001911 -0.002236 -0.008084 0.031838
#
#
# Mechanical properties :
#
#
# Convention : Reuss Voigt Hill
#
# Bulk Modulus (GPa) = 57.89756 78.64653 68.27204
# Shear Modulus (GPa) = 36.76170 43.28873 40.02521
#
# Velocity S-wave (km/s) = 3.78885 4.11147 3.95345
# Velocity P-wave (km/s) = 6.46138 7.29728 6.89201
#
# Compressibility (1/GPa) = 0.01727189
#
# Stress axis : x y z
#
# Youngs Moduli (GPa) = 166.53853 74.86058 84.54907
#
# Poissons Ratio (x) = 0.18684 0.23543
# Poissons Ratio (y) = 0.41565 0.14195
# Poissons Ratio (z) = 0.46372 0.12568
#
# Static dielectric constant tensor:
#      x y z
#    x 2.070780 0.617960 0.234150 
#    y 0.617960 -0.460720 -0.295230 
#    z 0.234150 -0.295230 2.059560 
# 
# From -- ./inp_files/157432.got.cif
#   From: 2010.05.17/outbox.cif.g08.bks.cpg/sg2_79_cif.got.tgz:157432.got - 2010.06.03 11:33:40.
