data_PCOD9080079
_publ_section_title
;
Structure prediction by ZEFSAII (Michael W. Deem and Ramdas Pophale) SiO2 
 PCOD9080079
Probable space group: P -1
;
_chemical_formula_sum "Si O2"
_cell_formula_units_Z 15
_cell_length_a 7.841325
_cell_length_b 9.741148
_cell_length_c 11.373736
_cell_angle_alpha 49.168251
_cell_angle_beta 71.105847
_cell_angle_gamma 76.399780
_cell_volume 621.585558
_symmetry_space_group_name_H-M "P -1"
_symmetry_group_IT_number 2
_symmetry_cell_setting 'triclinic'
loop_
_space_group_symop_operation_xyz
x,y,z
-x,-y,-z
loop_
_atom_site_type_symbol
_atom_site_label
_atom_site_fract_x
_atom_site_fract_y
_atom_site_fract_z
Si Si1 0.142717 0.651035 0.856720
Si Si2 0.598899 0.875012 0.696556
Si Si3 0.490547 0.613785 0.677116
Si Si4 0.993715 0.043087 0.699942
Si Si5 0.000000 0.000000 0.500000
Si Si6 0.341848 0.203100 0.658580
Si Si7 0.379300 0.693574 0.015280
Si Si8 0.800173 0.968243 0.009707
O O1 0.282180 0.578621 0.767884
O O2 0.067360 0.855199 0.721068
O O3 0.239753 0.686804 0.941036
O O4 0.000000 0.500000 0.000000
O O5 0.507618 0.803728 0.637806
O O6 0.487426 0.043110 0.684315
O O7 0.568034 0.722294 0.889765
O O8 0.800000 0.909159 0.600180
O O9 0.576401 0.628847 0.521574
O O10 0.607465 0.475847 0.808038
O O11 0.930484 0.147304 0.541388
O O12 0.155212 0.140194 0.674201
O O13 0.840908 0.976235 0.858692
O O14 0.291512 0.198939 0.810224
O O15 0.321003 0.860832 0.017169
O O16 0.000000 0.000000 0.000000
#
# Coordination Sequence:
#
# PCOD9080079 Si02
#       8
#     2   2   2   2   1   2   2   2
#     4  11  22  34  59  88 122 155 192 243 306 353
#     4  10  19  36  55  87 121 154 195 240 301 354
#     4  11  20  35  57  89 121 150 201 244 297 347
#     4  11  21  38  62  89 114 152 203 245 291 355
#     4  12  24  30  60  96 116 136 198 264 294 322
#     4  10  18  38  63  83 110 163 201 237 286 357
#     4  10  21  38  60  85 119 162 194 240 299 351
#     4   9  18  40  65  82 108 163 213 227 285 367
#
# _framework density 24.131834999999999
#
# number of rings (size 3 to 8) (size 9 to 14) (size 15 to 20)
#    0.000    1.600    6.667    2.800    3.733    0.000 
#    0.000    5.333    2.933    0.800    0.000    0.000 
#    0.000    0.000    0.000    0.000    0.000    0.000 
#
# Total GULP energy -83562.203009 kJ/mol
# GULP energy per Si atom -5570.813534 kJ/mol
# Density = 2.407691 g / cm^3
# Si number density = 24.131835 Si / 1000 Ang^3
#
#
#
# Elastic Constant Matrix: (Units=GPa)
#
#
# Indices 1 2 3 4 5 6 
#
# 1 45.6976 5.9055 38.0931 5.7871 -19.9726 9.4204
# 2 5.9055 43.5146 30.9809 19.3893 0.3939 -0.8212
# 3 38.0931 30.9809 222.6009 43.8645 -32.4064 -1.7684
# 4 5.7871 19.3893 43.8645 51.8882 -5.4748 1.2598
# 5 -19.9726 0.3939 -32.4064 -5.4748 46.1837 -5.5002
# 6 9.4204 -0.8212 -1.7684 1.2598 -5.5002 19.1223
#
#
#
# Elastic Compliance Matrix: (Units=1/GPa)
#
#
# Indices 1 2 3 4 5 6 
#
# 1 0.032731 -0.002761 -0.004400 0.002466 0.009714 -0.014018
# 2 -0.002761 0.029138 -0.002361 -0.009046 -0.003951 0.001853
# 3 -0.004400 -0.002361 0.006853 -0.004209 0.002880 0.003806
# 4 0.002466 -0.009046 -0.004209 0.026112 0.000874 -0.003462
# 5 0.009714 -0.003951 0.002880 0.000874 0.028420 0.003428
# 6 -0.014018 0.001853 0.003806 -0.003462 0.003428 0.060847
#
#
# Mechanical properties :
#
#
# Convention : Reuss Voigt Hill
#
# Bulk Modulus (GPa) = 20.12947 51.30802 35.71875
# Shear Modulus (GPa) = 22.75818 39.22775 30.99296
#
# Velocity S-wave (km/s) = 3.07429 4.03620 3.58763
# Velocity P-wave (km/s) = 4.57834 6.55964 5.65642
#
# Compressibility (1/GPa) = 0.04967840
#
# Stress axis : x y z
#
# Youngs Moduli (GPa) = 30.55251 34.31970 145.92729
#
# Poissons Ratio (x) = 0.09474 0.64209
# Poissons Ratio (y) = 0.08434 0.34449
# Poissons Ratio (z) = 0.13443 0.08102
#
# Static dielectric constant tensor:
#      x y z
#    x 1.695260 -0.021680 -0.257130 
#    y -0.021680 1.958880 -0.040910 
#    z -0.257130 -0.040910 1.717870 
# 
# From -- ./inp_files/389005.got.cif
#   From: 2010.05.17/outbox.cif.g08.bks.cpg/sg2_195_cif.got.tgz:389005.got - 2010.06.03 11:33:40.
