data_PCOD9080781
_publ_section_title
;
Structure prediction by ZEFSAII (Michael W. Deem and Ramdas Pophale) SiO2 
 PCOD9080781
Probable space group: P -1
;
_chemical_formula_sum "Si O2"
_cell_formula_units_Z 10
_cell_length_a 12.339140
_cell_length_b 9.724444
_cell_length_c 5.117581
_cell_angle_alpha 105.255791
_cell_angle_beta 128.471132
_cell_angle_gamma 54.740122
_cell_volume 388.112133
_symmetry_space_group_name_H-M "P -1"
_symmetry_group_IT_number 2
_symmetry_cell_setting 'triclinic'
loop_
_space_group_symop_operation_xyz
x,y,z
-x,-y,-z
loop_
_atom_site_type_symbol
_atom_site_label
_atom_site_fract_x
_atom_site_fract_y
_atom_site_fract_z
Si Si1 0.693755 0.000448 0.889007
Si Si2 0.992486 0.328677 0.990436
Si Si3 0.806248 0.499550 0.307294
Si Si4 0.492482 0.828674 0.815694
Si Si5 0.249997 0.750001 0.648636
O O1 0.554000 0.112059 0.521292
O O2 0.603895 0.018702 0.038152
O O3 0.789907 0.092560 0.149192
O O4 0.820861 0.814240 0.877743
O O5 0.896106 0.481301 0.707769
O O6 0.894772 0.233202 0.736849
O O7 0.946006 0.387941 0.247243
O O8 0.710101 0.407434 0.186910
O O9 0.679138 0.685758 0.100912
O O10 0.394769 0.733199 0.680669
#
# Coordination Sequence:
#
# PCOD9080781 Si02
#       5
#     2   2   2   2   2
#     4  10  19  27  34  41  49  56  64  71  79  86
#     4  10  19  27  34  41  49  56  64  71  79  86
#     4  10  19  27  34  41  49  56  64  71  79  86
#     4  10  19  27  34  41  49  56  64  71  79  86
#     4   8  20  24  36  36  52  52  68  64  84  80
#
# _framework density 25.765753
#
# number of rings (size 3 to 8) (size 9 to 14) (size 15 to 20)
#    2.400    0.000    0.000    4.800    0.000    3.200 
#    0.000    0.000    0.000    0.000    0.000    0.000 
#    0.000    0.000    0.000    0.000    0.000    0.000 
#
# Total GULP energy -55870.131757 kJ/mol
# GULP energy per Si atom -5587.013176 kJ/mol
# Density = 2.570711 g / cm^3
# Si number density = 25.765753 Si / 1000 Ang^3
#
#
#
# Elastic Constant Matrix: (Units=GPa)
#
#
# Indices 1 2 3 4 5 6 
#
# 1 82.1236 32.9097 34.5567 1.6877 -24.5418 -9.7596
# 2 32.9097 133.0551 73.7475 -7.8288 -17.9743 0.2025
# 3 34.5567 73.7475 113.8149 -1.6803 -12.0775 -18.8426
# 4 1.6877 -7.8288 -1.6803 48.2465 -1.8845 -0.1029
# 5 -24.5418 -17.9743 -12.0775 -1.8845 33.8742 -0.7991
# 6 -9.7596 0.2025 -18.8426 -0.1029 -0.7991 35.5500
#
#
#
# Elastic Compliance Matrix: (Units=1/GPa)
#
#
# Indices 1 2 3 4 5 6 
#
# 1 0.017640 -0.001428 -0.002644 -0.000498 0.011140 0.003699
# 2 -0.001428 0.013120 -0.008549 0.001983 0.002873 -0.004928
# 3 -0.002644 -0.008549 0.016393 -0.000725 -0.000458 0.008000
# 4 -0.000498 0.001983 -0.000725 0.021102 0.001597 -0.000435
# 5 0.011140 0.002873 -0.000458 0.001597 0.039128 0.003683
# 6 0.003699 -0.004928 0.008000 -0.000435 0.003683 0.033494
#
#
# Mechanical properties :
#
#
# Convention : Reuss Voigt Hill
#
# Bulk Modulus (GPa) = 45.63761 67.93573 56.78667
# Shear Modulus (GPa) = 28.83121 36.05276 32.44198
#
# Velocity S-wave (km/s) = 3.34874 3.74471 3.55225
# Velocity P-wave (km/s) = 5.71865 6.71722 6.23795
#
# Compressibility (1/GPa) = 0.02191175
#
# Stress axis : x y z
#
# Youngs Moduli (GPa) = 56.68900 76.22208 61.00036
#
# Poissons Ratio (x) = 0.10884 0.16126
# Poissons Ratio (y) = 0.08095 0.52150
# Poissons Ratio (z) = 0.14987 0.65163
#
# Static dielectric constant tensor:
#      x y z
#    x 2.241300 0.148400 0.110110 
#    y 0.148400 1.993880 0.053880 
#    z 0.110110 0.053880 1.963300 
# 
# From -- ./inp_files/98740.got.cif
#   From: 2010.05.17/outbox.cif.g08.bks.cpg/sg2_50_cif.got.tgz:98740.got - 2010.06.03 11:33:40.
