data_PCOD9080174
_publ_section_title
;
Structure prediction by ZEFSAII (Michael W. Deem and Ramdas Pophale) SiO2 
 PCOD9080174
Probable space group: P -1
;
_chemical_formula_sum "Si O2"
_cell_formula_units_Z 16
_cell_length_a 12.156436
_cell_length_b 8.566851
_cell_length_c 13.862639
_cell_angle_alpha 76.414424
_cell_angle_beta 41.563025
_cell_angle_gamma 105.623828
_cell_volume 673.720622
_symmetry_space_group_name_H-M "P -1"
_symmetry_group_IT_number 2
_symmetry_cell_setting 'triclinic'
loop_
_space_group_symop_operation_xyz
x,y,z
-x,-y,-z
loop_
_atom_site_type_symbol
_atom_site_label
_atom_site_fract_x
_atom_site_fract_y
_atom_site_fract_z
Si Si1 0.134016 0.351558 0.596905
Si Si2 0.612747 0.564207 0.171067
Si Si3 0.962104 0.963206 0.143659
Si Si4 0.742560 0.074648 0.405092
Si Si5 0.236251 0.376057 0.138187
Si Si6 0.946771 0.368960 0.457183
Si Si7 0.742287 0.355532 0.225531
Si Si8 0.830367 0.988439 0.683219
O O1 0.363944 0.451828 0.377985
O O2 0.115807 0.255667 0.726606
O O3 0.131919 0.542057 0.574420
O O4 0.943997 0.146119 0.680396
O O5 0.703361 0.516236 0.206768
O O6 0.634608 0.490134 0.064144
O O7 0.787887 0.827596 0.008163
O O8 0.790978 0.985511 0.295550
O O9 0.000000 0.000000 0.000000
O O10 0.738450 0.252062 0.341479
O O11 0.963978 0.186310 0.309019
O O12 0.490474 0.868190 0.640726
O O13 0.318439 0.257808 0.140676
O O14 0.187442 0.461777 0.245853
O O15 0.000000 0.500000 0.500000
O O16 0.776146 0.109236 0.636358
O O17 0.000000 0.500000 0.000000
O O18 0.000000 0.000000 0.500000
#
# Coordination Sequence:
#
# PCOD9080174 Si02
#       8
#     2   2   2   2   2   2   2   2
#     4  11  21  42  62  88 135 158 204 260 312 369
#     4  11  22  38  62  90 119 169 210 253 305 369
#     4  11  23  39  59  88 126 168 205 250 311 369
#     4  10  21  36  57  87 119 160 207 255 295 352
#     4  10  18  38  65  89 122 160 210 254 305 371
#     4   9  21  37  64  94 121 163 198 257 325 365
#     4  11  19  35  59  86 119 150 213 258 285 350
#     4   9  17  37  68  89 117 160 202 255 310 367
#
# _framework density 23.748716999999999
#
# number of rings (size 3 to 8) (size 9 to 14) (size 15 to 20)
#    0.000    1.750    6.250    0.000    0.000    2.500 
#    4.500    6.250    5.500    0.000    0.000    0.000 
#    0.000    0.000    0.000    0.000    0.000    0.000 
#
# Total GULP energy -89167.087561 kJ/mol
# GULP energy per Si atom -5572.942973 kJ/mol
# Density = 2.369466 g / cm^3
# Si number density = 23.748717 Si / 1000 Ang^3
#
#
#
# Elastic Constant Matrix: (Units=GPa)
#
#
# Indices 1 2 3 4 5 6 
#
# 1 102.9244 49.4309 41.6484 5.2999 32.6222 -19.9745
# 2 49.4309 88.0175 31.0735 5.7925 28.0492 -24.0423
# 3 41.6484 31.0735 134.8243 -1.9558 20.2045 -13.0315
# 4 5.2999 5.7925 -1.9558 29.7410 -6.3211 13.5075
# 5 32.6222 28.0492 20.2045 -6.3211 49.1163 -10.2244
# 6 -19.9745 -24.0423 -13.0315 13.5075 -10.2244 47.0240
#
#
#
# Elastic Compliance Matrix: (Units=1/GPa)
#
#
# Indices 1 2 3 4 5 6 
#
# 1 0.016195 -0.004531 -0.002616 -0.005421 -0.006984 0.003877
# 2 -0.004531 0.019465 -0.001353 -0.008427 -0.006848 0.008584
# 3 -0.002616 -0.001353 0.008699 0.001061 -0.000910 0.000105
# 4 -0.005421 -0.008427 0.001061 0.046398 0.010326 -0.017400
# 5 -0.006984 -0.006848 -0.000910 0.010326 0.029952 -0.003174
# 6 0.003877 0.008584 0.000105 -0.017400 -0.003174 0.031639
#
#
# Mechanical properties :
#
#
# Convention : Reuss Voigt Hill
#
# Bulk Modulus (GPa) = 36.54948 63.34132 49.94540
# Shear Modulus (GPa) = 28.01652 38.75050 33.38351
#
# Velocity S-wave (km/s) = 3.43841 4.04380 3.75333
# Velocity P-wave (km/s) = 5.58454 6.96652 6.31346
#
# Compressibility (1/GPa) = 0.02736017
#
# Stress axis : x y z
#
# Youngs Moduli (GPa) = 61.74626 51.37407 114.95699
#
# Poissons Ratio (x) = 0.23275 0.30073
# Poissons Ratio (y) = 0.27974 0.15553
# Poissons Ratio (z) = 0.16153 0.06951
#
# Static dielectric constant tensor:
#      x y z
#    x 1.984470 0.046300 -0.003430 
#    y 0.046300 2.034200 -0.025250 
#    z -0.003430 -0.025250 1.913620 
# 
# From -- ./inp_files/528486.got.cif
#   From: 2010.05.17/outbox.cif.g08.bks.cpg/sg2_265_cif.got.tgz:528486.got - 2010.06.03 11:33:40.
