data_PCOD9080623
_publ_section_title
;
Structure prediction by ZEFSAII (Michael W. Deem and Ramdas Pophale) SiO2 
 PCOD9080623
Probable space group: P -1
;
_chemical_formula_sum "Si O2"
_cell_formula_units_Z 13
_cell_length_a 8.498517
_cell_length_b 9.369261
_cell_length_c 10.946856
_cell_angle_alpha 128.428607
_cell_angle_beta 106.157553
_cell_angle_gamma 106.091249
_cell_volume 525.556354
_symmetry_space_group_name_H-M "P -1"
_symmetry_group_IT_number 2
_symmetry_cell_setting 'triclinic'
loop_
_space_group_symop_operation_xyz
x,y,z
-x,-y,-z
loop_
_atom_site_type_symbol
_atom_site_label
_atom_site_fract_x
_atom_site_fract_y
_atom_site_fract_z
Si Si1 0.339932 0.511416 0.347321
Si Si2 0.246739 0.192414 0.548776
Si Si3 0.532121 0.125006 0.880616
Si Si4 0.287833 0.849354 0.450686
Si Si5 0.273395 0.050607 0.023295
Si Si6 0.500000 0.500000 0.000000
Si Si7 0.083828 0.354550 0.422724
O O1 0.570022 0.699219 0.453138
O O2 0.212924 0.591518 0.297880
O O3 0.299697 0.508746 0.480847
O O4 0.279059 0.267972 0.166905
O O5 0.354688 0.327483 0.767398
O O6 0.101069 0.248394 0.491866
O O7 0.158361 0.931589 0.413595
O O8 0.436837 0.126781 0.990207
O O9 0.606173 0.362009 0.962772
O O10 0.357503 0.936620 0.651084
O O11 0.677303 0.053542 0.910214
O O12 0.500000 0.000000 0.500000
O O13 0.062535 0.849296 0.809876
O O14 0.000000 0.500000 0.500000
#
# Coordination Sequence:
#
# PCOD9080623 Si02
#       7
#     2   2   2   2   2   1   2
#     4  11  23  43  67  94 127 173 217 263 317 385
#     4  10  22  42  71  93 127 169 217 258 323 385
#     4  10  21  39  66  92 126 170 216 260 319 384
#     4   9  21  38  65  95 122 167 220 261 311 387
#     4  11  24  40  65  96 130 165 217 267 321 371
#     4  10  18  40  66  98 120 170 216 260 306 396
#     4  12  26  42  64  99 132 166 213 273 322 374
#
# _framework density 24.735690999999999
#
# number of rings (size 3 to 8) (size 9 to 14) (size 15 to 20)
#    0.000    1.538    1.538    2.769    8.615    0.000 
#    0.000    9.231    0.000    0.000    0.000    0.000 
#    0.000    0.000    0.000    0.000    0.000    0.000 
#
# Total GULP energy -72426.099044 kJ/mol
# GULP energy per Si atom -5571.238388 kJ/mol
# Density = 2.467939 g / cm^3
# Si number density = 24.735691 Si / 1000 Ang^3
#
#
#
# Elastic Constant Matrix: (Units=GPa)
#
#
# Indices 1 2 3 4 5 6 
#
# 1 76.8743 70.3800 49.7566 4.9411 -25.7463 -29.5968
# 2 70.3800 186.9265 75.1699 15.9687 -15.7301 -80.6700
# 3 49.7566 75.1699 71.0128 4.3619 -18.7031 -31.1151
# 4 4.9411 15.9687 4.3619 38.1091 -14.4632 -6.8371
# 5 -25.7463 -15.7301 -18.7031 -14.4632 38.3040 6.8528
# 6 -29.5968 -80.6700 -31.1151 -6.8371 6.8528 64.4025
#
#
#
# Elastic Compliance Matrix: (Units=1/GPa)
#
#
# Indices 1 2 3 4 5 6 
#
# 1 0.030510 -0.006303 -0.011373 0.005420 0.014472 -0.000333
# 2 -0.006303 0.017883 -0.009130 -0.005195 -0.006028 0.015182
# 3 -0.011373 -0.009130 0.032583 0.003680 0.006117 -0.001181
# 4 0.005420 -0.005195 0.003680 0.033271 0.015941 -0.000403
# 5 0.014472 -0.006028 0.006117 0.015941 0.042503 -0.000775
# 6 -0.000333 0.015182 -0.001181 -0.000403 -0.000775 0.033861
#
#
# Mechanical properties :
#
#
# Convention : Reuss Voigt Hill
#
# Bulk Modulus (GPa) = 36.54394 80.60296 58.57345
# Shear Modulus (GPa) = 19.73609 37.46360 28.59984
#
# Velocity S-wave (km/s) = 2.82774 3.89595 3.40401
# Velocity P-wave (km/s) = 5.04652 7.27285 6.25946
#
# Compressibility (1/GPa) = 0.02736431
#
# Stress axis : x y z
#
# Youngs Moduli (GPa) = 32.77619 55.91979 30.69129
#
# Poissons Ratio (x) = 0.35244 0.34905
# Poissons Ratio (y) = 0.20657 0.28021
# Poissons Ratio (z) = 0.37276 0.51054
#
# Static dielectric constant tensor:
#      x y z
#    x 2.076450 0.008680 0.001430 
#    y 0.008680 2.051640 0.019590 
#    z 0.001430 0.019590 1.888900 
# 
# From -- ./inp_files/184775.got.cif
#   From: 2010.05.17/outbox.cif.g08.bks.cpg/sg2_93_cif.got.tgz:184775.got - 2010.06.03 11:33:40.
