data_PCOD9080585
_publ_section_title
;
Structure prediction by ZEFSAII (Michael W. Deem and Ramdas Pophale) SiO2 
 PCOD9080585
Probable space group: P -1
;
_chemical_formula_sum "Si O2"
_cell_formula_units_Z 14
_cell_length_a 10.384332
_cell_length_b 18.665550
_cell_length_c 7.771717
_cell_angle_alpha 148.056541
_cell_angle_beta 46.807194
_cell_angle_gamma 134.504919
_cell_volume 552.144751
_symmetry_space_group_name_H-M "P -1"
_symmetry_group_IT_number 2
_symmetry_cell_setting 'triclinic'
loop_
_space_group_symop_operation_xyz
x,y,z
-x,-y,-z
loop_
_atom_site_type_symbol
_atom_site_label
_atom_site_fract_x
_atom_site_fract_y
_atom_site_fract_z
Si Si1 0.070253 0.734527 0.491853
Si Si2 0.661535 0.069251 0.626110
Si Si3 0.684073 0.436351 0.929858
Si Si4 0.993189 0.988625 0.193030
Si Si5 0.297985 0.410308 0.322366
Si Si6 0.119392 0.283047 0.870123
Si Si7 0.706251 0.309835 0.293919
O O1 0.180005 0.805779 0.366855
O O2 0.159953 0.619480 0.243051
O O3 0.849386 0.657843 0.533163
O O4 0.087679 0.865119 0.875673
O O5 0.773554 0.964838 0.376769
O O6 0.500000 0.000000 0.500000
O O7 0.597211 0.153566 0.006063
O O8 0.632561 0.348423 0.619531
O O9 0.504910 0.407416 0.153352
O O10 0.758655 0.597789 0.127395
O O11 0.090624 0.127386 0.499773
O O12 0.000000 0.000000 0.000000
O O13 0.299530 0.567964 0.586826
O O14 0.217094 0.319045 0.038159
O O15 0.919870 0.311783 0.126697
#
# Coordination Sequence:
#
# PCOD9080585 Si02
#       7
#     2   2   2   2   2   2   2
#     4  11  23  43  63  96 131 156 215 269 302 369
#     4  10  24  43  66  88 127 175 211 247 325 385
#     4  11  22  39  69  98 122 164 216 259 308 371
#     4   9  22  41  61  84 127 175 199 248 322 370
#     4  11  22  37  67  98 127 160 211 263 317 362
#     4  10  18  40  64  90 128 170 202 253 321 375
#     4  10  19  42  65  92 129 172 201 259 320 373
#
# _framework density 25.355671000000001
#
# number of rings (size 3 to 8) (size 9 to 14) (size 15 to 20)
#    0.000    1.714    2.857    2.571    2.000    5.714 
#    2.571    2.143    0.000    0.000    0.000    0.000 
#    0.000    0.000    0.000    0.000    0.000    0.000 
#
# Total GULP energy -78371.154564 kJ/mol
# GULP energy per Si atom -5597.939612 kJ/mol
# Density = 2.529796 g / cm^3
# Si number density = 25.355671 Si / 1000 Ang^3
#
#
#
# Elastic Constant Matrix: (Units=GPa)
#
#
# Indices 1 2 3 4 5 6 
#
# 1 70.9437 25.6062 35.1981 -2.1927 12.6867 12.7374
# 2 25.6062 81.2378 20.5986 -22.2761 -17.8412 3.7746
# 3 35.1981 20.5986 157.2483 3.7881 13.6944 15.2383
# 4 -2.1927 -22.2761 3.7881 29.8473 0.7230 -4.7051
# 5 12.6867 -17.8412 13.6944 0.7230 37.7431 -4.0173
# 6 12.7374 3.7746 15.2383 -4.7051 -4.0173 37.7821
#
#
#
# Elastic Compliance Matrix: (Units=1/GPa)
#
#
# Indices 1 2 3 4 5 6 
#
# 1 0.022459 -0.011285 -0.001432 -0.007567 -0.013092 -0.008201
# 2 -0.011285 0.025594 -0.003492 0.019384 0.017525 0.006933
# 3 -0.001432 -0.003492 0.007938 -0.004141 -0.004326 -0.003346
# 4 -0.007567 0.019384 -0.004141 0.049167 0.013312 0.009823
# 5 -0.013092 0.017525 -0.004326 0.013312 0.041611 0.010490
# 6 -0.008201 0.006933 -0.003346 0.009823 0.010490 0.032228
#
#
# Mechanical properties :
#
#
# Convention : Reuss Voigt Hill
#
# Bulk Modulus (GPa) = 42.41971 52.47060 47.44516
# Shear Modulus (GPa) = 22.80282 36.27629 29.53956
#
# Velocity S-wave (km/s) = 3.00212 3.78656 3.41692
# Velocity P-wave (km/s) = 5.36499 6.31317 5.85830
#
# Compressibility (1/GPa) = 0.02357395
#
# Stress axis : x y z
#
# Youngs Moduli (GPa) = 44.52551 39.07182 125.97668
#
# Poissons Ratio (x) = 0.44093 0.18036
# Poissons Ratio (y) = 0.50247 0.43987
# Poissons Ratio (z) = 0.06375 0.13643
#
# Static dielectric constant tensor:
#      x y z
#    x 2.037230 -0.031060 0.025900 
#    y -0.031060 2.031740 0.023530 
#    z 0.025900 0.023530 2.044630 
# 
# From -- ./inp_files/181758.got.cif
#   From: 2010.05.17/outbox.cif.g08.bks.cpg/sg2_91_cif.got.tgz:181758.got - 2010.06.03 11:33:40.
