data_PCOD9080277
_publ_section_title
;
Structure prediction by ZEFSAII (Michael W. Deem and Ramdas Pophale) SiO2 
 PCOD9080277
Probable space group: P -1
;
_chemical_formula_sum "Si O2"
_cell_formula_units_Z 11
_cell_length_a 12.068501
_cell_length_b 7.048183
_cell_length_c 12.101671
_cell_angle_alpha 48.466030
_cell_angle_beta 31.865294
_cell_angle_gamma 58.752962
_cell_volume 404.218525
_symmetry_space_group_name_H-M "P -1"
_symmetry_group_IT_number 2
_symmetry_cell_setting 'triclinic'
loop_
_space_group_symop_operation_xyz
x,y,z
-x,-y,-z
loop_
_atom_site_type_symbol
_atom_site_label
_atom_site_fract_x
_atom_site_fract_y
_atom_site_fract_z
Si Si1 0.685217 0.516152 0.481316
Si Si2 0.304246 0.131980 0.993548
Si Si3 0.396156 0.224693 0.226341
Si Si4 0.000000 0.500000 0.000000
Si Si5 0.035747 0.683342 0.505887
Si Si6 0.344094 0.833753 0.583773
O O1 0.575317 0.768653 0.447850
O O2 0.723927 0.379646 0.379814
O O3 0.889583 0.477427 0.393734
O O4 0.493033 0.353503 0.774083
O O5 0.120117 0.263249 0.042462
O O6 0.209039 0.917730 0.240797
O O7 0.432308 0.965741 0.867680
O O8 0.184132 0.198468 0.344541
O O9 0.329227 0.118852 0.445380
O O10 0.500000 0.500000 0.000000
O O11 0.154038 0.714535 0.865774
O O12 0.000000 0.500000 0.500000
#
# Coordination Sequence:
#
# PCOD9080277 Si02
#       6
#     2   2   2   1   2   2
#     4   9  21  40  65  94 125 166 213 271 312 369
#     4  10  21  39  67  94 128 164 217 266 312 378
#     4  11  22  40  65  94 134 169 206 265 318 384
#     4  10  18  38  68  98 118 168 210 270 316 366
#     4  12  23  41  65  93 133 172 210 256 326 383
#     4   9  19  39  65  90 127 161 219 260 313 372
#
# _framework density 27.213004999999999
#
# number of rings (size 3 to 8) (size 9 to 14) (size 15 to 20)
#    0.000    1.818    3.636    1.636    0.000    2.909 
#    6.545    1.818    0.000    0.000    0.000    0.000 
#    0.000    0.000    0.000    0.000    0.000    0.000 
#
# Total GULP energy -61262.983473 kJ/mol
# GULP energy per Si atom -5569.362134 kJ/mol
# Density = 2.715107 g / cm^3
# Si number density = 27.213005 Si / 1000 Ang^3
#
#
#
# Elastic Constant Matrix: (Units=GPa)
#
#
# Indices 1 2 3 4 5 6 
#
# 1 155.7631 54.6983 6.7734 8.5440 2.0582 -41.6083
# 2 54.6983 155.0210 16.6519 -2.3888 8.3880 -66.8194
# 3 6.7734 16.6519 89.6483 -20.0421 14.2533 -15.9047
# 4 8.5440 -2.3888 -20.0421 60.8201 -19.0356 -3.0799
# 5 2.0582 8.3880 14.2533 -19.0356 15.8861 6.0231
# 6 -41.6083 -66.8194 -15.9047 -3.0799 6.0231 69.2635
#
#
#
# Elastic Compliance Matrix: (Units=1/GPa)
#
#
# Indices 1 2 3 4 5 6 
#
# 1 0.008152 -0.000406 0.000854 -0.002777 -0.006899 0.005179
# 2 -0.000406 0.014034 0.002484 -0.004201 -0.020481 0.015460
# 3 0.000854 0.002484 0.014829 -0.000450 -0.018254 0.007882
# 4 -0.002777 -0.004201 -0.000450 0.028803 0.040554 -0.008070
# 5 -0.006899 -0.020481 -0.018254 0.040554 0.154697 -0.039744
# 6 0.005179 0.015460 0.007882 -0.008070 -0.039744 0.037370
#
#
# Mechanical properties :
#
#
# Convention : Reuss Voigt Hill
#
# Bulk Modulus (GPa) = 23.32074 61.85330 42.58702
# Shear Modulus (GPa) = 18.77487 50.68121 34.72804
#
# Velocity S-wave (km/s) = 2.62949 4.32022 3.57621
# Velocity P-wave (km/s) = 4.21986 6.90394 5.72152
#
# Compressibility (1/GPa) = 0.04288028
#
# Stress axis : x y z
#
# Youngs Moduli (GPa) = 122.66842 71.25385 67.43646
#
# Poissons Ratio (x) = 0.02889 -0.05761
# Poissons Ratio (y) = 0.04974 -0.16750
# Poissons Ratio (z) = -0.10479 -0.17698
#
# Static dielectric constant tensor:
#      x y z
#    x 2.456480 0.138200 -0.135310 
#    y 0.138200 2.118420 -0.206440 
#    z -0.135310 -0.206440 0.808020 
# 
# From -- ./inp_files/148671.got.cif
#   From: 2010.05.17/outbox.cif.g08.bks.cpg/sg2_75_cif.got.tgz:148671.got - 2010.06.03 11:33:40.
