data_PCOD9080421
_publ_section_title
;
Structure prediction by ZEFSAII (Michael W. Deem and Ramdas Pophale) SiO2 
 PCOD9080421
Probable space group: P -1
;
_chemical_formula_sum "Si O2"
_cell_formula_units_Z 13
_cell_length_a 7.902016
_cell_length_b 9.018679
_cell_length_c 11.422362
_cell_angle_alpha 117.345340
_cell_angle_beta 105.453760
_cell_angle_gamma 110.541028
_cell_volume 580.749497
_symmetry_space_group_name_H-M "P -1"
_symmetry_group_IT_number 2
_symmetry_cell_setting 'triclinic'
loop_
_space_group_symop_operation_xyz
x,y,z
-x,-y,-z
loop_
_atom_site_type_symbol
_atom_site_label
_atom_site_fract_x
_atom_site_fract_y
_atom_site_fract_z
Si Si1 0.390874 0.475523 0.614724
Si Si2 0.067521 0.619780 0.278344
Si Si3 0.000000 0.500000 0.500000
Si Si4 0.885228 0.983124 0.594265
Si Si5 0.180511 0.049140 0.887401
Si Si6 0.403723 0.588943 0.928863
Si Si7 0.160702 0.312495 0.182494
O O1 0.402004 0.516060 0.771059
O O2 0.635346 0.626509 0.680541
O O3 0.227686 0.520405 0.546747
O O4 0.305135 0.243340 0.505046
O O5 0.170189 0.851373 0.353937
O O6 0.185709 0.515645 0.222529
O O7 0.036865 0.588524 0.402035
O O8 0.839203 0.496560 0.127192
O O9 0.057721 0.035057 0.743892
O O10 0.000000 0.000000 0.500000
O O11 0.429212 0.170287 0.953215
O O12 0.149636 0.179899 0.024080
O O13 0.056923 0.824435 0.834329
O O14 0.500000 0.500000 0.000000
#
# Coordination Sequence:
#
# PCOD9080421 Si02
#       7
#     2   2   1   2   2   2   2
#     4  10  22  40  65  88 132 161 210 256 318 369
#     4  11  23  37  66  95 127 161 217 251 325 363
#     4  10  20  38  62  94 118 166 206 260 296 380
#     4  12  21  39  65  96 121 167 210 266 308 370
#     4  10  22  41  66  86 133 165 210 255 315 375
#     4  10  18  39  64  90 118 168 207 262 298 368
#     4  10  24  43  61  95 127 173 199 263 318 375
#
# _framework density 22.384868999999998
#
# number of rings (size 3 to 8) (size 9 to 14) (size 15 to 20)
#    0.000    1.538    4.615    0.923    0.000    4.308 
#    0.000    3.077    3.385    0.000    0.000    0.000 
#    0.000    0.000    0.000    0.000    0.000    0.000 
#
# Total GULP energy -72381.649130 kJ/mol
# GULP energy per Si atom -5567.819164 kJ/mol
# Density = 2.233392 g / cm^3
# Si number density = 22.384869 Si / 1000 Ang^3
#
#
#
# Elastic Constant Matrix: (Units=GPa)
#
#
# Indices 1 2 3 4 5 6 
#
# 1 47.6709 7.9457 23.3514 0.6500 20.1198 -10.3684
# 2 7.9457 74.3993 62.7412 -0.3469 7.6084 -10.7585
# 3 23.3514 62.7412 123.2776 4.6590 29.1234 -7.3568
# 4 0.6500 -0.3469 4.6590 43.6983 -1.3974 3.5535
# 5 20.1198 7.6084 29.1234 -1.3974 31.6445 -2.8428
# 6 -10.3684 -10.7585 -7.3568 3.5535 -2.8428 33.4144
#
#
#
# Elastic Compliance Matrix: (Units=1/GPa)
#
#
# Indices 1 2 3 4 5 6 
#
# 1 0.030893 0.001126 -0.001702 -0.001504 -0.017674 0.008230
# 2 0.001126 0.025967 -0.014863 0.001529 0.007317 0.005898
# 3 -0.001702 -0.014863 0.019088 -0.002389 -0.013195 -0.001980
# 4 -0.001504 0.001529 -0.002389 0.023507 0.003583 -0.002695
# 5 -0.017674 0.007317 -0.013195 0.003583 0.053211 -0.001887
# 6 0.008230 0.005898 -0.001980 -0.002695 -0.001887 0.034070
#
#
# Mechanical properties :
#
#
# Convention : Reuss Voigt Hill
#
# Bulk Modulus (GPa) = 22.18770 48.15825 35.17298
# Shear Modulus (GPa) = 21.49274 31.83874 26.66574
#
# Velocity S-wave (km/s) = 3.10198 3.77547 3.45518
# Velocity P-wave (km/s) = 4.77108 6.36915 5.62713
#
# Compressibility (1/GPa) = 0.04507002
#
# Stress axis : x y z
#
# Youngs Moduli (GPa) = 32.36995 38.51102 52.38887
#
# Poissons Ratio (x) = -0.04337 0.08915
# Poissons Ratio (y) = -0.03646 0.77867
# Poissons Ratio (z) = 0.05509 0.57240
#
# Static dielectric constant tensor:
#      x y z
#    x 1.882700 0.070320 -0.023590 
#    y 0.070320 1.846420 0.016150 
#    z -0.023590 0.016150 1.850890 
# 
# From -- ./inp_files/149564.got.cif
#   From: 2010.05.17/outbox.cif.g08.bks.cpg/sg2_75_cif.got.tgz:149564.got - 2010.06.03 11:33:40.
