data_PCOD9080763
_publ_section_title
;
Structure prediction by ZEFSAII (Michael W. Deem and Ramdas Pophale) SiO2 
 PCOD9080763
Probable space group: P -1
;
_chemical_formula_sum "Si O2"
_cell_formula_units_Z 16
_cell_length_a 4.928818
_cell_length_b 26.851866
_cell_length_c 8.964613
_cell_angle_alpha 48.462817
_cell_angle_beta 98.879370
_cell_angle_gamma 120.157517
_cell_volume 738.006077
_symmetry_space_group_name_H-M "P -1"
_symmetry_group_IT_number 2
_symmetry_cell_setting 'triclinic'
loop_
_space_group_symop_operation_xyz
x,y,z
-x,-y,-z
loop_
_atom_site_type_symbol
_atom_site_label
_atom_site_fract_x
_atom_site_fract_y
_atom_site_fract_z
Si Si1 0.069902 0.088263 0.319941
Si Si2 0.617631 0.441197 0.601701
Si Si3 0.502963 0.093051 0.110428
Si Si4 0.923189 0.708801 0.038281
Si Si5 0.377585 0.817920 0.598982
Si Si6 0.474398 0.192708 0.684924
Si Si7 0.233066 0.942978 0.211560
Si Si8 0.510150 0.705625 0.249966
O O1 0.270607 0.141652 0.371491
O O2 0.325414 0.124543 0.132713
O O3 0.745343 0.082959 0.253658
O O4 0.000000 0.000000 0.500000
O O5 0.500000 0.500000 0.500000
O O6 0.518711 0.379008 0.579266
O O7 0.000000 0.500000 0.500000
O O8 0.575866 0.625637 0.152447
O O9 0.646549 0.154108 0.863895
O O10 0.189445 0.250541 0.930470
O O11 0.240583 0.006140 0.198480
O O12 0.182871 0.692516 0.170008
O O13 0.099243 0.759760 0.806676
O O14 0.370326 0.777053 0.524325
O O15 0.341473 0.890397 0.408380
O O16 0.459955 0.254082 0.669892
O O17 0.113523 0.117016 0.771689
O O18 0.500000 0.000000 0.000000
#
# Coordination Sequence:
#
# PCOD9080763 Si02
#       8
#     2   2   2   2   2   2   2   2
#     4  12  26  45  65  94 128 181 251 317 367 399
#     4  10  18  42  78 111 139 178 227 279 341 448
#     4  12  26  47  67  89 131 189 259 306 353 421
#     4  10  24  43  70 110 141 181 231 289 362 414
#     4  12  28  42  71  99 147 186 248 316 369 417
#     4  12  28  44  71  98 145 196 244 304 367 436
#     4  12  26  46  65  95 139 201 262 306 368 411
#     4  10  24  45  71 106 145 183 231 282 359 438
#
# _framework density 21.680040000000002
#
# number of rings (size 3 to 8) (size 9 to 14) (size 15 to 20)
#    0.750    0.000    3.750    3.000    5.250    3.000 
#    0.000    0.000    0.000    1.500    0.000    0.000 
#    0.000    0.000    0.000    0.000    0.000    0.000 
#
# Total GULP energy -89413.097398 kJ/mol
# GULP energy per Si atom -5588.318587 kJ/mol
# Density = 2.163070 g / cm^3
# Si number density = 21.680040 Si / 1000 Ang^3
#
#
#
# Elastic Constant Matrix: (Units=GPa)
#
#
# Indices 1 2 3 4 5 6 
#
# 1 149.9156 58.2058 52.7347 6.5162 -6.6735 -13.9881
# 2 58.2058 131.7487 82.9387 -3.4001 -4.6473 -26.6457
# 3 52.7347 82.9387 107.0292 -3.1046 -23.1798 -6.8156
# 4 6.5162 -3.4001 -3.1046 36.9310 -1.1297 -1.0446
# 5 -6.6735 -4.6473 -23.1798 -1.1297 49.7605 -1.0974
# 6 -13.9881 -26.6457 -6.8156 -1.0446 -1.0974 54.0477
#
#
#
# Elastic Compliance Matrix: (Units=1/GPa)
#
#
# Indices 1 2 3 4 5 6 
#
# 1 0.008545 -0.001869 -0.002842 -0.001905 -0.000376 0.000887
# 2 -0.001869 0.018409 -0.013941 0.000895 -0.004856 0.006753
# 3 -0.002842 -0.013941 0.023269 0.001326 0.009088 -0.004464
# 4 -0.001905 0.000895 0.001326 0.027660 0.001089 0.000672
# 5 -0.000376 -0.004856 0.009088 0.001089 0.023832 -0.000840
# 6 0.000887 0.006753 -0.004464 0.000672 -0.000840 0.021494
#
#
# Mechanical properties :
#
#
# Convention : Reuss Voigt Hill
#
# Bulk Modulus (GPa) = 77.40131 86.27242 81.83687
# Shear Modulus (GPa) = 30.33655 41.13545 35.73600
#
# Velocity S-wave (km/s) = 3.74476 4.36063 4.06438
# Velocity P-wave (km/s) = 7.38084 8.07671 7.73660
#
# Compressibility (1/GPa) = 0.01291968
#
# Stress axis : x y z
#
# Youngs Moduli (GPa) = 117.03327 54.32051 42.97613
#
# Poissons Ratio (x) = 0.10151 0.12214
# Poissons Ratio (y) = 0.21870 0.59911
# Poissons Ratio (z) = 0.33263 0.75726
#
# Static dielectric constant tensor:
#      x y z
#    x 1.860540 -0.013300 -0.031040 
#    y -0.013300 1.850620 0.013310 
#    z -0.031040 0.013310 1.871640 
# 
# From -- ./inp_files/143379.got.cif
#   From: 2010.05.17/outbox.cif.g08.bks.cpg/sg2_72_cif.got.tgz:143379.got - 2010.06.03 11:33:40.
