data_PCOD9080719
_publ_section_title
;
Structure prediction by ZEFSAII (Michael W. Deem and Ramdas Pophale) SiO2 
 PCOD9080719
Probable space group: P -1
;
_chemical_formula_sum "Si O2"
_cell_formula_units_Z 15
_cell_length_a 10.649291
_cell_length_b 11.201982
_cell_length_c 11.453735
_cell_angle_alpha 135.967717
_cell_angle_beta 115.096172
_cell_angle_gamma 96.708807
_cell_volume 638.431674
_symmetry_space_group_name_H-M "P -1"
_symmetry_group_IT_number 2
_symmetry_cell_setting 'triclinic'
loop_
_space_group_symop_operation_xyz
x,y,z
-x,-y,-z
loop_
_atom_site_type_symbol
_atom_site_label
_atom_site_fract_x
_atom_site_fract_y
_atom_site_fract_z
Si Si1 0.221657 0.471188 0.814364
Si Si2 0.564528 0.952729 0.379364
Si Si3 0.779744 0.852347 0.796846
Si Si4 0.486941 0.350259 0.249145
Si Si5 0.809963 0.197395 0.449814
Si Si6 0.500000 0.000000 0.000000
Si Si7 0.790839 0.765821 0.119817
Si Si8 0.802597 0.896100 0.577890
O O1 0.220854 0.356206 0.853831
O O2 0.224026 0.329977 0.613562
O O3 0.029179 0.415731 0.688797
O O4 0.393494 0.740671 0.087288
O O5 0.672718 0.880501 0.423770
O O6 0.500000 0.000000 0.500000
O O7 0.706279 0.174117 0.509172
O O8 0.657041 0.577147 0.543532
O O9 0.672506 0.852199 0.862882
O O10 0.757894 0.916556 0.705957
O O11 0.000000 0.000000 0.000000
O O12 0.545964 0.226863 0.123406
O O13 0.381695 0.391566 0.148829
O O14 0.692969 0.167714 0.274653
O O15 0.802620 0.980803 0.300141
O O16 0.983232 0.883322 0.212510
#
# Coordination Sequence:
#
# PCOD9080719 Si02
#       8
#     2   2   2   2   2   1   2   2
#     4  11  22  42  70  92 118 168 215 260 310 363
#     4  12  26  40  60  97 130 161 203 260 325 377
#     4  11  23  41  62  96 127 162 217 265 311 368
#     4  10  23  42  64  92 128 171 207 262 321 370
#     4  10  22  43  62  93 126 160 212 255 307 376
#     4  10  24  44  66  88 132 174 204 256 318 386
#     4  10  18  41  71  91 118 160 219 266 300 357
#     4  11  21  40  68  94 120 163 214 263 306 374
#
# _framework density 23.495076000000001
#
# number of rings (size 3 to 8) (size 9 to 14) (size 15 to 20)
#    0.000    1.333    4.000    2.000    5.600    0.533 
#    2.400    1.333    0.000    0.000    0.000    0.000 
#    0.000    0.000    0.000    0.000    0.000    0.000 
#
# Total GULP energy -83612.131831 kJ/mol
# GULP energy per Si atom -5574.142122 kJ/mol
# Density = 2.344160 g / cm^3
# Si number density = 23.495076 Si / 1000 Ang^3
#
#
#
# Elastic Constant Matrix: (Units=GPa)
#
#
# Indices 1 2 3 4 5 6 
#
# 1 56.7567 33.5716 30.2195 -13.0773 23.3305 12.1258
# 2 33.5716 68.3582 22.1355 -27.0116 14.0222 16.1468
# 3 30.2195 22.1355 128.4380 -23.2402 41.4883 -4.3021
# 4 -13.0773 -27.0116 -23.2402 39.8958 -4.5354 -4.4567
# 5 23.3305 14.0222 41.4883 -4.5354 42.1433 -5.7935
# 6 12.1258 16.1468 -4.3021 -4.4567 -5.7935 26.3312
#
#
#
# Elastic Compliance Matrix: (Units=1/GPa)
#
#
# Indices 1 2 3 4 5 6 
#
# 1 0.033304 -0.009383 -0.001565 0.000412 -0.015543 -0.013189
# 2 -0.009383 0.028774 0.001509 0.015307 -0.005836 -0.011771
# 3 -0.001565 0.001509 0.012839 0.006739 -0.011480 0.000508
# 4 0.000412 0.015307 0.006739 0.038104 -0.008387 -0.003871
# 5 -0.015543 -0.005836 -0.011480 -0.008387 0.047122 0.017809
# 6 -0.013189 -0.011771 0.000508 -0.003871 0.017809 0.054616
#
#
# Mechanical properties :
#
#
# Convention : Reuss Voigt Hill
#
# Bulk Modulus (GPa) = 17.84468 47.26734 32.55601
# Shear Modulus (GPa) = 19.81640 32.84916 26.33278
#
# Velocity S-wave (km/s) = 2.90733 3.74321 3.35144
# Velocity P-wave (km/s) = 4.34531 6.23248 5.37241
#
# Compressibility (1/GPa) = 0.05603911
#
# Stress axis : x y z
#
# Youngs Moduli (GPa) = 30.02612 34.75339 77.88960
#
# Poissons Ratio (x) = 0.32609 0.12193
# Poissons Ratio (y) = 0.28173 -0.11756
# Poissons Ratio (z) = 0.04700 -0.05245
#
# Static dielectric constant tensor:
#      x y z
#    x 1.985400 0.045080 -0.024000 
#    y 0.045080 1.888110 0.024260 
#    z -0.024000 0.024260 1.887080 
# 
# From -- ./inp_files/428966.got.cif
#   From: 2010.05.17/outbox.cif.g08.bks.cpg/sg2_215_cif.got.tgz:428966.got - 2010.06.03 11:33:40.
