data_PCOD9080576
_publ_section_title
;
Structure prediction by ZEFSAII (Michael W. Deem and Ramdas Pophale) SiO2 
 PCOD9080576
Probable space group: P -1
;
_chemical_formula_sum "Si O2"
_cell_formula_units_Z 14
_cell_length_a 10.691535
_cell_length_b 12.077316
_cell_length_c 5.162300
_cell_angle_alpha 98.372876
_cell_angle_beta 65.468088
_cell_angle_gamma 115.331790
_cell_volume 547.684718
_symmetry_space_group_name_H-M "P -1"
_symmetry_group_IT_number 2
_symmetry_cell_setting 'triclinic'
loop_
_space_group_symop_operation_xyz
x,y,z
-x,-y,-z
loop_
_atom_site_type_symbol
_atom_site_label
_atom_site_fract_x
_atom_site_fract_y
_atom_site_fract_z
Si Si1 0.374747 0.185455 0.006179
Si Si2 0.797966 0.372986 0.384047
Si Si3 0.863116 0.068097 0.957588
Si Si4 0.839389 0.761257 0.421877
Si Si5 0.041527 0.301302 0.186947
Si Si6 0.681853 0.205011 0.925481
Si Si7 0.459853 0.558943 0.305254
O O1 0.304423 0.229641 0.323773
O O2 0.236003 0.073492 0.957446
O O3 0.505725 0.148990 0.989896
O O4 0.452847 0.295843 0.775900
O O5 0.759580 0.290003 0.645673
O O6 0.714817 0.462071 0.531720
O O7 0.717625 0.293256 0.174676
O O8 0.975373 0.402431 0.219956
O O9 0.757909 0.111823 0.885377
O O10 0.026624 0.104454 0.701969
O O11 0.911300 0.165949 0.183969
O O12 0.834363 0.690658 0.133604
O O13 0.906000 0.706051 0.574269
O O14 0.500000 0.500000 0.500000
O O15 0.500000 0.500000 0.000000
#
# Coordination Sequence:
#
# PCOD9080576 Si02
#       7
#     2   2   2   2   2   2   2
#     4  11  23  40  62  96 121 166 200 257 306 352
#     4  10  18  40  64  85 114 167 199 246 308 351
#     4   9  20  39  59  94 132 163 193 235 300 387
#     4  10  21  37  59  91 136 157 196 234 301 378
#     4   9  19  37  60  89 126 166 189 233 296 384
#     4  10  20  36  60  94 124 157 202 241 297 378
#     4  11  25  44  62  87 118 158 211 268 302 342
#
# _framework density 25.562156000000002
#
# number of rings (size 3 to 8) (size 9 to 14) (size 15 to 20)
#    0.857    1.143    1.429    2.571    0.000    4.000 
#    7.714    6.429    0.000    5.143    0.000    0.000 
#    0.000    0.000    0.000    0.000    0.000    0.000 
#
# Total GULP energy -78306.149582 kJ/mol
# GULP energy per Si atom -5593.296399 kJ/mol
# Density = 2.550398 g / cm^3
# Si number density = 25.562156 Si / 1000 Ang^3
#
#
#
# Elastic Constant Matrix: (Units=GPa)
#
#
# Indices 1 2 3 4 5 6 
#
# 1 101.7511 10.7565 21.6562 -5.7914 -0.5485 -17.1999
# 2 10.7565 84.5591 37.8647 -21.7358 5.8567 10.9908
# 3 21.6562 37.8647 92.9941 8.3492 9.4535 7.8533
# 4 -5.7914 -21.7358 8.3492 41.4292 -0.1558 -15.2295
# 5 -0.5485 5.8567 9.4535 -0.1558 52.5483 9.2630
# 6 -17.1999 10.9908 7.8533 -15.2295 9.2630 40.5200
#
#
#
# Elastic Compliance Matrix: (Units=1/GPa)
#
#
# Indices 1 2 3 4 5 6 
#
# 1 0.012452 0.000997 -0.004511 0.006252 -0.000629 0.008383
# 2 0.000997 0.018801 -0.009106 0.012566 -0.000759 0.001985
# 3 -0.004511 -0.009106 0.017210 -0.011397 -0.000955 -0.006845
# 4 0.006252 0.012566 -0.011397 0.040158 -0.002170 0.017044
# 5 -0.000629 -0.000759 -0.000955 -0.002170 0.020210 -0.005312
# 6 0.008383 0.001985 -0.006845 0.017044 -0.005312 0.036646
#
#
# Mechanical properties :
#
#
# Convention : Reuss Voigt Hill
#
# Bulk Modulus (GPa) = 43.06032 46.65100 44.85566
# Shear Modulus (GPa) = 28.01749 40.83462 34.42606
#
# Velocity S-wave (km/s) = 3.31426 4.00116 3.67380
# Velocity P-wave (km/s) = 5.61495 6.29567 5.96503
#
# Compressibility (1/GPa) = 0.02322324
#
# Stress axis : x y z
#
# Youngs Moduli (GPa) = 80.30697 53.18737 58.10521
#
# Poissons Ratio (x) = -0.05304 0.26213
# Poissons Ratio (y) = -0.08008 0.52912
# Poissons Ratio (z) = 0.36228 0.48434
#
# Static dielectric constant tensor:
#      x y z
#    x 2.044910 -0.006890 -0.062430 
#    y -0.006890 2.038630 0.011630 
#    z -0.062430 0.011630 1.966350 
# 
# From -- ./inp_files/69637.got.cif
#   From: 2010.05.17/outbox.cif.g08.bks.cpg/sg2_35_cif.got.tgz:69637.got - 2010.06.03 11:33:40.
