data_PCOD9080197
_publ_section_title
;
Structure prediction by ZEFSAII (Michael W. Deem and Ramdas Pophale) SiO2 
 PCOD9080197
Probable space group: P -1
;
_chemical_formula_sum "Si O2"
_cell_formula_units_Z 15
_cell_length_a 18.286980
_cell_length_b 14.307557
_cell_length_c 8.994019
_cell_angle_alpha 149.803723
_cell_angle_beta 37.075203
_cell_angle_gamma 149.705216
_cell_volume 584.595089
_symmetry_space_group_name_H-M "P -1"
_symmetry_group_IT_number 2
_symmetry_cell_setting 'triclinic'
loop_
_space_group_symop_operation_xyz
x,y,z
-x,-y,-z
loop_
_atom_site_type_symbol
_atom_site_label
_atom_site_fract_x
_atom_site_fract_y
_atom_site_fract_z
Si Si1 0.338199 0.329339 0.838909
Si Si2 0.500000 0.500000 0.500000
Si Si3 0.649934 0.156478 0.059932
Si Si4 0.082456 0.300481 0.100094
Si Si5 0.487233 0.180596 0.618152
Si Si6 0.807067 0.201540 0.287257
Si Si7 0.925067 0.240426 0.817732
Si Si8 0.797673 0.651906 0.362628
O O1 0.411022 0.382159 0.631815
O O2 0.392892 0.211990 0.691700
O O3 0.163877 0.212118 0.938508
O O4 0.410571 0.579913 0.136629
O O5 0.660845 0.667941 0.573935
O O6 0.592242 0.136962 0.293725
O O7 0.719827 0.405821 0.225268
O O8 0.776699 0.110852 0.780829
O O9 0.500000 0.000000 0.000000
O O10 0.139364 0.543709 0.412209
O O11 0.907093 0.158327 0.172727
O O12 0.145619 0.350852 0.897914
O O13 0.363400 0.975815 0.638556
O O14 0.860606 0.204228 0.038238
O O15 0.054228 0.198277 0.567637
O O16 0.000000 0.500000 0.000000
#
# Coordination Sequence:
#
# PCOD9080197 Si02
#       8
#     2   1   2   2   2   2   2   2
#     4  10  22  39  62  87 125 167 204 252 311 376
#     4  10  18  38  66  82 114 164 212 244 294 376
#     4  11  21  35  59  90 123 154 201 259 307 363
#     4   9  19  36  62  85 116 165 202 252 308 371
#     4  11  23  38  59  95 126 159 207 256 317 364
#     4  10  20  37  60  89 123 155 206 259 311 368
#     4   9  20  36  56  84 119 155 200 252 305 363
#     4   9  18  35  58  85 112 155 202 244 299 361
#
# _framework density 25.658785000000002
#
# number of rings (size 3 to 8) (size 9 to 14) (size 15 to 20)
#    0.000    2.133    1.333    1.600    0.000    5.867 
#    0.000    0.000    2.933    3.200    0.000    0.000 
#    0.000    0.000    0.000    0.000    0.000    0.000 
#
# Total GULP energy -83583.732607 kJ/mol
# GULP energy per Si atom -5572.248840 kJ/mol
# Density = 2.560038 g / cm^3
# Si number density = 25.658785 Si / 1000 Ang^3
#
#
#
# Elastic Constant Matrix: (Units=GPa)
#
#
# Indices 1 2 3 4 5 6 
#
# 1 177.1116 53.9240 11.7701 -9.0514 -24.8979 33.4287
# 2 53.9240 105.8135 36.9344 -23.7760 -7.7677 22.3087
# 3 11.7701 36.9344 34.9504 9.9139 -12.9162 6.1270
# 4 -9.0514 -23.7760 9.9139 11.7234 10.3708 -11.7050
# 5 -24.8979 -7.7677 -12.9162 10.3708 37.7426 -24.3923
# 6 33.4287 22.3087 6.1270 -11.7050 -24.3923 51.2515
#
#
#
# Elastic Compliance Matrix: (Units=1/GPa)
#
#
# Indices 1 2 3 4 5 6 
#
# 1 0.006628 0.000194 -0.004239 0.007090 -0.000666 -0.002598
# 2 0.000194 -0.002344 0.016760 -0.032497 0.012704 -0.002485
# 3 -0.004239 0.016760 -0.010191 0.055930 -0.017458 0.001153
# 4 0.007090 -0.032497 0.055930 -0.044221 0.035506 0.009633
# 5 -0.000666 0.012704 -0.017458 0.035506 0.023449 0.016261
# 6 -0.002598 -0.002485 0.001153 0.009633 0.016261 0.032089
#
#
# Mechanical properties :
#
#
# Convention : Reuss Voigt Hill
#
# Bulk Modulus (GPa) = 51.21942 58.12582 54.67262
# Shear Modulus (GPa) = -370.06179 34.49330 -167.78425
#
# Velocity S-wave (km/s) = -12.02237 3.67046 -8.09522
# Velocity P-wave (km/s) = 13.14197 6.37696 8.12545
#
# Compressibility (1/GPa) = 0.01952384
#
# Stress axis : x y z
#
# Youngs Moduli (GPa) = 150.87635 -426.67085 -98.13011
#
# Poissons Ratio (x) = 0.08280 -0.41597
# Poissons Ratio (y) = -0.02928 1.64466
# Poissons Ratio (z) = 0.63956 7.15101
#
# Static dielectric constant tensor:
#      x y z
#    x 2.128680 0.079450 -0.068570 
#    y 0.079450 1.977650 0.109280 
#    z -0.068570 0.109280 2.244280 
# 
# From -- ./inp_files/159749.got.cif
#   From: 2010.05.17/outbox.cif.g08.bks.cpg/sg2_80_cif.got.tgz:159749.got - 2010.06.03 11:33:40.
