data_PCOD9080878
_publ_section_title
;
Structure prediction by ZEFSAII (Michael W. Deem and Ramdas Pophale) SiO2 
 PCOD9080878
Probable space group: P -1
;
_chemical_formula_sum "Si O2"
_cell_formula_units_Z 16
_cell_length_a 27.145560
_cell_length_b 12.342504
_cell_length_c 5.356475
_cell_angle_alpha 84.135845
_cell_angle_beta 103.444420
_cell_angle_gamma 151.171058
_cell_volume 821.706786
_symmetry_space_group_name_H-M "P -1"
_symmetry_group_IT_number 2
_symmetry_cell_setting 'triclinic'
loop_
_space_group_symop_operation_xyz
x,y,z
-x,-y,-z
loop_
_atom_site_type_symbol
_atom_site_label
_atom_site_fract_x
_atom_site_fract_y
_atom_site_fract_z
Si Si1 0.625985 0.879483 0.149046
Si Si2 0.432947 0.469522 0.298972
Si Si3 0.234066 0.998270 0.385932
Si Si4 0.383965 0.723508 0.914251
Si Si5 0.330251 0.820376 0.544691
Si Si6 0.795191 0.271404 0.875948
Si Si7 0.437115 0.713752 0.475760
Si Si8 0.005693 0.583689 0.239370
O O1 0.499654 0.618598 0.089185
O O2 0.691064 0.896829 0.320273
O O3 0.644853 0.021848 0.310458
O O4 0.683551 0.025021 0.932732
O O5 0.500000 0.500000 0.500000
O O6 0.311033 0.199447 0.226033
O O7 0.438411 0.589016 0.441060
O O8 0.194084 0.803681 0.296672
O O9 0.125571 0.860157 0.328731
O O10 0.310804 0.683844 0.740725
O O11 0.392721 0.655644 0.710592
O O12 0.370163 0.643145 0.187118
O O13 0.500000 0.000000 0.000000
O O14 0.230223 0.661229 0.291700
O O15 0.439912 0.009302 0.471783
O O16 0.900333 0.460384 0.126249
O O17 0.000000 0.500000 0.500000
O O18 0.000000 0.500000 0.000000
#
# Coordination Sequence:
#
# PCOD9080878 Si02
#       8
#     2   2   2   2   2   2   2   2
#     4   9  17  29  47  74 106 134 174 207 263 312
#     4   9  19  36  49  75 109 145 179 207 252 318
#     4   9  18  34  46  72 104 143 177 211 255 307
#     4  10  20  35  52  74 104 141 174 217 267 312
#     4   9  19  29  48  73 102 132 170 217 266 311
#     4  10  19  29  51  77 102 140 172 220 266 314
#     4  10  21  35  50  75 106 141 177 211 255 318
#     4  10  19  34  52  72 103 137 177 220 261 303
#
# _framework density 19.471667
#
# number of rings (size 3 to 8) (size 9 to 14) (size 15 to 20)
#    0.000    2.500    1.250    2.250    7.000    0.500 
#    4.500    0.000    0.000    0.000    0.000    1.750 
#    0.000    0.000    0.000    0.000    0.000    0.125 
#
# Total GULP energy -89084.667081 kJ/mol
# GULP energy per Si atom -5567.791693 kJ/mol
# Density = 1.942735 g / cm^3
# Si number density = 19.471667 Si / 1000 Ang^3
#
#
#
# Elastic Constant Matrix: (Units=GPa)
#
#
# Indices 1 2 3 4 5 6 
#
# 1 71.1412 28.1612 47.1124 2.5072 19.0599 -4.0051
# 2 28.1612 66.9606 23.2250 2.6997 17.4939 18.5369
# 3 47.1124 23.2250 103.3637 -7.6423 22.7790 7.4617
# 4 2.5072 2.6997 -7.6423 15.7206 1.7575 0.3178
# 5 19.0599 17.4939 22.7790 1.7575 44.4294 3.2112
# 6 -4.0051 18.5369 7.4617 0.3178 3.2112 26.1015
#
#
#
# Elastic Compliance Matrix: (Units=1/GPa)
#
#
# Indices 1 2 3 4 5 6 
#
# 1 0.027883 -0.011185 -0.011378 -0.008093 -0.002552 0.015887
# 2 -0.011185 0.025856 0.001720 -0.000882 -0.004786 -0.019971
# 3 -0.011378 0.001720 0.016695 0.010257 -0.004230 -0.007344
# 4 -0.008093 -0.000882 0.010257 0.070560 -0.003947 -0.003921
# 5 -0.002552 -0.004786 -0.004230 -0.003947 0.027750 0.000851
# 6 0.015887 -0.019971 -0.007344 -0.003921 0.000851 0.056976
#
#
# Mechanical properties :
#
#
# Convention : Reuss Voigt Hill
#
# Bulk Modulus (GPa) = 34.78704 48.71808 41.75256
# Shear Modulus (GPa) = 18.05121 26.78142 22.41632
#
# Velocity S-wave (km/s) = 3.04805 3.71267 3.39666
# Velocity P-wave (km/s) = 5.50379 6.59188 6.07226
#
# Compressibility (1/GPa) = 0.02874634
#
# Stress axis : x y z
#
# Youngs Moduli (GPa) = 35.86461 38.67534 59.89743
#
# Poissons Ratio (x) = 0.43258 0.68154
# Poissons Ratio (y) = 0.40114 -0.10299
# Poissons Ratio (z) = 0.40808 -0.06650
#
# Static dielectric constant tensor:
#      x y z
#    x 1.765040 0.028200 0.023670 
#    y 0.028200 1.713760 -0.004980 
#    z 0.023670 -0.004980 1.768800 
# 
# From -- ./inp_files/96289.got.cif
#   From: 2010.05.17/outbox.cif.g08.bks.cpg/sg2_49_cif.got.tgz:96289.got - 2010.06.03 11:33:40.
