data_PCOD9080977
_publ_section_title
;
Structure prediction by ZEFSAII (Michael W. Deem and Ramdas Pophale) SiO2 
 PCOD9080977
Probable space group: P -1
;
_chemical_formula_sum "Si O2"
_cell_formula_units_Z 16
_cell_length_a 22.442045
_cell_length_b 16.522477
_cell_length_c 19.648869
_cell_angle_alpha 26.657028
_cell_angle_beta 11.696647
_cell_angle_gamma 26.619190
_cell_volume 648.279661
_symmetry_space_group_name_H-M "P -1"
_symmetry_group_IT_number 2
_symmetry_cell_setting 'triclinic'
loop_
_space_group_symop_operation_xyz
x,y,z
-x,-y,-z
loop_
_atom_site_type_symbol
_atom_site_label
_atom_site_fract_x
_atom_site_fract_y
_atom_site_fract_z
Si Si1 0.229611 0.003136 0.541756
Si Si2 0.596052 0.620602 0.450613
Si Si3 0.828906 0.049761 0.085604
Si Si4 0.755373 0.223711 0.543393
Si Si5 0.061717 0.436384 0.745349
Si Si6 0.406847 0.348160 0.294692
Si Si7 0.375089 0.773503 0.998586
Si Si8 0.917013 0.834263 0.634830
O O1 0.417004 0.161075 0.226861
O O2 0.476979 0.812534 0.399180
O O3 0.043102 0.973424 0.840721
O O4 0.948848 0.087106 0.744641
O O5 0.746196 0.438170 0.375791
O O6 0.784556 0.632310 0.301305
O O7 0.284917 0.569620 0.859697
O O8 0.741446 0.273076 0.006751
O O9 0.500000 0.000000 0.500000
O O10 0.000000 0.000000 0.000000
O O11 0.929379 0.191329 0.444095
O O12 0.900422 0.044110 0.471396
O O13 0.420612 0.194153 0.954549
O O14 0.192529 0.331814 0.609982
O O15 0.086396 0.650418 0.546046
O O16 0.442300 0.226217 0.277844
O O17 0.339960 0.564000 0.193200
#
# Coordination Sequence:
#
# PCOD9080977 Si02
#       8
#     2   2   2   2   2   2   2   2
#     4  11  21  36  50  70  95 125 166 199 232 283
#     4  10  19  31  49  75 101 125 152 193 245 290
#     4  11  21  32  50  72  95 119 145 191 245 285
#     4   8  14  25  42  65  98 126 147 178 227 292
#     4  10  19  30  50  74  99 124 154 199 244 287
#     4  10  22  38  52  70  95 127 166 200 238 280
#     4  10  24  37  52  66  91 132 170 203 230 271
#     4   8  14  25  41  67  96 124 150 179 229 288
#
# _framework density 24.680707000000002
#
# number of rings (size 3 to 8) (size 9 to 14) (size 15 to 20)
#    0.000    2.250    0.000    3.750    0.000    8.500 
#    0.000    0.000    0.000    0.000    0.000    1.750 
#    0.000    0.000    0.000    0.000    0.000    0.000 
#
# Total GULP energy -89169.304134 kJ/mol
# GULP energy per Si atom -5573.081508 kJ/mol
# Density = 2.462453 g / cm^3
# Si number density = 24.680707 Si / 1000 Ang^3
#
#
#
# Elastic Constant Matrix: (Units=GPa)
#
#
# Indices 1 2 3 4 5 6 
#
# 1 46.0345 7.9998 28.6952 13.2806 -17.7244 2.3717
# 2 7.9998 157.4566 -3.9134 8.7763 6.2663 5.8289
# 3 28.6952 -3.9134 93.7323 9.3154 -31.1863 -4.4221
# 4 13.2806 8.7763 9.3154 26.2320 -11.2174 -8.3098
# 5 -17.7244 6.2663 -31.1863 -11.2174 30.7798 2.0103
# 6 2.3717 5.8289 -4.4221 -8.3098 2.0103 35.8074
#
#
#
# Elastic Compliance Matrix: (Units=1/GPa)
#
#
# Indices 1 2 3 4 5 6 
#
# 1 0.033154 -0.001287 -0.006317 -0.012245 0.008890 -0.006107
# 2 -0.001287 0.006816 -0.000229 -0.003607 -0.003565 -0.001690
# 3 -0.006317 -0.000229 0.017456 0.004638 0.015602 0.002812
# 4 -0.012245 -0.003607 0.004638 0.055935 0.017857 0.013949
# 5 0.008890 -0.003565 0.015602 0.017857 0.060475 0.002667
# 6 -0.006107 -0.001690 0.002812 0.013949 0.002667 0.032041
#
#
# Mechanical properties :
#
#
# Convention : Reuss Voigt Hill
#
# Bulk Modulus (GPa) = 23.94576 40.30962 32.12769
# Shear Modulus (GPa) = 21.23481 36.19329 28.71405
#
# Velocity S-wave (km/s) = 2.93641 3.83359 3.41460
# Velocity P-wave (km/s) = 4.60651 5.99693 5.34711
#
# Compressibility (1/GPa) = 0.04176104
#
# Stress axis : x y z
#
# Youngs Moduli (GPa) = 30.16237 146.71107 57.28779
#
# Poissons Ratio (x) = 0.18876 0.36189
# Poissons Ratio (y) = 0.03881 0.01310
# Poissons Ratio (z) = 0.19053 0.03356
#
# Static dielectric constant tensor:
#      x y z
#    x 1.983120 -0.019490 0.051050 
#    y -0.019490 2.177760 -0.083010 
#    z 0.051050 -0.083010 1.942900 
# 
# From -- ./inp_files/100366.got.cif
#   From: 2010.05.17/outbox.cif.g08.bks.cpg/sg2_51_cif.got.tgz:100366.got - 2010.06.03 11:33:40.
