data_PCOD9080045
_publ_section_title
;
Structure prediction by ZEFSAII (Michael W. Deem and Ramdas Pophale) SiO2 
 PCOD9080045
Probable space group: P -1
;
_chemical_formula_sum "Si O2"
_cell_formula_units_Z 16
_cell_length_a 30.907011
_cell_length_b 5.594119
_cell_length_c 8.136282
_cell_angle_alpha 89.989142
_cell_angle_beta 146.603521
_cell_angle_gamma 105.756110
_cell_volume 673.656219
_symmetry_space_group_name_H-M "P -1"
_symmetry_group_IT_number 2
_symmetry_cell_setting 'triclinic'
loop_
_space_group_symop_operation_xyz
x,y,z
-x,-y,-z
loop_
_atom_site_type_symbol
_atom_site_label
_atom_site_fract_x
_atom_site_fract_y
_atom_site_fract_z
Si Si1 0.764122 0.396249 0.782151
Si Si2 0.972736 0.709102 0.496978
Si Si3 0.499012 0.498668 0.799724
Si Si4 0.754644 0.882139 0.336268
Si Si5 0.498812 0.998364 0.793488
Si Si6 0.702794 0.804305 0.525511
Si Si7 0.689024 0.283729 0.196686
Si Si8 0.956403 0.184619 0.918513
O O1 0.714428 0.574844 0.661756
O O2 0.763646 0.395591 0.580701
O O3 0.714432 0.068611 0.661761
O O4 0.864038 0.546081 0.169120
O O5 0.000000 0.500000 0.500000
O O6 0.024886 0.787319 0.830874
O O7 0.000000 0.000000 0.500000
O O8 0.458247 0.189957 0.612251
O O9 0.607608 0.661576 0.125217
O O10 0.458247 0.685162 0.612239
O O11 0.500000 0.500000 0.000000
O O12 0.704318 0.059740 0.149113
O O13 0.771068 0.906722 0.588217
O O14 0.704302 0.553633 0.149080
O O15 0.849688 0.024625 0.545304
O O16 0.596039 0.144227 0.008403
O O17 0.500000 0.000000 0.000000
O O18 0.000000 0.500000 0.000000
O O19 0.000000 0.000000 0.000000
#
# Coordination Sequence:
#
# PCOD9080045 Si02
#       8
#     2   2   2   2   2   2   2   2
#     4  10  18  27  46  68  96 125 169 221 262 307
#     4  12  23  40  62  87 109 143 195 244 286 352
#     4  10  16  24  37  61 100 145 174 201 262 336
#     4  10  18  30  49  65  90 133 178 213 257 332
#     4  10  16  23  37  62 100 143 174 201 262 335
#     4  10  16  29  44  72 100 135 176 217 267 325
#     4  10  15  28  44  71  99 133 176 215 266 321
#     4  12  26  43  59  82 116 151 188 242 308 348
#
# _framework density 23.750985
#
# number of rings (size 3 to 8) (size 9 to 14) (size 15 to 20)
#    0.000    1.500    5.000    5.250    0.000    0.000 
#    0.000    0.000    0.000    0.000    0.000    0.000 
#    0.000    0.000    0.000   27.000    0.000    0.000 
#
# Total GULP energy -89153.016768 kJ/mol
# GULP energy per Si atom -5572.063548 kJ/mol
# Density = 2.369693 g / cm^3
# Si number density = 23.750985 Si / 1000 Ang^3
#
#
#
# Elastic Constant Matrix: (Units=GPa)
#
#
# Indices 1 2 3 4 5 6 
#
# 1 71.6340 64.6416 24.5464 5.8710 27.0146 -22.0115
# 2 64.6416 294.6987 33.4302 19.8043 11.1391 -66.8752
# 3 24.5464 33.4302 76.0726 0.5875 7.4836 -3.0640
# 4 5.8710 19.8043 0.5875 -5.6118 10.5013 4.7180
# 5 27.0146 11.1391 7.4836 10.5013 19.6335 3.0133
# 6 -22.0115 -66.8752 -3.0640 4.7180 3.0133 47.7398
#
#
#
# Elastic Compliance Matrix: (Units=1/GPa)
#
#
# Indices 1 2 3 4 5 6 
#
# 1 0.046556 0.000657 -0.008879 -0.024441 -0.052199 0.027527
# 2 0.000657 0.004684 -0.001269 0.007473 -0.008081 0.006554
# 3 -0.008879 -0.001269 0.015540 -0.000976 0.008349 -0.005305
# 4 -0.024441 0.007473 -0.000976 -0.060540 0.061958 0.001208
# 5 -0.052199 -0.008081 0.008349 0.061958 0.098260 -0.047177
# 6 0.027527 0.006554 -0.005305 0.001208 -0.047177 0.045338
#
#
# Mechanical properties :
#
#
# Convention : Reuss Voigt Hill
#
# Bulk Modulus (GPa) = 20.92079 76.40463 48.66271
# Shear Modulus (GPa) = 27.06329 33.67143 30.36736
#
# Velocity S-wave (km/s) = 3.37925 3.76930 3.57959
# Velocity P-wave (km/s) = 4.90441 7.15419 6.13334
#
# Compressibility (1/GPa) = 0.04779935
#
# Stress axis : x y z
#
# Youngs Moduli (GPa) = 21.47949 213.50802 64.34819
#
# Poissons Ratio (x) = -0.14035 0.57132
# Poissons Ratio (y) = -0.01412 0.08167
# Poissons Ratio (z) = 0.19071 0.27097
#
# Static dielectric constant tensor:
#      x y z
#    x 2.277740 0.083220 0.371990 
#    y 0.083220 2.021080 0.122260 
#    z 0.371990 0.122260 2.148030 
# 
# From -- ./inp_files/358230.got.cif
#   From: 2010.05.17/outbox.cif.g08.bks.cpg/sg2_180_cif.got.tgz:358230.got - 2010.06.03 11:33:40.
