data_PCOD9080399
_publ_section_title
;
Structure prediction by ZEFSAII (Michael W. Deem and Ramdas Pophale) SiO2 
 PCOD9080399
Probable space group: P -1
;
_chemical_formula_sum "Si O2"
_cell_formula_units_Z 16
_cell_length_a 15.023794
_cell_length_b 8.244774
_cell_length_c 19.274563
_cell_angle_alpha 50.784036
_cell_angle_beta 21.659315
_cell_angle_gamma 56.362891
_cell_volume 677.970857
_symmetry_space_group_name_H-M "P -1"
_symmetry_group_IT_number 2
_symmetry_cell_setting 'triclinic'
loop_
_space_group_symop_operation_xyz
x,y,z
-x,-y,-z
loop_
_atom_site_type_symbol
_atom_site_label
_atom_site_fract_x
_atom_site_fract_y
_atom_site_fract_z
Si Si1 0.478240 0.340286 0.778220
Si Si2 0.079061 0.707762 0.139583
Si Si3 0.772425 0.814809 0.137400
Si Si4 0.700486 0.256642 0.230206
Si Si5 0.738991 0.747325 0.896687
Si Si6 0.830879 0.063210 0.544866
Si Si7 0.558620 0.764696 0.445460
Si Si8 0.556200 0.260215 0.024197
O O1 0.302616 0.257225 0.865314
O O2 0.457053 0.584766 0.735878
O O3 0.732121 0.275813 0.585775
O O4 0.382829 0.229381 0.947598
O O5 0.194169 0.495052 0.092730
O O6 0.793046 0.684873 0.334947
O O7 0.170600 0.744159 0.143748
O O8 0.174323 0.929787 0.971857
O O9 0.574018 0.729535 0.361606
O O10 0.021869 0.722711 0.998918
O O11 0.672002 0.301494 0.321318
O O12 0.598392 0.017523 0.354967
O O13 0.550393 0.800708 0.958525
O O14 0.996640 0.890397 0.658548
O O15 0.605819 0.880404 0.762660
O O16 0.000000 0.000000 0.500000
O O17 0.500000 0.500000 0.000000
#
# Coordination Sequence:
#
# PCOD9080399 Si02
#       8
#     2   2   2   2   2   2   2   2
#     4  12  23  38  63  93 125 165 203 255 309 367
#     4  10  18  39  63  89 119 170 204 247 311 363
#     4  11  22  37  60  90 127 165 208 251 305 364
#     4  10  22  38  59  92 123 158 218 247 304 369
#     4  10  22  38  67  88 126 164 203 254 309 361
#     4  10  22  41  62  91 123 158 207 252 307 367
#     4  10  21  38  63  85 126 167 202 261 301 360
#     4   9  19  38  65  90 117 158 205 249 305 369
#
# _framework density 23.599834999999999
#
# number of rings (size 3 to 8) (size 9 to 14) (size 15 to 20)
#    0.000    1.750    1.250    4.125    0.000    3.500 
#    0.000    0.000    2.750    8.250    0.000    0.000 
#    0.000    0.000    0.000    0.000    0.000    0.000 
#
# Total GULP energy -89311.324949 kJ/mol
# GULP energy per Si atom -5581.957809 kJ/mol
# Density = 2.354612 g / cm^3
# Si number density = 23.599835 Si / 1000 Ang^3
#
#
#
# Elastic Constant Matrix: (Units=GPa)
#
#
# Indices 1 2 3 4 5 6 
#
# 1 103.7817 18.2934 36.7097 9.2673 13.8323 -3.4242
# 2 18.2934 115.0084 1.5203 -2.2571 -7.1040 -30.4395
# 3 36.7097 1.5203 69.9256 -2.3876 31.7729 1.7940
# 4 9.2673 -2.2571 -2.3876 29.7181 -6.2112 -5.0825
# 5 13.8323 -7.1040 31.7729 -6.2112 47.2599 6.7431
# 6 -3.4242 -30.4395 1.7940 -5.0825 6.7431 34.8237
#
#
#
# Elastic Compliance Matrix: (Units=1/GPa)
#
#
# Indices 1 2 3 4 5 6 
#
# 1 0.012878 -0.002365 -0.006845 -0.004946 -0.000006 -0.001169
# 2 -0.002365 0.012016 0.000234 0.003751 0.001329 0.010548
# 3 -0.006845 0.000234 0.024447 0.001321 -0.014402 0.001253
# 4 -0.004946 0.003751 0.001321 0.037885 0.005065 0.007273
# 5 -0.000006 0.001329 -0.014402 0.005065 0.032222 -0.003597
# 6 -0.001169 0.010548 0.001253 0.007273 -0.003597 0.039515
#
#
# Mechanical properties :
#
#
# Convention : Reuss Voigt Hill
#
# Bulk Modulus (GPa) = 31.86036 44.64029 38.25033
# Shear Modulus (GPa) = 26.68410 37.83984 32.26197
#
# Velocity S-wave (km/s) = 3.36622 4.00858 3.70136
# Velocity P-wave (km/s) = 5.35146 6.35465 5.87451
#
# Compressibility (1/GPa) = 0.03138696
#
# Stress axis : x y z
#
# Youngs Moduli (GPa) = 77.65367 83.22517 40.90560
#
# Poissons Ratio (x) = 0.19680 0.28002
# Poissons Ratio (y) = 0.18362 -0.00956
# Poissons Ratio (z) = 0.53158 -0.01945
#
# Static dielectric constant tensor:
#      x y z
#    x 1.918800 0.021050 0.005610 
#    y 0.021050 1.940190 -0.032080 
#    z 0.005610 -0.032080 1.939490 
# 
# From -- ./inp_files/599730.got.cif
#   From: 2010.05.17/outbox.cif.g08.bks.cpg/sg2_300_cif.got.tgz:599730.got - 2010.06.03 11:33:40.
