data_PCOD9080685
_publ_section_title
;
Structure prediction by ZEFSAII (Michael W. Deem and Ramdas Pophale) SiO2 
 PCOD9080685
Probable space group: P -1
;
_chemical_formula_sum "Si O2"
_cell_formula_units_Z 14
_cell_length_a 12.171738
_cell_length_b 11.624418
_cell_length_c 12.782364
_cell_angle_alpha 33.653967
_cell_angle_beta 34.048071
_cell_angle_gamma 40.657914
_cell_volume 547.140554
_symmetry_space_group_name_H-M "P -1"
_symmetry_group_IT_number 2
_symmetry_cell_setting 'triclinic'
loop_
_space_group_symop_operation_xyz
x,y,z
-x,-y,-z
loop_
_atom_site_type_symbol
_atom_site_label
_atom_site_fract_x
_atom_site_fract_y
_atom_site_fract_z
Si Si1 0.928133 0.178999 0.617652
Si Si2 0.716213 0.424370 0.435610
Si Si3 0.212138 0.041701 0.763989
Si Si4 0.576453 0.856166 0.289374
Si Si5 0.140327 0.320941 0.148665
Si Si6 0.786451 0.220258 0.235578
Si Si7 0.000000 0.500000 0.500000
Si Si8 0.500000 0.000000 0.000000
O O1 0.730228 0.232973 0.655241
O O2 0.920581 0.348673 0.587067
O O3 0.003012 0.945190 0.780734
O O4 0.098348 0.209445 0.375694
O O5 0.500000 0.500000 0.500000
O O6 0.740810 0.632678 0.321265
O O7 0.909515 0.361184 0.257353
O O8 0.352456 0.005477 0.782092
O O9 0.163647 0.282967 0.576391
O O10 0.289623 0.873223 0.739441
O O11 0.000000 0.000000 0.000000
O O12 0.375637 0.796642 0.536339
O O13 0.535994 0.956818 0.132426
O O14 0.196114 0.539908 0.969965
O O15 0.298829 0.191961 0.042648
#
# Coordination Sequence:
#
# PCOD9080685 Si02
#       8
#     2   2   2   2   2   2   1   1
#     4   9  20  45  73 114 156 198 262 325 404 475
#     4  10  23  48  72 106 163 202 263 326 388 482
#     4  11  23  47  77 115 154 203 264 338 409 483
#     4  12  25  49  72 119 157 208 273 327 402 486
#     4  10  24  52  76 116 156 214 266 336 399 482
#     4  11  23  45  84 114 155 204 272 342 409 471
#     4  10  18  40  78 110 148 200 254 336 404 468
#     4  12  28  52  80 108 176 212 274 332 396 484
#
# _framework density 25.587574
#
# number of rings (size 3 to 8) (size 9 to 14) (size 15 to 20)
#    0.857    0.571    2.857    2.143    2.000    0.571 
#   12.857    2.143    0.000    0.000    0.000    0.000 
#    0.000    0.000    0.000    0.000    0.000    0.000 
#
# Total GULP energy -77975.704980 kJ/mol
# GULP energy per Si atom -5569.693213 kJ/mol
# Density = 2.552934 g / cm^3
# Si number density = 25.587574 Si / 1000 Ang^3
#
#
#
# Elastic Constant Matrix: (Units=GPa)
#
#
# Indices 1 2 3 4 5 6 
#
# 1 191.9983 61.6081 24.2486 0.6801 18.8967 5.8293
# 2 61.6081 167.8054 43.0800 12.4056 -4.2456 23.8268
# 3 24.2486 43.0800 109.5900 9.3645 9.7116 4.3665
# 4 0.6801 12.4056 9.3645 47.3357 -5.4229 -4.0633
# 5 18.8967 -4.2456 9.7116 -5.4229 38.2529 0.7854
# 6 5.8293 23.8268 4.3665 -4.0633 0.7854 48.0524
#
#
#
# Elastic Compliance Matrix: (Units=1/GPa)
#
#
# Indices 1 2 3 4 5 6 
#
# 1 0.006330 -0.002457 -0.000183 0.000255 -0.003328 0.000543
# 2 -0.002457 0.008259 -0.002650 -0.001622 0.002650 -0.003737
# 3 -0.000183 -0.002650 0.010625 -0.001742 -0.003154 0.000275
# 4 0.000255 -0.001622 -0.001742 0.022505 0.003270 0.002781
# 5 -0.003328 0.002650 -0.003154 0.003270 0.029361 -0.000827
# 6 0.000543 -0.003737 0.000275 0.002781 -0.000827 0.022821
#
#
# Mechanical properties :
#
#
# Convention : Reuss Voigt Hill
#
# Bulk Modulus (GPa) = 68.33988 80.80746 74.57367
# Shear Modulus (GPa) = 43.34204 49.42533 46.38368
#
# Velocity S-wave (km/s) = 4.12013 4.39978 4.26225
# Velocity P-wave (km/s) = 7.02853 7.58024 7.30959
#
# Compressibility (1/GPa) = 0.01463274
#
# Stress axis : x y z
#
# Youngs Moduli (GPa) = 157.97412 121.07357 94.11992
#
# Poissons Ratio (x) = 0.29750 0.01724
# Poissons Ratio (y) = 0.38817 0.24946
# Poissons Ratio (z) = 0.02894 0.32090
#
# Static dielectric constant tensor:
#      x y z
#    x 1.988470 -0.009780 0.116600 
#    y -0.009780 1.997600 -0.055280 
#    z 0.116600 -0.055280 1.929070 
# 
# From -- ./inp_files/186241.got.cif
#   From: 2010.05.17/outbox.cif.g08.bks.cpg/sg2_94_cif.got.tgz:186241.got - 2010.06.03 11:33:40.
