data_PCOD9080924
_publ_section_title
;
Structure prediction by ZEFSAII (Michael W. Deem and Ramdas Pophale) SiO2 
 PCOD9080924
Probable space group: P -1
;
_chemical_formula_sum "Si O2"
_cell_formula_units_Z 14
_cell_length_a 27.346100
_cell_length_b 27.258911
_cell_length_c 10.619012
_cell_angle_alpha 28.051437
_cell_angle_beta 153.700502
_cell_angle_gamma 169.335494
_cell_volume 648.913384
_symmetry_space_group_name_H-M "P -1"
_symmetry_group_IT_number 2
_symmetry_cell_setting 'triclinic'
loop_
_space_group_symop_operation_xyz
x,y,z
-x,-y,-z
loop_
_atom_site_type_symbol
_atom_site_label
_atom_site_fract_x
_atom_site_fract_y
_atom_site_fract_z
Si Si1 0.236458 0.121417 0.299177
Si Si2 0.061832 0.300559 0.572181
Si Si3 0.197909 0.736765 0.828649
Si Si4 0.084240 0.023956 0.508315
Si Si5 0.716010 0.990201 0.118256
Si Si6 0.143352 0.510358 0.029304
Si Si7 0.501344 0.493366 0.804241
O O1 0.489931 0.412720 0.275863
O O2 0.161008 0.983664 0.554694
O O3 0.201603 0.004775 0.375529
O O4 0.000000 0.000000 0.000000
O O5 0.143028 0.439888 0.318531
O O6 0.945573 0.274921 0.470551
O O7 0.320286 0.452071 0.865243
O O8 0.185107 0.663229 0.834399
O O9 0.000000 0.500000 0.000000
O O10 0.500000 0.000000 0.000000
O O11 0.806018 0.796885 0.295684
O O12 0.192585 0.996620 0.823268
O O13 0.000000 0.000000 0.500000
O O14 0.332470 0.306261 0.378978
O O15 0.865606 0.230050 0.949456
O O16 0.394588 0.712355 0.051627
#
# Coordination Sequence:
#
# PCOD9080924 Si02
#       7
#     2   2   2   2   2   2   2
#     4   8  15  28  44  69 102 131 156 188 234 300
#     4   9  19  33  51  78 114 143 169 206 243 301
#     4  10  19  30  47  72 106 145 174 198 236 288
#     4  11  23  39  55  75  99 129 176 227 265 308
#     4  10  19  32  50  71  97 132 169 205 252 302
#     4  10  19  31  48  75 106 137 168 198 239 301
#     4  10  21  35  54  78 103 139 174 206 262 312
#
# _framework density 21.574527
#
# number of rings (size 3 to 8) (size 9 to 14) (size 15 to 20)
#    0.000    2.286    0.000    4.714    0.000    6.857 
#    0.000   14.286    0.000    0.000    0.000    6.000 
#    0.000    0.000    0.000    0.000    0.000    0.000 
#
# Total GULP energy -77948.740037 kJ/mol
# GULP energy per Si atom -5567.767146 kJ/mol
# Density = 2.152542 g / cm^3
# Si number density = 21.574527 Si / 1000 Ang^3
#
#
#
# Elastic Constant Matrix: (Units=GPa)
#
#
# Indices 1 2 3 4 5 6 
#
# 1 111.4420 18.0705 25.9442 -11.8323 41.9358 2.9783
# 2 18.0705 104.2035 2.5023 -4.2694 3.9744 6.1291
# 3 25.9442 2.5023 40.8299 -5.3973 36.3232 -7.5627
# 4 -11.8323 -4.2694 -5.3973 20.5887 -1.8038 5.1161
# 5 41.9358 3.9744 36.3232 -1.8038 37.2610 -3.7217
# 6 2.9783 6.1291 -7.5627 5.1161 -3.7217 27.3051
#
#
#
# Elastic Compliance Matrix: (Units=1/GPa)
#
#
# Indices 1 2 3 4 5 6 
#
# 1 0.952733 -0.043899 3.344985 1.026649 -4.272921 0.057633
# 2 -0.043899 0.011978 -0.151409 -0.044221 0.193063 -0.005236
# 3 3.344985 -0.151409 11.971456 3.639093-15.219652 0.228570
# 4 1.026649 -0.044221 3.639093 1.163309 -4.636333 0.055963
# 5 -4.272921 0.193063-15.219652 -4.636333 19.399451 -0.279799
# 6 0.057633 -0.005236 0.228570 0.055963 -0.279799 0.046197
#
#
# Mechanical properties :
#
#
# Convention : Reuss Voigt Hill
#
# Bulk Modulus (GPa) = 0.05199 38.83439 19.44319
# Shear Modulus (GPa) = 0.14855 31.02816 15.58836
#
# Velocity S-wave (km/s) = 0.26269 3.79646 2.69092
# Velocity P-wave (km/s) = 0.34082 6.10382 4.32278
#
# Compressibility (1/GPa) = 19.23552185
#
# Stress axis : x y z
#
# Youngs Moduli (GPa) = 1.04961 83.48774 0.08353
#
# Poissons Ratio (x) = 3.66500 -0.27941
# Poissons Ratio (y) = 0.04608 0.01265
# Poissons Ratio (z) = -3.51094 12.64079
#
# Static dielectric constant tensor:
#      x y z
#    x 1.923660 -0.013240 0.064390 
#    y -0.013240 1.842490 -0.025910 
#    z 0.064390 -0.025910 1.815590 
# 
# From -- ./inp_files/477202.got.cif
#   From: 2010.05.17/outbox.cif.g08.bks.cpg/sg2_239_cif.got.tgz:477202.got - 2010.06.03 11:33:40.
