data_PCOD9080903
_publ_section_title
;
Structure prediction by ZEFSAII (Michael W. Deem and Ramdas Pophale) SiO2 
 PCOD9080903
Probable space group: P -1
;
_chemical_formula_sum "Si O2"
_cell_formula_units_Z 16
_cell_length_a 29.008811
_cell_length_b 28.296110
_cell_length_c 17.875416
_cell_angle_alpha 158.081296
_cell_angle_beta 158.456363
_cell_angle_gamma 9.836017
_cell_volume 905.505845
_symmetry_space_group_name_H-M "P -1"
_symmetry_group_IT_number 2
_symmetry_cell_setting 'triclinic'
loop_
_space_group_symop_operation_xyz
x,y,z
-x,-y,-z
loop_
_atom_site_type_symbol
_atom_site_label
_atom_site_fract_x
_atom_site_fract_y
_atom_site_fract_z
Si Si1 0.781339 0.885079 0.714665
Si Si2 0.400029 0.812270 0.502042
Si Si3 0.095921 0.851074 0.097239
Si Si4 0.437884 0.635081 0.030772
Si Si5 0.008703 0.597290 0.219500
Si Si6 0.239955 0.023776 0.409413
Si Si7 0.813827 0.610656 0.655734
Si Si8 0.818090 0.657560 0.565711
O O1 0.796949 0.803702 0.699549
O O2 0.931467 0.653045 0.543602
O O3 0.460421 0.171868 0.624842
O O4 0.944345 0.871369 0.940507
O O5 0.292498 0.779074 0.327747
O O6 0.724118 0.552529 0.608600
O O7 0.303447 0.887180 0.379175
O O8 0.251153 0.073594 0.689808
O O9 0.297364 0.608431 0.981519
O O10 0.832072 0.168396 0.133405
O O11 0.311868 0.879032 0.232386
O O12 0.500000 0.500000 0.000000
O O13 0.040522 0.502263 0.209935
O O14 0.000000 0.500000 0.000000
O O15 0.937961 0.359071 0.451471
O O16 0.483699 0.908989 0.610333
O O17 0.856442 0.646599 0.695700
#
# Coordination Sequence:
#
# PCOD9080903 Si02
#       8
#     2   2   2   2   2   2   2   2
#     4  10  21  33  50  69 101 139 173 206 236 278
#     4  10  21  33  49  70 100 126 161 201 244 308
#     4  12  22  33  46  71 101 138 171 202 244 286
#     4  12  22  29  44  66 104 140 170 193 228 283
#     4  10  21  37  54  74  96 125 160 206 264 317
#     4  10  19  30  43  69  98 131 162 196 232 282
#     4  10  19  31  52  70  94 125 167 207 246 287
#     4  10  19  35  49  71  98 134 177 211 238 271
#
# _framework density 17.669681000000001
#
# number of rings (size 3 to 8) (size 9 to 14) (size 15 to 20)
#    0.000    1.500    1.250    6.000    3.500    0.000 
#    0.000    0.000    0.000    0.000    0.000    1.750 
#    0.000    0.000    0.000    0.000    0.000    0.000 
#
# Total GULP energy -89209.407975 kJ/mol
# GULP energy per Si atom -5575.587998 kJ/mol
# Density = 1.762946 g / cm^3
# Si number density = 17.669681 Si / 1000 Ang^3
#
#
#
# Elastic Constant Matrix: (Units=GPa)
#
#
# Indices 1 2 3 4 5 6 
#
# 1 101.5299 7.1150 41.2912 -3.4121 7.2524 -4.9604
# 2 7.1150 85.3377 -0.3513 2.7823 1.2916 -10.5208
# 3 41.2912 -0.3513 65.2226 6.4445 -2.4834 -3.7823
# 4 -3.4121 2.7823 6.4445 19.3848 -8.7321 1.9126
# 5 7.2524 1.2916 -2.4834 -8.7321 27.6976 -0.9818
# 6 -4.9604 -10.5208 -3.7823 1.9126 -0.9818 22.0511
#
#
#
# Elastic Compliance Matrix: (Units=1/GPa)
#
#
# Indices 1 2 3 4 5 6 
#
# 1 0.014204 -0.001266 -0.009528 0.004405 -0.003110 0.000436
# 2 -0.001266 0.012747 0.001560 -0.003672 -0.001056 0.006336
# 3 -0.009528 0.001560 0.022513 -0.008927 0.001744 0.003315
# 4 0.004405 -0.003672 -0.008927 0.064851 0.018411 -0.007097
# 5 -0.003110 -0.001056 0.001744 0.018411 0.042908 -0.000591
# 6 0.000436 0.006336 0.003315 -0.007097 -0.000591 0.049628
#
#
# Mechanical properties :
#
#
# Convention : Reuss Voigt Hill
#
# Bulk Modulus (GPa) = 32.26117 38.68890 35.47503
# Shear Modulus (GPa) = 21.21786 27.42905 24.32345
#
# Velocity S-wave (km/s) = 3.46902 3.94423 3.71423
# Velocity P-wave (km/s) = 5.86030 6.53343 6.20600
#
# Compressibility (1/GPa) = 0.03099702
#
# Stress axis : x y z
#
# Youngs Moduli (GPa) = 70.40048 78.44996 44.41869
#
# Poissons Ratio (x) = 0.09934 0.42321
# Poissons Ratio (y) = 0.08915 -0.06931
# Poissons Ratio (z) = 0.67076 -0.12241
#
# Static dielectric constant tensor:
#      x y z
#    x 1.648640 0.006910 0.033260 
#    y 0.006910 1.641880 -0.004890 
#    z 0.033260 -0.004890 1.628720 
# 
# From -- ./inp_files/533316.got.cif
#   From: 2010.05.17/outbox.cif.g08.bks.cpg/sg2_267_cif.got.tgz:533316.got - 2010.06.03 11:33:40.
