data_PCOD9080574
_publ_section_title
;
Structure prediction by ZEFSAII (Michael W. Deem and Ramdas Pophale) SiO2 
 PCOD9080574
Probable space group: P -1
;
_chemical_formula_sum "Si O2"
_cell_formula_units_Z 15
_cell_length_a 7.868790
_cell_length_b 14.139191
_cell_length_c 11.212684
_cell_angle_alpha 150.827102
_cell_angle_beta 94.165609
_cell_angle_gamma 90.006311
_cell_volume 601.283928
_symmetry_space_group_name_H-M "P -1"
_symmetry_group_IT_number 2
_symmetry_cell_setting 'triclinic'
loop_
_space_group_symop_operation_xyz
x,y,z
-x,-y,-z
loop_
_atom_site_type_symbol
_atom_site_label
_atom_site_fract_x
_atom_site_fract_y
_atom_site_fract_z
Si Si1 0.296525 0.858335 0.723753
Si Si2 0.825151 0.862641 0.809446
Si Si3 0.947705 0.751232 0.450600
Si Si4 0.310328 0.547311 0.575312
Si Si5 0.595673 0.190311 0.557895
Si Si6 0.736559 0.358856 0.055815
Si Si7 0.744671 0.940594 0.478152
Si Si8 0.500000 0.500000 0.000000
O O1 0.259922 0.676211 0.607365
O O2 0.444366 0.849954 0.625561
O O3 0.136616 0.835250 0.597295
O O4 0.313763 0.041152 0.014043
O O5 0.825805 0.836307 0.638503
O O6 0.818815 0.649813 0.631164
O O7 0.000000 0.000000 0.000000
O O8 0.900580 0.519412 0.210641
O O9 0.904631 0.834335 0.410181
O O10 0.500000 0.500000 0.500000
O O11 0.303877 0.650834 0.816545
O O12 0.679781 0.013811 0.429030
O O13 0.672088 0.408958 0.837392
O O14 0.418197 0.211752 0.649208
O O15 0.756147 0.143041 0.773900
O O16 0.580523 0.440697 0.070172
#
# Coordination Sequence:
#
# PCOD9080574 Si02
#       8
#     2   2   2   2   2   2   2   1
#     4  11  24  41  63  93 132 162 214 260 314 375
#     4   9  22  41  63  91 131 173 204 253 314 387
#     4  10  21  40  63  91 125 168 204 257 312 384
#     4  11  24  38  61  99 130 165 210 266 320 371
#     4  10  22  39  63  91 119 164 211 261 308 378
#     4  10  21  37  64  88 122 165 210 251 317 381
#     4  10  21  39  62  87 118 165 211 255 321 364
#     4  10  18  40  64  84 122 160 206 258 314 364
#
# _framework density 24.946619999999999
#
# number of rings (size 3 to 8) (size 9 to 14) (size 15 to 20)
#    0.000    1.867    1.333    1.600    3.733    8.000 
#    2.400    2.667    0.000    0.000    0.000    0.000 
#    0.000    0.000    0.000    0.000    0.000    0.000 
#
# Total GULP energy -83605.810418 kJ/mol
# GULP energy per Si atom -5573.720695 kJ/mol
# Density = 2.488984 g / cm^3
# Si number density = 24.946620 Si / 1000 Ang^3
#
#
#
# Elastic Constant Matrix: (Units=GPa)
#
#
# Indices 1 2 3 4 5 6 
#
# 1 43.7729 6.1273 -9.0872 5.4607 13.1269 -6.8800
# 2 6.1273 162.7958 23.7722 5.4078 -1.9453 -2.2775
# 3 -9.0872 23.7722 97.4259 -2.3500 8.9392 21.6389
# 4 5.4607 5.4078 -2.3500 39.7898 0.3331 -9.1059
# 5 13.1269 -1.9453 8.9392 0.3331 26.1452 -4.3766
# 6 -6.8800 -2.2775 21.6389 -9.1059 -4.3766 33.0983
#
#
#
# Elastic Compliance Matrix: (Units=1/GPa)
#
#
# Indices 1 2 3 4 5 6 
#
# 1 0.029422 -0.001877 0.004676 -0.003412 -0.016499 -0.000191
# 2 -0.001877 0.006645 -0.002473 -0.000373 0.002609 0.001926
# 3 0.004676 -0.002473 0.014387 -0.001735 -0.009152 -0.010292
# 4 -0.003412 -0.000373 -0.001735 0.027440 0.003333 0.008389
# 5 -0.016499 0.002609 -0.009152 0.003333 0.051565 0.010468
# 6 -0.000191 0.001926 -0.010292 0.008389 0.010468 0.040727
#
#
# Mechanical properties :
#
#
# Convention : Reuss Voigt Hill
#
# Bulk Modulus (GPa) = 19.56642 38.40214 28.98428
# Shear Modulus (GPa) = 26.79982 38.68548 32.74265
#
# Velocity S-wave (km/s) = 3.28119 3.94220 3.62679
# Velocity P-wave (km/s) = 4.71331 6.01236 5.40202
#
# Compressibility (1/GPa) = 0.05110798
#
# Stress axis : x y z
#
# Youngs Moduli (GPa) = 33.98801 150.49210 69.50544
#
# Poissons Ratio (x) = 0.28243 -0.32502
# Poissons Ratio (y) = 0.06379 0.17186
# Poissons Ratio (z) = -0.15893 0.37211
#
# Static dielectric constant tensor:
#      x y z
#    x 2.536400 0.257470 0.783770 
#    y 0.257470 2.140330 0.469560 
#    z 0.783770 0.469560 4.352110 
# 
# From -- ./inp_files/396775.got.cif
#   From: 2010.05.17/outbox.cif.g08.bks.cpg/sg2_199_cif.got.tgz:396775.got - 2010.06.03 11:33:40.
