data_PCOD9080540
_publ_section_title
;
Structure prediction by ZEFSAII (Michael W. Deem and Ramdas Pophale) SiO2 
 PCOD9080540
Probable space group: P -1
;
_chemical_formula_sum "Si O2"
_cell_formula_units_Z 16
_cell_length_a 13.476214
_cell_length_b 8.270877
_cell_length_c 7.613763
_cell_angle_alpha 122.494914
_cell_angle_beta 103.276518
_cell_angle_gamma 57.739840
_cell_volume 603.334754
_symmetry_space_group_name_H-M "P -1"
_symmetry_group_IT_number 2
_symmetry_cell_setting 'triclinic'
loop_
_space_group_symop_operation_xyz
x,y,z
-x,-y,-z
loop_
_atom_site_type_symbol
_atom_site_label
_atom_site_fract_x
_atom_site_fract_y
_atom_site_fract_z
Si Si1 0.295749 0.068807 0.556070
Si Si2 0.624523 0.251365 0.992683
Si Si3 0.065037 0.685991 0.465029
Si Si4 0.653899 0.582000 0.056904
Si Si5 0.870872 0.963252 0.252938
Si Si6 0.370596 0.161502 0.126984
Si Si7 0.881249 0.799102 0.765909
Si Si8 0.462613 0.372157 0.547431
O O1 0.315558 0.277399 0.714128
O O2 0.234721 0.048427 0.697278
O O3 0.215325 0.105656 0.377444
O O4 0.419763 0.841817 0.456549
O O5 0.697003 0.322424 0.932785
O O6 0.675815 0.004841 0.941084
O O7 0.611878 0.428524 0.236403
O O8 0.488566 0.318912 0.941134
O O9 0.117719 0.426314 0.312115
O O10 0.982160 0.801046 0.327720
O O11 0.994708 0.742579 0.656050
O O12 0.147415 0.793074 0.580732
O O13 0.689987 0.644227 0.924592
O O14 0.892076 0.901370 0.018078
O O15 0.500000 0.000000 0.000000
O O16 0.606357 0.733751 0.633374
O O17 0.500000 0.500000 0.500000
#
# Coordination Sequence:
#
# PCOD9080540 Si02
#       8
#     2   2   2   2   2   2   2   2
#     4  11  24  43  58 101 145 156 231 293 319 406
#     4  10  21  39  64  80 111 173 232 273 341 383
#     4   9  20  42  75 102 131 168 225 247 308 444
#     4  10  20  42  58  86 121 164 223 288 328 387
#     4  10  21  43  70  99 137 177 204 265 340 391
#     4  10  18  40  61  82 112 156 231 279 324 396
#     4  10  21  43  68 104 136 172 206 268 334 395
#     4  12  21  42  64  86 120 180 232 278 334 393
#
# _framework density 26.519273999999999
#
# number of rings (size 3 to 8) (size 9 to 14) (size 15 to 20)
#    0.000    1.750    5.000    0.750    0.000    0.500 
#   13.500    0.000    0.000    0.000    0.000    0.000 
#    0.000    0.000    0.000    0.000    0.000    0.000 
#
# Total GULP energy -89455.076810 kJ/mol
# GULP energy per Si atom -5590.942301 kJ/mol
# Density = 2.645891 g / cm^3
# Si number density = 26.519274 Si / 1000 Ang^3
#
#
#
# Elastic Constant Matrix: (Units=GPa)
#
#
# Indices 1 2 3 4 5 6 
#
# 1 101.1383 38.4096 57.3425 8.5385 21.0333 45.1720
# 2 38.4096 140.3266 62.9359 16.7676 25.9370 39.6776
# 3 57.3425 62.9359 210.5830 11.3887 14.4022 21.2299
# 4 8.5385 16.7676 11.3887 48.9060 27.5529 10.7751
# 5 21.0333 25.9370 14.4022 27.5529 41.2148 9.3464
# 6 45.1720 39.6776 21.2299 10.7751 9.3464 55.1147
#
#
#
# Elastic Compliance Matrix: (Units=1/GPa)
#
#
# Indices 1 2 3 4 5 6 
#
# 1 0.020261 0.002039 -0.004128 0.006306 -0.010794 -0.015886
# 2 0.002039 0.010955 -0.002703 0.001887 -0.006486 -0.007786
# 3 -0.004128 -0.002703 0.006341 -0.001589 0.002006 0.002857
# 4 0.006306 0.001887 -0.001589 0.035332 -0.025545 -0.008490
# 5 -0.010794 -0.006486 0.002006 -0.025545 0.048055 0.009588
# 6 -0.015886 -0.007786 0.002857 -0.008490 0.009588 0.035703
#
#
# Mechanical properties :
#
#
# Convention : Reuss Voigt Hill
#
# Bulk Modulus (GPa) = 35.74731 85.49153 60.61942
# Shear Modulus (GPa) = 28.48100 48.60444 38.54272
#
# Velocity S-wave (km/s) = 3.28071 4.28576 3.81646
# Velocity P-wave (km/s) = 5.27823 7.53643 6.50606
#
# Compressibility (1/GPa) = 0.02797413
#
# Stress axis : x y z
#
# Youngs Moduli (GPa) = 49.35532 91.28125 157.69744
#
# Poissons Ratio (x) = -0.18611 0.65095
# Poissons Ratio (y) = -0.10063 0.42623
# Poissons Ratio (z) = 0.20373 0.24672
#
# Static dielectric constant tensor:
#      x y z
#    x 1.917140 -1.574370 -0.038990 
#    y -1.574370 -5.875970 0.534940 
#    z -0.038990 0.534940 2.124850 
# 
# From -- ./inp_files/418208.got.cif
#   From: 2010.05.17/outbox.cif.g08.bks.cpg/sg2_210_cif.got.tgz:418208.got - 2010.06.03 11:33:40.
