data_PCOD9080303
_publ_section_title
;
Structure prediction by ZEFSAII (Michael W. Deem and Ramdas Pophale) SiO2 
 PCOD9080303
Probable space group: P -1
;
_chemical_formula_sum "Si O2"
_cell_formula_units_Z 15
_cell_length_a 15.149187
_cell_length_b 8.861518
_cell_length_c 11.545174
_cell_angle_alpha 66.436116
_cell_angle_beta 148.557288
_cell_angle_gamma 92.725533
_cell_volume 585.010976
_symmetry_space_group_name_H-M "P -1"
_symmetry_group_IT_number 2
_symmetry_cell_setting 'triclinic'
loop_
_space_group_symop_operation_xyz
x,y,z
-x,-y,-z
loop_
_atom_site_type_symbol
_atom_site_label
_atom_site_fract_x
_atom_site_fract_y
_atom_site_fract_z
Si Si1 0.793404 0.824825 0.666111
Si Si2 0.475258 0.762319 0.870143
Si Si3 0.356515 0.627273 0.571247
Si Si4 0.917459 0.396483 0.571058
Si Si5 0.378015 0.652433 0.210831
Si Si6 0.132826 0.479999 0.970042
Si Si7 0.000000 0.000000 0.000000
Si Si8 0.976816 0.083842 0.577211
O O1 0.930151 0.667945 0.760368
O O2 0.576075 0.033785 0.309301
O O3 0.754590 0.708657 0.754427
O O4 0.933355 0.886226 0.864458
O O5 0.491251 0.617228 0.830327
O O6 0.252377 0.849877 0.657710
O O7 0.686942 0.619347 0.226344
O O8 0.123828 0.727886 0.342370
O O9 0.445009 0.417331 0.667990
O O10 0.261151 0.820476 0.320616
O O11 0.073709 0.420338 0.805990
O O12 0.977864 0.275193 0.555639
O O13 0.500000 0.500000 0.500000
O O14 0.267614 0.556655 0.061537
O O15 0.188750 0.891734 0.938660
O O16 0.000000 0.000000 0.500000
#
# Coordination Sequence:
#
# PCOD9080303 Si02
#       8
#     2   2   2   2   2   2   1   2
#     4  10  21  40  67  97 138 172 224 279 330 406
#     4  10  21  41  70  98 126 183 228 269 332 414
#     4  10  21  38  69  96 132 170 231 262 333 405
#     4  11  23  42  74  96 131 183 229 278 334 407
#     4  12  26  42  67 103 137 179 221 284 343 402
#     4  11  24  42  65 103 140 172 225 285 343 388
#     4  10  18  38  70  94 122 184 212 272 320 400
#     4  11  23  45  67 100 136 177 230 284 332 404
#
# _framework density 25.640544999999999
#
# number of rings (size 3 to 8) (size 9 to 14) (size 15 to 20)
#    0.000    1.333    2.667    4.000    5.600    0.533 
#    0.000    8.667    0.000    0.000    0.000    0.000 
#    0.000    0.000    0.000    0.000    0.000    0.000 
#
# Total GULP energy -83641.991018 kJ/mol
# GULP energy per Si atom -5576.132735 kJ/mol
# Density = 2.558219 g / cm^3
# Si number density = 25.640545 Si / 1000 Ang^3
#
#
#
# Elastic Constant Matrix: (Units=GPa)
#
#
# Indices 1 2 3 4 5 6 
#
# 1 64.9875 25.0337 14.1953 -7.3362 -9.8931 -28.1155
# 2 25.0337 100.5328 31.2593 -3.2594 -6.2988 -9.0427
# 3 14.1953 31.2593 110.1336 -26.3095 -16.2369 -27.2281
# 4 -7.3362 -3.2594 -26.3095 49.5650 -1.0914 1.6141
# 5 -9.8931 -6.2988 -16.2369 -1.0914 25.5468 3.6352
# 6 -28.1155 -9.0427 -27.2281 1.6141 3.6352 32.8281
#
#
#
# Elastic Compliance Matrix: (Units=1/GPa)
#
#
# Indices 1 2 3 4 5 6 
#
# 1 0.033245 -0.007316 0.009988 0.008961 0.013127 0.032847
# 2 -0.007316 0.012580 -0.005357 -0.002926 -0.002287 -0.006846
# 3 0.009988 -0.005357 0.018770 0.010676 0.011974 0.020796
# 4 0.008961 -0.002926 0.010676 0.026731 0.008764 0.013438
# 5 0.013127 -0.002287 0.011974 0.008764 0.049567 0.014625
# 6 0.032847 -0.006846 0.020796 0.013438 0.014625 0.071676
#
#
# Mechanical properties :
#
#
# Convention : Reuss Voigt Hill
#
# Bulk Modulus (GPa) = 16.88456 46.29228 31.58842
# Shear Modulus (GPa) = 21.03661 35.26569 28.15115
#
# Velocity S-wave (km/s) = 2.86745 3.71265 3.31708
# Velocity P-wave (km/s) = 4.19075 6.03919 5.19780
#
# Compressibility (1/GPa) = 0.05922572
#
# Stress axis : x y z
#
# Youngs Moduli (GPa) = 30.07991 79.48847 53.27732
#
# Poissons Ratio (x) = 0.58158 -0.53215
# Poissons Ratio (y) = 0.22008 0.28538
# Poissons Ratio (z) = -0.30045 0.42578
#
# Static dielectric constant tensor:
#      x y z
#    x 2.124580 -0.091680 0.255410 
#    y -0.091680 1.969420 0.078940 
#    z 0.255410 0.078940 1.838560 
# 
# From -- ./inp_files/461286.got.cif
#   From: 2010.05.17/outbox.cif.g08.bks.cpg/sg2_231_cif.got.tgz:461286.got - 2010.06.03 11:33:40.
