data_PCOD9080978
_publ_section_title
;
Structure prediction by ZEFSAII (Michael W. Deem and Ramdas Pophale) SiO2 
 PCOD9080978
Probable space group: P -1
;
_chemical_formula_sum "Si O2"
_cell_formula_units_Z 16
_cell_length_a 15.360819
_cell_length_b 6.997898
_cell_length_c 11.887863
_cell_angle_alpha 83.020029
_cell_angle_beta 26.307798
_cell_angle_gamma 82.578186
_cell_volume 561.549627
_symmetry_space_group_name_H-M "P -1"
_symmetry_group_IT_number 2
_symmetry_cell_setting 'triclinic'
loop_
_space_group_symop_operation_xyz
x,y,z
-x,-y,-z
loop_
_atom_site_type_symbol
_atom_site_label
_atom_site_fract_x
_atom_site_fract_y
_atom_site_fract_z
Si Si1 0.761565 0.731961 0.966004
Si Si2 0.883279 0.700823 0.596662
Si Si3 0.312328 0.766429 0.419990
Si Si4 0.598684 0.813953 0.635917
Si Si5 0.644524 0.768950 0.329441
Si Si6 0.004933 0.333050 0.762461
Si Si7 0.790833 0.346516 0.224759
Si Si8 0.449326 0.783033 0.034333
O O1 0.858533 0.814246 0.735147
O O2 0.875621 0.528847 0.875246
O O3 0.536330 0.689763 0.195304
O O4 0.739808 0.852020 0.098881
O O5 0.655897 0.667297 0.828827
O O6 0.000000 0.500000 0.500000
O O7 0.982354 0.777983 0.363386
O O8 0.169033 0.708577 0.689505
O O9 0.320836 0.993943 0.417673
O O10 0.287448 0.732743 0.318173
O O11 0.594508 0.854062 0.504582
O O12 0.422938 0.773620 0.930423
O O13 0.765869 0.646040 0.473439
O O14 0.779670 0.577123 0.212477
O O15 0.430997 0.708153 0.541342
O O16 0.917654 0.249896 0.984406
O O17 0.500000 0.000000 0.000000
#
# Coordination Sequence:
#
# PCOD9080978 Si02
#       8
#     2   2   2   2   2   2   2   2
#     4   8  15  27  45  66  90 122 156 189 221 269
#     4   8  13  24  43  66  86 113 157 193 216 262
#     4   9  17  31  50  70  93 125 160 191 229 281
#     4  10  19  30  50  75  94 117 159 204 230 265
#     4   9  18  32  48  69  96 127 158 189 231 280
#     4   9  17  29  47  71  95 121 153 195 239 275
#     4   9  18  31  47  67  98 131 152 183 238 289
#     4   8  15  28  45  68  93 118 151 194 235 268
#
# _framework density 28.492585999999999
#
# number of rings (size 3 to 8) (size 9 to 14) (size 15 to 20)
#    0.000    3.250    0.000    0.750    0.000    4.500 
#    0.000    0.625    0.000    3.000    0.000   30.625 
#    0.000    0.000    0.000    0.000    0.000    0.000 
#
# Total GULP energy -89299.408955 kJ/mol
# GULP energy per Si atom -5581.213060 kJ/mol
# Density = 2.842774 g / cm^3
# Si number density = 28.492586 Si / 1000 Ang^3
#
#
#
# Elastic Constant Matrix: (Units=GPa)
#
#
# Indices 1 2 3 4 5 6 
#
# 1 129.7503 28.3725 116.2182 -3.5745 51.3050 -9.3732
# 2 28.3725 49.5456 36.2189 1.3482 20.6551 0.8226
# 3 116.2182 36.2189 246.1932 -20.8990 101.8591 -13.7677
# 4 -3.5745 1.3482 -20.8990 40.3366 -18.2959 10.3354
# 5 51.3050 20.6551 101.8591 -18.2959 122.0747 -4.2060
# 6 -9.3732 0.8226 -13.7677 10.3354 -4.2060 21.1199
#
#
#
# Elastic Compliance Matrix: (Units=1/GPa)
#
#
# Indices 1 2 3 4 5 6 
#
# 1 0.014323 -0.003501 -0.005966 -0.003068 -0.000773 0.003951
# 2 -0.003501 0.024112 -0.001496 -0.001953 -0.001752 -0.002861
# 3 -0.005966 -0.001496 0.009264 0.001793 -0.004644 0.001647
# 4 -0.003068 -0.001953 0.001793 0.031183 0.004297 -0.014521
# 5 -0.000773 -0.001752 -0.004644 0.004297 0.013236 -0.002769
# 6 0.003951 -0.002861 0.001647 -0.014521 -0.002769 0.056843
#
#
# Mechanical properties :
#
#
# Convention : Reuss Voigt Hill
#
# Bulk Modulus (GPa) = 38.79837 87.45648 63.12742
# Shear Modulus (GPa) = 27.85855 53.01820 40.43838
#
# Velocity S-wave (km/s) = 3.13029 4.31835 3.77139
# Velocity P-wave (km/s) = 5.16832 7.45823 6.41626
#
# Compressibility (1/GPa) = 0.02577428
#
# Stress axis : x y z
#
# Youngs Moduli (GPa) = 69.81835 41.47229 107.94664
#
# Poissons Ratio (x) = 0.14518 0.64400
# Poissons Ratio (y) = 0.24442 0.16146
# Poissons Ratio (z) = 0.41653 0.06203
#
# Static dielectric constant tensor:
#      x y z
#    x 2.293040 0.003460 0.043670 
#    y 0.003460 2.245530 -0.051510 
#    z 0.043670 -0.051510 2.216750 
# 
# From -- ./inp_files/188397.got.cif
#   From: 2010.05.17/outbox.cif.g08.bks.cpg/sg2_95_cif.got.tgz:188397.got - 2010.06.03 11:33:40.
