data_PCOD9080571
_publ_section_title
;
Structure prediction by ZEFSAII (Michael W. Deem and Ramdas Pophale) SiO2 
 PCOD9080571
Probable space group: P -1
;
_chemical_formula_sum "Si O2"
_cell_formula_units_Z 16
_cell_length_a 22.993150
_cell_length_b 10.437234
_cell_length_c 20.783210
_cell_angle_alpha 152.868652
_cell_angle_beta 161.357005
_cell_angle_gamma 23.956390
_cell_volume 636.175597
_symmetry_space_group_name_H-M "P -1"
_symmetry_group_IT_number 2
_symmetry_cell_setting 'triclinic'
loop_
_space_group_symop_operation_xyz
x,y,z
-x,-y,-z
loop_
_atom_site_type_symbol
_atom_site_label
_atom_site_fract_x
_atom_site_fract_y
_atom_site_fract_z
Si Si1 0.874735 0.272636 0.889502
Si Si2 0.596585 0.665128 0.029599
Si Si3 0.401067 0.541806 0.511678
Si Si4 0.848836 0.781460 0.736517
Si Si5 0.761749 0.928684 0.916589
Si Si6 0.682968 0.178220 0.081742
Si Si7 0.080151 0.218504 0.509734
Si Si8 0.470047 0.423085 0.680208
O O1 0.633591 0.461114 0.702479
O O2 0.019241 0.214622 0.954108
O O3 0.903538 0.942865 0.806497
O O4 0.960064 0.403101 0.096439
O O5 0.422364 0.888695 0.997912
O O6 0.522353 0.668796 0.881414
O O7 0.790559 0.716122 0.271076
O O8 0.648668 0.300247 0.940847
O O9 0.397142 0.526374 0.577872
O O10 0.351948 0.270448 0.312654
O O11 0.225600 0.903958 0.479014
O O12 0.718510 0.610250 0.500815
O O13 0.677794 0.079541 0.734311
O O14 0.769011 0.933057 0.003135
O O15 0.879274 0.214086 0.324879
O O16 0.500000 0.500000 0.000000
O O17 0.000000 0.500000 0.500000
#
# Coordination Sequence:
#
# PCOD9080571 Si02
#       8
#     2   2   2   2   2   2   2   2
#     4  10  19  35  63 107 141 176 218 278 353 399
#     4  11  23  43  74  97 139 190 225 279 343 427
#     4  11  26  41  70 106 143 174 226 302 347 408
#     4   9  17  33  64 102 147 180 215 276 343 427
#     4  11  21  42  69 104 135 178 232 290 339 403
#     4  10  24  46  70  94 132 185 241 281 335 411
#     4  12  26  50  68  94 138 188 241 284 348 418
#     4  10  18  40  64 105 147 175 225 275 353 413
#
# _framework density 25.150289000000001
#
# number of rings (size 3 to 8) (size 9 to 14) (size 15 to 20)
#    0.000    1.500    5.000    1.500    0.000    6.000 
#    0.000    1.875    0.000    0.000    0.000    0.000 
#    0.000    0.125    0.000    0.000    0.000    0.000 
#
# Total GULP energy -89610.959762 kJ/mol
# GULP energy per Si atom -5600.684985 kJ/mol
# Density = 2.509305 g / cm^3
# Si number density = 25.150289 Si / 1000 Ang^3
#
#
#
# Elastic Constant Matrix: (Units=GPa)
#
#
# Indices 1 2 3 4 5 6 
#
# 1 92.7582 13.4774 56.3533 8.8931 4.9607 -20.1554
# 2 13.4774 111.2483 51.1331 -0.5416 5.7751 -8.1065
# 3 56.3533 51.1331 227.1329 29.9573 19.0798 -16.3525
# 4 8.8931 -0.5416 29.9573 47.6223 -13.7077 -1.5654
# 5 4.9607 5.7751 19.0798 -13.7077 45.8883 3.1886
# 6 -20.1554 -8.1065 -16.3525 -1.5654 3.1886 19.6773
#
#
#
# Elastic Compliance Matrix: (Units=1/GPa)
#
#
# Indices 1 2 3 4 5 6 
#
# 1 0.015639 0.000437 -0.002589 -0.001418 -0.002084 0.014272
# 2 0.000437 0.010268 -0.002434 0.001650 -0.000028 0.002790
# 3 -0.002589 -0.002434 0.006693 -0.004769 -0.003770 0.002139
# 4 -0.001418 0.001650 -0.004769 0.027114 0.010323 -0.004252
# 5 -0.002084 -0.000028 -0.003770 0.010323 0.027289 -0.008880
# 6 0.014272 0.002790 0.002139 -0.004252 -0.008880 0.069466
#
#
# Mechanical properties :
#
#
# Convention : Reuss Voigt Hill
#
# Bulk Modulus (GPa) = 42.68725 74.78522 58.73624
# Shear Modulus (GPa) = 28.82678 43.31596 36.07137
#
# Velocity S-wave (km/s) = 3.38920 4.15454 3.79124
# Velocity P-wave (km/s) = 5.68553 7.26729 6.52452
#
# Compressibility (1/GPa) = 0.02342620
#
# Stress axis : x y z
#
# Youngs Moduli (GPa) = 63.94451 97.39319 149.41728
#
# Poissons Ratio (x) = -0.04252 0.38680
# Poissons Ratio (y) = -0.02792 0.36371
# Poissons Ratio (z) = 0.16553 0.23708
#
# Static dielectric constant tensor:
#      x y z
#    x 1.800100 0.299990 -0.418710 
#    y 0.299990 1.698070 0.526760 
#    z -0.418710 0.526760 1.190700 
# 
# From -- ./inp_files/602040.got.cif
#   From: 2010.05.17/outbox.cif.g08.bks.cpg/sg2_302_cif.got.tgz:602040.got - 2010.06.03 11:33:40.
