data_PCOD9080394
_publ_section_title
;
Structure prediction by ZEFSAII (Michael W. Deem and Ramdas Pophale) SiO2 
 PCOD9080394
Probable space group: P -1
;
_chemical_formula_sum "Si O2"
_cell_formula_units_Z 14
_cell_length_a 9.505174
_cell_length_b 11.174235
_cell_length_c 18.219106
_cell_angle_alpha 50.672083
_cell_angle_beta 144.696222
_cell_angle_gamma 104.361882
_cell_volume 690.670431
_symmetry_space_group_name_H-M "P -1"
_symmetry_group_IT_number 2
_symmetry_cell_setting 'triclinic'
loop_
_space_group_symop_operation_xyz
x,y,z
-x,-y,-z
loop_
_atom_site_type_symbol
_atom_site_label
_atom_site_fract_x
_atom_site_fract_y
_atom_site_fract_z
Si Si1 0.685016 0.545724 0.009552
Si Si2 0.214350 0.776012 0.429823
Si Si3 0.679827 0.993373 0.315313
Si Si4 0.430385 0.944665 0.914129
Si Si5 0.319086 0.649249 0.676470
Si Si6 0.992394 0.550338 0.347303
Si Si7 0.326224 0.270561 0.470498
O O1 0.031359 0.397977 0.242244
O O2 0.500000 0.500000 0.000000
O O3 0.523698 0.775297 0.857572
O O4 0.603386 0.527951 0.898692
O O5 0.407588 0.678556 0.623507
O O6 0.386339 0.789313 0.431361
O O7 0.105227 0.646177 0.409020
O O8 0.912037 0.983410 0.246396
O O9 0.580669 0.960825 0.205003
O O10 0.633040 0.907983 0.400916
O O11 0.048615 0.860242 0.514155
O O12 0.701602 0.720324 0.111423
O O13 0.500000 0.000000 0.000000
O O14 0.142225 0.552102 0.632571
O O15 0.252487 0.408615 0.454923
#
# Coordination Sequence:
#
# PCOD9080394 Si02
#       7
#     2   2   2   2   2   2   2
#     4  12  21  39  65  88 117 159 213 241 287 372
#     4  10  22  38  57  91 130 149 197 258 306 343
#     4  10  20  38  62  88 118 157 208 238 297 361
#     4   9  18  36  61  85 119 157 200 245 285 360
#     4  10  21  36  64  88 113 166 202 248 293 352
#     4  10  18  39  63  87 117 163 205 239 292 369
#     4  11  23  38  62  93 121 159 193 254 307 346
#
# _framework density 20.270161000000002
#
# number of rings (size 3 to 8) (size 9 to 14) (size 15 to 20)
#    0.000    1.714    4.286    1.286    0.000    1.714 
#    2.571    3.571    0.000    0.000    0.000    0.000 
#    0.000    0.000    0.000    0.000    0.000    0.000 
#
# Total GULP energy -77952.986472 kJ/mol
# GULP energy per Si atom -5568.070462 kJ/mol
# Density = 2.022403 g / cm^3
# Si number density = 20.270161 Si / 1000 Ang^3
#
#
#
# Elastic Constant Matrix: (Units=GPa)
#
#
# Indices 1 2 3 4 5 6 
#
# 1 123.8081 23.6693 33.0093 -3.6790 -22.5739 -7.0462
# 2 23.6693 47.3439 25.0843 -0.4766 -15.2525 7.2857
# 3 33.0093 25.0843 98.2792 -4.5000 -34.1939 5.6416
# 4 -3.6790 -0.4766 -4.5000 31.6869 -4.8582 -12.2912
# 5 -22.5739 -15.2525 -34.1939 -4.8582 35.1757 5.0407
# 6 -7.0462 7.2857 5.6416 -12.2912 5.0407 10.6400
#
#
#
# Elastic Compliance Matrix: (Units=1/GPa)
#
#
# Indices 1 2 3 4 5 6 
#
# 1 0.013300 -0.011315 -0.004552 0.014883 -0.004208 0.038155
# 2 -0.011315 0.045958 0.004771 -0.030487 0.025841 -0.088953
# 3 -0.004552 0.004771 0.020348 -0.008869 0.023191 -0.038302
# 4 0.014883 -0.030487 -0.008869 0.083265 -0.021082 0.141608
# 5 -0.004208 0.025841 0.023191 -0.021082 0.069468 -0.090042
# 6 0.038155 -0.088953 -0.038302 0.141608 -0.090042 0.406711
#
#
# Mechanical properties :
#
#
# Convention : Reuss Voigt Hill
#
# Bulk Modulus (GPa) = 17.41736 48.10632 32.76184
# Shear Modulus (GPa) = 7.34883 28.01175 17.68029
#
# Velocity S-wave (km/s) = 1.90613 3.72145 2.95656
# Velocity P-wave (km/s) = 3.66820 6.49998 5.27757
#
# Compressibility (1/GPa) = 0.05741399
#
# Stress axis : x y z
#
# Youngs Moduli (GPa) = 75.18600 21.75909 49.14577
#
# Poissons Ratio (x) = 0.24621 0.22372
# Poissons Ratio (y) = 0.85074 -0.23449
# Poissons Ratio (z) = 0.34226 -0.10382
#
# Static dielectric constant tensor:
#      x y z
#    x 1.681050 -0.030150 -0.019920 
#    y -0.030150 1.813970 -0.001190 
#    z -0.019920 -0.001190 1.754090 
# 
# From -- ./inp_files/282266.got.cif
#   From: 2010.05.17/outbox.cif.g08.bks.cpg/sg2_142_cif.got.tgz:282266.got - 2010.06.03 11:33:40.
