data_PCOD9080967
_publ_section_title
;
Structure prediction by ZEFSAII (Michael W. Deem and Ramdas Pophale) SiO2 
 PCOD9080967
Probable space group: P -1
;
_chemical_formula_sum "Si O2"
_cell_formula_units_Z 14
_cell_length_a 8.223005
_cell_length_b 14.574850
_cell_length_c 14.490745
_cell_angle_alpha 38.343779
_cell_angle_beta 40.528723
_cell_angle_gamma 65.628480
_cell_volume 623.416905
_symmetry_space_group_name_H-M "P -1"
_symmetry_group_IT_number 2
_symmetry_cell_setting 'triclinic'
loop_
_space_group_symop_operation_xyz
x,y,z
-x,-y,-z
loop_
_atom_site_type_symbol
_atom_site_label
_atom_site_fract_x
_atom_site_fract_y
_atom_site_fract_z
Si Si1 0.173708 0.414651 0.239447
Si Si2 0.399341 0.008071 0.277444
Si Si3 0.733525 0.832723 0.279377
Si Si4 0.976670 0.325006 0.827051
Si Si5 0.698328 0.835328 0.513599
Si Si6 0.961813 0.383997 0.984538
Si Si7 0.979048 0.859833 0.746963
O O1 0.102739 0.522546 0.260561
O O2 0.134981 0.246145 0.435929
O O3 0.500000 0.500000 0.000000
O O4 0.019677 0.440689 0.194172
O O5 0.484689 0.867515 0.318139
O O6 0.176104 0.926065 0.520205
O O7 0.276299 0.096593 0.191726
O O8 0.683020 0.159310 0.074180
O O9 0.715727 0.824830 0.404159
O O10 0.793589 0.685897 0.329865
O O11 0.000000 0.000000 0.000000
O O12 0.071333 0.332454 0.885890
O O13 0.370863 0.731170 0.763879
O O14 0.832305 0.022870 0.344139
O O15 0.104778 0.332730 0.045584
#
# Coordination Sequence:
#
# PCOD9080967 Si02
#       7
#     2   2   2   2   2   2   2
#     4   8  17  31  56  75  95 129 177 211 233 294
#     4  10  19  30  49  79 108 124 167 214 253 290
#     4  10  20  32  50  78 105 131 164 213 249 296
#     4   9  18  35  51  73 105 128 169 208 249 293
#     4  11  18  32  56  75  99 133 175 203 248 299
#     4   9  17  32  53  75  96 133 174 201 243 294
#     4  11  18  29  54  79  99 132 167 213 250 290
#
# _framework density 22.456883999999999
#
# number of rings (size 3 to 8) (size 9 to 14) (size 15 to 20)
#    0.857    1.429    2.857    2.143    0.000    0.571 
#    0.000    6.429    3.143    4.286    0.000    0.000 
#    0.000    0.000    0.000    0.000    0.000    0.000 
#
# Total GULP energy -77938.894083 kJ/mol
# GULP energy per Si atom -5567.063863 kJ/mol
# Density = 2.240577 g / cm^3
# Si number density = 22.456884 Si / 1000 Ang^3
#
#
#
# Elastic Constant Matrix: (Units=GPa)
#
#
# Indices 1 2 3 4 5 6 
#
# 1 71.2775 39.9162 22.9790 -2.2763 22.0923 -34.2478
# 2 39.9162 136.9091 28.0070 12.5297 9.0952 -34.7110
# 3 22.9790 28.0070 49.5487 -3.0203 16.4883 -12.9698
# 4 -2.2763 12.5297 -3.0203 42.5448 -5.1685 13.3347
# 5 22.0923 9.0952 16.4883 -5.1685 30.9070 -7.4740
# 6 -34.2478 -34.7110 -12.9698 13.3347 -7.4740 49.2647
#
#
#
# Elastic Compliance Matrix: (Units=1/GPa)
#
#
# Indices 1 2 3 4 5 6 
#
# 1 0.028793 -0.001989 -0.003082 -0.005236 -0.015135 0.016925
# 2 -0.001989 0.010935 -0.004176 -0.005654 0.001162 0.006930
# 3 -0.003082 -0.004176 0.027790 0.001659 -0.011092 0.000100
# 4 -0.005236 -0.005654 0.001659 0.030279 0.006088 -0.014459
# 5 -0.015135 0.001162 -0.011092 0.006088 0.048080 -0.006977
# 6 0.016925 0.006930 0.000100 -0.014459 -0.006977 0.039828
#
#
# Mechanical properties :
#
#
# Convention : Reuss Voigt Hill
#
# Bulk Modulus (GPa) = 20.39754 48.83774 34.61764
# Shear Modulus (GPa) = 22.67159 35.66551 29.16855
#
# Velocity S-wave (km/s) = 3.18081 3.98952 3.60789
# Velocity P-wave (km/s) = 4.75318 6.55867 5.72752
#
# Compressibility (1/GPa) = 0.04902552
#
# Stress axis : x y z
#
# Youngs Moduli (GPa) = 34.73108 91.44607 35.98379
#
# Poissons Ratio (x) = 0.18185 0.11089
# Poissons Ratio (y) = 0.06906 0.15028
# Poissons Ratio (z) = 0.10703 0.38190
#
# Static dielectric constant tensor:
#      x y z
#    x 1.894170 0.001180 -0.011920 
#    y 0.001180 1.923370 -0.028640 
#    z -0.011920 -0.028640 1.784040 
# 
# From -- ./inp_files/171566.got.cif
#   From: 2010.05.17/outbox.cif.g08.bks.cpg/sg2_86_cif.got.tgz:171566.got - 2010.06.03 11:33:40.
