data_PCOD9080339
_publ_section_title
;
Structure prediction by ZEFSAII (Michael W. Deem and Ramdas Pophale) SiO2 
 PCOD9080339
Probable space group: P -1
;
_chemical_formula_sum "Si O2"
_cell_formula_units_Z 14
_cell_length_a 8.465615
_cell_length_b 15.583960
_cell_length_c 19.302815
_cell_angle_alpha 23.628489
_cell_angle_beta 59.319630
_cell_angle_gamma 47.981321
_cell_volume 711.474243
_symmetry_space_group_name_H-M "P -1"
_symmetry_group_IT_number 2
_symmetry_cell_setting 'triclinic'
loop_
_space_group_symop_operation_xyz
x,y,z
-x,-y,-z
loop_
_atom_site_type_symbol
_atom_site_label
_atom_site_fract_x
_atom_site_fract_y
_atom_site_fract_z
Si Si1 0.778208 0.492524 0.133283
Si Si2 0.647506 0.194026 0.680495
Si Si3 0.506339 0.892812 0.002709
Si Si4 0.747850 0.644278 0.533492
Si Si5 0.751850 0.924657 0.719570
Si Si6 0.976283 0.166813 0.728508
Si Si7 0.293073 0.696957 0.110510
O O1 0.738980 0.624902 0.120433
O O2 0.553205 0.501696 0.170187
O O3 0.021311 0.223215 0.266980
O O4 0.753677 0.697357 0.929440
O O5 0.500000 0.500000 0.500000
O O6 0.840476 0.083480 0.776867
O O7 0.751532 0.100196 0.650999
O O8 0.484639 0.103506 0.798142
O O9 0.322954 0.836826 0.067090
O O10 0.500000 0.000000 0.000000
O O11 0.817009 0.437765 0.607518
O O12 0.795035 0.469483 0.720056
O O13 0.887740 0.765719 0.402626
O O14 0.482017 0.880700 0.412261
O O15 0.145781 0.926873 0.918839
#
# Coordination Sequence:
#
# PCOD9080339 Si02
#       7
#     2   2   2   2   2   2   2
#     4   8  19  35  63  82 118 153 201 241 286 354
#     4  11  21  35  59  86 116 152 196 249 292 341
#     4   9  19  36  57  86 115 144 192 250 287 338
#     4  11  21  34  62  82 119 157 196 243 291 360
#     4  10  18  39  59  86 115 158 203 239 289 349
#     4  11  22  37  54  90 121 155 194 242 303 349
#     4  10  21  39  57  90 115 157 196 240 299 352
#
# _framework density 19.677451000000001
#
# number of rings (size 3 to 8) (size 9 to 14) (size 15 to 20)
#    0.857    1.143    2.857    1.286    2.000    0.571 
#    0.000    0.714    0.000    0.857    0.000    0.000 
#    0.000    0.000    0.000    0.000    0.000    0.000 
#
# Total GULP energy -77994.028312 kJ/mol
# GULP energy per Si atom -5571.002022 kJ/mol
# Density = 1.963266 g / cm^3
# Si number density = 19.677451 Si / 1000 Ang^3
#
#
#
# Elastic Constant Matrix: (Units=GPa)
#
#
# Indices 1 2 3 4 5 6 
#
# 1 37.1876 6.2020 22.9907 10.1484 0.1242 -7.1405
# 2 6.2020 107.1240 38.2696 -9.2660 1.4903 -12.4468
# 3 22.9907 38.2696 88.5440 3.3968 -4.8198 -18.5492
# 4 10.1484 -9.2660 3.3968 28.9826 -7.0995 2.0943
# 5 0.1242 1.4903 -4.8198 -7.0995 21.3726 0.2754
# 6 -7.1405 -12.4468 -18.5492 2.0943 0.2754 27.6945
#
#
#
# Elastic Compliance Matrix: (Units=1/GPa)
#
#
# Indices 1 2 3 4 5 6 
#
# 1 0.036862 0.000400 -0.008519 -0.013819 -0.006819 0.005091
# 2 0.000400 0.011625 -0.004952 0.003869 -0.000667 0.001725
# 3 -0.008519 -0.004952 0.017385 -0.000134 0.004178 0.007191
# 4 -0.013819 0.003869 -0.000134 0.044578 0.014658 -0.005431
# 5 -0.006819 -0.000667 0.004178 0.014658 0.052698 -0.000892
# 6 0.005091 0.001725 0.007191 -0.005431 -0.000892 0.043432
#
#
# Mechanical properties :
#
#
# Convention : Reuss Voigt Hill
#
# Bulk Modulus (GPa) = 25.16886 40.86447 33.01666
# Shear Modulus (GPa) = 20.32811 26.63617 23.48214
#
# Velocity S-wave (km/s) = 3.21762 3.68317 3.45824
# Velocity P-wave (km/s) = 5.15971 6.23698 5.72375
#
# Compressibility (1/GPa) = 0.03973164
#
# Stress axis : x y z
#
# Youngs Moduli (GPa) = 27.12804 86.02022 57.52108
#
# Poissons Ratio (x) = -0.03443 0.49002
# Poissons Ratio (y) = -0.01086 0.28483
# Poissons Ratio (z) = 0.23110 0.42594
#
# Static dielectric constant tensor:
#      x y z
#    x 1.693320 -0.014770 -0.003190 
#    y -0.014770 1.732330 0.019810 
#    z -0.003190 0.019810 1.728980 
# 
# From -- ./inp_files/590878.got.cif
#   From: 2010.05.17/outbox.cif.g08.bks.cpg/sg2_296_cif.got.tgz:590878.got - 2010.06.03 11:33:40.
