data_PCOD9080554
_publ_section_title
;
Structure prediction by ZEFSAII (Michael W. Deem and Ramdas Pophale) SiO2 
 PCOD9080554
Probable space group: P -1
;
_chemical_formula_sum "Si O2"
_cell_formula_units_Z 16
_cell_length_a 26.263400
_cell_length_b 8.412105
_cell_length_c 21.861410
_cell_angle_alpha 130.127723
_cell_angle_beta 165.810289
_cell_angle_gamma 46.663395
_cell_volume 855.224298
_symmetry_space_group_name_H-M "P -1"
_symmetry_group_IT_number 2
_symmetry_cell_setting 'triclinic'
loop_
_space_group_symop_operation_xyz
x,y,z
-x,-y,-z
loop_
_atom_site_type_symbol
_atom_site_label
_atom_site_fract_x
_atom_site_fract_y
_atom_site_fract_z
Si Si1 0.478339 0.833458 0.340918
Si Si2 0.338291 0.183863 0.932299
Si Si3 0.855940 0.394053 0.124112
Si Si4 0.866322 0.447383 0.428458
Si Si5 0.069659 0.233499 0.206105
Si Si6 0.652669 0.702701 0.641411
Si Si7 0.492202 0.306373 0.016734
Si Si8 0.110615 0.731976 0.127623
O O1 0.703528 0.731956 0.541228
O O2 0.504336 0.737507 0.416743
O O3 0.440903 0.091384 0.371219
O O4 0.277232 0.774344 0.063548
O O5 0.307382 0.355315 0.994139
O O6 0.467052 0.255880 0.045478
O O7 0.086371 0.235849 0.627614
O O8 0.448202 0.926725 0.007251
O O9 0.037719 0.377996 0.383982
O O10 0.964948 0.359049 0.176121
O O11 0.736510 0.532038 0.236083
O O12 0.687147 0.400887 0.252439
O O13 0.120875 0.972840 0.212233
O O14 0.911120 0.291818 0.976573
O O15 0.702560 0.470622 0.674894
O O16 0.881785 0.723462 0.887913
#
# Coordination Sequence:
#
# PCOD9080554 Si02
#       8
#     2   2   2   2   2   2   2   2
#     4  10  20  36  54  76 111 146 183 228 280 325
#     4   9  21  35  62  82 114 145 179 230 279 326
#     4  10  22  36  52  81 120 140 173 236 285 311
#     4   9  21  35  62  82 115 142 181 232 273 328
#     4  10  20  36  54  76 111 145 184 229 279 323
#     4   9  18  35  58  77 101 147 194 229 265 326
#     4  10  18  40  62  87 103 148 195 213 272 354
#     4   9  18  35  58  77 101 147 193 229 267 323
#
# _framework density 18.708542999999999
#
# number of rings (size 3 to 8) (size 9 to 14) (size 15 to 20)
#    0.750    1.750    1.250    0.750    3.500    0.500 
#    2.250    0.000    0.000    0.000    0.000    0.000 
#    0.000    0.000    0.000    0.000    0.000    0.000 
#
# Total GULP energy -89158.323473 kJ/mol
# GULP energy per Si atom -5572.395217 kJ/mol
# Density = 1.866596 g / cm^3
# Si number density = 18.708543 Si / 1000 Ang^3
#
#
#
# Elastic Constant Matrix: (Units=GPa)
#
#
# Indices 1 2 3 4 5 6 
#
# 1 49.2283 25.8482 4.4384 8.6426 9.6961 -9.7943
# 2 25.8482 63.9608 0.8156 -4.4633 -5.5154 2.3082
# 3 4.4384 0.8156 50.2199 15.2290 7.6154 10.0013
# 4 8.6426 -4.4633 15.2290 25.7805 1.1097 -1.9948
# 5 9.6961 -5.5154 7.6154 1.1097 16.1483 -5.3661
# 6 -9.7943 2.3082 10.0013 -1.9948 -5.3661 34.9611
#
#
#
# Elastic Compliance Matrix: (Units=1/GPa)
#
#
# Indices 1 2 3 4 5 6 
#
# 1 0.041808 -0.021339 0.006538 -0.019779 -0.032404 0.005149
# 2 -0.021339 0.027435 -0.006200 0.014429 0.023593 -0.001571
# 3 0.006538 -0.006200 0.032065 -0.022106 -0.023570 -0.011811
# 4 -0.019779 0.014429 -0.022106 0.060436 0.025464 0.007187
# 5 -0.032404 0.023593 -0.023570 0.025464 0.103262 0.013410
# 6 0.005149 -0.001571 -0.011811 0.007187 0.013410 0.035996
#
#
# Mechanical properties :
#
#
# Convention : Reuss Voigt Hill
#
# Bulk Modulus (GPa) = 16.86167 25.06813 20.96490
# Shear Modulus (GPa) = 13.78270 24.19845 18.99058
#
# Velocity S-wave (km/s) = 2.71718 3.60035 3.18948
# Velocity P-wave (km/s) = 4.34471 5.54182 4.97937
#
# Compressibility (1/GPa) = 0.05930609
#
# Stress axis : x y z
#
# Youngs Moduli (GPa) = 23.91913 36.44943 31.18637
#
# Poissons Ratio (x) = 0.77780 -0.20389
# Poissons Ratio (y) = 0.51041 0.19335
# Poissons Ratio (z) = -0.15638 0.22598
#
# Static dielectric constant tensor:
#      x y z
#    x 1.646210 -0.003270 0.016180 
#    y -0.003270 1.643560 -0.016020 
#    z 0.016180 -0.016020 1.666200 
# 
# From -- ./inp_files/325595.got.cif
#   From: 2010.05.17/outbox.cif.g08.bks.cpg/sg2_163_cif.got.tgz:325595.got - 2010.06.03 11:33:40.
