data_PCOD9080929
_publ_section_title
;
Structure prediction by ZEFSAII (Michael W. Deem and Ramdas Pophale) SiO2 
 PCOD9080929
Probable space group: P -1
;
_chemical_formula_sum "Si O2"
_cell_formula_units_Z 14
_cell_length_a 10.191428
_cell_length_b 9.287289
_cell_length_c 18.605425
_cell_angle_alpha 132.888981
_cell_angle_beta 43.287693
_cell_angle_gamma 147.148225
_cell_volume 643.616291
_symmetry_space_group_name_H-M "P -1"
_symmetry_group_IT_number 2
_symmetry_cell_setting 'triclinic'
loop_
_space_group_symop_operation_xyz
x,y,z
-x,-y,-z
loop_
_atom_site_type_symbol
_atom_site_label
_atom_site_fract_x
_atom_site_fract_y
_atom_site_fract_z
Si Si1 0.723207 0.406353 0.876044
Si Si2 0.702566 0.868550 0.518714
Si Si3 0.769738 0.605806 0.525232
Si Si4 0.149597 0.423172 0.950128
Si Si5 0.184385 0.106692 0.031405
Si Si6 0.449312 0.310758 0.237022
Si Si7 0.957243 0.706880 0.265498
O O1 0.721869 0.603189 0.896375
O O2 0.922470 0.380367 0.763134
O O3 0.420987 0.138237 0.918488
O O4 0.810231 0.505388 0.957612
O O5 0.700955 0.760366 0.560062
O O6 0.411746 0.684340 0.539637
O O7 0.831536 0.792899 0.390548
O O8 0.916431 0.191510 0.538888
O O9 0.679331 0.592106 0.637657
O O10 0.425433 0.579176 0.854035
O O11 0.965597 0.101290 0.914600
O O12 0.000000 0.500000 0.000000
O O13 0.000000 0.000000 0.000000
O O14 0.719151 0.464338 0.227825
O O15 0.219278 0.984810 0.218611
#
# Coordination Sequence:
#
# PCOD9080929 Si02
#       7
#     2   2   2   2   2   2   2
#     4  10  20  34  50  66  97 131 166 204 237 287
#     4   8  14  25  42  62  91 125 155 184 237 281
#     4   8  14  26  40  61  95 126 149 189 232 288
#     4  11  20  31  49  72  99 129 161 201 244 289
#     4   9  21  36  48  65  92 132 171 201 241 283
#     4  10  20  29  45  74 101 125 160 195 245 286
#     4  10  19  30  47  73  97 126 160 201 238 288
#
# _framework density 21.752092000000001
#
# number of rings (size 3 to 8) (size 9 to 14) (size 15 to 20)
#    0.000    2.571    1.429    0.857    4.000    1.143 
#    0.000    0.000    0.000    0.000    0.000    1.000 
#    0.000   10.286    0.000    0.286    0.000    0.000 
#
# Total GULP energy -77965.395417 kJ/mol
# GULP energy per Si atom -5568.956816 kJ/mol
# Density = 2.170258 g / cm^3
# Si number density = 21.752092 Si / 1000 Ang^3
#
#
#
# Elastic Constant Matrix: (Units=GPa)
#
#
# Indices 1 2 3 4 5 6 
#
# 1 63.2982 32.5889 2.8017 -3.1039 -3.2506 13.2987
# 2 32.5889 126.9300 27.5922 -37.3103 -4.6428 20.3345
# 3 2.8017 27.5922 58.1987 -21.3859 10.3173 -3.3356
# 4 -3.1039 -37.3103 -21.3859 30.3861 5.4692 0.4597
# 5 -3.2506 -4.6428 10.3173 5.4692 16.8161 -9.1080
# 6 13.2987 20.3345 -3.3356 0.4597 -9.1080 42.0979
#
#
#
# Elastic Compliance Matrix: (Units=1/GPa)
#
#
# Indices 1 2 3 4 5 6 
#
# 1 0.019481 -0.006448 -0.001681 -0.007874 0.004424 -0.002129
# 2 -0.006448 0.017036 0.002389 0.023943 -0.010408 -0.008516
# 3 -0.001681 0.002389 0.034005 0.032963 -0.034347 -0.005720
# 4 -0.007874 0.023943 0.032963 0.095233 -0.056834 -0.019802
# 5 0.004424 -0.010408 -0.034347 -0.056834 0.110821 0.025505
# 6 -0.002129 -0.008516 -0.005720 -0.019802 0.025505 0.033821
#
#
# Mechanical properties :
#
#
# Convention : Reuss Voigt Hill
#
# Bulk Modulus (GPa) = 16.93721 41.59916 29.26819
# Shear Modulus (GPa) = 14.63885 30.22295 22.43090
#
# Velocity S-wave (km/s) = 2.59701 3.73155 3.21472
# Velocity P-wave (km/s) = 4.09829 6.14261 5.22148
#
# Compressibility (1/GPa) = 0.05904160
#
# Stress axis : x y z
#
# Youngs Moduli (GPa) = 51.33268 58.69932 29.40759
#
# Poissons Ratio (x) = 0.37849 0.04943
# Poissons Ratio (y) = 0.33099 -0.07024
# Poissons Ratio (z) = 0.08628 -0.14021
#
# Static dielectric constant tensor:
#      x y z
#    x 1.820780 0.077730 0.024170 
#    y 0.077730 1.940340 0.017930 
#    z 0.024170 0.017930 1.852360 
# 
# From -- ./inp_files/100178.got.cif
#   From: 2010.05.17/outbox.cif.g08.bks.cpg/sg2_51_cif.got.tgz:100178.got - 2010.06.03 11:33:40.
