data_PCOD9080804
_publ_section_title
;
Structure prediction by ZEFSAII (Michael W. Deem and Ramdas Pophale) SiO2 
 PCOD9080804
Probable space group: P -1
;
_chemical_formula_sum "Si O2"
_cell_formula_units_Z 14
_cell_length_a 14.036091
_cell_length_b 19.374443
_cell_length_c 7.518099
_cell_angle_alpha 40.706929
_cell_angle_beta 59.690880
_cell_angle_gamma 31.195115
_cell_volume 624.952015
_symmetry_space_group_name_H-M "P -1"
_symmetry_group_IT_number 2
_symmetry_cell_setting 'triclinic'
loop_
_space_group_symop_operation_xyz
x,y,z
-x,-y,-z
loop_
_atom_site_type_symbol
_atom_site_label
_atom_site_fract_x
_atom_site_fract_y
_atom_site_fract_z
Si Si1 0.411450 0.538690 0.279642
Si Si2 0.193468 0.289093 0.820552
Si Si3 0.055447 0.691580 0.885326
Si Si4 0.503382 0.323533 0.261451
Si Si5 0.604462 0.049019 0.936716
Si Si6 0.976278 0.850648 0.038603
Si Si7 0.871092 0.149042 0.669865
O O1 0.453713 0.435396 0.263029
O O2 0.628353 0.351600 0.538617
O O3 0.388545 0.679873 0.964433
O O4 0.190954 0.675067 0.283736
O O5 0.368019 0.223156 0.867398
O O6 0.000000 0.500000 0.500000
O O7 0.101396 0.275815 0.066573
O O8 0.307194 0.132384 0.863366
O O9 0.046278 0.805679 0.559761
O O10 0.021387 0.754659 0.999287
O O11 0.288509 0.465988 0.097229
O O12 0.602536 0.137059 0.605684
O O13 0.770533 0.961660 0.088517
O O14 0.911279 0.024732 0.729237
O O15 0.000000 0.000000 0.000000
#
# Coordination Sequence:
#
# PCOD9080804 Si02
#       7
#     2   2   2   2   2   2   2
#     4   9  19  30  48  76 107 133 169 211 257 311
#     4  10  19  31  47  76 111 134 170 220 263 293
#     4   9  19  33  54  78 106 139 169 216 260 306
#     4   9  15  29  49  78 106 132 167 215 256 305
#     4  10  19  28  49  79 105 134 170 210 262 309
#     4  10  20  32  56  76 103 138 175 209 265 310
#     4  11  22  35  52  79 109 136 171 214 263 319
#
# _framework density 22.401719
#
# number of rings (size 3 to 8) (size 9 to 14) (size 15 to 20)
#    0.000    2.286    2.857    1.286    4.000    0.571 
#    0.000    0.000    0.000    0.857    0.000    5.000 
#    0.000    0.000    0.000    0.000    0.000    0.000 
#
# Total GULP energy -78029.701097 kJ/mol
# GULP energy per Si atom -5573.550078 kJ/mol
# Density = 2.235073 g / cm^3
# Si number density = 22.401719 Si / 1000 Ang^3
#
#
#
# Elastic Constant Matrix: (Units=GPa)
#
#
# Indices 1 2 3 4 5 6 
#
# 1 75.5426 56.2555 41.8378 -2.7687 7.2565 -55.8976
# 2 56.2555 85.2847 22.4462 -21.6876 7.4662 -55.6310
# 3 41.8378 22.4462 73.8716 -23.6768 -1.3894 -29.5618
# 4 -2.7687 -21.6876 -23.6768 35.2498 -2.8374 5.2099
# 5 7.2565 7.4662 -1.3894 -2.8374 28.7721 -13.9407
# 6 -55.8976 -55.6310 -29.5618 5.2099 -13.9407 61.7028
#
#
#
# Elastic Compliance Matrix: (Units=1/GPa)
#
#
# Indices 1 2 3 4 5 6 
#
# 1 0.079683 -0.046179 -0.043896 -0.054183 -0.009822 0.011877
# 2 -0.046179 0.079091 0.045421 0.070017 0.024907 0.050950
# 3 -0.043896 0.045421 0.054750 0.058940 0.020901 0.027162
# 4 -0.054183 0.070017 0.058940 0.103129 0.027825 0.039858
# 5 -0.009822 0.024907 0.020901 0.027825 0.050313 0.032590
# 6 0.011877 0.050950 0.027162 0.039858 0.032590 0.089913
#
#
# Mechanical properties :
#
#
# Convention : Reuss Voigt Hill
#
# Bulk Modulus (GPa) = 8.05052 52.86420 30.45736
# Shear Modulus (GPa) = 8.50930 32.75558 20.63244
#
# Velocity S-wave (km/s) = 1.95109 3.82801 3.03812
# Velocity P-wave (km/s) = 2.94570 6.57174 5.09239
#
# Compressibility (1/GPa) = 0.12421555
#
# Stress axis : x y z
#
# Youngs Moduli (GPa) = 12.54976 12.64368 18.26488
#
# Poissons Ratio (x) = 0.58387 0.80175
# Poissons Ratio (y) = 0.57954 -0.82960
# Poissons Ratio (z) = 0.55088 -0.57428
#
# Static dielectric constant tensor:
#      x y z
#    x 1.967790 -0.025460 0.006950 
#    y -0.025460 1.930390 -0.019320 
#    z 0.006950 -0.019320 1.820490 
# 
# From -- ./inp_files/314637.got.cif
#   From: 2010.05.17/outbox.cif.g08.bks.cpg/sg2_158_cif.got.tgz:314637.got - 2010.06.03 11:33:40.
