data_PCOD9080968
_publ_section_title
;
Structure prediction by ZEFSAII (Michael W. Deem and Ramdas Pophale) SiO2 
 PCOD9080968
Probable space group: P -1
;
_chemical_formula_sum "Si O2"
_cell_formula_units_Z 16
_cell_length_a 9.942159
_cell_length_b 11.264571
_cell_length_c 7.264545
_cell_angle_alpha 113.624430
_cell_angle_beta 104.940111
_cell_angle_gamma 79.454210
_cell_volume 717.278323
_symmetry_space_group_name_H-M "P -1"
_symmetry_group_IT_number 2
_symmetry_cell_setting 'triclinic'
loop_
_space_group_symop_operation_xyz
x,y,z
-x,-y,-z
loop_
_atom_site_type_symbol
_atom_site_label
_atom_site_fract_x
_atom_site_fract_y
_atom_site_fract_z
Si Si1 0.627866 0.792604 0.904889
Si Si2 0.412556 0.876933 0.352462
Si Si3 0.043219 0.826529 0.758422
Si Si4 0.652803 0.096293 0.089547
Si Si5 0.142388 0.017706 0.446180
Si Si6 0.676870 0.730237 0.287423
Si Si7 0.047439 0.386195 0.688869
Si Si8 0.921769 0.669153 0.900950
O O1 0.468703 0.813458 0.791901
O O2 0.766513 0.726396 0.816725
O O3 0.632857 0.716007 0.051473
O O4 0.650159 0.944508 0.041476
O O5 0.530642 0.758835 0.358315
O O6 0.500000 0.000000 0.500000
O O7 0.262176 0.898600 0.410716
O O8 0.380344 0.884827 0.127522
O O9 0.193686 0.868805 0.800478
O O10 0.922764 0.942644 0.751378
O O11 0.017494 0.714284 0.530993
O O12 0.025531 0.765478 0.912768
O O13 0.231414 0.142323 0.598971
O O14 0.000000 0.000000 0.500000
O O15 0.789547 0.614231 0.312760
O O16 0.963200 0.525992 0.748575
O O17 0.058910 0.338543 0.876780
#
# Coordination Sequence:
#
# PCOD9080968 Si02
#       8
#     2   2   2   2   2   2   2   2
#     4   9  18  34  53  77 108 148 183 220 274 337
#     4   9  18  32  49  72 105 148 186 214 262 332
#     4  11  22  35  55  86 116 143 181 235 284 329
#     4  10  20  33  52  80 117 146 177 226 282 338
#     4  10  19  30  49  79 115 145 174 221 277 330
#     4   8  16  32  52  72 100 139 184 223 264 323
#     4   9  20  38  60  83 108 144 192 238 279 326
#     4  10  20  38  63  81 105 148 195 234 276 328
#
# _framework density 22.306543000000001
#
# number of rings (size 3 to 8) (size 9 to 14) (size 15 to 20)
#    0.000    2.500    0.000    1.875    0.000    6.000 
#    0.000    0.625    0.000   15.000    0.000    0.000 
#    0.000    0.000    0.000    0.000    0.000    0.000 
#
# Total GULP energy -89228.413640 kJ/mol
# GULP energy per Si atom -5576.775852 kJ/mol
# Density = 2.225577 g / cm^3
# Si number density = 22.306543 Si / 1000 Ang^3
#
#
#
# Elastic Constant Matrix: (Units=GPa)
#
#
# Indices 1 2 3 4 5 6 
#
# 1 179.9055 54.8323 20.0504 -1.3883 1.7671 -43.7969
# 2 54.8323 64.3911 10.3954 -3.5280 -0.8530 -35.3217
# 3 20.0504 10.3954 50.3860 -5.9137 2.8708 -11.6831
# 4 -1.3883 -3.5280 -5.9137 21.1266 -4.7272 -7.3369
# 5 1.7671 -0.8530 2.8708 -4.7272 33.0398 -5.4718
# 6 -43.7969 -35.3217 -11.6831 -7.3369 -5.4718 46.2581
#
#
#
# Elastic Compliance Matrix: (Units=1/GPa)
#
#
# Indices 1 2 3 4 5 6 
#
# 1 0.008031 -0.004225 -0.001230 0.001063 0.000430 0.004286
# 2 -0.004225 0.034211 0.002266 0.016919 0.007687 0.026287
# 3 -0.001230 0.002266 0.022794 0.009626 0.000837 0.007948
# 4 0.001063 0.016919 0.009626 0.065851 0.013672 0.028418
# 5 0.000430 0.007687 0.000837 0.013672 0.034434 0.012730
# 6 0.004286 0.026287 0.007948 0.028418 0.012730 0.053769
#
#
# Mechanical properties :
#
#
# Convention : Reuss Voigt Hill
#
# Bulk Modulus (GPa) = 17.04806 51.69321 34.37064
# Shear Modulus (GPa) = 20.40660 34.04520 27.22590
#
# Velocity S-wave (km/s) = 3.02789 3.91095 3.49740
# Velocity P-wave (km/s) = 4.45908 6.60442 5.63479
#
# Compressibility (1/GPa) = 0.05865771
#
# Stress axis : x y z
#
# Youngs Moduli (GPa) = 124.52326 29.23069 43.87163
#
# Poissons Ratio (x) = 0.12349 0.05396
# Poissons Ratio (y) = 0.52609 -0.09942
# Poissons Ratio (z) = 0.15316 -0.06624
#
# Static dielectric constant tensor:
#      x y z
#    x 1.908710 -0.036770 -0.054650 
#    y -0.036770 1.841460 -0.017180 
#    z -0.054650 -0.017180 1.867090 
# 
# From -- ./inp_files/189410.got.cif
#   From: 2010.05.17/outbox.cif.g08.bks.cpg/sg2_95_cif.got.tgz:189410.got - 2010.06.03 11:33:40.
