data_PCOD9080531
_publ_section_title
;
Structure prediction by ZEFSAII (Michael W. Deem and Ramdas Pophale) SiO2 
 PCOD9080531
Probable space group: P -1
;
_chemical_formula_sum "Si O2"
_cell_formula_units_Z 14
_cell_length_a 12.519531
_cell_length_b 11.744408
_cell_length_c 12.528119
_cell_angle_alpha 61.431315
_cell_angle_beta 145.728369
_cell_angle_gamma 142.031608
_cell_volume 552.631448
_symmetry_space_group_name_H-M "P -1"
_symmetry_group_IT_number 2
_symmetry_cell_setting 'triclinic'
loop_
_space_group_symop_operation_xyz
x,y,z
-x,-y,-z
loop_
_atom_site_type_symbol
_atom_site_label
_atom_site_fract_x
_atom_site_fract_y
_atom_site_fract_z
Si Si1 0.419045 0.269052 0.391280
Si Si2 0.767673 0.499006 0.141966
Si Si3 0.976166 0.241863 0.980202
Si Si4 0.529428 0.865114 0.059186
Si Si5 0.601097 0.168149 0.424154
Si Si6 0.440651 0.776056 0.258282
Si Si7 0.068357 0.116856 0.716045
O O1 0.591010 0.298245 0.421227
O O2 0.582295 0.335418 0.610849
O O3 0.107065 0.009390 0.262505
O O4 0.279253 0.333267 0.231390
O O5 0.924465 0.645052 0.101283
O O6 0.034037 0.658158 0.379838
O O7 0.705331 0.314118 0.144475
O O8 0.411340 0.357443 0.912683
O O9 0.834602 0.271927 0.928096
O O10 0.670224 0.985617 0.818746
O O11 0.451708 0.746183 0.157901
O O12 0.856378 0.982179 0.235151
O O13 0.500000 0.000000 0.000000
O O14 0.500000 0.000000 0.500000
O O15 0.789615 0.026270 0.456557
#
# Coordination Sequence:
#
# PCOD9080531 Si02
#       7
#     2   2   2   2   2   2   2
#     4  10  20  37  61  86 113 160 194 228 300 345
#     4   9  20  37  58  89 117 146 203 237 285 345
#     4  11  21  39  62  84 119 158 190 240 292 342
#     4  10  20  37  63  83 121 154 190 239 296 341
#     4  10  18  40  59  83 123 154 185 247 289 334
#     4  10  20  38  60  84 118 157 189 239 291 343
#     4   8  19  37  56  83 118 149 195 233 287 342
#
# _framework density 25.333338000000001
#
# number of rings (size 3 to 8) (size 9 to 14) (size 15 to 20)
#    1.714    0.571    2.857    1.714    0.000    0.571 
#    2.571    7.857    0.000    0.000    0.000    0.000 
#    0.000    0.000    0.000    0.000    0.000    0.000 
#
# Total GULP energy -78003.712379 kJ/mol
# GULP energy per Si atom -5571.693741 kJ/mol
# Density = 2.527568 g / cm^3
# Si number density = 25.333338 Si / 1000 Ang^3
#
#
#
# Elastic Constant Matrix: (Units=GPa)
#
#
# Indices 1 2 3 4 5 6 
#
# 1 59.3732 10.2098 20.7135 -8.7306 19.0441 -1.8822
# 2 10.2098 41.3581 28.1597 6.9440 0.9723 -4.5388
# 3 20.7135 28.1597 114.6903 3.8000 20.9800 -16.6058
# 4 -8.7306 6.9440 3.8000 48.1320 1.6055 13.3186
# 5 19.0441 0.9723 20.9800 1.6055 47.3652 3.7595
# 6 -1.8822 -4.5388 -16.6058 13.3186 3.7595 30.9141
#
#
#
# Elastic Compliance Matrix: (Units=1/GPa)
#
#
# Indices 1 2 3 4 5 6 
#
# 1 0.021590 -0.005160 -0.001621 0.005533 -0.007907 -0.001736
# 2 -0.005160 0.031385 -0.007071 -0.005724 0.004566 0.002406
# 3 -0.001621 -0.007071 0.012877 -0.002147 -0.005419 0.007364
# 4 0.005533 -0.005724 -0.002147 0.026378 -0.001026 -0.012896
# 5 -0.007907 0.004566 -0.005419 -0.001026 0.027075 -0.005572
# 6 -0.001736 0.002406 0.007364 -0.012896 -0.005572 0.042785
#
#
# Mechanical properties :
#
#
# Convention : Reuss Voigt Hill
#
# Bulk Modulus (GPa) = 26.21345 37.06530 31.63938
# Shear Modulus (GPa) = 24.69031 35.70483 30.19757
#
# Velocity S-wave (km/s) = 3.12527 3.75827 3.45629
# Velocity P-wave (km/s) = 4.83663 5.78754 5.33332
#
# Compressibility (1/GPa) = 0.03814836
#
# Stress axis : x y z
#
# Youngs Moduli (GPa) = 46.31800 31.86210 77.66048
#
# Poissons Ratio (x) = 0.16440 0.12586
# Poissons Ratio (y) = 0.23899 0.54915
# Poissons Ratio (z) = 0.07506 0.22530
#
# Static dielectric constant tensor:
#      x y z
#    x 1.970680 -0.025120 0.022860 
#    y -0.025120 2.127610 0.015660 
#    z 0.022860 0.015660 2.008820 
# 
# From -- ./inp_files/532937.got.cif
#   From: 2010.05.17/outbox.cif.g08.bks.cpg/sg2_267_cif.got.tgz:532937.got - 2010.06.03 11:33:40.
