data_PCOD9080455
_publ_section_title
;
Structure prediction by ZEFSAII (Michael W. Deem and Ramdas Pophale) SiO2 
 PCOD9080455
Probable space group: P -1
;
_chemical_formula_sum "Si O2"
_cell_formula_units_Z 16
_cell_length_a 10.340681
_cell_length_b 9.970211
_cell_length_c 17.145614
_cell_angle_alpha 150.714058
_cell_angle_beta 55.048112
_cell_angle_gamma 107.696762
_cell_volume 618.586478
_symmetry_space_group_name_H-M "P -1"
_symmetry_group_IT_number 2
_symmetry_cell_setting 'triclinic'
loop_
_space_group_symop_operation_xyz
x,y,z
-x,-y,-z
loop_
_atom_site_type_symbol
_atom_site_label
_atom_site_fract_x
_atom_site_fract_y
_atom_site_fract_z
Si Si1 0.551948 0.887138 0.585783
Si Si2 0.862867 0.928221 0.297811
Si Si3 0.516873 0.906425 0.112555
Si Si4 0.976344 0.712279 0.991004
Si Si5 0.969375 0.704556 0.373367
Si Si6 0.687213 0.239166 0.131186
Si Si7 0.471268 0.606612 0.248689
Si Si8 0.909624 0.754384 0.593145
O O1 0.759465 0.820672 0.486222
O O2 0.579354 0.553175 0.380454
O O3 0.466874 0.015493 0.764066
O O4 0.469080 0.147906 0.678946
O O5 0.703549 0.204942 0.541225
O O6 0.038828 0.971675 0.271391
O O7 0.836402 0.936853 0.217853
O O8 0.103712 0.848219 0.985413
O O9 0.631434 0.997282 0.061340
O O10 0.303189 0.117637 0.274261
O O11 0.563247 0.554050 0.896097
O O12 0.920647 0.575692 0.867403
O O13 0.097357 0.397564 0.841279
O O14 0.993934 0.612163 0.407910
O O15 0.000000 0.000000 0.500000
O O16 0.615927 0.340676 0.119698
O O17 0.000000 0.500000 0.500000
#
# Coordination Sequence:
#
# PCOD9080455 Si02
#       8
#     2   2   2   2   2   2   2   2
#     4  10  22  40  64  97 135 171 218 267 331 397
#     4  11  22  40  65  96 128 170 225 273 319 389
#     4  11  25  41  67  98 136 176 212 272 339 393
#     4  10  22  40  67  95 128 174 224 269 329 382
#     4  10  18  39  66  95 127 168 220 279 321 383
#     4  11  22  42  65  95 134 176 219 267 327 394
#     4  12  22  41  66 102 131 172 223 271 326 396
#     4  11  23  42  66  97 132 171 219 271 333 396
#
# _framework density 25.865421000000001
#
# number of rings (size 3 to 8) (size 9 to 14) (size 15 to 20)
#    0.000    1.250    3.750    3.000    0.000    1.000 
#    0.000    3.125    0.000    1.500    0.000    0.000 
#    0.000    0.000    0.000    0.000    0.000    0.000 
#
# Total GULP energy -89771.632327 kJ/mol
# GULP energy per Si atom -5610.727020 kJ/mol
# Density = 2.580655 g / cm^3
# Si number density = 25.865421 Si / 1000 Ang^3
#
#
#
# Elastic Constant Matrix: (Units=GPa)
#
#
# Indices 1 2 3 4 5 6 
#
# 1 85.5397 30.8202 30.0934 -15.3979 14.1624 -6.1921
# 2 30.8202 99.6020 25.5575 -19.7627 -11.6717 1.8310
# 3 30.0934 25.5575 146.9282 -35.9369 20.0330 -9.4609
# 4 -15.3979 -19.7627 -35.9369 41.1829 -5.2247 10.8183
# 5 14.1624 -11.6717 20.0330 -5.2247 47.7012 -11.9785
# 6 -6.1921 1.8310 -9.4609 10.8183 -11.9785 53.7095
#
#
#
# Elastic Compliance Matrix: (Units=1/GPa)
#
#
# Indices 1 2 3 4 5 6 
#
# 1 0.014845 -0.004522 -0.001175 0.001682 -0.004772 0.000255
# 2 -0.004522 0.013271 -0.001013 0.004708 0.005300 -0.000918
# 3 -0.001175 -0.001013 0.009323 0.006955 -0.003196 -0.000572
# 4 0.001682 0.004708 0.006955 0.034754 0.000102 -0.005719
# 5 -0.004772 0.005300 -0.003196 0.000102 0.026166 0.004521
# 6 0.000255 -0.000918 -0.000572 -0.005719 0.004521 0.020739
#
#
# Mechanical properties :
#
#
# Convention : Reuss Voigt Hill
#
# Bulk Modulus (GPa) = 41.63393 56.11244 48.87319
# Shear Modulus (GPa) = 35.58114 44.89197 40.23656
#
# Velocity S-wave (km/s) = 3.71297 4.17057 3.94840
# Velocity P-wave (km/s) = 5.87476 6.70318 6.30260
#
# Compressibility (1/GPa) = 0.02401887
#
# Stress axis : x y z
#
# Youngs Moduli (GPa) = 67.36470 75.35175 107.26276
#
# Poissons Ratio (x) = 0.34073 0.12607
# Poissons Ratio (y) = 0.30462 0.10861
# Poissons Ratio (z) = 0.07918 0.07630
#
# Static dielectric constant tensor:
#      x y z
#    x 2.082750 -0.017400 -0.018530 
#    y -0.017400 1.931750 -0.016390 
#    z -0.018530 -0.016390 2.031860 
# 
# From -- ./inp_files/568313.got.cif
#   From: 2010.05.17/outbox.cif.g08.bks.cpg/sg2_285_cif.got.tgz:568313.got - 2010.06.03 11:33:40.
