data_PCOD9080358
_publ_section_title
;
Structure prediction by ZEFSAII (Michael W. Deem and Ramdas Pophale) SiO2 
 PCOD9080358
Probable space group: P -1
;
_chemical_formula_sum "Si O2"
_cell_formula_units_Z 16
_cell_length_a 15.319538
_cell_length_b 22.329264
_cell_length_c 8.966123
_cell_angle_alpha 128.259415
_cell_angle_beta 50.447634
_cell_angle_gamma 163.200708
_cell_volume 682.851842
_symmetry_space_group_name_H-M "P -1"
_symmetry_group_IT_number 2
_symmetry_cell_setting 'triclinic'
loop_
_space_group_symop_operation_xyz
x,y,z
-x,-y,-z
loop_
_atom_site_type_symbol
_atom_site_label
_atom_site_fract_x
_atom_site_fract_y
_atom_site_fract_z
Si Si1 0.933236 0.561879 0.493422
Si Si2 0.965697 0.889500 0.391073
Si Si3 0.597491 0.267526 0.143475
Si Si4 0.735501 0.699703 0.649856
Si Si5 0.707196 0.202252 0.117474
Si Si6 0.421406 0.658912 0.032808
Si Si7 0.656000 0.550427 0.772446
Si Si8 0.440770 0.790054 0.435170
O O1 0.773554 0.439323 0.321740
O O2 0.859785 0.603971 0.672834
O O3 0.762666 0.399084 0.542745
O O4 0.276162 0.743284 0.419830
O O5 0.979256 0.876799 0.531421
O O6 0.642606 0.664764 0.325692
O O7 0.000000 0.000000 0.500000
O O8 0.248546 0.034019 0.215622
O O9 0.736866 0.273935 0.048402
O O10 0.592781 0.298514 0.033877
O O11 0.500000 0.500000 0.500000
O O12 0.578655 0.677807 0.848900
O O13 0.836330 0.714380 0.706558
O O14 0.529496 0.132096 0.339696
O O15 0.069161 0.418043 0.094376
O O16 0.500000 0.000000 0.000000
O O17 0.601349 0.825826 0.211838
O O18 0.500000 0.500000 0.000000
#
# Coordination Sequence:
#
# PCOD9080358 Si02
#       8
#     2   2   2   2   2   2   2   2
#     4  10  18  39  61  90 124 165 214 249 324 376
#     4  11  21  43  62  90 128 166 219 265 309 380
#     4  11  22  39  68  92 121 171 218 266 312 394
#     4  10  23  39  64  96 132 174 208 268 326 382
#     4  11  25  40  64 100 125 166 210 275 333 376
#     4  12  20  41  69  92 126 173 224 251 326 393
#     4  11  23  37  63  95 129 172 208 264 329 383
#     4  10  21  40  67  92 125 172 213 271 314 391
#
# _framework density 23.431145999999998
#
# number of rings (size 3 to 8) (size 9 to 14) (size 15 to 20)
#    0.000    1.250    6.250    1.875    3.500    0.000 
#    0.000    3.750    0.000    0.000    0.000    0.000 
#    0.000    0.000    0.000    0.000    0.000    0.000 
#
# Total GULP energy -89170.341254 kJ/mol
# GULP energy per Si atom -5573.146328 kJ/mol
# Density = 2.337782 g / cm^3
# Si number density = 23.431146 Si / 1000 Ang^3
#
#
#
# Elastic Constant Matrix: (Units=GPa)
#
#
# Indices 1 2 3 4 5 6 
#
# 1 111.9412 13.9437 63.0649 5.2093 -5.7422 -23.4355
# 2 13.9437 72.6277 37.8769 5.8781 -6.4469 -7.8251
# 3 63.0649 37.8769 158.0355 13.9985 -17.1356 -18.9915
# 4 5.2093 5.8781 13.9985 31.3757 -0.2767 -9.1022
# 5 -5.7422 -6.4469 -17.1356 -0.2767 49.7425 -5.9282
# 6 -23.4355 -7.8251 -18.9915 -9.1022 -5.9282 28.2825
#
#
#
# Elastic Compliance Matrix: (Units=1/GPa)
#
#
# Indices 1 2 3 4 5 6 
#
# 1 0.013203 0.000668 -0.004402 0.002317 0.001199 0.009166
# 2 0.000668 0.015955 -0.003583 -0.000743 0.001213 0.002577
# 3 -0.004402 -0.003583 0.009618 -0.002411 0.002514 0.001570
# 4 0.002317 -0.000743 -0.002411 0.036174 0.000965 0.011939
# 5 0.001199 0.001213 0.002514 0.000965 0.022223 0.007986
# 6 0.009166 0.002577 0.001570 0.011939 0.007986 0.050236
#
#
# Mechanical properties :
#
#
# Convention : Reuss Voigt Hill
#
# Bulk Modulus (GPa) = 41.42530 63.59729 52.51130
# Shear Modulus (GPa) = 29.39582 37.06140 33.22861
#
# Velocity S-wave (km/s) = 3.54582 3.98139 3.76990
# Velocity P-wave (km/s) = 5.87212 6.95244 6.43499
#
# Compressibility (1/GPa) = 0.02413984
#
# Stress axis : x y z
#
# Youngs Moduli (GPa) = 75.74077 62.67650 103.96880
#
# Poissons Ratio (x) = -0.04185 0.45771
# Poissons Ratio (y) = -0.05057 0.37256
# Poissons Ratio (z) = 0.33344 0.22459
#
# Static dielectric constant tensor:
#      x y z
#    x 1.927760 0.095820 0.019620 
#    y 0.095820 1.921220 -0.003930 
#    z 0.019620 -0.003930 1.951170 
# 
# From -- ./inp_files/319475.got.cif
#   From: 2010.05.17/outbox.cif.g08.bks.cpg/sg2_160_cif.got.tgz:319475.got - 2010.06.03 11:33:40.
