data_PCOD9080210
_publ_section_title
;
Structure prediction by ZEFSAII (Michael W. Deem and Ramdas Pophale) SiO2 
 PCOD9080210
Probable space group: P -1
;
_chemical_formula_sum "Si O2"
_cell_formula_units_Z 15
_cell_length_a 16.361908
_cell_length_b 14.019245
_cell_length_c 10.779521
_cell_angle_alpha 33.649001
_cell_angle_beta 146.272718
_cell_angle_gamma 150.533199
_cell_volume 619.950189
_symmetry_space_group_name_H-M "P -1"
_symmetry_group_IT_number 2
_symmetry_cell_setting 'triclinic'
loop_
_space_group_symop_operation_xyz
x,y,z
-x,-y,-z
loop_
_atom_site_type_symbol
_atom_site_label
_atom_site_fract_x
_atom_site_fract_y
_atom_site_fract_z
Si Si1 0.134574 0.947913 0.446329
Si Si2 0.158758 0.183051 0.585831
Si Si3 0.500000 0.000000 0.500000
Si Si4 0.290680 0.719008 0.788564
Si Si5 0.614192 0.925458 0.135323
Si Si6 0.714634 0.639934 0.957512
Si Si7 0.642942 0.434537 0.337344
Si Si8 0.201868 0.590477 0.199471
O O1 0.292383 0.068732 0.623590
O O2 0.177982 0.124534 0.211874
O O3 0.150003 0.770793 0.595753
O O4 0.945791 0.854004 0.378601
O O5 0.302068 0.130762 0.810231
O O6 0.231569 0.415822 0.377332
O O7 0.000000 0.000000 0.500000
O O8 0.593962 0.120470 0.352227
O O9 0.529970 0.216162 0.355613
O O10 0.406695 0.768848 0.006178
O O11 0.232515 0.492082 0.912757
O O12 0.672193 0.162651 0.937384
O O13 0.500560 0.547292 0.785995
O O14 0.742245 0.612282 0.165775
O O15 0.768660 0.414458 0.610985
O O16 0.000000 0.500000 0.000000
#
# Coordination Sequence:
#
# PCOD9080210 Si02
#       8
#     2   2   1   2   2   2   2   2
#     4  11  22  39  60  97 134 161 216 271 328 379
#     4  10  23  40  61  93 127 179 210 253 328 389
#     4  10  18  38  66  90 126 158 218 262 324 380
#     4  11  22  37  66  96 123 169 214 279 324 377
#     4  11  23  40  66  94 126 175 216 267 332 383
#     4  10  22  40  62  94 133 163 217 274 322 392
#     4  10  21  39  66  98 124 174 217 268 332 379
#     4  12  21  40  66  92 128 172 222 265 309 404
#
# _framework density 24.195492000000002
#
# number of rings (size 3 to 8) (size 9 to 14) (size 15 to 20)
#    0.000    1.333    5.333    1.200    0.000    3.733 
#    0.000    0.667    0.000    2.400    0.000    0.000 
#    0.000    0.000    0.000    0.000    0.000    0.000 
#
# Total GULP energy -83557.893277 kJ/mol
# GULP energy per Si atom -5570.526218 kJ/mol
# Density = 2.414042 g / cm^3
# Si number density = 24.195492 Si / 1000 Ang^3
#
#
#
# Elastic Constant Matrix: (Units=GPa)
#
#
# Indices 1 2 3 4 5 6 
#
# 1 147.9573 23.3603 63.6790 -18.0562 32.3202 -16.7425
# 2 23.3603 49.7675 27.5073 -29.9081 11.2993 -22.8726
# 3 63.6790 27.5073 114.9947 -16.0807 0.8380 -1.7532
# 4 -18.0562 -29.9081 -16.0807 45.9610 -6.8270 2.4888
# 5 32.3202 11.2993 0.8380 -6.8270 51.9449 -13.0982
# 6 -16.7425 -22.8726 -1.7532 2.4888 -13.0982 32.4470
#
#
#
# Elastic Compliance Matrix: (Units=1/GPa)
#
#
# Indices 1 2 3 4 5 6 
#
# 1 0.011453 0.005534 -0.006900 0.004441 -0.005946 0.006697
# 2 0.005534 0.075059 -0.014199 0.043132 -0.000934 0.051314
# 3 -0.006900 -0.014199 0.014939 -0.005590 0.003669 -0.010852
# 4 0.004441 0.043132 -0.005590 0.048275 0.001697 0.029376
# 5 -0.005946 -0.000934 0.003669 0.001697 0.024933 0.006407
# 6 0.006697 0.051314 -0.010852 0.029376 0.006407 0.070194
#
#
# Mechanical properties :
#
#
# Convention : Reuss Voigt Hill
#
# Bulk Modulus (GPa) = 14.21994 60.20143 37.21068
# Shear Modulus (GPa) = 16.69880 39.28210 27.99045
#
# Velocity S-wave (km/s) = 2.62994 4.03368 3.40493
# Velocity P-wave (km/s) = 3.88741 6.82857 5.55614
#
# Compressibility (1/GPa) = 0.07032381
#
# Stress axis : x y z
#
# Youngs Moduli (GPa) = 87.31200 13.32284 66.93790
#
# Poissons Ratio (x) = -0.07373 0.46185
# Poissons Ratio (y) = -0.48322 0.95042
# Poissons Ratio (z) = 0.60242 0.18917
#
# Static dielectric constant tensor:
#      x y z
#    x 1.982690 0.012760 0.025720 
#    y 0.012760 1.957260 0.049440 
#    z 0.025720 0.049440 1.922870 
# 
# From -- ./inp_files/465761.got.cif
#   From: 2010.05.17/outbox.cif.g08.bks.cpg/sg2_233_cif.got.tgz:465761.got - 2010.06.03 11:33:40.
