data_PCOD9080096
_publ_section_title
;
Structure prediction by ZEFSAII (Michael W. Deem and Ramdas Pophale) SiO2 
 PCOD9080096
Probable space group: P -1
;
_chemical_formula_sum "Si O2"
_cell_formula_units_Z 16
_cell_length_a 11.940665
_cell_length_b 11.590771
_cell_length_c 8.453307
_cell_angle_alpha 68.866586
_cell_angle_beta 60.158921
_cell_angle_gamma 48.712222
_cell_volume 761.613331
_symmetry_space_group_name_H-M "P -1"
_symmetry_group_IT_number 2
_symmetry_cell_setting 'triclinic'
loop_
_space_group_symop_operation_xyz
x,y,z
-x,-y,-z
loop_
_atom_site_type_symbol
_atom_site_label
_atom_site_fract_x
_atom_site_fract_y
_atom_site_fract_z
Si Si1 0.979102 0.306854 0.688269
Si Si2 0.350820 0.165626 0.960960
Si Si3 0.388621 0.658860 0.669402
Si Si4 0.666535 0.328731 0.947267
Si Si5 0.283753 0.077979 0.746687
Si Si6 0.453887 0.696557 0.278227
Si Si7 0.130246 0.387034 0.280114
Si Si8 0.588310 0.752719 0.604895
O O1 0.124178 0.139819 0.731237
O O2 0.027882 0.344944 0.470644
O O3 0.814588 0.327645 0.788676
O O4 0.967196 0.430445 0.757269
O O5 0.262850 0.128585 0.915461
O O6 0.439538 0.241459 0.806542
O O7 0.215948 0.281914 0.122095
O O8 0.500000 0.000000 0.000000
O O9 0.338738 0.740287 0.491451
O O10 0.431765 0.490039 0.707765
O O11 0.549138 0.648941 0.594731
O O12 0.294628 0.729189 0.867445
O O13 0.628983 0.258386 0.860336
O O14 0.500000 0.500000 0.000000
O O15 0.350299 0.168213 0.580561
O O16 0.422577 0.898455 0.721088
O O17 0.279181 0.341708 0.309417
#
# Coordination Sequence:
#
# PCOD9080096 Si02
#       8
#     2   2   2   2   2   2   2   2
#     4  10  22  40  58  95 127 166 213 264 326 381
#     4  12  22  39  65  98 127 166 216 268 319 393
#     4  10  19  35  62  90 123 161 213 268 308 374
#     4  10  20  38  61  85 123 167 211 259 312 382
#     4  10  22  36  62  93 130 162 208 263 322 384
#     4  10  21  35  60  98 119 159 221 263 313 379
#     4  10  20  36  63  90 126 168 208 262 329 378
#     4  10  18  38  63  90 122 169 209 258 320 389
#
# _framework density 21.008036000000001
#
# number of rings (size 3 to 8) (size 9 to 14) (size 15 to 20)
#    0.000    1.750    2.500    3.750    0.000    0.500 
#    2.250    0.625    0.000    1.500    0.000    0.000 
#    0.000    0.000    0.000    0.000    0.000    0.000 
#
# Total GULP energy -89175.306292 kJ/mol
# GULP energy per Si atom -5573.456643 kJ/mol
# Density = 2.096022 g / cm^3
# Si number density = 21.008036 Si / 1000 Ang^3
#
#
#
# Elastic Constant Matrix: (Units=GPa)
#
#
# Indices 1 2 3 4 5 6 
#
# 1 64.5879 8.6626 14.0494 -1.6573 -12.9590 -2.2162
# 2 8.6626 54.2507 26.1634 1.7703 -10.9324 3.4029
# 3 14.0494 26.1634 83.1390 8.9062 7.3758 -13.3645
# 4 -1.6573 1.7703 8.9062 24.3952 5.8146 -7.0454
# 5 -12.9590 -10.9324 7.3758 5.8146 40.7238 4.3279
# 6 -2.2162 3.4029 -13.3645 -7.0454 4.3279 19.0025
#
#
#
# Elastic Compliance Matrix: (Units=1/GPa)
#
#
# Indices 1 2 3 4 5 6 
#
# 1 0.017591 0.000750 -0.004247 0.000358 0.006781 -0.002481
# 2 0.000750 0.028452 -0.012669 -0.006027 0.013064 -0.019127
# 3 -0.004247 -0.012669 0.020635 0.001179 -0.010694 0.019159
# 4 0.000358 -0.006027 0.001179 0.050453 -0.011392 0.023251
# 5 0.006781 0.013064 -0.010694 -0.011392 0.036070 -0.021509
# 6 -0.002481 -0.019127 0.019159 0.023251 -0.021509 0.082754
#
#
# Mechanical properties :
#
#
# Convention : Reuss Voigt Hill
#
# Bulk Modulus (GPa) = 29.11613 33.30316 31.20965
# Shear Modulus (GPa) = 17.87407 27.03113 22.45260
#
# Velocity S-wave (km/s) = 2.92005 3.59096 3.27274
# Velocity P-wave (km/s) = 5.02578 5.75155 5.40087
#
# Compressibility (1/GPa) = 0.03434522
#
# Stress axis : x y z
#
# Youngs Moduli (GPa) = 56.84833 35.14702 48.46207
#
# Poissons Ratio (x) = -0.02636 0.20584
# Poissons Ratio (y) = -0.04263 0.61394
# Poissons Ratio (z) = 0.24146 0.44526
#
# Static dielectric constant tensor:
#      x y z
#    x 1.809190 0.023480 0.094370 
#    y 0.023480 1.767200 -0.003050 
#    z 0.094370 -0.003050 1.893080 
# 
# From -- ./inp_files/262293.got.cif
#   From: 2010.05.17/outbox.cif.g08.bks.cpg/sg2_132_cif.got.tgz:262293.got - 2010.06.03 11:33:40.
