data_PCOD9080928
_publ_section_title
;
Structure prediction by ZEFSAII (Michael W. Deem and Ramdas Pophale) SiO2 
 PCOD9080928
Probable space group: P -1
;
_chemical_formula_sum "Si O2"
_cell_formula_units_Z 16
_cell_length_a 21.143139
_cell_length_b 8.479863
_cell_length_c 16.831872
_cell_angle_alpha 61.271962
_cell_angle_beta 161.288256
_cell_angle_gamma 109.271696
_cell_volume 760.256475
_symmetry_space_group_name_H-M "P -1"
_symmetry_group_IT_number 2
_symmetry_cell_setting 'triclinic'
loop_
_space_group_symop_operation_xyz
x,y,z
-x,-y,-z
loop_
_atom_site_type_symbol
_atom_site_label
_atom_site_fract_x
_atom_site_fract_y
_atom_site_fract_z
Si Si1 0.677215 0.947320 0.792178
Si Si2 0.502321 0.978713 0.263883
Si Si3 0.637204 0.502417 0.264139
Si Si4 0.555463 0.151634 0.932755
Si Si5 0.904826 0.031192 0.688830
Si Si6 0.754619 0.545405 0.177200
Si Si7 0.939372 0.473787 0.251946
Si Si8 0.160526 0.064478 0.535473
O O1 0.559378 0.029915 0.716525
O O2 0.500000 0.000000 0.500000
O O3 0.857470 0.031446 0.975544
O O4 0.815321 0.703782 0.019992
O O5 0.761237 0.919886 0.573919
O O6 0.375824 0.214850 0.034709
O O7 0.418806 0.868674 0.126112
O O8 0.762130 0.265564 0.482490
O O9 0.813882 0.561274 0.418067
O O10 0.586063 0.626648 0.255124
O O11 0.392526 0.546382 0.932637
O O12 0.770455 0.045103 0.270336
O O13 0.395801 0.044934 0.787852
O O14 0.926721 0.016861 0.622051
O O15 0.000000 0.500000 0.500000
O O16 0.790522 0.464527 0.148801
O O17 0.993920 0.295534 0.298146
#
# Coordination Sequence:
#
# PCOD9080928 Si02
#       8
#     2   2   2   2   2   2   2   2
#     4  10  21  37  57  77  97 131 178 223 266 307
#     4   9  19  35  52  76 108 135 168 213 256 305
#     4   9  19  32  49  72 103 140 173 203 244 296
#     4   9  17  30  52  79 108 141 171 202 244 305
#     4   9  19  35  54  75 104 139 172 212 258 304
#     4  10  19  30  47  73 103 137 172 202 244 304
#     4   9  19  35  51  70 102 134 165 214 259 300
#     4   9  17  31  52  78 109 141 169 201 251 308
#
# _framework density 21.045531
#
# number of rings (size 3 to 8) (size 9 to 14) (size 15 to 20)
#    0.000    2.750    0.000    0.750    0.000    8.500 
#    0.000    2.500    0.000   12.000    0.000    0.000 
#    0.000    0.000    0.000    0.000    0.000    0.000 
#
# Total GULP energy -89158.937367 kJ/mol
# GULP energy per Si atom -5572.433585 kJ/mol
# Density = 2.099763 g / cm^3
# Si number density = 21.045531 Si / 1000 Ang^3
#
#
#
# Elastic Constant Matrix: (Units=GPa)
#
#
# Indices 1 2 3 4 5 6 
#
# 1 87.0524 34.2280 47.2717 2.5322 16.8664 -21.3593
# 2 34.2280 72.4288 27.8725 8.4637 1.9375 -33.6802
# 3 47.2717 27.8725 117.2763 29.7383 10.6764 -9.6754
# 4 2.5322 8.4637 29.7383 26.1911 -0.9390 5.5553
# 5 16.8664 1.9375 10.6764 -0.9390 26.0105 9.6165
# 6 -21.3593 -33.6802 -9.6754 5.5553 9.6165 40.5328
#
#
#
# Elastic Compliance Matrix: (Units=1/GPa)
#
#
# Indices 1 2 3 4 5 6 
#
# 1 0.021558 -0.002806 -0.006801 0.003820 -0.014672 0.010363
# 2 -0.002806 0.031327 0.002542 -0.019839 -0.013790 0.031150
# 3 -0.006801 0.002542 0.017271 -0.021501 -0.006264 0.007084
# 4 0.003820 -0.019839 -0.021501 0.077090 0.023856 -0.035830
# 5 -0.014672 -0.013790 -0.006264 0.023856 0.067168 -0.039891
# 6 0.010363 0.031150 0.007084 -0.035830 -0.039891 0.072081
#
#
# Mechanical properties :
#
#
# Convention : Reuss Voigt Hill
#
# Bulk Modulus (GPa) = 17.84906 55.05579 36.45242
# Shear Modulus (GPa) = 15.65933 29.70589 22.68261
#
# Velocity S-wave (km/s) = 2.73072 3.76108 3.28653
# Velocity P-wave (km/s) = 4.29442 6.71402 5.63560
#
# Compressibility (1/GPa) = 0.05602537
#
# Stress axis : x y z
#
# Youngs Moduli (GPa) = 46.38739 31.92184 57.90168
#
# Poissons Ratio (x) = 0.08956 0.39377
# Poissons Ratio (y) = 0.13014 -0.14716
# Poissons Ratio (z) = 0.31547 -0.08113
#
# Static dielectric constant tensor:
#      x y z
#    x 1.812430 -0.003250 0.044470 
#    y -0.003250 1.806070 0.079610 
#    z 0.044470 0.079610 1.831970 
# 
# From -- ./inp_files/195841.got.cif
#   From: 2010.05.17/outbox.cif.g08.bks.cpg/sg2_98_cif.got.tgz:195841.got - 2010.06.03 11:33:40.
