data_PCOD9080117
_publ_section_title
;
Structure prediction by ZEFSAII (Michael W. Deem and Ramdas Pophale) SiO2 
 PCOD9080117
Probable space group: P -1
;
_chemical_formula_sum "Si O2"
_cell_formula_units_Z 16
_cell_length_a 16.378011
_cell_length_b 7.540051
_cell_length_c 7.323205
_cell_angle_alpha 67.175773
_cell_angle_beta 120.471709
_cell_angle_gamma 77.455296
_cell_volume 613.185097
_symmetry_space_group_name_H-M "P -1"
_symmetry_group_IT_number 2
_symmetry_cell_setting 'triclinic'
loop_
_space_group_symop_operation_xyz
x,y,z
-x,-y,-z
loop_
_atom_site_type_symbol
_atom_site_label
_atom_site_fract_x
_atom_site_fract_y
_atom_site_fract_z
Si Si1 0.712446 0.940941 0.009832
Si Si2 0.403816 0.248166 0.223470
Si Si3 0.785045 0.029074 0.415321
Si Si4 0.038881 0.724238 0.693755
Si Si5 0.562938 0.373865 0.439159
Si Si6 0.082761 0.049512 0.846570
Si Si7 0.779504 0.649434 0.737689
Si Si8 0.223421 0.655366 0.441740
O O1 0.705934 0.060473 0.144302
O O2 0.837627 0.853487 0.130700
O O3 0.644254 0.125005 0.708051
O O4 0.665329 0.776330 0.010132
O O5 0.470288 0.372711 0.208185
O O6 0.316227 0.351873 0.250260
O O7 0.500000 0.000000 0.500000
O O8 0.752183 0.899744 0.573847
O O9 0.913830 0.848332 0.583061
O O10 0.774377 0.253775 0.390920
O O11 0.030417 0.746227 0.454126
O O12 0.095042 0.857277 0.792778
O O13 0.110285 0.484098 0.962547
O O14 0.500000 0.500000 0.500000
O O15 0.649493 0.436025 0.439055
O O16 0.126159 0.897646 0.139379
O O17 0.799249 0.523682 0.614147
#
# Coordination Sequence:
#
# PCOD9080117 Si02
#       8
#     2   2   2   2   2   2   2   2
#     4   9  20  37  58  86 114 156 187 244 302 339
#     4  10  20  38  63  84 110 149 201 251 294 331
#     4  11  22  40  55  84 133 157 185 235 305 361
#     4   9  19  35  59  87 116 158 198 244 286 343
#     4  10  18  38  64  85 106 145 205 250 281 337
#     4   8  16  35  58  83 113 149 202 241 282 327
#     4  11  21  37  60  89 117 155 202 238 293 359
#     4  10  21  38  62  88 118 159 191 241 300 352
#
# _framework density 26.093261999999999
#
# number of rings (size 3 to 8) (size 9 to 14) (size 15 to 20)
#    0.000    2.250    1.250    2.625    0.000    2.000 
#    2.250   14.375    0.000    0.000    0.000    0.000 
#    0.000    0.000    0.000    0.000    0.000    0.000 
#
# Total GULP energy -89191.365070 kJ/mol
# GULP energy per Si atom -5574.460317 kJ/mol
# Density = 2.603387 g / cm^3
# Si number density = 26.093262 Si / 1000 Ang^3
#
#
#
# Elastic Constant Matrix: (Units=GPa)
#
#
# Indices 1 2 3 4 5 6 
#
# 1 59.9349 20.7438 13.4115 7.5382 24.7569 7.7374
# 2 20.7438 127.8853 45.7116 37.0110 11.1505 -7.7691
# 3 13.4115 45.7116 105.7206 39.6261 13.4118 4.4839
# 4 7.5382 37.0110 39.6261 43.4535 6.2137 4.5401
# 5 24.7569 11.1505 13.4118 6.2137 44.9976 6.4212
# 6 7.7374 -7.7691 4.4839 4.5401 6.4212 32.7630
#
#
#
# Elastic Compliance Matrix: (Units=1/GPa)
#
#
# Indices 1 2 3 4 5 6 
#
# 1 0.022907 -0.003167 -0.000331 0.001063 -0.011288 -0.004050
# 2 -0.003167 0.011669 -0.001711 -0.008318 -0.000196 0.004940
# 3 -0.000331 -0.001711 0.014940 -0.011765 -0.002177 -0.000315
# 4 0.001063 -0.008318 -0.011765 0.041280 0.000192 -0.006371
# 5 -0.011288 -0.000196 -0.002177 0.000192 0.029518 -0.002894
# 6 -0.004050 0.004940 -0.000315 -0.006371 -0.002894 0.034143
#
#
# Mechanical properties :
#
#
# Convention : Reuss Voigt Hill
#
# Bulk Modulus (GPa) = 25.57640 50.36387 37.97013
# Shear Modulus (GPa) = 28.10442 38.48775 33.29609
#
# Velocity S-wave (km/s) = 3.28544 3.84475 3.57605
# Velocity P-wave (km/s) = 4.92091 6.24923 5.62442
#
# Compressibility (1/GPa) = 0.03909855
#
# Stress axis : x y z
#
# Youngs Moduli (GPa) = 43.65502 85.69677 66.93432
#
# Poissons Ratio (x) = 0.27137 0.02217
# Poissons Ratio (y) = 0.13824 0.11451
# Poissons Ratio (z) = 0.01446 0.14661
#
# Static dielectric constant tensor:
#      x y z
#    x 1.260160 0.816050 -0.580920 
#    y 0.816050 1.392060 0.493000 
#    z -0.580920 0.493000 1.771490 
# 
# From -- ./inp_files/328934.got.cif
#   From: 2010.05.17/outbox.cif.g08.bks.cpg/sg2_165_cif.got.tgz:328934.got - 2010.06.03 11:33:40.
