data_PCOD9080588
_publ_section_title
;
Structure prediction by ZEFSAII (Michael W. Deem and Ramdas Pophale) SiO2 
 PCOD9080588
Probable space group: P -1
;
_chemical_formula_sum "Si O2"
_cell_formula_units_Z 15
_cell_length_a 18.198518
_cell_length_b 11.808135
_cell_length_c 9.058357
_cell_angle_alpha 120.642740
_cell_angle_beta 128.072897
_cell_angle_gamma 29.345173
_cell_volume 749.013989
_symmetry_space_group_name_H-M "P -1"
_symmetry_group_IT_number 2
_symmetry_cell_setting 'triclinic'
loop_
_space_group_symop_operation_xyz
x,y,z
-x,-y,-z
loop_
_atom_site_type_symbol
_atom_site_label
_atom_site_fract_x
_atom_site_fract_y
_atom_site_fract_z
Si Si1 0.000000 0.000000 0.500000
Si Si2 0.596795 0.753362 0.478223
Si Si3 0.130883 0.526069 0.120196
Si Si4 0.867390 0.755821 0.193258
Si Si5 0.008027 0.145096 0.081621
Si Si6 0.621248 0.248780 0.802772
Si Si7 0.339521 0.766454 0.806283
Si Si8 0.898457 0.362255 0.400655
O O1 0.812218 0.156723 0.355604
O O2 0.957463 0.165283 0.434106
O O3 0.721726 0.618443 0.681055
O O4 0.475317 0.773135 0.362288
O O5 0.711447 0.599511 0.375177
O O6 0.500000 0.000000 0.500000
O O7 0.971896 0.679590 0.126928
O O8 0.166048 0.358361 0.951113
O O9 0.082767 0.706351 0.082009
O O10 0.989727 0.647510 0.406573
O O11 0.711490 0.033395 0.191674
O O12 0.925001 0.310681 0.227792
O O13 0.199029 0.961231 0.183678
O O14 0.000000 0.000000 0.000000
O O15 0.506322 0.504649 0.782893
O O16 0.642675 0.234993 0.996821
#
# Coordination Sequence:
#
# PCOD9080588 Si02
#       8
#     1   2   2   2   2   2   2   2
#     4  10  18  40  64  94 126 176 228 266 320 410
#     4  11  24  43  72 100 129 177 232 280 326 408
#     4  10  22  42  66  95 134 175 228 268 338 404
#     4   9  19  39  68  93 122 183 226 269 318 416
#     4  12  27  43  65 102 140 179 217 282 344 402
#     4  11  23  38  65  98 136 164 229 281 331 391
#     4  10  19  35  66  94 123 175 223 279 322 391
#     4  10  23  39  71  95 132 175 226 271 341 395
#
# _framework density 20.026329
#
# number of rings (size 3 to 8) (size 9 to 14) (size 15 to 20)
#    0.000    1.600    2.667    1.600    9.333    0.533 
#    0.000    6.667    0.000    0.000    0.000    0.000 
#    0.000    0.000    0.000    0.000    0.000    0.000 
#
# Total GULP energy -83575.577986 kJ/mol
# GULP energy per Si atom -5571.705199 kJ/mol
# Density = 1.998075 g / cm^3
# Si number density = 20.026329 Si / 1000 Ang^3
#
#
#
# Elastic Constant Matrix: (Units=GPa)
#
#
# Indices 1 2 3 4 5 6 
#
# 1 65.4971 53.9588 35.2432 -2.8641 7.2698 1.3981
# 2 53.9588 121.4143 39.8703 -12.8744 9.1620 7.3160
# 3 35.2432 39.8703 55.4596 -0.2339 8.6331 -4.5042
# 4 -2.8641 -12.8744 -0.2339 29.7894 -1.7332 -3.1856
# 5 7.2698 9.1620 8.6331 -1.7332 21.0355 -2.0807
# 6 1.3981 7.3160 -4.5042 -3.1856 -2.0807 23.8358
#
#
#
# Elastic Compliance Matrix: (Units=1/GPa)
#
#
# Indices 1 2 3 4 5 6 
#
# 1 0.029316 -0.009017 -0.012041 -0.001428 -0.001534 -0.001552
# 2 -0.009017 0.014783 -0.005035 0.004936 -0.001286 -0.004413
# 3 -0.012041 -0.005035 0.030777 -0.002658 -0.005783 0.007207
# 4 -0.001428 0.004936 -0.002658 0.036035 0.002712 0.003119
# 5 -0.001534 -0.001286 -0.005783 0.002712 0.051647 0.004263
# 6 -0.001552 -0.004413 0.007207 0.003119 0.004263 0.045550
#
#
# Mechanical properties :
#
#
# Convention : Reuss Voigt Hill
#
# Bulk Modulus (GPa) = 44.07073 55.61284 49.84178
# Shear Modulus (GPa) = 18.66657 22.48539 20.57598
#
# Velocity S-wave (km/s) = 3.05635 3.35444 3.20886
# Velocity P-wave (km/s) = 5.87445 6.54471 6.21862
#
# Compressibility (1/GPa) = 0.02269080
#
# Stress axis : x y z
#
# Youngs Moduli (GPa) = 34.11080 67.64377 32.49184
#
# Poissons Ratio (x) = 0.60994 0.39123
# Poissons Ratio (y) = 0.30757 0.16360
# Poissons Ratio (z) = 0.41072 0.34060
#
# Static dielectric constant tensor:
#      x y z
#    x 1.681340 0.013720 -0.000380 
#    y 0.013720 1.741870 0.028200 
#    z -0.000380 0.028200 1.723760 
# 
# From -- ./inp_files/284643.got.cif
#   From: 2010.05.17/outbox.cif.g08.bks.cpg/sg2_143_cif.got.tgz:284643.got - 2010.06.03 11:33:40.
