data_PCOD9080028
_publ_section_title
;
Structure prediction by ZEFSAII (Michael W. Deem and Ramdas Pophale) SiO2 
 PCOD9080028
Probable space group: P -1
;
_chemical_formula_sum "Si O2"
_cell_formula_units_Z 14
_cell_length_a 8.563335
_cell_length_b 8.404682
_cell_length_c 15.596528
_cell_angle_alpha 96.277953
_cell_angle_beta 135.986397
_cell_angle_gamma 63.548087
_cell_volume 656.905951
_symmetry_space_group_name_H-M "P -1"
_symmetry_group_IT_number 2
_symmetry_cell_setting 'triclinic'
loop_
_space_group_symop_operation_xyz
x,y,z
-x,-y,-z
loop_
_atom_site_type_symbol
_atom_site_label
_atom_site_fract_x
_atom_site_fract_y
_atom_site_fract_z
Si Si1 0.189166 0.803004 0.109383
Si Si2 0.092048 0.189744 0.374948
Si Si3 0.075038 0.384852 0.933594
Si Si4 0.087023 0.866950 0.440348
Si Si5 0.644636 0.864717 0.342349
Si Si6 0.505246 0.442418 0.095479
Si Si7 0.652274 0.729322 0.678813
O O1 0.017027 0.762511 0.104734
O O2 0.443280 0.796864 0.247144
O O3 0.307666 0.634715 0.077995
O O4 0.000000 0.000000 0.000000
O O5 0.202929 0.208211 0.510999
O O6 0.267670 0.199478 0.369388
O O7 0.789965 0.347693 0.245633
O O8 0.087411 0.997747 0.372339
O O9 0.901314 0.540125 0.802191
O O10 0.000000 0.500000 0.000000
O O11 0.383385 0.309736 0.041194
O O12 0.869240 0.809347 0.354689
O O13 0.397882 0.709563 0.563836
O O14 0.000000 0.000000 0.500000
O O15 0.458625 0.094190 0.288746
O O16 0.500000 0.500000 0.000000
#
# Coordination Sequence:
#
# PCOD9080028 Si02
#       7
#     2   2   2   2   2   2   2
#     4  11  26  42  63  89 124 160 203 258 312 355
#     4  10  20  35  65  91 122 159 203 248 302 363
#     4  10  22  37  64  84 117 165 211 243 295 373
#     4   8  18  31  59  90 118 158 199 247 290 363
#     4  10  21  38  62  94 123 156 203 258 299 356
#     4  11  23  42  64  92 119 162 207 251 300 369
#     4  10  18  38  61  91 119 161 208 239 301 366
#
# _framework density 21.312031000000001
#
# number of rings (size 3 to 8) (size 9 to 14) (size 15 to 20)
#    0.000    2.286    1.429    3.429   14.000    0.571 
#    0.000    4.286    0.000    0.000    0.000    0.000 
#    0.000    0.000    0.000    0.000    0.000    0.000 
#
# Total GULP energy -78078.375213 kJ/mol
# GULP energy per Si atom -5577.026801 kJ/mol
# Density = 2.126352 g / cm^3
# Si number density = 21.312031 Si / 1000 Ang^3
#
#
#
# Elastic Constant Matrix: (Units=GPa)
#
#
# Indices 1 2 3 4 5 6 
#
# 1 111.3128 26.6491 45.1717 16.3014 25.3931 41.3040
# 2 26.6491 49.3217 41.7433 11.5184 12.0752 27.4888
# 3 45.1717 41.7433 130.0132 2.5570 19.9372 22.9843
# 4 16.3014 11.5184 2.5570 28.3436 12.0663 15.2647
# 5 25.3931 12.0752 19.9372 12.0663 39.9260 1.8818
# 6 41.3040 27.4888 22.9843 15.2647 1.8818 36.2703
#
#
#
# Elastic Compliance Matrix: (Units=1/GPa)
#
#
# Indices 1 2 3 4 5 6 
#
# 1 0.024849 0.014217 -0.003248 0.010341 -0.019706 -0.040345
# 2 0.014217 0.053373 -0.009803 0.008050 -0.020235 -0.052768
# 3 -0.003248 -0.009803 0.011984 0.005016 -0.002543 0.001555
# 4 0.010341 0.008050 0.005016 0.062272 -0.028177 -0.045802
# 5 -0.019706 -0.020235 -0.002543 -0.028177 0.051195 0.048591
# 6 -0.040345 -0.052768 0.001555 -0.045802 0.048591 0.129277
#
#
# Mechanical properties :
#
#
# Convention : Reuss Voigt Hill
#
# Bulk Modulus (GPa) = 10.80612 57.53065 34.16839
# Shear Modulus (GPa) = 13.83267 32.71355 23.27311
#
# Velocity S-wave (km/s) = 2.55042 3.92213 3.30815
# Velocity P-wave (km/s) = 3.70868 6.89666 5.53706
#
# Compressibility (1/GPa) = 0.09254015
#
# Stress axis : x y z
#
# Youngs Moduli (GPa) = 40.24245 18.73598 83.44628
#
# Poissons Ratio (x) = -0.26638 0.27099
# Poissons Ratio (y) = -0.57214 0.81803
# Poissons Ratio (z) = 0.13069 0.18367
#
# Static dielectric constant tensor:
#      x y z
#    x 1.194310 0.145410 -0.078890 
#    y 0.145410 1.794740 0.058570 
#    z -0.078890 0.058570 1.768930 
# 
# From -- ./inp_files/555288.got.cif
#   From: 2010.05.17/outbox.cif.g08.bks.cpg/sg2_278_cif.got.tgz:555288.got - 2010.06.03 11:33:40.
