data_PCOD9080624
_publ_section_title
;
Structure prediction by ZEFSAII (Michael W. Deem and Ramdas Pophale) SiO2 
 PCOD9080624
Probable space group: P -1
;
_chemical_formula_sum "Si O2"
_cell_formula_units_Z 13
_cell_length_a 16.290785
_cell_length_b 9.703653
_cell_length_c 13.453606
_cell_angle_alpha 44.091785
_cell_angle_beta 26.804858
_cell_angle_gamma 32.717033
_cell_volume 513.673042
_symmetry_space_group_name_H-M "P -1"
_symmetry_group_IT_number 2
_symmetry_cell_setting 'triclinic'
loop_
_space_group_symop_operation_xyz
x,y,z
-x,-y,-z
loop_
_atom_site_type_symbol
_atom_site_label
_atom_site_fract_x
_atom_site_fract_y
_atom_site_fract_z
Si Si1 0.845479 0.896000 0.484974
Si Si2 0.047314 0.828187 0.633920
Si Si3 0.479553 0.554940 0.767620
Si Si4 0.121131 0.500994 0.210807
Si Si5 0.500000 0.500000 0.000000
Si Si6 0.244291 0.109339 0.754795
Si Si7 0.360686 0.056441 0.879382
O O1 0.865188 0.725879 0.641840
O O2 0.025057 0.700946 0.305074
O O3 0.931127 0.044367 0.358774
O O4 0.574201 0.064682 0.654852
O O5 0.305595 0.556063 0.480065
O O6 0.000000 0.000000 0.500000
O O7 0.838018 0.819579 0.885322
O O8 0.264324 0.860161 0.839654
O O9 0.367153 0.416797 0.948827
O O10 0.575661 0.494797 0.806617
O O11 0.939439 0.658584 0.237526
O O12 0.518181 0.244964 0.092052
O O13 0.230554 0.160011 0.860192
O O14 0.500000 0.000000 0.500000
#
# Coordination Sequence:
#
# PCOD9080624 Si02
#       7
#     2   2   2   2   1   2   2
#     4  11  24  42  73 105 131 177 237 277 340 404
#     4  12  26  42  68 104 146 178 216 286 354 405
#     4  11  24  41  67  97 135 178 222 281 346 398
#     4  11  23  43  72 100 130 176 235 290 318 409
#     4  10  18  40  66  98 122 172 230 272 328 384
#     4  11  24  43  70  98 131 178 235 283 337 393
#     4  11  23  44  70 101 138 178 227 287 331 409
#
# _framework density 25.307928
#
# number of rings (size 3 to 8) (size 9 to 14) (size 15 to 20)
#    0.000    0.923    4.615    2.308    4.308    2.462 
#    0.000    3.846    0.000    0.000    0.000    0.000 
#    0.000    0.000    0.000    0.000    0.000    0.000 
#
# Total GULP energy -72613.860318 kJ/mol
# GULP energy per Si atom -5585.681563 kJ/mol
# Density = 2.525033 g / cm^3
# Si number density = 25.307928 Si / 1000 Ang^3
#
#
#
# Elastic Constant Matrix: (Units=GPa)
#
#
# Indices 1 2 3 4 5 6 
#
# 1 86.8490 42.5748 8.5322 12.0288 9.9550 -14.6754
# 2 42.5748 49.5386 9.0668 -0.5609 -2.8586 -4.7897
# 3 8.5322 9.0668 126.6266 14.8444 -7.5746 -6.6938
# 4 12.0288 -0.5609 14.8444 37.0072 -5.4356 -0.2775
# 5 9.9550 -2.8586 -7.5746 -5.4356 36.6623 -10.0460
# 6 -14.6754 -4.7897 -6.6938 -0.2775 -10.0460 39.3144
#
#
#
# Elastic Compliance Matrix: (Units=1/GPa)
#
#
# Indices 1 2 3 4 5 6 
#
# 1 0.025569 -0.022291 0.000793 -0.010218 -0.008757 0.004654
# 2 -0.022291 0.040296 -0.002035 0.010127 0.009963 -0.001141
# 3 0.000793 -0.002035 0.008581 -0.003514 0.001381 0.001837
# 4 -0.010218 0.010127 -0.003514 0.032992 0.007444 -0.001044
# 5 -0.008757 0.009963 0.001381 0.007444 0.033695 0.006843
# 6 0.004654 -0.001141 0.001837 -0.001044 0.006843 0.029088
#
#
# Mechanical properties :
#
#
# Convention : Reuss Voigt Hill
#
# Bulk Modulus (GPa) = 36.52187 42.59576 39.55881
# Shear Modulus (GPa) = 22.08359 36.11949 29.10154
#
# Velocity S-wave (km/s) = 2.95718 3.78193 3.39469
# Velocity P-wave (km/s) = 5.11099 5.99485 5.57047
#
# Compressibility (1/GPa) = 0.02738085
#
# Stress axis : x y z
#
# Youngs Moduli (GPa) = 39.10959 24.81666 116.53380
#
# Poissons Ratio (x) = 0.55319 -0.09245
# Poissons Ratio (y) = 0.87179 0.23713
# Poissons Ratio (z) = -0.03103 0.05050
#
# Static dielectric constant tensor:
#      x y z
#    x 2.034480 -0.017410 -0.048890 
#    y -0.017410 2.118990 -0.007960 
#    z -0.048890 -0.007960 1.965710 
# 
# From -- ./inp_files/238580.got.cif
#   From: 2010.05.17/outbox.cif.g08.bks.cpg/sg2_120_cif.got.tgz:238580.got - 2010.06.03 11:33:40.
