data_PCOD9080799
_publ_section_title
;
Structure prediction by ZEFSAII (Michael W. Deem and Ramdas Pophale) SiO2 
 PCOD9080799
Probable space group: P -1
;
_chemical_formula_sum "Si O2"
_cell_formula_units_Z 16
_cell_length_a 16.784067
_cell_length_b 8.901717
_cell_length_c 16.497063
_cell_angle_alpha 125.318062
_cell_angle_beta 162.863551
_cell_angle_gamma 55.391614
_cell_volume 591.346259
_symmetry_space_group_name_H-M "P -1"
_symmetry_group_IT_number 2
_symmetry_cell_setting 'triclinic'
loop_
_space_group_symop_operation_xyz
x,y,z
-x,-y,-z
loop_
_atom_site_type_symbol
_atom_site_label
_atom_site_fract_x
_atom_site_fract_y
_atom_site_fract_z
Si Si1 0.455898 0.889691 0.809821
Si Si2 0.983907 0.685664 0.244314
Si Si3 0.071277 0.093209 0.279979
Si Si4 0.899981 0.298456 0.854802
Si Si5 0.592484 0.126464 0.705243
Si Si6 0.058884 0.502305 0.679143
Si Si7 0.583743 0.274349 0.097964
Si Si8 0.333990 0.372112 0.411018
O O1 0.146160 0.865055 0.478591
O O2 0.465320 0.816635 0.889125
O O3 0.681599 0.750125 0.944008
O O4 0.538343 0.097841 0.943210
O O5 0.181721 0.569675 0.340017
O O6 0.970475 0.560343 0.273962
O O7 0.004803 0.279024 0.323347
O O8 0.389603 0.086054 0.567666
O O9 0.887115 0.128156 0.030603
O O10 0.032254 0.877464 0.191409
O O11 0.583013 0.332267 0.578553
O O12 0.000000 0.500000 0.000000
O O13 0.088205 0.252571 0.103841
O O14 0.483071 0.323299 0.625294
O O15 0.500000 0.000000 0.500000
O O16 0.864676 0.368592 0.402206
O O17 0.358488 0.440373 0.923754
#
# Coordination Sequence:
#
# PCOD9080799 Si02
#       8
#     2   2   2   2   2   2   2   2
#     4   9  17  29  44  67 107 146 172 196 249 319
#     4  10  19  29  48  76 103 134 176 216 257 308
#     4  12  22  35  54  80 109 139 180 226 263 315
#     4  12  26  42  56  74 107 149 184 221 269 323
#     4  12  21  34  55  82 104 136 176 224 279 313
#     4  10  19  28  47  74 106 135 178 211 255 310
#     4   9  17  29  43  67 106 150 170 196 246 320
#     4  12  23  37  58  80 108 138 183 229 266 316
#
# _framework density 27.056903999999999
#
# number of rings (size 3 to 8) (size 9 to 14) (size 15 to 20)
#    0.000    1.250    3.750    3.750    3.500    3.000 
#    0.000    0.000    0.000    0.000    0.000    0.000 
#    0.000   20.000    0.000    0.000    0.000    0.000 
#
# Total GULP energy -89432.280502 kJ/mol
# GULP energy per Si atom -5589.517531 kJ/mol
# Density = 2.699532 g / cm^3
# Si number density = 27.056904 Si / 1000 Ang^3
#
#
#
# Elastic Constant Matrix: (Units=GPa)
#
#
# Indices 1 2 3 4 5 6 
#
# 1 58.8397 24.7925 14.8265 0.4947 2.3295 -0.4443
# 2 24.7925 152.9131 8.5652 26.4554 -6.6030 -7.9473
# 3 14.8265 8.5652 97.0956 -4.3547 6.7553 -9.3041
# 4 0.4947 26.4554 -4.3547 36.9803 -2.7861 1.1557
# 5 2.3295 -6.6030 6.7553 -2.7861 19.0579 -5.7177
# 6 -0.4443 -7.9473 -9.3041 1.1557 -5.7177 27.5387
#
#
#
# Elastic Compliance Matrix: (Units=1/GPa)
#
#
# Indices 1 2 3 4 5 6 
#
# 1 0.019218 -0.003540 -0.002545 0.001814 -0.003095 -0.002290
# 2 -0.003540 0.008483 -0.000413 -0.005898 0.003632 0.003253
# 3 -0.002545 -0.000413 0.011264 0.001357 -0.002719 0.003024
# 4 0.001814 -0.005898 0.001357 0.031557 0.001179 -0.002294
# 5 -0.003095 0.003632 -0.002719 0.001179 0.058924 0.012264
# 6 -0.002290 0.003253 0.003024 -0.002294 0.012264 0.040879
#
#
# Mechanical properties :
#
#
# Convention : Reuss Voigt Hill
#
# Bulk Modulus (GPa) = 38.50787 45.02408 41.76598
# Shear Modulus (GPa) = 26.04473 34.09300 30.06886
#
# Velocity S-wave (km/s) = 3.10593 3.55357 3.33726
# Velocity P-wave (km/s) = 5.20821 5.78911 5.50633
#
# Compressibility (1/GPa) = 0.02596872
#
# Stress axis : x y z
#
# Youngs Moduli (GPa) = 52.03403 117.88186 88.77832
#
# Poissons Ratio (x) = 0.41729 0.22595
# Poissons Ratio (y) = 0.18419 0.03669
# Poissons Ratio (z) = 0.13243 0.04872
#
# Static dielectric constant tensor:
#      x y z
#    x 2.319530 0.157270 -0.148600 
#    y 0.157270 2.302160 -0.185480 
#    z -0.148600 -0.185480 2.239670 
# 
# From -- ./inp_files/621215.got.cif
#   From: 2010.05.17/outbox.cif.g08.bks.cpg/sg2_311_cif.got.tgz:621215.got - 2010.06.03 11:33:40.
