data_PCOD9080286
_publ_section_title
;
Structure prediction by ZEFSAII (Michael W. Deem and Ramdas Pophale) SiO2 
 PCOD9080286
Probable space group: P -1
;
_chemical_formula_sum "Si O2"
_cell_formula_units_Z 16
_cell_length_a 8.997375
_cell_length_b 19.548144
_cell_length_c 17.174032
_cell_angle_alpha 155.654086
_cell_angle_beta 38.260175
_cell_angle_gamma 141.976965
_cell_volume 739.440025
_symmetry_space_group_name_H-M "P -1"
_symmetry_group_IT_number 2
_symmetry_cell_setting 'triclinic'
loop_
_space_group_symop_operation_xyz
x,y,z
-x,-y,-z
loop_
_atom_site_type_symbol
_atom_site_label
_atom_site_fract_x
_atom_site_fract_y
_atom_site_fract_z
Si Si1 0.970551 0.737102 0.780393
Si Si2 0.552150 0.105996 0.167936
Si Si3 0.551992 0.926939 0.151704
Si Si4 0.393051 0.902989 0.361562
Si Si5 0.186096 0.262289 0.554663
Si Si6 0.558578 0.487826 0.050635
Si Si7 0.087197 0.594811 0.980840
Si Si8 0.658848 0.371549 0.578382
O O1 0.776136 0.547135 0.663114
O O2 0.165648 0.768268 0.805131
O O3 0.152264 0.741995 0.635793
O O4 0.806479 0.869361 0.988923
O O5 0.337685 0.202801 0.362712
O O6 0.529611 0.998601 0.147263
O O7 0.500000 0.000000 0.000000
O O8 0.506918 0.996599 0.330025
O O9 0.316561 0.756020 0.068057
O O10 0.441206 0.711023 0.139003
O O11 0.090186 0.862764 0.445925
O O12 0.500000 0.000000 0.500000
O O13 0.155628 0.452279 0.751187
O O14 0.381331 0.282633 0.567481
O O15 0.832361 0.623482 0.087178
O O16 0.500000 0.500000 0.000000
O O17 0.368633 0.554468 0.250011
O O18 0.000000 0.500000 0.000000
#
# Coordination Sequence:
#
# PCOD9080286 Si02
#       8
#     2   2   2   2   2   2   2   2
#     4  10  21  39  68  90 120 171 218 258 307 373
#     4  11  28  43  61  93 135 173 213 264 311 386
#     4  12  22  44  69  91 126 175 211 263 327 371
#     4  11  24  39  64  97 132 163 203 263 329 395
#     4  10  20  42  65  92 125 160 212 266 319 374
#     4  11  22  38  63  98 127 156 207 270 321 369
#     4  11  18  41  70  91 121 163 213 268 319 382
#     4  10  18  38  69  90 119 163 218 262 306 369
#
# _framework density 21.637996000000001
#
# number of rings (size 3 to 8) (size 9 to 14) (size 15 to 20)
#    0.000    1.250    6.250    0.375    1.750    4.500 
#    4.500    0.625    0.000    0.000    0.000    0.000 
#    0.000    0.000    0.000    0.000    0.000    0.000 
#
# Total GULP energy -89159.988931 kJ/mol
# GULP energy per Si atom -5572.499308 kJ/mol
# Density = 2.158875 g / cm^3
# Si number density = 21.637996 Si / 1000 Ang^3
#
#
#
# Elastic Constant Matrix: (Units=GPa)
#
#
# Indices 1 2 3 4 5 6 
#
# 1 84.7156 47.0215 41.4422 -18.7583 20.8915 17.8063
# 2 47.0215 70.8736 25.8753 -12.9693 17.6504 18.8714
# 3 41.4422 25.8753 163.0446 -17.0833 23.6489 11.8544
# 4 -18.7583 -12.9693 -17.0833 26.4014 2.0567 -4.8940
# 5 20.8915 17.6504 23.6489 2.0567 39.0142 -2.6022
# 6 17.8063 18.8714 11.8544 -4.8940 -2.6022 33.5691
#
#
#
# Elastic Compliance Matrix: (Units=1/GPa)
#
#
# Indices 1 2 3 4 5 6 
#
# 1 0.023406 -0.009475 -0.001775 0.010426 -0.008093 -0.005570
# 2 -0.009475 0.025532 0.000713 0.005130 -0.007809 -0.009436
# 3 -0.001775 0.000713 0.007665 0.004034 -0.004359 -0.001916
# 4 0.010426 0.005130 0.004034 0.050806 -0.013258 -0.003459
# 5 -0.008093 -0.007809 -0.004359 -0.013258 0.037586 0.011203
# 6 -0.005570 -0.009436 -0.001916 -0.003459 0.011203 0.039089
#
#
# Mechanical properties :
#
#
# Convention : Reuss Voigt Hill
#
# Bulk Modulus (GPa) = 28.14529 60.81244 44.47886
# Shear Modulus (GPa) = 23.04126 33.41658 28.22892
#
# Velocity S-wave (km/s) = 3.26675 3.93408 3.61584
# Velocity P-wave (km/s) = 5.22154 6.98581 6.16709
#
# Compressibility (1/GPa) = 0.03552993
#
# Stress axis : x y z
#
# Youngs Moduli (GPa) = 42.72367 39.16684 130.45534
#
# Poissons Ratio (x) = 0.37110 0.23150
# Poissons Ratio (y) = 0.40480 -0.09297
# Poissons Ratio (z) = 0.07582 -0.02791
#
# Static dielectric constant tensor:
#      x y z
#    x 1.817150 -0.024760 -0.022340 
#    y -0.024760 1.931230 0.066870 
#    z -0.022340 0.066870 1.901330 
# 
# From -- ./inp_files/508152.got.cif
#   From: 2010.05.17/outbox.cif.g08.bks.cpg/sg2_255_cif.got.tgz:508152.got - 2010.06.03 11:33:40.
