data_PCOD9080417
_publ_section_title
;
Structure prediction by ZEFSAII (Michael W. Deem and Ramdas Pophale) SiO2 
 PCOD9080417
Probable space group: P -1
;
_chemical_formula_sum "Si O2"
_cell_formula_units_Z 9
_cell_length_a 5.282932
_cell_length_b 8.846534
_cell_length_c 11.519597
_cell_angle_alpha 40.758081
_cell_angle_beta 89.964904
_cell_angle_gamma 98.410870
_cell_volume 342.494790
_symmetry_space_group_name_H-M "P -1"
_symmetry_group_IT_number 2
_symmetry_cell_setting 'triclinic'
loop_
_space_group_symop_operation_xyz
x,y,z
-x,-y,-z
loop_
_atom_site_type_symbol
_atom_site_label
_atom_site_fract_x
_atom_site_fract_y
_atom_site_fract_z
Si Si1 0.809112 0.197976 0.648890
Si Si2 0.325320 0.223752 0.771783
Si Si3 0.000000 0.500000 0.000000
Si Si4 0.470034 0.747084 0.003564
Si Si5 0.209895 0.838459 0.590722
O O1 0.587471 0.297846 0.654430
O O2 0.832999 0.272727 0.472965
O O3 0.073002 0.254382 0.687222
O O4 0.692316 0.910251 0.827713
O O5 0.383642 0.320130 0.845013
O O6 0.304184 0.935640 0.942759
O O7 0.737558 0.449628 0.945321
O O8 0.164385 0.670444 0.799597
O O9 0.500000 0.000000 0.500000
O O10 0.000000 0.000000 0.500000
#
# Coordination Sequence:
#
# PCOD9080417 Si02
#       5
#     2   2   1   2   2
#     4  10  18  39  64  87 127 179 214 267 334 390
#     4   9  19  37  67  89 129 179 212 271 342 385
#     4  12  24  46  68 110 130 184 230 278 340 406
#     4   9  20  36  65  95 132 169 224 269 335 398
#     4  12  25  46  66  99 145 178 221 283 342 402
#
# _framework density 26.277771000000001
#
# number of rings (size 3 to 8) (size 9 to 14) (size 15 to 20)
#    1.333    0.444    2.222    3.333    0.000    0.889 
#    4.000    2.222    0.000    0.000    0.000    0.000 
#    0.000    0.000    0.000    0.000    0.000    0.000 
#
# Total GULP energy -50202.054610 kJ/mol
# GULP energy per Si atom -5578.006068 kJ/mol
# Density = 2.621796 g / cm^3
# Si number density = 26.277771 Si / 1000 Ang^3
#
#
#
# Elastic Constant Matrix: (Units=GPa)
#
#
# Indices 1 2 3 4 5 6 
#
# 1 178.6334 75.0929 78.0411 5.8811 5.0623 59.8821
# 2 75.0929 129.4968 76.6413 7.2000 7.2411 55.2440
# 3 78.0411 76.6413 199.7553 34.0229 -17.0393 18.4169
# 4 5.8811 7.2000 34.0229 45.9283 21.6022 -1.1691
# 5 5.0623 7.2411 -17.0393 21.6022 44.6789 -1.9711
# 6 59.8821 55.2440 18.4169 -1.1691 -1.9711 58.8688
#
#
#
# Elastic Compliance Matrix: (Units=1/GPa)
#
#
# Indices 1 2 3 4 5 6 
#
# 1 0.010977 0.001564 -0.005256 0.004968 -0.006394 -0.011105
# 2 0.001564 0.019885 -0.009053 0.008450 -0.011716 -0.017645
# 3 -0.005256 -0.009053 0.013299 -0.014326 0.014497 0.009883
# 4 0.004968 0.008450 -0.014326 0.043831 -0.028968 -0.008600
# 5 -0.006394 -0.011716 0.014497 -0.028968 0.045153 0.013900
# 6 -0.011105 -0.017645 0.009883 -0.008600 0.013900 0.042044
#
#
# Mechanical properties :
#
#
# Convention : Reuss Voigt Hill
#
# Bulk Modulus (GPa) = 53.55676 107.49290 80.52483
# Shear Modulus (GPa) = 24.16596 48.43587 36.30091
#
# Velocity S-wave (km/s) = 3.03584 4.29794 3.72079
# Velocity P-wave (km/s) = 5.71959 8.10092 7.01208
#
# Compressibility (1/GPa) = 0.01867178
#
# Stress axis : x y z
#
# Youngs Moduli (GPa) = 91.09745 50.28821 75.19626
#
# Poissons Ratio (x) = -0.07867 0.39526
# Poissons Ratio (y) = -0.14250 0.68072
# Poissons Ratio (z) = 0.47885 0.45524
#
# Static dielectric constant tensor:
#      x y z
#    x 2.072850 -0.194090 0.076590 
#    y -0.194090 2.120940 -0.105650 
#    z 0.076590 -0.105650 2.084350 
# 
# From -- ./inp_files/73005.got.cif
#   From: 2010.05.17/outbox.cif.g08.bks.cpg/sg2_37_cif.got.tgz:73005.got - 2010.06.03 11:33:40.
