data_PCOD9080463
_publ_section_title
;
Structure prediction by ZEFSAII (Michael W. Deem and Ramdas Pophale) SiO2 
 PCOD9080463
Probable space group: P -1
;
_chemical_formula_sum "Si O2"
_cell_formula_units_Z 16
_cell_length_a 15.793076
_cell_length_b 16.556055
_cell_length_c 9.646882
_cell_angle_alpha 134.479799
_cell_angle_beta 137.625770
_cell_angle_gamma 23.710646
_cell_volume 680.859871
_symmetry_space_group_name_H-M "P -1"
_symmetry_group_IT_number 2
_symmetry_cell_setting 'triclinic'
loop_
_space_group_symop_operation_xyz
x,y,z
-x,-y,-z
loop_
_atom_site_type_symbol
_atom_site_label
_atom_site_fract_x
_atom_site_fract_y
_atom_site_fract_z
Si Si1 0.324939 0.623948 0.562550
Si Si2 0.366941 0.659681 0.155662
Si Si3 0.627214 0.158687 0.067811
Si Si4 0.902047 0.351935 0.221374
Si Si5 0.446968 0.820756 0.309158
Si Si6 0.119858 0.182865 0.815475
Si Si7 0.756655 0.856842 0.389831
Si Si8 0.117879 0.497398 0.878336
O O1 0.500000 0.500000 0.500000
O O2 0.463038 0.461709 0.657306
O O3 0.267097 0.795390 0.743678
O O4 0.101334 0.725034 0.375089
O O5 0.309979 0.827313 0.237268
O O6 0.500000 0.500000 0.000000
O O7 0.171677 0.714063 0.011070
O O8 0.729077 0.000913 0.116430
O O9 0.643639 0.098456 0.859367
O O10 0.362469 0.374005 0.036136
O O11 0.687080 0.583178 0.292546
O O12 0.994568 0.363475 0.225802
O O13 0.054588 0.222428 0.383868
O O14 0.458704 0.928246 0.537935
O O15 0.238582 0.119905 0.738220
O O16 0.032312 0.360314 0.000780
O O17 0.814302 0.683143 0.271307
#
# Coordination Sequence:
#
# PCOD9080463 Si02
#       8
#     2   2   2   2   2   2   2   2
#     4  12  22  42  70  96 132 173 214 268 333 392
#     4  10  18  39  67  91 130 166 205 271 330 374
#     4  11  24  44  68  96 133 178 214 269 329 389
#     4  10  21  43  69  92 127 176 218 272 326 378
#     4  10  23  41  66  98 132 170 218 271 327 385
#     4  12  26  42  65  99 133 174 220 266 327 392
#     4  12  27  40  67 102 129 176 222 268 321 390
#     4  11  24  48  66  91 136 177 223 267 320 382
#
# _framework density 23.499694999999999
#
# number of rings (size 3 to 8) (size 9 to 14) (size 15 to 20)
#    0.000    1.000    5.000    3.375    1.750    5.000 
#    2.250    0.000    0.000    0.000    0.000    0.000 
#    0.000    0.000    0.000    0.000    0.000    0.000 
#
# Total GULP energy -89525.207688 kJ/mol
# GULP energy per Si atom -5595.325481 kJ/mol
# Density = 2.344621 g / cm^3
# Si number density = 23.499695 Si / 1000 Ang^3
#
#
#
# Elastic Constant Matrix: (Units=GPa)
#
#
# Indices 1 2 3 4 5 6 
#
# 1 80.4068 27.5652 32.1860 1.7250 -31.1629 32.1089
# 2 27.5652 93.1143 38.5754 1.4772 -10.9993 33.2567
# 3 32.1860 38.5754 89.9951 22.3567 -26.3121 17.0594
# 4 1.7250 1.4772 22.3567 43.3100 6.6137 -5.0207
# 5 -31.1629 -10.9993 -26.3121 6.6137 41.6210 -2.9789
# 6 32.1089 33.2567 17.0594 -5.0207 -2.9789 44.1430
#
#
#
# Elastic Compliance Matrix: (Units=1/GPa)
#
#
# Indices 1 2 3 4 5 6 
#
# 1 0.029466 0.001406 0.002183 -0.008579 0.023551 -0.022723
# 2 0.001406 0.016738 -0.005307 0.000603 0.001207 -0.011432
# 3 0.002183 -0.005307 0.022239 -0.014633 0.016133 -0.006760
# 4 -0.008579 0.000603 -0.014633 0.035684 -0.020173 0.014138
# 5 0.023551 0.001207 0.016133 -0.020173 0.053741 -0.022942
# 6 -0.022723 -0.011432 -0.006760 0.014138 -0.022942 0.050467
#
#
# Mechanical properties :
#
#
# Convention : Reuss Voigt Hill
#
# Bulk Modulus (GPa) = 15.38286 51.12993 33.25639
# Shear Modulus (GPa) = 21.41879 36.82744 29.12311
#
# Velocity S-wave (km/s) = 3.02230 3.96301 3.52418
# Velocity P-wave (km/s) = 4.32888 6.53801 5.54458
#
# Compressibility (1/GPa) = 0.06500743
#
# Stress axis : x y z
#
# Youngs Moduli (GPa) = 33.93695 59.74446 44.96583
#
# Poissons Ratio (x) = -0.08402 -0.09816
# Poissons Ratio (y) = -0.04773 0.23865
# Poissons Ratio (z) = -0.07409 0.31709
#
# Static dielectric constant tensor:
#      x y z
#    x 1.926520 -0.050880 0.037060 
#    y -0.050880 1.924300 0.007510 
#    z 0.037060 0.007510 1.900750 
# 
# From -- ./inp_files/277686.got.cif
#   From: 2010.05.17/outbox.cif.g08.bks.cpg/sg2_139_cif.got.tgz:277686.got - 2010.06.03 11:33:40.
