data_PCOD9080859
_publ_section_title
;
Structure prediction by ZEFSAII (Michael W. Deem and Ramdas Pophale) SiO2 
 PCOD9080859
Probable space group: P -1
;
_chemical_formula_sum "Si O2"
_cell_formula_units_Z 14
_cell_length_a 5.820607
_cell_length_b 11.373153
_cell_length_c 9.496299
_cell_angle_alpha 116.337545
_cell_angle_beta 71.616271
_cell_angle_gamma 114.140401
_cell_volume 507.174826
_symmetry_space_group_name_H-M "P -1"
_symmetry_group_IT_number 2
_symmetry_cell_setting 'triclinic'
loop_
_space_group_symop_operation_xyz
x,y,z
-x,-y,-z
loop_
_atom_site_type_symbol
_atom_site_label
_atom_site_fract_x
_atom_site_fract_y
_atom_site_fract_z
Si Si1 0.575586 0.850011 0.484978
Si Si2 0.977403 0.954521 0.655618
Si Si3 0.697830 0.164524 0.908748
Si Si4 0.223733 0.583007 0.661951
Si Si5 0.769650 0.094171 0.170979
Si Si6 0.302511 0.419098 0.289022
Si Si7 0.753037 0.380112 0.786881
O O1 0.741996 0.982202 0.431471
O O2 0.399682 0.857551 0.654791
O O3 0.412301 0.743825 0.347122
O O4 0.812681 0.832207 0.522384
O O5 0.857222 0.079396 0.750022
O O6 0.987861 0.911605 0.790927
O O7 0.746131 0.311749 0.903688
O O8 0.405665 0.067788 0.902952
O O9 0.782460 0.160801 0.051039
O O10 0.305450 0.531299 0.471059
O O11 0.481966 0.643809 0.735059
O O12 0.003545 0.653299 0.703940
O O13 0.043818 0.450332 0.713693
O O14 0.362785 0.497401 0.168894
#
# Coordination Sequence:
#
# PCOD9080859 Si02
#       7
#     2   2   2   2   2   2   2
#     4  10  21  30  49  70  94 131 171 209 256 292
#     4  10  20  32  49  65  95 135 175 213 247 294
#     4  10  21  31  49  68  93 133 176 205 251 295
#     4   8  16  29  48  72 105 126 159 201 269 297
#     4  10  20  36  43  63 102 136 166 210 252 297
#     4   8  16  30  46  74 103 130 150 213 258 312
#     4  10  19  29  49  76  96 128 169 212 245 309
#
# _framework density 27.603891999999998
#
# number of rings (size 3 to 8) (size 9 to 14) (size 15 to 20)
#    0.857    1.714    1.429    0.857    6.000    0.000 
#    0.000    0.000    0.000    0.000    0.000    4.000 
#    0.000    9.143    0.000    0.000    0.000    0.000 
#
# Total GULP energy -78163.183121 kJ/mol
# GULP energy per Si atom -5583.084509 kJ/mol
# Density = 2.754106 g / cm^3
# Si number density = 27.603892 Si / 1000 Ang^3
#
#
#
# Elastic Constant Matrix: (Units=GPa)
#
#
# Indices 1 2 3 4 5 6 
#
# 1 162.9196 48.6625 49.9342 -12.6877 21.1268 7.5512
# 2 48.6625 87.0228 40.1859 -35.4197 9.6205 17.4849
# 3 49.9342 40.1859 172.7210 -42.7646 28.4560 10.7678
# 4 -12.6877 -35.4197 -42.7646 57.9766 -5.9593 13.3981
# 5 21.1268 9.6205 28.4560 -5.9593 55.7723 -2.3003
# 6 7.5512 17.4849 10.7678 13.3981 -2.3003 51.5642
#
#
#
# Elastic Compliance Matrix: (Units=1/GPa)
#
#
# Indices 1 2 3 4 5 6 
#
# 1 0.008115 -0.005241 -0.001807 -0.003323 -0.001530 0.001761
# 2 -0.005241 0.022981 0.001126 0.016258 -0.001292 -0.011542
# 3 -0.001807 0.001126 0.008631 0.007231 -0.003303 -0.003946
# 4 -0.003323 0.016258 0.007231 0.035216 -0.002123 -0.015781
# 5 -0.001530 -0.001292 -0.003303 -0.002123 0.020307 0.002810
# 6 0.001761 -0.011542 -0.003946 -0.015781 0.002810 0.028099
#
#
# Mechanical properties :
#
#
# Convention : Reuss Voigt Hill
#
# Bulk Modulus (GPa) = 35.86345 77.80316 56.83330
# Shear Modulus (GPa) = 34.60498 51.98800 43.29649
#
# Velocity S-wave (km/s) = 3.54450 4.34448 3.96472
# Velocity P-wave (km/s) = 5.45634 7.30840 6.44920
#
# Compressibility (1/GPa) = 0.02788354
#
# Stress axis : x y z
#
# Youngs Moduli (GPa) = 123.22402 43.51390 115.86549
#
# Poissons Ratio (x) = 0.22804 0.20940
# Poissons Ratio (y) = 0.64578 -0.13048
# Poissons Ratio (z) = 0.22270 -0.04900
#
# Static dielectric constant tensor:
#      x y z
#    x 2.217480 -0.086910 0.033610 
#    y -0.086910 2.314830 0.015460 
#    z 0.033610 0.015460 2.100370 
# 
# From -- ./inp_files/137629.got.cif
#   From: 2010.05.17/outbox.cif.g08.bks.cpg/sg2_69_cif.got.tgz:137629.got - 2010.06.03 11:33:40.
