data_PCOD9080983
_publ_section_title
;
Structure prediction by ZEFSAII (Michael W. Deem and Ramdas Pophale) SiO2 
 PCOD9080983
Probable space group: P -1
;
_chemical_formula_sum "Si O2"
_cell_formula_units_Z 16
_cell_length_a 10.876901
_cell_length_b 12.123004
_cell_length_c 7.961469
_cell_angle_alpha 122.056064
_cell_angle_beta 51.328588
_cell_angle_gamma 122.636587
_cell_volume 659.560915
_symmetry_space_group_name_H-M "P -1"
_symmetry_group_IT_number 2
_symmetry_cell_setting 'triclinic'
loop_
_space_group_symop_operation_xyz
x,y,z
-x,-y,-z
loop_
_atom_site_type_symbol
_atom_site_label
_atom_site_fract_x
_atom_site_fract_y
_atom_site_fract_z
Si Si1 0.744545 0.597250 0.071292
Si Si2 0.594916 0.301121 0.067342
Si Si3 0.526647 0.147707 0.677926
Si Si4 0.595092 0.350419 0.486569
Si Si5 0.931517 0.119180 0.475233
Si Si6 0.041027 0.848162 0.156764
Si Si7 0.740611 0.638793 0.707086
Si Si8 0.184270 0.985879 0.836310
O O1 0.732541 0.443146 0.010515
O O2 0.585248 0.627197 0.316411
O O3 0.908652 0.711404 0.090308
O O4 0.732443 0.603476 0.884066
O O5 0.600972 0.282532 0.246457
O O6 0.421669 0.329601 0.195710
O O7 0.585481 0.182461 0.845534
O O8 0.610313 0.263056 0.564933
O O9 0.500000 0.000000 0.500000
O O10 0.326014 0.129918 0.834875
O O11 0.732717 0.498933 0.503009
O O12 0.812623 0.102349 0.403137
O O13 0.889431 0.163496 0.728871
O O14 0.101717 0.233378 0.370239
O O15 0.950568 0.966430 0.350259
O O16 0.183054 0.906689 0.945492
O O17 0.000000 0.000000 0.000000
#
# Coordination Sequence:
#
# PCOD9080983 Si02
#       8
#     2   2   2   2   2   2   2   2
#     4  11  18  33  59  91 123 154 194 256 312 353
#     4  11  21  36  58  85 120 160 202 249 303 361
#     4  12  26  42  60  88 123 163 205 247 300 361
#     4  11  21  36  58  85 120 160 202 249 303 361
#     4  10  19  30  50  83 119 149 183 233 295 357
#     4  10  19  30  50  83 119 149 183 233 295 357
#     4  11  18  33  59  91 123 154 194 256 312 353
#     4  10  20  35  58  82 114 152 195 241 294 349
#
# _framework density 24.258564
#
# number of rings (size 3 to 8) (size 9 to 14) (size 15 to 20)
#    0.000    1.250    3.750    6.750    0.000    3.500 
#    0.000    0.000    0.000    3.000    0.000    3.500 
#    0.000    0.000    0.000    0.000    0.000    0.000 
#
# Total GULP energy -89459.457948 kJ/mol
# GULP energy per Si atom -5591.216122 kJ/mol
# Density = 2.420335 g / cm^3
# Si number density = 24.258564 Si / 1000 Ang^3
#
#
#
# Elastic Constant Matrix: (Units=GPa)
#
#
# Indices 1 2 3 4 5 6 
#
# 1 74.1112 21.7018 36.3031 4.8028 40.6272 5.3613
# 2 21.7018 120.9056 17.4695 14.4984 15.0232 27.4638
# 3 36.3031 17.4695 161.2522 10.9018 55.8280 4.5027
# 4 4.8028 14.4984 10.9018 38.7260 -4.7800 13.1048
# 5 40.6272 15.0232 55.8280 -4.7800 50.2718 9.5080
# 6 5.3613 27.4638 4.5027 13.1048 9.5080 19.1540
#
#
#
# Elastic Compliance Matrix: (Units=1/GPa)
#
#
# Indices 1 2 3 4 5 6 
#
# 1 0.034298 -0.007453 0.008754 -0.021348 -0.043947 0.035449
# 2 -0.007453 0.014281 -0.003860 0.008024 0.012305 -0.029081
# 3 0.008754 -0.003860 0.014939 -0.015676 -0.028639 0.024514
# 4 -0.021348 0.008024 -0.015676 0.058872 0.050577 -0.067230
# 5 -0.043947 0.012305 -0.028639 0.050577 0.104429 -0.085052
# 6 0.035449 -0.029081 0.024514 -0.067230 -0.085052 0.166439
#
#
# Mechanical properties :
#
#
# Convention : Reuss Voigt Hill
#
# Bulk Modulus (GPa) = 17.12290 56.35751 36.74020
# Shear Modulus (GPa) = 11.96627 40.35000 26.15813
#
# Velocity S-wave (km/s) = 2.22340 4.08282 3.28732
# Velocity P-wave (km/s) = 3.69664 6.74599 5.43937
#
# Compressibility (1/GPa) = 0.05840134
#
# Stress axis : x y z
#
# Youngs Moduli (GPa) = 29.15652 70.02282 66.93792
#
# Poissons Ratio (x) = 0.52187 -0.58600
# Poissons Ratio (y) = 0.21730 0.25837
# Poissons Ratio (z) = -0.25525 0.27028
#
# Static dielectric constant tensor:
#      x y z
#    x 2.099880 -0.023120 -0.142010 
#    y -0.023120 1.905930 -0.024150 
#    z -0.142010 -0.024150 2.092460 
# 
# From -- ./inp_files/314099.got.cif
#   From: 2010.05.17/outbox.cif.g08.bks.cpg/sg2_158_cif.got.tgz:314099.got - 2010.06.03 11:33:40.
