data_PCOD9080424
_publ_section_title
;
Structure prediction by ZEFSAII (Michael W. Deem and Ramdas Pophale) SiO2 
 PCOD9080424
Probable space group: P -1
;
_chemical_formula_sum "Si O2"
_cell_formula_units_Z 14
_cell_length_a 11.088592
_cell_length_b 8.991336
_cell_length_c 11.932122
_cell_angle_alpha 114.215784
_cell_angle_beta 47.302925
_cell_angle_gamma 137.315362
_cell_volume 583.379040
_symmetry_space_group_name_H-M "P -1"
_symmetry_group_IT_number 2
_symmetry_cell_setting 'triclinic'
loop_
_space_group_symop_operation_xyz
x,y,z
-x,-y,-z
loop_
_atom_site_type_symbol
_atom_site_label
_atom_site_fract_x
_atom_site_fract_y
_atom_site_fract_z
Si Si1 0.367874 0.251579 0.543007
Si Si2 0.303238 0.759624 0.792320
Si Si3 0.302773 0.493697 0.139999
Si Si4 0.779576 0.414444 0.547156
Si Si5 0.988094 0.830567 0.381958
Si Si6 0.215931 0.910655 0.696949
Si Si7 0.803257 0.295989 0.902867
O O1 0.500000 0.500000 0.500000
O O2 0.476710 0.187062 0.374009
O O3 0.123148 0.160410 0.652525
O O4 0.356573 0.160137 0.642081
O O5 0.271265 0.903444 0.787020
O O6 0.071643 0.508949 0.824644
O O7 0.301845 0.779485 0.931747
O O8 0.340274 0.590147 0.270894
O O9 0.293518 0.629556 0.093382
O O10 0.049595 0.248033 0.209590
O O11 0.500000 0.500000 0.000000
O O12 0.847064 0.602839 0.474457
O O13 0.721857 0.210578 0.451436
O O14 0.000000 0.500000 0.500000
O O15 0.198223 0.872193 0.217979
O O16 0.000000 0.000000 0.500000
#
# Coordination Sequence:
#
# PCOD9080424 Si02
#       7
#     2   2   2   2   2   2   2
#     4  12  24  41  70 104 133 182 246 289 348 421
#     4  10  21  43  68  95 137 186 230 288 349 416
#     4  10  21  38  69 103 143 183 226 284 356 419
#     4  10  18  39  64  93 134 184 225 281 344 408
#     4  12  23  40  67 102 143 182 233 292 348 416
#     4  10  21  43  69 100 133 186 237 291 344 412
#     4  10  21  42  68  98 143 184 224 290 358 404
#
# _framework density 23.998118000000002
#
# number of rings (size 3 to 8) (size 9 to 14) (size 15 to 20)
#    0.000    1.429    5.714    2.143    2.000    0.000 
#    0.000    4.286    3.143    0.000    0.000    0.000 
#    0.000    0.000    0.000    0.000    0.000    0.000 
#
# Total GULP energy -78126.751260 kJ/mol
# GULP energy per Si atom -5580.482233 kJ/mol
# Density = 2.394350 g / cm^3
# Si number density = 23.998118 Si / 1000 Ang^3
#
#
#
# Elastic Constant Matrix: (Units=GPa)
#
#
# Indices 1 2 3 4 5 6 
#
# 1 163.5534 43.1292 91.0254 -3.1180 0.6314 -39.5595
# 2 43.1292 107.9992 44.8604 -5.7873 8.8563 -26.6572
# 3 91.0254 44.8604 181.6291 4.8386 5.6117 -23.4015
# 4 -3.1180 -5.7873 4.8386 25.9120 -9.7072 4.1882
# 5 0.6314 8.8563 5.6117 -9.7072 63.7350 -10.6308
# 6 -39.5595 -26.6572 -23.4015 4.1882 -10.6308 41.3823
#
#
#
# Elastic Compliance Matrix: (Units=1/GPa)
#
#
# Indices 1 2 3 4 5 6 
#
# 1 0.010470 -0.000648 -0.004208 0.001365 0.001823 0.007542
# 2 -0.000648 0.011833 -0.001911 0.001919 -0.000232 0.005668
# 3 -0.004208 -0.001911 0.008105 -0.002689 -0.000922 -0.000635
# 4 0.001365 0.001919 -0.002689 0.042249 0.006110 -0.001686
# 5 0.001823 -0.000232 -0.000922 0.006110 0.017543 0.004960
# 6 0.007542 0.005668 -0.000635 -0.001686 0.004960 0.036112
#
#
# Mechanical properties :
#
#
# Convention : Reuss Voigt Hill
#
# Bulk Modulus (GPa) = 59.26626 90.13465 74.70046
# Shear Modulus (GPa) = 34.37085 44.48364 39.42725
#
# Velocity S-wave (km/s) = 3.78859 4.31005 4.05771
# Velocity P-wave (km/s) = 6.62478 7.89996 7.29030
#
# Compressibility (1/GPa) = 0.01687301
#
# Stress axis : x y z
#
# Youngs Moduli (GPa) = 95.50706 84.50919 123.37908
#
# Poissons Ratio (x) = 0.05477 0.51921
# Poissons Ratio (y) = 0.06189 0.23584
# Poissons Ratio (z) = 0.40192 0.16154
#
# Static dielectric constant tensor:
#      x y z
#    x 1.557730 -0.290160 -0.059000 
#    y -0.290160 1.574720 -0.122200 
#    z -0.059000 -0.122200 1.893490 
# 
# From -- ./inp_files/185778.got.cif
#   From: 2010.05.17/outbox.cif.g08.bks.cpg/sg2_93_cif.got.tgz:185778.got - 2010.06.03 11:33:40.
