data_PCOD9080907
_publ_section_title
;
Structure prediction by ZEFSAII (Michael W. Deem and Ramdas Pophale) SiO2 
 PCOD9080907
Probable space group: P -1
;
_chemical_formula_sum "Si O2"
_cell_formula_units_Z 14
_cell_length_a 9.384299
_cell_length_b 7.215668
_cell_length_c 11.618639
_cell_angle_alpha 97.399690
_cell_angle_beta 102.961031
_cell_angle_gamma 48.341815
_cell_volume 572.597338
_symmetry_space_group_name_H-M "P -1"
_symmetry_group_IT_number 2
_symmetry_cell_setting 'triclinic'
loop_
_space_group_symop_operation_xyz
x,y,z
-x,-y,-z
loop_
_atom_site_type_symbol
_atom_site_label
_atom_site_fract_x
_atom_site_fract_y
_atom_site_fract_z
Si Si1 0.197269 0.894484 0.695535
Si Si2 0.288871 0.858300 0.960477
Si Si3 0.551361 0.683482 0.312862
Si Si4 0.490407 0.728470 0.554372
Si Si5 0.388770 0.213216 0.900589
Si Si6 0.931078 0.318555 0.022056
Si Si7 0.781627 0.344453 0.745932
O O1 0.270730 0.616701 0.683351
O O2 0.287667 0.914054 0.600206
O O3 0.295478 0.899352 0.829343
O O4 0.969916 0.116639 0.691580
O O5 0.160293 0.109108 0.034622
O O6 0.499888 0.684106 0.039809
O O7 0.149364 0.795885 0.935519
O O8 0.527912 0.789769 0.443515
O O9 0.579522 0.815993 0.231487
O O10 0.361960 0.710449 0.261212
O O11 0.500000 0.500000 0.500000
O O12 0.661381 0.594058 0.668503
O O13 0.164271 0.429133 0.908994
O O14 0.500000 0.000000 0.000000
O O15 0.845223 0.373752 0.882183
#
# Coordination Sequence:
#
# PCOD9080907 Si02
#       7
#     2   2   2   2   2   2   2
#     4   9  16  29  52  75  95 123 161 209 252 286
#     4  10  19  33  55  76  96 129 172 213 249 291
#     4  10  19  30  44  71 105 130 162 198 241 301
#     4   8  17  27  42  73 104 124 155 202 246 299
#     4  12  23  34  50  73 107 141 163 200 253 300
#     4  10  19  33  55  76  96 129 172 213 249 291
#     4   9  16  29  52  75  95 123 161 209 252 286
#
# _framework density 24.44999
#
# number of rings (size 3 to 8) (size 9 to 14) (size 15 to 20)
#    0.000    2.571    2.857    2.143    0.000    5.714 
#    0.000    0.000    0.000    3.429    0.000    4.000 
#    0.000    0.000    0.000    0.000    0.000    0.000 
#
# Total GULP energy -78151.336094 kJ/mol
# GULP energy per Si atom -5582.238292 kJ/mol
# Density = 2.439434 g / cm^3
# Si number density = 24.449990 Si / 1000 Ang^3
#
#
#
# Elastic Constant Matrix: (Units=GPa)
#
#
# Indices 1 2 3 4 5 6 
#
# 1 55.5457 32.0604 22.0476 6.4284 -23.7540 -10.3486
# 2 32.0604 85.6652 38.8614 18.1599 -32.6635 -25.9578
# 3 22.0476 38.8614 162.4642 3.9958 -54.2380 0.5369
# 4 6.4284 18.1599 3.9958 34.1322 -7.8184 -10.7163
# 5 -23.7540 -32.6635 -54.2380 -7.8184 46.9987 4.4017
# 6 -10.3486 -25.9578 0.5369 -10.7163 4.4017 37.3286
#
#
#
# Elastic Compliance Matrix: (Units=1/GPa)
#
#
# Indices 1 2 3 4 5 6 
#
# 1 0.025539 -0.005796 0.001379 0.001180 0.010468 0.002134
# 2 -0.005796 0.022570 -0.001479 -0.005012 0.009130 0.011594
# 3 0.001379 -0.001479 0.010280 0.001505 0.011948 -0.001771
# 4 0.001180 -0.005012 0.001505 0.034439 0.003995 0.006236
# 5 0.010468 0.009130 0.011948 0.003995 0.046926 0.004692
# 6 0.002134 0.011594 -0.001771 0.006236 0.004692 0.036706
#
#
# Mechanical properties :
#
#
# Convention : Reuss Voigt Hill
#
# Bulk Modulus (GPa) = 21.46076 54.40156 37.93116
# Shear Modulus (GPa) = 24.53580 37.73893 31.13736
#
# Velocity S-wave (km/s) = 3.17126 3.93302 3.57250
# Velocity P-wave (km/s) = 4.71229 6.55159 5.70653
#
# Compressibility (1/GPa) = 0.04659666
#
# Stress axis : x y z
#
# Youngs Moduli (GPa) = 39.15649 44.30573 97.28037
#
# Poissons Ratio (x) = 0.25678 -0.13415
# Poissons Ratio (y) = 0.22694 0.14391
# Poissons Ratio (z) = -0.05400 0.06554
#
# Static dielectric constant tensor:
#      x y z
#    x 2.096660 0.191890 -0.044770 
#    y 0.191890 2.074740 -0.005790 
#    z -0.044770 -0.005790 1.999240 
# 
# From -- ./inp_files/258391.got.cif
#   From: 2010.05.17/outbox.cif.g08.bks.cpg/sg2_130_cif.got.tgz:258391.got - 2010.06.03 11:33:40.
