data_PCOD9080346
_publ_section_title
;
Structure prediction by ZEFSAII (Michael W. Deem and Ramdas Pophale) SiO2 
 PCOD9080346
Probable space group: P -1
;
_chemical_formula_sum "Si O2"
_cell_formula_units_Z 14
_cell_length_a 7.897685
_cell_length_b 9.119709
_cell_length_c 9.011931
_cell_angle_alpha 99.747821
_cell_angle_beta 64.693893
_cell_angle_gamma 92.350033
_cell_volume 577.962541
_symmetry_space_group_name_H-M "P -1"
_symmetry_group_IT_number 2
_symmetry_cell_setting 'triclinic'
loop_
_space_group_symop_operation_xyz
x,y,z
-x,-y,-z
loop_
_atom_site_type_symbol
_atom_site_label
_atom_site_fract_x
_atom_site_fract_y
_atom_site_fract_z
Si Si1 0.758791 0.654498 0.704843
Si Si2 0.268774 0.601450 0.535853
Si Si3 0.651099 0.982621 0.303340
Si Si4 0.562044 0.655502 0.209775
Si Si5 0.775179 0.427520 0.895913
Si Si6 0.329439 0.735317 0.851500
Si Si7 0.969544 0.107941 0.391253
O O1 0.783401 0.562455 0.526549
O O2 0.535229 0.671130 0.815159
O O3 0.837430 0.817797 0.710873
O O4 0.861012 0.543413 0.766965
O O5 0.479388 0.619708 0.396448
O O6 0.261757 0.648021 0.716307
O O7 0.154057 0.736577 0.516124
O O8 0.628409 0.103532 0.202407
O O9 0.853109 0.015698 0.301935
O O10 0.500000 0.000000 0.500000
O O11 0.630515 0.820604 0.218019
O O12 0.719409 0.544007 0.067515
O O13 0.389683 0.632688 0.157786
O O14 0.816622 0.284222 0.961283
O O15 0.000000 0.000000 0.500000
#
# Coordination Sequence:
#
# PCOD9080346 Si02
#       7
#     2   2   2   2   2   2   2
#     4  11  21  39  59  89 128 150 198 247 298 354
#     4  10  21  36  63  90 115 157 205 250 286 343
#     4  11  22  38  59  90 121 152 202 249 291 352
#     4  10  18  39  60  86 124 145 207 243 288 346
#     4  10  21  38  60  93 117 159 195 247 292 355
#     4  11  19  35  63  94 111 157 204 239 295 346
#     4  11  24  38  57  90 124 156 195 250 307 344
#
# _framework density 24.223023000000001
#
# number of rings (size 3 to 8) (size 9 to 14) (size 15 to 20)
#    0.000    1.429    7.143    1.714    0.000    0.571 
#    0.000    3.571    0.000    1.714    0.000    1.000 
#    0.000    0.000    0.000    0.000    0.000    0.000 
#
# Total GULP energy -78037.342955 kJ/mol
# GULP energy per Si atom -5574.095925 kJ/mol
# Density = 2.416789 g / cm^3
# Si number density = 24.223023 Si / 1000 Ang^3
#
#
#
# Elastic Constant Matrix: (Units=GPa)
#
#
# Indices 1 2 3 4 5 6 
#
# 1 62.9755 35.4868 18.3188 -5.5756 6.7733 10.3803
# 2 35.4868 151.1778 40.5984 -16.2585 24.5668 37.3290
# 3 18.3188 40.5984 78.6575 -34.0757 23.5589 4.8474
# 4 -5.5756 -16.2585 -34.0757 49.5623 -8.5201 4.8075
# 5 6.7733 24.5668 23.5589 -8.5201 13.1435 0.8140
# 6 10.3803 37.3290 4.8474 4.8075 0.8140 41.8574
#
#
#
# Elastic Compliance Matrix: (Units=1/GPa)
#
#
# Indices 1 2 3 4 5 6 
#
# 1 0.018863 -0.004051 -0.004172 -0.001241 0.004558 -0.000528
# 2 -0.004051 0.014873 0.005212 0.003765 -0.031829 -0.012677
# 3 -0.004172 0.005212 0.038458 0.017415 -0.064690 -0.008809
# 4 -0.001241 0.003765 0.017415 0.031145 -0.016908 -0.008315
# 5 0.004558 -0.031829 -0.064690 -0.016908 0.236229 0.032095
# 6 -0.000528 -0.012677 -0.008809 -0.008315 0.032095 0.036678
#
#
# Mechanical properties :
#
#
# Convention : Reuss Voigt Hill
#
# Bulk Modulus (GPa) = 15.11234 53.51319 34.31276
# Shear Modulus (GPa) = 12.36627 34.13977 23.25302
#
# Velocity S-wave (km/s) = 2.26191 3.75826 3.10168
# Velocity P-wave (km/s) = 3.61581 6.40098 5.19839
#
# Compressibility (1/GPa) = 0.06617110
#
# Stress axis : x y z
#
# Youngs Moduli (GPa) = 53.01512 67.23492 26.00259
#
# Poissons Ratio (x) = 0.27237 0.10849
# Poissons Ratio (y) = 0.21477 -0.13553
# Poissons Ratio (z) = 0.22119 -0.35043
#
# Static dielectric constant tensor:
#      x y z
#    x 2.030150 -0.038250 -0.050390 
#    y -0.038250 1.980210 -0.094040 
#    z -0.050390 -0.094040 2.006970 
# 
# From -- ./inp_files/154704.got.cif
#   From: 2010.05.17/outbox.cif.g08.bks.cpg/sg2_78_cif.got.tgz:154704.got - 2010.06.03 11:33:40.
