data_PCOD9080798
_publ_section_title
;
Structure prediction by ZEFSAII (Michael W. Deem and Ramdas Pophale) SiO2 
 PCOD9080798
Probable space group: P -1
;
_chemical_formula_sum "Si O2"
_cell_formula_units_Z 14
_cell_length_a 11.799763
_cell_length_b 6.451759
_cell_length_c 12.374090
_cell_angle_alpha 116.556837
_cell_angle_beta 45.761293
_cell_angle_gamma 99.362809
_cell_volume 587.104369
_symmetry_space_group_name_H-M "P -1"
_symmetry_group_IT_number 2
_symmetry_cell_setting 'triclinic'
loop_
_space_group_symop_operation_xyz
x,y,z
-x,-y,-z
loop_
_atom_site_type_symbol
_atom_site_label
_atom_site_fract_x
_atom_site_fract_y
_atom_site_fract_z
Si Si1 0.708245 0.191262 0.147313
Si Si2 0.409131 0.525196 0.927781
Si Si3 0.154769 0.270171 0.154089
Si Si4 0.833081 0.615426 0.194896
Si Si5 0.457017 0.101105 0.672378
Si Si6 0.758617 0.027470 0.760422
Si Si7 0.079312 0.246451 0.606631
O O1 0.657146 0.312151 0.094126
O O2 0.759185 0.394851 0.229808
O O3 0.563261 0.104643 0.281118
O O4 0.849888 0.960920 0.968932
O O5 0.530760 0.300925 0.732875
O O6 0.286816 0.391434 0.037980
O O7 0.399907 0.750073 0.069918
O O8 0.991257 0.476603 0.314393
O O9 0.220782 0.166482 0.202569
O O10 0.724573 0.755629 0.205364
O O11 0.853538 0.767770 0.320301
O O12 0.000000 0.500000 0.000000
O O13 0.500000 0.000000 0.500000
O O14 0.920431 0.134714 0.685859
O O15 0.786010 0.888009 0.597328
#
# Coordination Sequence:
#
# PCOD9080798 Si02
#       7
#     2   2   2   2   2   2   2
#     4   9  18  32  51  73 104 135 164 211 260 303
#     4   8  16  30  49  71  93 124 167 208 249 296
#     4   9  15  28  46  68  96 131 168 203 249 302
#     4  11  21  33  50  79 112 137 167 209 260 310
#     4  10  21  36  55  78 102 135 176 211 254 313
#     4   9  17  30  46  68 103 139 170 210 252 298
#     4  10  19  28  44  72 103 137 175 208 249 304
#
# _framework density 23.845845000000001
#
# number of rings (size 3 to 8) (size 9 to 14) (size 15 to 20)
#    0.000    2.571    0.000    5.571    0.000    5.714 
#    0.000    0.000    0.000    0.857    0.000   10.000 
#    0.000    0.000    0.000    0.000    0.000    0.000 
#
# Total GULP energy -78000.139730 kJ/mol
# GULP energy per Si atom -5571.438552 kJ/mol
# Density = 2.379157 g / cm^3
# Si number density = 23.845845 Si / 1000 Ang^3
#
#
#
# Elastic Constant Matrix: (Units=GPa)
#
#
# Indices 1 2 3 4 5 6 
#
# 1 59.0298 7.7066 22.9485 1.4432 16.2197 -3.9046
# 2 7.7066 104.1409 34.8381 -4.8522 5.3618 -1.3088
# 3 22.9485 34.8381 144.1143 -2.0879 39.2673 -4.7557
# 4 1.4432 -4.8522 -2.0879 24.1710 -2.6777 5.6518
# 5 16.2197 5.3618 39.2673 -2.6777 37.8463 1.3588
# 6 -3.9046 -1.3088 -4.7557 5.6518 1.3588 6.6039
#
#
#
# Elastic Compliance Matrix: (Units=1/GPa)
#
#
# Indices 1 2 3 4 5 6 
#
# 1 0.021536 -0.001270 0.000429 -0.007769 -0.010822 0.021666
# 2 -0.001270 0.010737 -0.003246 0.003271 0.002778 -0.004331
# 3 0.000429 -0.003246 0.011440 -0.004371 -0.012411 0.014143
# 4 -0.007769 0.003271 -0.004371 0.057423 0.013583 -0.059031
# 5 -0.010822 0.002778 -0.012411 0.013583 0.045792 -0.035832
# 6 0.021666 -0.004331 0.014143 -0.059031 -0.035832 0.231455
#
#
# Mechanical properties :
#
#
# Convention : Reuss Voigt Hill
#
# Bulk Modulus (GPa) = 28.13694 48.69683 38.41689
# Shear Modulus (GPa) = 12.55010 29.84368 21.19689
#
# Velocity S-wave (km/s) = 2.29661 3.54153 2.98470
# Velocity P-wave (km/s) = 4.34255 6.09829 5.29371
#
# Compressibility (1/GPa) = 0.03554046
#
# Stress axis : x y z
#
# Youngs Moduli (GPa) = 46.43299 93.13497 87.41048
#
# Poissons Ratio (x) = 0.11825 -0.03747
# Poissons Ratio (y) = 0.05895 0.28371
# Poissons Ratio (z) = -0.01991 0.30229
#
# Static dielectric constant tensor:
#      x y z
#    x 1.965230 0.054730 0.042080 
#    y 0.054730 1.921930 0.092190 
#    z 0.042080 0.092190 2.035940 
# 
# From -- ./inp_files/63561.got.cif
#   From: 2010.05.17/outbox.cif.g08.bks.cpg/sg2_32_cif.got.tgz:63561.got - 2010.06.03 11:33:40.
