data_PCOD9080347
_publ_section_title
;
Structure prediction by ZEFSAII (Michael W. Deem and Ramdas Pophale) SiO2 
 PCOD9080347
Probable space group: P -1
;
_chemical_formula_sum "Si O2"
_cell_formula_units_Z 16
_cell_length_a 9.030330
_cell_length_b 14.338571
_cell_length_c 8.263955
_cell_angle_alpha 87.438941
_cell_angle_beta 91.276859
_cell_angle_gamma 45.222681
_cell_volume 756.620926
_symmetry_space_group_name_H-M "P -1"
_symmetry_group_IT_number 2
_symmetry_cell_setting 'triclinic'
loop_
_space_group_symop_operation_xyz
x,y,z
-x,-y,-z
loop_
_atom_site_type_symbol
_atom_site_label
_atom_site_fract_x
_atom_site_fract_y
_atom_site_fract_z
Si Si1 0.169987 0.176053 0.688250
Si Si2 0.128804 0.535372 0.490723
Si Si3 0.531201 0.407180 0.369596
Si Si4 0.090568 0.864934 0.445008
Si Si5 0.589987 0.028191 0.859657
Si Si6 0.319889 0.509789 0.841305
Si Si7 0.014911 0.784890 0.965896
Si Si8 0.319635 0.795454 0.108155
O O1 0.409546 0.102429 0.714075
O O2 0.019306 0.320846 0.599780
O O3 0.110646 0.109900 0.594902
O O4 0.086152 0.190131 0.864493
O O5 0.331660 0.431942 0.389612
O O6 0.204724 0.531268 0.670844
O O7 0.000000 0.500000 0.500000
O O8 0.500000 0.500000 0.500000
O O9 0.746917 0.258463 0.420505
O O10 0.533415 0.466675 0.203302
O O11 0.224864 0.820393 0.285227
O O12 0.000000 0.000000 0.500000
O O13 0.630754 0.116672 0.913473
O O14 0.820719 0.888019 0.832745
O O15 0.500000 0.000000 0.000000
O O16 0.467162 0.358074 0.900050
O O17 0.148145 0.634339 0.938677
O O18 0.152735 0.818191 0.984763
#
# Coordination Sequence:
#
# PCOD9080347 Si02
#       8
#     2   2   2   2   2   2   2   2
#     4  10  21  43  64  87 130 166 202 261 315 361
#     4  11  21  38  64  93 127 167 198 251 317 369
#     4  10  18  39  60  87 128 154 201 256 302 355
#     4  11  22  38  64  94 120 162 210 255 305 372
#     4  10  23  43  59  85 127 170 204 254 308 371
#     4  11  21  40  66  98 124 157 210 263 306 368
#     4  10  23  41  66  91 122 165 214 258 308 367
#     4  11  21  40  67  90 121 164 209 256 315 368
#
# _framework density 21.146652
#
# number of rings (size 3 to 8) (size 9 to 14) (size 15 to 20)
#    0.000    1.500    5.000    2.250    1.750    0.000 
#    2.250    8.125    0.000    0.000    0.000    0.000 
#    0.000    0.000    0.000    0.000    0.000    0.000 
#
# Total GULP energy -89322.548269 kJ/mol
# GULP energy per Si atom -5582.659267 kJ/mol
# Density = 2.109852 g / cm^3
# Si number density = 21.146652 Si / 1000 Ang^3
#
#
#
# Elastic Constant Matrix: (Units=GPa)
#
#
# Indices 1 2 3 4 5 6 
#
# 1 140.1825 52.8113 24.2543 -4.3650 27.9148 0.3210
# 2 52.8113 141.5168 22.2068 12.9911 20.3124 -16.4848
# 3 24.2543 22.2068 27.2516 -0.9666 16.0187 -7.0264
# 4 -4.3650 12.9911 -0.9666 25.7143 -2.0884 7.6332
# 5 27.9148 20.3124 16.0187 -2.0884 26.6061 -12.5155
# 6 0.3210 -16.4848 -7.0264 7.6332 -12.5155 40.4328
#
#
#
# Elastic Compliance Matrix: (Units=1/GPa)
#
#
# Indices 1 2 3 4 5 6 
#
# 1 0.010923 -0.003341 -0.002634 0.004357 -0.009675 -0.005724
# 2 -0.003341 0.010234 -0.004405 -0.007334 0.000041 0.004831
# 3 -0.002634 -0.004405 0.060406 0.001892 -0.030617 -0.001112
# 4 0.004357 -0.007334 0.001892 0.046854 -0.002180 -0.012216
# 5 -0.009675 0.000041 -0.030617 -0.002180 0.074558 0.018263
# 6 -0.005724 0.004831 -0.001112 -0.012216 0.018263 0.034513
#
#
# Mechanical properties :
#
#
# Convention : Reuss Voigt Hill
#
# Bulk Modulus (GPa) = 16.44617 56.38841 36.41729
# Shear Modulus (GPa) = 17.95229 32.52921 25.24075
#
# Velocity S-wave (km/s) = 2.91682 3.92633 3.45861
# Velocity P-wave (km/s) = 4.37469 6.87590 5.76264
#
# Compressibility (1/GPa) = 0.06080442
#
# Stress axis : x y z
#
# Youngs Moduli (GPa) = 91.54823 97.70905 16.55471
#
# Poissons Ratio (x) = 0.32645 0.04360
# Poissons Ratio (y) = 0.30587 0.07292
# Poissons Ratio (z) = 0.24111 0.43038
#
# Static dielectric constant tensor:
#      x y z
#    x 1.961800 0.059970 0.039350 
#    y 0.059970 1.767770 -0.001260 
#    z 0.039350 -0.001260 1.834880 
# 
# From -- ./inp_files/188638.got.cif
#   From: 2010.05.17/outbox.cif.g08.bks.cpg/sg2_95_cif.got.tgz:188638.got - 2010.06.03 11:33:40.
