data_PCOD9080886
_publ_section_title
;
Structure prediction by ZEFSAII (Michael W. Deem and Ramdas Pophale) SiO2 
 PCOD9080886
Probable space group: P -1
;
_chemical_formula_sum "Si O2"
_cell_formula_units_Z 16
_cell_length_a 7.788088
_cell_length_b 14.335363
_cell_length_c 14.923782
_cell_angle_alpha 40.247377
_cell_angle_beta 51.144769
_cell_angle_gamma 35.563031
_cell_volume 625.993326
_symmetry_space_group_name_H-M "P -1"
_symmetry_group_IT_number 2
_symmetry_cell_setting 'triclinic'
loop_
_space_group_symop_operation_xyz
x,y,z
-x,-y,-z
loop_
_atom_site_type_symbol
_atom_site_label
_atom_site_fract_x
_atom_site_fract_y
_atom_site_fract_z
Si Si1 0.162442 0.635621 0.811051
Si Si2 0.189315 0.937511 0.870565
Si Si3 0.746685 0.070060 0.600983
Si Si4 0.529790 0.466213 0.401174
Si Si5 0.261785 0.413478 0.112632
Si Si6 0.624022 0.023507 0.047248
Si Si7 0.906546 0.703835 0.405838
Si Si8 0.229455 0.321059 0.806774
O O1 0.412394 0.566056 0.704529
O O2 0.966866 0.600917 0.847092
O O3 0.285684 0.526361 0.945893
O O4 0.913824 0.866180 0.745310
O O5 0.388012 0.862080 0.950009
O O6 0.057699 0.155112 0.756326
O O7 0.421928 0.798306 0.820656
O O8 0.929600 0.937614 0.962737
O O9 0.682124 0.249832 0.538944
O O10 0.450684 0.151018 0.583620
O O11 0.000000 0.000000 0.500000
O O12 0.647761 0.572206 0.309249
O O13 0.194374 0.604377 0.446680
O O14 0.116926 0.521458 0.175029
O O15 0.661800 0.835588 0.191358
O O16 0.361996 0.179741 0.953290
O O17 0.000000 0.500000 0.500000
#
# Coordination Sequence:
#
# PCOD9080886 Si02
#       8
#     2   2   2   2   2   2   2   2
#     4   9  16  28  45  79 105 138 175 221 258 312
#     4  11  20  35  56  84 104 144 185 221 260 323
#     4   9  17  29  48  76 106 136 178 223 266 310
#     4   9  17  30  51  72 107 142 178 222 262 315
#     4  10  19  29  53  77 111 137 176 221 266 315
#     4  10  22  34  56  78 113 144 179 220 272 320
#     4  10  19  31  51  80 107 135 181 227 263 308
#     4  10  20  37  51  80 114 147 171 224 277 315
#
# _framework density 25.559374999999999
#
# number of rings (size 3 to 8) (size 9 to 14) (size 15 to 20)
#    0.000    2.250    2.500    2.250    1.750    0.500 
#    0.000    0.000    0.000    4.500    0.000    1.750 
#    0.000    0.000    0.000    0.000    0.000    0.000 
#
# Total GULP energy -89114.736981 kJ/mol
# GULP energy per Si atom -5569.671061 kJ/mol
# Density = 2.550120 g / cm^3
# Si number density = 25.559375 Si / 1000 Ang^3
#
#
#
# Elastic Constant Matrix: (Units=GPa)
#
#
# Indices 1 2 3 4 5 6 
#
# 1 44.4460 34.5713 34.0467 -4.2080 -20.0536 4.5626
# 2 34.5713 126.5093 19.0459 -14.7156 -17.0981 -7.0712
# 3 34.0467 19.0459 138.6795 -22.3386 -36.0646 -0.8512
# 4 -4.2080 -14.7156 -22.3386 44.0936 -1.2172 -6.8356
# 5 -20.0536 -17.0981 -36.0646 -1.2172 36.6916 0.9839
# 6 4.5626 -7.0712 -0.8512 -6.8356 0.9839 26.0785
#
#
#
# Elastic Compliance Matrix: (Units=1/GPa)
#
#
# Indices 1 2 3 4 5 6 
#
# 1 0.041176 -0.009812 -0.006420 -0.004068 0.011798 -0.011585
# 2 -0.009812 0.011475 0.002258 0.005050 0.002207 0.006142
# 3 -0.006420 0.002258 0.012150 0.007126 0.009625 0.003637
# 4 -0.004068 0.005050 0.007126 0.029307 0.007846 0.009699
# 5 0.011798 0.002207 0.009625 0.007846 0.044472 -0.000773
# 6 -0.011585 0.006142 0.003637 0.009699 -0.000773 0.044728
#
#
# Mechanical properties :
#
#
# Convention : Reuss Voigt Hill
#
# Bulk Modulus (GPa) = 27.13396 53.88474 40.50935
# Shear Modulus (GPa) = 22.36736 36.17079 29.26908
#
# Velocity S-wave (km/s) = 2.96144 3.76595 3.38766
# Velocity P-wave (km/s) = 4.72574 6.32754 5.58437
#
# Compressibility (1/GPa) = 0.03685419
#
# Stress axis : x y z
#
# Youngs Moduli (GPa) = 24.28590 87.14617 82.30469
#
# Poissons Ratio (x) = 0.85507 0.52836
# Poissons Ratio (y) = 0.23829 -0.18585
# Poissons Ratio (z) = 0.15591 -0.19678
#
# Static dielectric constant tensor:
#      x y z
#    x 2.146320 0.073980 0.039420 
#    y 0.073980 2.094490 0.020530 
#    z 0.039420 0.020530 2.085630 
# 
# From -- ./inp_files/608389.got.cif
#   From: 2010.05.17/outbox.cif.g08.bks.cpg/sg2_305_cif.got.tgz:608389.got - 2010.06.03 11:33:40.
