data_PCOD9080465
_publ_section_title
;
Structure prediction by ZEFSAII (Michael W. Deem and Ramdas Pophale) SiO2 
 PCOD9080465
Probable space group: P -1
;
_chemical_formula_sum "Si O2"
_cell_formula_units_Z 14
_cell_length_a 8.163373
_cell_length_b 13.571634
_cell_length_c 7.840247
_cell_angle_alpha 75.112365
_cell_angle_beta 127.797787
_cell_angle_gamma 117.856105
_cell_volume 606.294858
_symmetry_space_group_name_H-M "P -1"
_symmetry_group_IT_number 2
_symmetry_cell_setting 'triclinic'
loop_
_space_group_symop_operation_xyz
x,y,z
-x,-y,-z
loop_
_atom_site_type_symbol
_atom_site_label
_atom_site_fract_x
_atom_site_fract_y
_atom_site_fract_z
Si Si1 0.205060 0.991027 0.035848
Si Si2 0.180015 0.553034 0.365248
Si Si3 0.492180 0.329032 0.766009
Si Si4 0.912240 0.889692 0.376187
Si Si5 0.643018 0.141324 0.433407
Si Si6 0.781750 0.231350 0.836139
Si Si7 0.712551 0.374509 0.218060
O O1 0.131852 0.860487 0.007890
O O2 0.429239 0.039449 0.270189
O O3 0.240028 0.074440 0.865811
O O4 0.000000 0.000000 0.000000
O O5 0.380574 0.581263 0.341148
O O6 0.078722 0.646945 0.212895
O O7 0.274495 0.569239 0.611655
O O8 0.964093 0.437368 0.270509
O O9 0.244145 0.235912 0.605274
O O10 0.648176 0.258494 0.888653
O O11 0.530498 0.376600 0.960839
O O12 0.129281 0.879654 0.431716
O O13 0.000000 0.000000 0.500000
O O14 0.616923 0.174112 0.596403
O O15 0.666422 0.248920 0.292461
#
# Coordination Sequence:
#
# PCOD9080465 Si02
#       7
#     2   2   2   2   2   2   2
#     4  12  24  40  65  89 122 175 211 257 322 379
#     4   8  20  36  67  95 123 170 207 263 318 374
#     4  10  21  39  62  94 129 163 216 258 313 382
#     4  12  27  38  60  95 133 168 214 262 313 381
#     4  11  23  42  62  92 129 166 212 265 318 377
#     4   9  21  38  63  90 127 162 211 255 317 372
#     4  10  18  39  67  92 126 168 208 263 322 364
#
# _framework density 23.091073999999999
#
# number of rings (size 3 to 8) (size 9 to 14) (size 15 to 20)
#    0.857    0.857    2.857    1.714    4.000    1.143 
#    0.000    0.714    0.000   15.429    0.000    0.000 
#    0.000    0.000    0.000    0.000    0.000    0.000 
#
# Total GULP energy -77978.137145 kJ/mol
# GULP energy per Si atom -5569.866939 kJ/mol
# Density = 2.303852 g / cm^3
# Si number density = 23.091074 Si / 1000 Ang^3
#
#
#
# Elastic Constant Matrix: (Units=GPa)
#
#
# Indices 1 2 3 4 5 6 
#
# 1 28.4086 12.3931 22.4562 1.9678 -3.3531 14.0591
# 2 12.3931 102.1235 16.2990 7.4231 5.7593 28.9832
# 3 22.4562 16.2990 79.7022 13.1371 -13.4363 12.9641
# 4 1.9678 7.4231 13.1371 34.2211 -0.8427 4.0949
# 5 -3.3531 5.7593 -13.4363 -0.8427 25.4513 -6.6828
# 6 14.0591 28.9832 12.9641 4.0949 -6.6828 43.3268
#
#
#
# Elastic Compliance Matrix: (Units=1/GPa)
#
#
# Indices 1 2 3 4 5 6 
#
# 1 0.052165 -0.000387 -0.013678 0.003861 -0.003680 -0.013508
# 2 -0.000387 0.013155 -0.002030 -0.001140 -0.006490 -0.008960
# 3 -0.013678 -0.002030 0.019005 -0.006095 0.009035 0.002079
# 4 0.003861 -0.001140 -0.006095 0.031775 -0.001915 -0.001965
# 5 -0.003680 -0.006490 0.009035 -0.001915 0.047704 0.010371
# 6 -0.013508 -0.008960 0.002079 -0.001965 0.010371 0.034621
#
#
# Mechanical properties :
#
#
# Convention : Reuss Voigt Hill
#
# Bulk Modulus (GPa) = 19.18097 34.72567 26.95332
# Shear Modulus (GPa) = 20.16199 31.20556 25.68377
#
# Velocity S-wave (km/s) = 2.95812 3.68014 3.33871
# Velocity P-wave (km/s) = 4.47124 5.75579 5.15369
#
# Compressibility (1/GPa) = 0.05213501
#
# Stress axis : x y z
#
# Youngs Moduli (GPa) = 19.17011 76.01810 52.61731
#
# Poissons Ratio (x) = 0.02941 0.71969
# Poissons Ratio (y) = 0.00742 0.10681
# Poissons Ratio (z) = 0.26221 0.15431
#
# Static dielectric constant tensor:
#      x y z
#    x 1.846230 0.021340 -0.066520 
#    y 0.021340 1.904760 -0.028380 
#    z -0.066520 -0.028380 1.948890 
# 
# From -- ./inp_files/196656.got.cif
#   From: 2010.05.17/outbox.cif.g08.bks.cpg/sg2_99_cif.got.tgz:196656.got - 2010.06.03 11:33:40.
