data_PCOD9080948
_publ_section_title
;
Structure prediction by ZEFSAII (Michael W. Deem and Ramdas Pophale) SiO2 
 PCOD9080948
Probable space group: P -1
;
_chemical_formula_sum "Si O2"
_cell_formula_units_Z 16
_cell_length_a 7.652345
_cell_length_b 21.390607
_cell_length_c 11.491661
_cell_angle_alpha 32.057855
_cell_angle_beta 69.428496
_cell_angle_gamma 57.147698
_cell_volume 813.587296
_symmetry_space_group_name_H-M "P -1"
_symmetry_group_IT_number 2
_symmetry_cell_setting 'triclinic'
loop_
_space_group_symop_operation_xyz
x,y,z
-x,-y,-z
loop_
_atom_site_type_symbol
_atom_site_label
_atom_site_fract_x
_atom_site_fract_y
_atom_site_fract_z
Si Si1 0.910084 0.703755 0.168417
Si Si2 0.215917 0.020339 0.614503
Si Si3 0.783930 0.456346 0.000043
Si Si4 0.246810 0.790540 0.645946
Si Si5 0.780016 0.571322 0.069087
Si Si6 0.922554 0.556771 0.616312
Si Si7 0.709212 0.257511 0.018654
Si Si8 0.383309 0.000642 0.339948
O O1 0.935627 0.586435 0.258585
O O2 0.841335 0.672332 0.357871
O O3 0.756299 0.855349 0.918786
O O4 0.153349 0.677721 0.164305
O O5 0.240915 0.873648 0.858832
O O6 0.371797 0.038985 0.635347
O O7 0.291812 0.018366 0.465672
O O8 0.968349 0.126024 0.507913
O O9 0.677262 0.362145 0.169307
O O10 0.747202 0.536131 0.002076
O O11 0.051679 0.370481 0.066786
O O12 0.744250 0.543233 0.754711
O O13 0.201781 0.787252 0.799764
O O14 0.370017 0.876216 0.479892
O O15 0.919925 0.441583 0.323186
O O16 0.546441 0.658650 0.039740
#
# Coordination Sequence:
#
# PCOD9080948 Si02
#       8
#     2   2   2   2   2   2   2   2
#     4  11  18  32  52  79 121 135 170 217 281 333
#     4  10  19  30  51  79 113 138 170 218 283 317
#     4   9  19  38  53  75 106 146 187 217 256 310
#     4  11  19  32  52  80 112 132 182 226 263 320
#     4   9  20  35  54  77 105 147 184 222 257 307
#     4   9  19  34  52  74 108 155 168 218 266 324
#     4  11  18  30  52  84 112 134 171 227 273 323
#     4  10  19  30  48  80 109 141 166 218 277 318
#
# _framework density 19.665991999999999
#
# number of rings (size 3 to 8) (size 9 to 14) (size 15 to 20)
#    0.750    1.250    3.750    1.500    5.250    1.000 
#    0.000    0.000    0.000    0.750    0.000    6.125 
#    0.000    0.000    0.000    0.000    0.000    0.000 
#
# Total GULP energy -89097.388763 kJ/mol
# GULP energy per Si atom -5568.586798 kJ/mol
# Density = 1.962123 g / cm^3
# Si number density = 19.665992 Si / 1000 Ang^3
#
#
#
# Elastic Constant Matrix: (Units=GPa)
#
#
# Indices 1 2 3 4 5 6 
#
# 1 99.0325 12.4408 28.8039 -5.7833 -5.6685 3.7671
# 2 12.4408 31.7708 32.3485 6.3296 -5.6125 6.1956
# 3 28.8039 32.3485 88.8396 3.1443 -8.3006 14.0327
# 4 -5.7833 6.3296 3.1443 22.3682 4.0828 0.4665
# 5 -5.6685 -5.6125 -8.3006 4.0828 20.3168 -6.2048
# 6 3.7671 6.1956 14.0327 0.4665 -6.2048 27.0785
#
#
#
# Elastic Compliance Matrix: (Units=1/GPa)
#
#
# Indices 1 2 3 4 5 6 
#
# 1 0.011517 -0.002056 -0.003146 0.003848 0.000773 0.000609
# 2 -0.002056 0.055659 -0.017997 -0.015650 0.010455 -0.000457
# 3 -0.003146 -0.017997 0.019676 0.001604 0.000146 -0.005635
# 4 0.003848 -0.015650 0.001604 0.052441 -0.013690 -0.001826
# 5 0.000773 0.010455 0.000146 -0.013690 0.058515 0.011069
# 6 0.000609 -0.000457 -0.005635 -0.001826 0.011069 0.042438
#
#
# Mechanical properties :
#
#
# Convention : Reuss Voigt Hill
#
# Bulk Modulus (GPa) = 24.71899 40.75880 32.73889
# Shear Modulus (GPa) = 16.65959 23.68936 20.17448
#
# Velocity S-wave (km/s) = 2.91370 3.47448 3.20637
# Velocity P-wave (km/s) = 4.89042 6.07178 5.51284
#
# Compressibility (1/GPa) = 0.04045473
#
# Stress axis : x y z
#
# Youngs Moduli (GPa) = 86.83110 17.96666 50.82251
#
# Poissons Ratio (x) = 0.03693 0.15987
# Poissons Ratio (y) = 0.17849 0.91466
# Poissons Ratio (z) = 0.27314 0.32335
#
# Static dielectric constant tensor:
#      x y z
#    x 1.736380 -0.021080 0.006560 
#    y -0.021080 1.702630 -0.030820 
#    z 0.006560 -0.030820 1.736240 
# 
# From -- ./inp_files/405825.got.cif
#   From: 2010.05.17/outbox.cif.g08.bks.cpg/sg2_203_cif.got.tgz:405825.got - 2010.06.03 11:33:40.
