data_PCOD9080774
_publ_section_title
;
Structure prediction by ZEFSAII (Michael W. Deem and Ramdas Pophale) SiO2 
 PCOD9080774
Probable space group: P -1
;
_chemical_formula_sum "Si O2"
_cell_formula_units_Z 14
_cell_length_a 8.646594
_cell_length_b 8.966562
_cell_length_c 9.157669
_cell_angle_alpha 101.799889
_cell_angle_beta 51.595554
_cell_angle_gamma 106.191448
_cell_volume 533.854743
_symmetry_space_group_name_H-M "P -1"
_symmetry_group_IT_number 2
_symmetry_cell_setting 'triclinic'
loop_
_space_group_symop_operation_xyz
x,y,z
-x,-y,-z
loop_
_atom_site_type_symbol
_atom_site_label
_atom_site_fract_x
_atom_site_fract_y
_atom_site_fract_z
Si Si1 0.930611 0.047819 0.892750
Si Si2 0.448594 0.811786 0.511053
Si Si3 0.870389 0.583318 0.484010
Si Si4 0.811247 0.628090 0.209793
Si Si5 0.477701 0.892940 0.830210
Si Si6 0.543031 0.423778 0.110658
Si Si7 0.850335 0.121473 0.515999
O O1 0.998241 0.233712 0.889338
O O2 0.690197 0.007127 0.018209
O O3 0.037940 0.966958 0.686919
O O4 0.000000 0.000000 0.000000
O O5 0.629689 0.724276 0.356581
O O6 0.405454 0.796838 0.704252
O O7 0.274127 0.773832 0.486421
O O8 0.500000 0.000000 0.500000
O O9 0.842489 0.538252 0.321885
O O10 0.648102 0.570542 0.673997
O O11 0.000000 0.500000 0.500000
O O12 0.988093 0.763590 0.459744
O O13 0.742569 0.519598 0.090220
O O14 0.460513 0.758763 0.933440
O O15 0.690155 0.001019 0.681704
O O16 0.500000 0.500000 0.000000
#
# Coordination Sequence:
#
# PCOD9080774 Si02
#       7
#     2   2   2   2   2   2   2
#     4  12  24  42  81 117 150 206 257 324 392 453
#     4  10  18  44  75 105 145 198 250 311 376 454
#     4  12  29  50  80 113 152 213 258 315 393 473
#     4  12  26  50  77 109 156 212 259 312 399 466
#     4  11  24  47  78 110 156 208 253 323 391 451
#     4  12  30  51  74 114 159 202 264 327 386 463
#     4  11  24  49  77 115 157 195 270 315 384 473
#
# _framework density 26.224364000000001
#
# number of rings (size 3 to 8) (size 9 to 14) (size 15 to 20)
#    0.000    0.571    5.714    2.143    6.000    2.857 
#    0.000    1.429    0.000    0.000    0.000    0.000 
#    0.000    0.000    0.000    0.000    0.000    0.000 
#
# Total GULP energy -78521.762830 kJ/mol
# GULP energy per Si atom -5608.697345 kJ/mol
# Density = 2.616468 g / cm^3
# Si number density = 26.224364 Si / 1000 Ang^3
#
#
#
# Elastic Constant Matrix: (Units=GPa)
#
#
# Indices 1 2 3 4 5 6 
#
# 1 123.0063 67.0388 61.0288 -1.8656 12.8475 -3.6188
# 2 67.0388 119.7874 50.8697 -4.1453 13.8762 15.7212
# 3 61.0288 50.8697 128.5144 -10.5520 5.2715 3.6161
# 4 -1.8656 -4.1453 -10.5520 40.7525 -12.3106 8.0436
# 5 12.8475 13.8762 5.2715 -12.3106 71.4756 1.8337
# 6 -3.6188 15.7212 3.6161 8.0436 1.8337 72.3033
#
#
#
# Elastic Compliance Matrix: (Units=1/GPa)
#
#
# Indices 1 2 3 4 5 6 
#
# 1 0.013792 -0.006129 -0.004303 -0.002017 -0.001383 0.002498
# 2 -0.006129 0.013252 -0.002136 0.000804 -0.001094 -0.003143
# 3 -0.004303 -0.002136 0.010881 0.002794 0.000883 -0.000628
# 4 -0.002017 0.000804 0.002794 0.027413 0.004814 -0.003587
# 5 -0.001383 -0.001094 0.000883 0.004814 0.015236 -0.000797
# 6 0.002498 -0.003143 -0.000628 -0.003587 -0.000797 0.015090
#
#
# Mechanical properties :
#
#
# Convention : Reuss Voigt Hill
#
# Bulk Modulus (GPa) = 78.18392 81.02031 79.60211
# Shear Modulus (GPa) = 39.97989 49.73100 44.85545
#
# Velocity S-wave (km/s) = 3.90876 4.35945 4.14024
# Velocity P-wave (km/s) = 7.08868 7.50346 7.29902
#
# Compressibility (1/GPa) = 0.01279035
#
# Stress axis : x y z
#
# Youngs Moduli (GPa) = 72.50565 75.45899 91.90508
#
# Poissons Ratio (x) = 0.46247 0.39544
# Poissons Ratio (y) = 0.44437 0.19629
# Poissons Ratio (z) = 0.31197 0.16117
#
# Static dielectric constant tensor:
#      x y z
#    x 2.100120 -0.003930 0.022110 
#    y -0.003930 2.123450 -0.007480 
#    z 0.022110 -0.007480 2.021190 
# 
# From -- ./inp_files/158543.got.cif
#   From: 2010.05.17/outbox.cif.g08.bks.cpg/sg2_80_cif.got.tgz:158543.got - 2010.06.03 11:33:40.
