data_PCOD9080548
_publ_section_title
;
Structure prediction by ZEFSAII (Michael W. Deem and Ramdas Pophale) SiO2 
 PCOD9080548
Probable space group: P -1
;
_chemical_formula_sum "Si O2"
_cell_formula_units_Z 16
_cell_length_a 6.848481
_cell_length_b 9.994330
_cell_length_c 12.879254
_cell_angle_alpha 123.831770
_cell_angle_beta 94.799886
_cell_angle_gamma 108.773636
_cell_volume 653.441428
_symmetry_space_group_name_H-M "P -1"
_symmetry_group_IT_number 2
_symmetry_cell_setting 'triclinic'
loop_
_space_group_symop_operation_xyz
x,y,z
-x,-y,-z
loop_
_atom_site_type_symbol
_atom_site_label
_atom_site_fract_x
_atom_site_fract_y
_atom_site_fract_z
Si Si1 0.143040 0.245556 0.243525
Si Si2 0.213716 0.102556 0.623716
Si Si3 0.308009 0.915254 0.738951
Si Si4 0.775922 0.086136 0.826177
Si Si5 0.857955 0.579376 0.291197
Si Si6 0.917987 0.599239 0.895826
Si Si7 0.308922 0.790968 0.331705
Si Si8 0.746290 0.457651 0.459560
O O1 0.884641 0.174864 0.226114
O O2 0.177096 0.314719 0.157703
O O3 0.278749 0.412507 0.399595
O O4 0.190009 0.078650 0.198274
O O5 0.228635 0.299909 0.723068
O O6 0.439733 0.127664 0.591079
O O7 0.210782 0.998920 0.683889
O O8 0.121787 0.710991 0.376572
O O9 0.365310 0.757155 0.629158
O O10 0.542850 0.064533 0.850037
O O11 0.746974 0.091690 0.703322
O O12 0.982337 0.268265 0.947756
O O13 0.733883 0.517506 0.367078
O O14 0.880298 0.425771 0.159789
O O15 0.000000 0.000000 0.500000
O O16 0.743523 0.393344 0.815621
O O17 0.000000 0.500000 0.500000
#
# Coordination Sequence:
#
# PCOD9080548 Si02
#       8
#     2   2   2   2   2   2   2   2
#     4  11  22  41  64  89 125 165 207 258 309 358
#     4  11  22  37  63  92 125 160 204 251 309 377
#     4  10  22  40  61  94 124 162 207 252 318 360
#     4  11  23  41  63  92 126 163 212 255 301 367
#     4  10  21  40  61  91 124 163 203 247 314 362
#     4  10  22  43  63  90 126 165 211 254 299 368
#     4   9  22  42  60  90 125 165 204 250 313 359
#     4  10  18  40  62  84 126 159 198 256 304 370
#
# _framework density 24.485744
#
# number of rings (size 3 to 8) (size 9 to 14) (size 15 to 20)
#    0.750    1.000    2.500    3.000    0.000    2.500 
#    2.250    8.750    0.000    0.750    0.000    0.000 
#    0.000    0.000    0.000    0.000    0.000    0.000 
#
# Total GULP energy -89390.637742 kJ/mol
# GULP energy per Si atom -5586.914859 kJ/mol
# Density = 2.443001 g / cm^3
# Si number density = 24.485744 Si / 1000 Ang^3
#
#
#
# Elastic Constant Matrix: (Units=GPa)
#
#
# Indices 1 2 3 4 5 6 
#
# 1 79.0100 15.1685 15.8429 -2.3735 4.9302 -6.2596
# 2 15.1685 142.7261 19.8154 9.1368 -4.7809 -20.4129
# 3 15.8429 19.8154 59.3613 -5.9516 13.8349 -16.0299
# 4 -2.3735 9.1368 -5.9516 22.5759 -0.7302 -7.5280
# 5 4.9302 -4.7809 13.8349 -0.7302 23.6688 8.2128
# 6 -6.2596 -20.4129 -16.0299 -7.5280 8.2128 34.6317
#
#
#
# Elastic Compliance Matrix: (Units=1/GPa)
#
#
# Indices 1 2 3 4 5 6 
#
# 1 0.013631 -0.001108 -0.001975 0.001916 -0.002512 0.001908
# 2 -0.001108 0.008107 -0.002951 -0.003491 0.002870 0.001773
# 3 -0.001975 -0.002951 0.032216 0.016155 -0.026350 0.022576
# 4 0.001916 -0.003491 0.016155 0.056990 -0.016441 0.022053
# 5 -0.002512 0.002870 -0.026350 -0.016441 0.068965 -0.030888
# 6 0.001908 0.001773 0.022576 0.022053 -0.030888 0.052833
#
#
# Mechanical properties :
#
#
# Convention : Reuss Voigt Hill
#
# Bulk Modulus (GPa) = 23.87482 42.52789 33.20135
# Shear Modulus (GPa) = 19.32195 31.52665 25.42430
#
# Velocity S-wave (km/s) = 2.81216 3.59214 3.22581
# Velocity P-wave (km/s) = 4.50732 5.88309 5.24055
#
# Compressibility (1/GPa) = 0.04188514
#
# Stress axis : x y z
#
# Youngs Moduli (GPa) = 73.36249 123.34894 31.04094
#
# Poissons Ratio (x) = 0.13671 0.06131
# Poissons Ratio (y) = 0.08131 0.09159
# Poissons Ratio (z) = 0.14490 0.36397
#
# Static dielectric constant tensor:
#      x y z
#    x 1.994640 0.024120 -0.036010 
#    y 0.024120 1.922460 0.058870 
#    z -0.036010 0.058870 2.021220 
# 
# From -- ./inp_files/495732.got.cif
#   From: 2010.05.17/outbox.cif.g08.bks.cpg/sg2_248_cif.got.tgz:495732.got - 2010.06.03 11:33:40.
