data_PCOD9080173
_publ_section_title
;
Structure prediction by ZEFSAII (Michael W. Deem and Ramdas Pophale) SiO2 
 PCOD9080173
Probable space group: P -1
;
_chemical_formula_sum "Si O2"
_cell_formula_units_Z 14
_cell_length_a 10.112167
_cell_length_b 8.542863
_cell_length_c 12.044489
_cell_angle_alpha 113.100699
_cell_angle_beta 39.893927
_cell_angle_gamma 125.433850
_cell_volume 540.987195
_symmetry_space_group_name_H-M "P -1"
_symmetry_group_IT_number 2
_symmetry_cell_setting 'triclinic'
loop_
_space_group_symop_operation_xyz
x,y,z
-x,-y,-z
loop_
_atom_site_type_symbol
_atom_site_label
_atom_site_fract_x
_atom_site_fract_y
_atom_site_fract_z
Si Si1 0.673655 0.619976 0.573903
Si Si2 0.899416 0.377456 0.260678
Si Si3 0.016753 0.315175 0.397720
Si Si4 0.348079 0.089397 0.003061
Si Si5 0.802845 0.922089 0.377190
Si Si6 0.675623 0.318250 0.053199
Si Si7 0.735355 0.953005 0.188237
O O1 0.830435 0.707156 0.608075
O O2 0.736074 0.768624 0.473556
O O3 0.422365 0.580681 0.769920
O O4 0.740977 0.461922 0.439964
O O5 0.062929 0.359379 0.248114
O O6 0.751587 0.163307 0.248971
O O7 0.063979 0.529449 0.106436
O O8 0.000000 0.500000 0.500000
O O9 0.783907 0.108685 0.484580
O O10 0.361690 0.888830 0.937850
O O11 0.399294 0.165665 0.865459
O O12 0.082543 0.016883 0.196628
O O13 0.526215 0.248001 0.015703
O O14 0.684297 0.860481 0.316602
O O15 0.000000 0.000000 0.000000
#
# Coordination Sequence:
#
# PCOD9080173 Si02
#       7
#     2   2   2   2   2   2   2
#     4  11  21  38  65  97 129 164 214 270 323 379
#     4  10  22  42  66  94 131 170 214 264 323 380
#     4   9  19  32  58  92 124 163 209 258 315 375
#     4  10  21  40  62  99 129 164 221 258 322 387
#     4  10  18  38  65  88 124 176 211 256 322 382
#     4  11  23  37  67 104 126 162 215 275 318 376
#     4   9  21  43  70  88 126 184 213 251 328 392
#
# _framework density 25.878616000000001
#
# number of rings (size 3 to 8) (size 9 to 14) (size 15 to 20)
#    0.000    2.000    2.857    0.429    0.000    2.286 
#    0.000    1.429    0.000    0.000    0.000    0.000 
#    0.000    0.000    0.000    0.000    0.000    0.000 
#
# Total GULP energy -78303.264992 kJ/mol
# GULP energy per Si atom -5593.090357 kJ/mol
# Density = 2.581971 g / cm^3
# Si number density = 25.878616 Si / 1000 Ang^3
#
#
#
# Elastic Constant Matrix: (Units=GPa)
#
#
# Indices 1 2 3 4 5 6 
#
# 1 118.2684 37.2768 52.4279 -6.4660 41.5876 -7.8733
# 2 37.2768 111.3242 66.3079 12.3394 1.5338 -14.5297
# 3 52.4279 66.3079 158.9478 18.1667 -0.4772 3.6595
# 4 -6.4660 12.3394 18.1667 47.0433 1.1285 -5.6978
# 5 41.5876 1.5338 -0.4772 1.1285 37.0086 -1.4065
# 6 -7.8733 -14.5297 3.6595 -5.6978 -1.4065 25.6513
#
#
#
# Elastic Compliance Matrix: (Units=1/GPa)
#
#
# Indices 1 2 3 4 5 6 
#
# 1 0.022233 -0.002742 -0.007336 0.008022 -0.024954 0.006732
# 2 -0.002742 0.013936 -0.004931 -0.001271 0.002768 0.007625
# 3 -0.007336 -0.004931 0.011568 -0.005282 0.008477 -0.007404
# 4 0.008022 -0.001271 -0.005282 0.025897 -0.009526 0.007726
# 5 -0.024954 0.002768 0.008477 -0.009526 0.055104 -0.006395
# 6 0.006732 0.007625 -0.007404 0.007726 -0.006395 0.047792
#
#
# Mechanical properties :
#
#
# Convention : Reuss Voigt Hill
#
# Bulk Modulus (GPa) = 56.43914 77.84061 67.13987
# Shear Modulus (GPa) = 23.53438 37.44249 30.48844
#
# Velocity S-wave (km/s) = 3.01892 3.80788 3.43612
# Velocity P-wave (km/s) = 5.83167 7.03403 6.46088
#
# Compressibility (1/GPa) = 0.01771820
#
# Stress axis : x y z
#
# Youngs Moduli (GPa) = 44.97788 71.75652 86.44460
#
# Poissons Ratio (x) = 0.19674 0.63420
# Poissons Ratio (y) = 0.12332 0.42629
# Poissons Ratio (z) = 0.32998 0.35385
#
# Static dielectric constant tensor:
#      x y z
#    x 2.122110 -0.037310 -0.063640 
#    y -0.037310 2.053770 0.066750 
#    z -0.063640 0.066750 2.019950 
# 
# From -- ./inp_files/324774.got.cif
#   From: 2010.05.17/outbox.cif.g08.bks.cpg/sg2_163_cif.got.tgz:324774.got - 2010.06.03 11:33:40.
