data_PCOD9080814
_publ_section_title
;
Structure prediction by ZEFSAII (Michael W. Deem and Ramdas Pophale) SiO2 
 PCOD9080814
Probable space group: P -1
;
_chemical_formula_sum "Si O2"
_cell_formula_units_Z 16
_cell_length_a 17.352389
_cell_length_b 5.298969
_cell_length_c 21.910849
_cell_angle_alpha 64.044855
_cell_angle_beta 157.825941
_cell_angle_gamma 119.443303
_cell_volume 661.236676
_symmetry_space_group_name_H-M "P -1"
_symmetry_group_IT_number 2
_symmetry_cell_setting 'triclinic'
loop_
_space_group_symop_operation_xyz
x,y,z
-x,-y,-z
loop_
_atom_site_type_symbol
_atom_site_label
_atom_site_fract_x
_atom_site_fract_y
_atom_site_fract_z
Si Si1 0.751940 0.626590 0.333960
Si Si2 0.985593 0.860928 0.072627
Si Si3 0.552913 0.952581 0.951211
Si Si4 0.830162 0.448958 0.540057
Si Si5 0.792263 0.661743 0.231201
Si Si6 0.158053 0.450302 0.177065
Si Si7 0.393278 0.062093 0.137692
Si Si8 0.414089 0.214244 0.597599
O O1 0.836067 0.651925 0.461866
O O2 0.895398 0.695413 0.370931
O O3 0.614019 0.297117 0.267399
O O4 0.584034 0.816333 0.178637
O O5 0.062670 0.573719 0.152084
O O6 0.135589 0.110159 0.196458
O O7 0.758225 0.824136 0.939752
O O8 0.000000 0.000000 0.000000
O O9 0.391364 0.633737 0.867179
O O10 0.689694 0.992141 0.985492
O O11 0.701471 0.935698 0.119049
O O12 0.758083 0.615990 0.526037
O O13 0.058349 0.386702 0.708551
O O14 0.677239 0.120934 0.454576
O O15 0.400046 0.620621 0.327849
O O16 0.000000 0.500000 0.000000
O O17 0.450308 0.790910 0.240084
#
# Coordination Sequence:
#
# PCOD9080814 Si02
#       8
#     2   2   2   2   2   2   2   2
#     4  10  21  35  59  82 118 149 192 247 284 342
#     4  10  19  28  52  82 122 146 181 233 290 343
#     4  10  21  39  61  77 119 149 203 243 280 343
#     4  11  24  37  60  85 122 154 189 241 288 354
#     4  10  23  40  55  86 108 162 198 236 292 338
#     4  10  19  30  52  82 120 152 178 234 291 346
#     4  10  20  33  52  89 116 149 188 240 294 329
#     4  11  21  36  55  88 124 149 189 237 298 338
#
# _framework density 24.197085000000001
#
# number of rings (size 3 to 8) (size 9 to 14) (size 15 to 20)
#    0.000    1.750    3.750    1.500    8.750    0.500 
#    0.000    0.000    0.000    0.000    0.000    5.250 
#    0.000    0.000    0.000    0.000    0.000    0.000 
#
# Total GULP energy -89252.602216 kJ/mol
# GULP energy per Si atom -5578.287639 kJ/mol
# Density = 2.414201 g / cm^3
# Si number density = 24.197085 Si / 1000 Ang^3
#
#
#
# Elastic Constant Matrix: (Units=GPa)
#
#
# Indices 1 2 3 4 5 6 
#
# 1 70.3145 11.0132 20.9128 7.4705 41.8032 -16.8038
# 2 11.0132 82.2487 8.8861 4.9774 9.0357 -20.1167
# 3 20.9128 8.8861 34.7301 -13.7670 21.1816 6.8484
# 4 7.4705 4.9774 -13.7670 29.1049 -1.5681 13.7856
# 5 41.8032 9.0357 21.1816 -1.5681 38.8363 -5.3401
# 6 -16.8038 -20.1167 6.8484 13.7856 -5.3401 30.4368
#
#
#
# Elastic Compliance Matrix: (Units=1/GPa)
#
#
# Indices 1 2 3 4 5 6 
#
# 1 0.001546 -0.019181 0.056100 0.053429 -0.033130 -0.054459
# 2 -0.019181 0.003961 0.023444 0.027340 0.004630 -0.024818
# 3 0.056100 0.023444 -0.028313 -0.070763 -0.042612 0.077412
# 4 0.053429 0.027340 -0.070763 -0.059987 -0.015610 0.087920
# 5 -0.033130 0.004630 -0.042612 -0.015610 0.085195 0.016375
# 6 -0.054459 -0.024818 0.077412 0.087920 0.016375 -0.067980
#
#
# Mechanical properties :
#
#
# Convention : Reuss Voigt Hill
#
# Bulk Modulus (GPa) = 10.21241 29.87974 20.04607
# Shear Modulus (GPa) = -32.53854 29.44101 -1.54877
#
# Velocity S-wave (km/s) = -3.67103 3.49193 -0.80091
# Velocity P-wave (km/s) = 3.70661 5.35102 2.72896
#
# Compressibility (1/GPa) = 0.09792007
#
# Stress axis : x y z
#
# Youngs Moduli (GPa) = 646.74760 252.48776 -35.31996
#
# Poissons Ratio (x) = 4.84308 1.98146
# Poissons Ratio (y) = 12.40556 0.82805
# Poissons Ratio (z) = -36.28266 -5.91938
#
# Static dielectric constant tensor:
#      x y z
#    x 1.997160 -0.039460 -0.017270 
#    y -0.039460 1.931000 0.011360 
#    z -0.017270 0.011360 1.982940 
# 
# From -- ./inp_files/39433.got.cif
#   From: 2010.05.17/outbox.cif.g08.bks.cpg/sg2_20_cif.got.tgz:39433.got - 2010.06.03 11:33:40.
