data_PCOD9080092
_publ_section_title
;
Structure prediction by ZEFSAII (Michael W. Deem and Ramdas Pophale) SiO2 
 PCOD9080092
Probable space group: P -1
;
_chemical_formula_sum "Si O2"
_cell_formula_units_Z 14
_cell_length_a 13.824547
_cell_length_b 5.660488
_cell_length_c 9.807849
_cell_angle_alpha 53.607428
_cell_angle_beta 59.942213
_cell_angle_gamma 74.558140
_cell_volume 534.205219
_symmetry_space_group_name_H-M "P -1"
_symmetry_group_IT_number 2
_symmetry_cell_setting 'triclinic'
loop_
_space_group_symop_operation_xyz
x,y,z
-x,-y,-z
loop_
_atom_site_type_symbol
_atom_site_label
_atom_site_fract_x
_atom_site_fract_y
_atom_site_fract_z
Si Si1 0.349695 0.511565 0.233065
Si Si2 0.046318 0.458600 0.333567
Si Si3 0.599923 0.149172 0.517927
Si Si4 0.196782 0.526692 0.583749
Si Si5 0.871719 0.088048 0.052227
Si Si6 0.444009 0.320872 0.809624
Si Si7 0.239457 0.364226 0.083409
O O1 0.243489 0.573407 0.381711
O O2 0.461063 0.694859 0.136604
O O3 0.323687 0.496514 0.096319
O O4 0.377118 0.189236 0.379757
O O5 0.137270 0.232097 0.294310
O O6 0.000000 0.500000 0.500000
O O7 0.934560 0.410489 0.337823
O O8 0.117459 0.769612 0.153649
O O9 0.713150 0.294527 0.452346
O O10 0.496931 0.193367 0.679581
O O11 0.576796 0.337838 0.334969
O O12 0.199396 0.187901 0.749096
O O13 0.824204 0.389497 0.044737
O O14 0.000000 0.000000 0.000000
O O15 0.322408 0.195663 0.986227
#
# Coordination Sequence:
#
# PCOD9080092 Si02
#       7
#     2   2   2   2   2   2   2
#     4  11  21  37  64  87 124 160 196 250 298 358
#     4   9  17  35  61  90 116 154 199 235 306 357
#     4  10  23  38  61  89 120 161 200 250 294 351
#     4  10  18  38  63  88 119 156 202 243 295 356
#     4   8  17  31  60  85 113 154 191 236 288 352
#     4  10  22  41  57  87 124 158 207 242 295 357
#     4  10  20  35  62  91 118 158 201 243 301 361
#
# _framework density 26.207156999999999
#
# number of rings (size 3 to 8) (size 9 to 14) (size 15 to 20)
#    0.857    1.429    1.429    1.714    0.000    2.857 
#    0.000    5.714    0.000    0.000    0.000    0.000 
#    0.000    0.000    0.000    0.000    0.000    0.000 
#
# Total GULP energy -78027.653906 kJ/mol
# GULP energy per Si atom -5573.403850 kJ/mol
# Density = 2.614751 g / cm^3
# Si number density = 26.207157 Si / 1000 Ang^3
#
#
#
# Elastic Constant Matrix: (Units=GPa)
#
#
# Indices 1 2 3 4 5 6 
#
# 1 142.0726 38.0883 42.0254 13.4609 -20.8438 -27.7818
# 2 38.0883 47.0028 16.8394 -12.6953 -19.6604 -19.1957
# 3 42.0254 16.8394 138.6576 14.1158 -36.2906 -7.4215
# 4 13.4609 -12.6953 14.1158 45.6361 -11.4788 -16.3527
# 5 -20.8438 -19.6604 -36.2906 -11.4788 54.8159 7.1450
# 6 -27.7818 -19.1957 -7.4215 -16.3527 7.1450 37.0386
#
#
#
# Elastic Compliance Matrix: (Units=1/GPa)
#
#
# Indices 1 2 3 4 5 6 
#
# 1 0.010679 -0.010672 -0.001927 -0.006170 -0.002311 -0.000185
# 2 -0.010672 0.069860 -0.001215 0.044349 0.023885 0.042930
# 3 -0.001927 -0.001215 0.009314 -0.002195 0.004812 -0.002107
# 4 -0.006170 0.044349 -0.002195 0.055321 0.018641 0.038745
# 5 -0.002311 0.023885 0.004812 0.018641 0.031219 0.013817
# 6 -0.000185 0.042930 -0.002107 0.038745 0.013817 0.063127
#
#
# Mechanical properties :
#
#
# Convention : Reuss Voigt Hill
#
# Bulk Modulus (GPa) = 16.07105 57.95992 37.01548
# Shear Modulus (GPa) = 17.36764 42.88344 30.12554
#
# Velocity S-wave (km/s) = 2.57710 4.04954 3.39413
# Velocity P-wave (km/s) = 3.87310 6.63544 5.43277
#
# Compressibility (1/GPa) = 0.06222370
#
# Stress axis : x y z
#
# Youngs Moduli (GPa) = 93.64001 14.31429 107.36540
#
# Poissons Ratio (x) = 0.15277 0.20691
# Poissons Ratio (y) = 0.99935 0.13049
# Poissons Ratio (z) = 0.18046 0.01740
#
# Static dielectric constant tensor:
#      x y z
#    x 2.085290 -0.043700 0.003100 
#    y -0.043700 2.274160 -0.007390 
#    z 0.003100 -0.007390 2.085680 
# 
# From -- ./inp_files/100645.got.cif
#   From: 2010.05.17/outbox.cif.g08.bks.cpg/sg2_51_cif.got.tgz:100645.got - 2010.06.03 11:33:40.
