data_PCOD9080611
_publ_section_title
;
Structure prediction by ZEFSAII (Michael W. Deem and Ramdas Pophale) SiO2 
 PCOD9080611
Probable space group: P -1
;
_chemical_formula_sum "Si O2"
_cell_formula_units_Z 15
_cell_length_a 9.134334
_cell_length_b 15.036925
_cell_length_c 6.022972
_cell_angle_alpha 67.548968
_cell_angle_beta 118.079743
_cell_angle_gamma 119.173152
_cell_volume 624.703886
_symmetry_space_group_name_H-M "P -1"
_symmetry_group_IT_number 2
_symmetry_cell_setting 'triclinic'
loop_
_space_group_symop_operation_xyz
x,y,z
-x,-y,-z
loop_
_atom_site_type_symbol
_atom_site_label
_atom_site_fract_x
_atom_site_fract_y
_atom_site_fract_z
Si Si1 0.360648 0.951287 0.143893
Si Si2 0.136249 0.850689 0.705054
Si Si3 0.899690 0.604666 0.264944
Si Si4 0.568873 0.429213 0.274718
Si Si5 0.759941 0.313332 0.256292
Si Si6 0.688444 0.932558 0.614683
Si Si7 0.769565 0.734110 0.724828
Si Si8 0.000000 0.500000 0.000000
O O1 0.482653 0.909364 0.420956
O O2 0.303779 0.034020 0.155830
O O3 0.187888 0.869203 0.983216
O O4 0.500000 0.000000 0.000000
O O5 0.266203 0.800190 0.738372
O O6 0.931654 0.770436 0.629736
O O7 0.181165 0.962153 0.517290
O O8 0.757791 0.515791 0.407968
O O9 0.926100 0.542304 0.129807
O O10 0.080080 0.657505 0.477621
O O11 0.825774 0.686504 0.029620
O O12 0.608113 0.343600 0.234233
O O13 0.412063 0.360426 0.392265
O O14 0.500000 0.500000 0.000000
O O15 0.840663 0.385843 0.032580
O O16 0.737399 0.836881 0.670803
#
# Coordination Sequence:
#
# PCOD9080611 Si02
#       8
#     2   2   2   2   2   2   2   1
#     4   9  22  44  67  94 129 177 223 271 332 397
#     4  11  24  42  67  99 134 177 227 263 335 410
#     4  10  22  43  67  96 131 177 223 272 335 393
#     4   9  21  40  65  91 130 167 217 278 327 379
#     4  11  23  41  72  94 132 179 223 270 335 402
#     4  10  23  43  69  95 138 170 224 281 327 391
#     4  11  23  42  65  99 136 174 219 280 335 393
#     4  10  18  40  66  90 124 162 228 266 310 398
#
# _framework density 24.011378000000001
#
# number of rings (size 3 to 8) (size 9 to 14) (size 15 to 20)
#    0.000    1.867    1.333    2.000    7.467    0.533 
#    7.200    0.667    5.867    0.000    0.000    0.000 
#    0.000    0.000    0.000    0.000    0.000    0.000 
#
# Total GULP energy -83576.394419 kJ/mol
# GULP energy per Si atom -5571.759628 kJ/mol
# Density = 2.395673 g / cm^3
# Si number density = 24.011378 Si / 1000 Ang^3
#
#
#
# Elastic Constant Matrix: (Units=GPa)
#
#
# Indices 1 2 3 4 5 6 
#
# 1 86.7679 33.1416 9.4244 -11.6584 -15.5037 15.2226
# 2 33.1416 116.3674 22.8456 -17.9156 -3.6085 -5.4955
# 3 9.4244 22.8456 23.0333 -1.1603 -7.5156 -0.9865
# 4 -11.6584 -17.9156 -1.1603 39.4481 -1.1436 -7.3882
# 5 -15.5037 -3.6085 -7.5156 -1.1436 26.4029 -13.1873
# 6 15.2226 -5.4955 -0.9865 -7.3882 -13.1873 63.9520
#
#
#
# Elastic Compliance Matrix: (Units=1/GPa)
#
#
# Indices 1 2 3 4 5 6 
#
# 1 0.014976 -0.003749 0.000034 0.002550 0.007366 -0.002073
# 2 -0.003749 0.012631 -0.011567 0.004542 -0.002686 0.001770
# 3 0.000034 -0.011567 0.060487 -0.002369 0.017149 0.003194
# 4 0.002550 0.004542 -0.002369 0.028997 0.004734 0.004073
# 5 0.007366 -0.002686 0.017149 0.004734 0.051654 0.009479
# 6 -0.002073 0.001770 0.003194 0.004073 0.009479 0.018757
#
#
# Mechanical properties :
#
#
# Convention : Reuss Voigt Hill
#
# Bulk Modulus (GPa) = 17.38195 39.66576 28.52385
# Shear Modulus (GPa) = 21.07565 36.67773 28.87669
#
# Velocity S-wave (km/s) = 2.96588 3.91258 3.47165
# Velocity P-wave (km/s) = 4.35698 6.08001 5.28913
#
# Compressibility (1/GPa) = 0.05753096
#
# Stress axis : x y z
#
# Youngs Moduli (GPa) = 66.77557 79.16747 16.53251
#
# Poissons Ratio (x) = 0.29677 -0.00056
# Poissons Ratio (y) = 0.25031 0.19123
# Poissons Ratio (z) = -0.00225 0.91570
#
# Static dielectric constant tensor:
#      x y z
#    x 1.970820 0.052600 0.042870 
#    y 0.052600 1.880610 0.030940 
#    z 0.042870 0.030940 2.012220 
# 
# From -- ./inp_files/35269.got.cif
#   From: 2010.05.17/outbox.cif.g08.bks.cpg/sg2_18_cif.got.tgz:35269.got - 2010.06.03 11:33:40.
