data_PCOD9080834
_publ_section_title
;
Structure prediction by ZEFSAII (Michael W. Deem and Ramdas Pophale) SiO2 
 PCOD9080834
Probable space group: P -1
;
_chemical_formula_sum "Si O2"
_cell_formula_units_Z 16
_cell_length_a 17.191778
_cell_length_b 17.406405
_cell_length_c 15.271216
_cell_angle_alpha 134.777683
_cell_angle_beta 133.883001
_cell_angle_gamma 16.676217
_cell_volume 927.050220
_symmetry_space_group_name_H-M "P -1"
_symmetry_group_IT_number 2
_symmetry_cell_setting 'triclinic'
loop_
_space_group_symop_operation_xyz
x,y,z
-x,-y,-z
loop_
_atom_site_type_symbol
_atom_site_label
_atom_site_fract_x
_atom_site_fract_y
_atom_site_fract_z
Si Si1 0.610796 0.133480 0.040437
Si Si2 0.595925 0.331210 0.862228
Si Si3 0.760731 0.784471 0.588650
Si Si4 0.833463 0.309665 0.944251
Si Si5 0.952626 0.251041 0.192226
Si Si6 0.001242 0.454100 0.818056
Si Si7 0.438954 0.051196 0.240011
Si Si8 0.757630 0.845464 0.068224
O O1 0.630873 0.005664 0.894494
O O2 0.345295 0.443011 0.053281
O O3 0.642476 0.057962 0.102476
O O4 0.867742 0.971145 0.087993
O O5 0.688874 0.326578 0.854694
O O6 0.332969 0.497237 0.776536
O O7 0.500000 0.500000 0.000000
O O8 0.852806 0.027520 0.853471
O O9 0.000000 0.500000 0.500000
O O10 0.871798 0.804503 0.696661
O O11 0.500000 0.000000 0.500000
O O12 0.672805 0.833482 0.657568
O O13 0.873992 0.318006 0.081698
O O14 0.239582 0.238352 0.759260
O O15 0.092002 0.284058 0.825418
O O16 0.715954 0.719363 0.758260
O O17 0.972630 0.589297 0.964276
O O18 0.500000 0.000000 0.000000
#
# Coordination Sequence:
#
# PCOD9080834 Si02
#       8
#     2   2   2   2   2   2   2   2
#     4  11  20  28  48  72 103 139 170 206 244 301
#     4  10  20  33  52  73  96 129 177 219 256 310
#     4  12  26  38  54  76 103 137 186 234 266 297
#     4  11  20  31  49  74 100 132 178 207 248 308
#     4  11  21  36  53  69  99 137 175 222 268 300
#     4  10  19  31  48  66  94 138 178 204 238 308
#     4  11  21  34  50  66  98 141 180 207 260 293
#     4  10  19  29  45  72 103 134 180 199 239 304
#
# _framework density 17.259042999999998
#
# number of rings (size 3 to 8) (size 9 to 14) (size 15 to 20)
#    0.000    1.250    3.750    6.750    3.500    0.000 
#    0.000    0.000    0.000    0.000    0.000    0.000 
#    0.000    0.000    0.000   78.750    0.000    0.000 
#
# Total GULP energy -89192.219199 kJ/mol
# GULP energy per Si atom -5574.513700 kJ/mol
# Density = 1.721976 g / cm^3
# Si number density = 17.259043 Si / 1000 Ang^3
#
#
#
# Elastic Constant Matrix: (Units=GPa)
#
#
# Indices 1 2 3 4 5 6 
#
# 1 62.3582 15.6940 16.4731 -3.2268 5.8850 4.3147
# 2 15.6940 110.6060 13.5076 -3.5051 -0.0258 4.4033
# 3 16.4731 13.5076 34.4101 -5.0918 -4.1827 4.5605
# 4 -3.2268 -3.5051 -5.0918 24.4323 -7.8852 -1.4311
# 5 5.8850 -0.0258 -4.1827 -7.8852 20.2205 -2.6592
# 6 4.3147 4.4033 4.5605 -1.4311 -2.6592 41.4499
#
#
#
# Elastic Compliance Matrix: (Units=1/GPa)
#
#
# Indices 1 2 3 4 5 6 
#
# 1 0.019984 -0.001613 -0.010275 -0.002797 -0.009227 -0.001467
# 2 -0.001613 0.009658 -0.002863 0.000558 0.000039 -0.000521
# 3 -0.010275 -0.002863 0.038793 0.011114 0.015143 -0.001539
# 4 -0.002797 0.000558 0.011114 0.050549 0.023120 0.002238
# 5 -0.009227 0.000039 0.015143 0.023120 0.064847 0.004249
# 6 -0.001467 -0.000521 -0.001539 0.002238 0.004249 0.024853
#
#
# Mechanical properties :
#
#
# Convention : Reuss Voigt Hill
#
# Bulk Modulus (GPa) = 25.68455 33.19150 29.43802
# Shear Modulus (GPa) = 19.90733 28.00052 23.95392
#
# Velocity S-wave (km/s) = 3.39992 4.03223 3.72950
# Velocity P-wave (km/s) = 5.50697 6.39935 5.96986
#
# Compressibility (1/GPa) = 0.03893392
#
# Stress axis : x y z
#
# Youngs Moduli (GPa) = 50.03932 103.54077 25.77781
#
# Poissons Ratio (x) = 0.16703 0.26487
# Poissons Ratio (y) = 0.08072 0.07379
# Poissons Ratio (z) = 0.51415 0.29640
#
# Static dielectric constant tensor:
#      x y z
#    x 1.644500 -0.012150 -0.023010 
#    y -0.012150 1.610600 -0.038250 
#    z -0.023010 -0.038250 1.496190 
# 
# From -- ./inp_files/534372.got.cif
#   From: 2010.05.17/outbox.cif.g08.bks.cpg/sg2_268_cif.got.tgz:534372.got - 2010.06.03 11:33:40.
