data_PCOD9080738
_publ_section_title
;
Structure prediction by ZEFSAII (Michael W. Deem and Ramdas Pophale) SiO2 
 PCOD9080738
Probable space group: P -1
;
_chemical_formula_sum "Si O2"
_cell_formula_units_Z 16
_cell_length_a 17.500398
_cell_length_b 14.852384
_cell_length_c 25.262736
_cell_angle_alpha 17.985856
_cell_angle_beta 18.736254
_cell_angle_gamma 23.268857
_cell_volume 640.549643
_symmetry_space_group_name_H-M "P -1"
_symmetry_group_IT_number 2
_symmetry_cell_setting 'triclinic'
loop_
_space_group_symop_operation_xyz
x,y,z
-x,-y,-z
loop_
_atom_site_type_symbol
_atom_site_label
_atom_site_fract_x
_atom_site_fract_y
_atom_site_fract_z
Si Si1 0.970409 0.814527 0.981018
Si Si2 0.755679 0.279172 0.457457
Si Si3 0.068151 0.400057 0.642562
Si Si4 0.380457 0.779180 0.165663
Si Si5 0.092894 0.782664 0.802765
Si Si6 0.339959 0.039890 0.410123
Si Si7 0.433562 0.150400 0.108559
Si Si8 0.709666 0.371105 0.977170
O O1 0.128281 0.756272 0.856649
O O2 0.064620 0.068415 0.810308
O O3 0.939988 0.507153 0.201020
O O4 0.698802 0.974270 0.051650
O O5 0.500000 0.500000 0.500000
O O6 0.752322 0.076405 0.519965
O O7 0.742353 0.079767 0.630334
O O8 0.838963 0.648575 0.632859
O O9 0.969795 0.393595 0.771057
O O10 0.298134 0.524068 0.398899
O O11 0.126398 0.949197 0.214165
O O12 0.542121 0.744027 0.026213
O O13 0.500000 0.000000 0.000000
O O14 0.304902 0.828026 0.599621
O O15 0.000000 0.500000 0.000000
O O16 0.622132 0.059191 0.213493
O O17 0.356913 0.434453 0.036630
O O18 0.500000 0.500000 0.000000
#
# Coordination Sequence:
#
# PCOD9080738 Si02
#       8
#     2   2   2   2   2   2   2   2
#     4  10  18  29  50  88 115 136 179 238 289 335
#     4  10  17  27  46  78 118 145 170 218 291 347
#     4  10  19  33  54  78 111 145 183 235 283 328
#     4  10  24  40  56  76 116 159 195 226 273 343
#     4  10  20  33  56  89 113 146 189 234 291 333
#     4  10  17  28  49  80 125 138 169 234 295 327
#     4  10  18  31  53  81 111 150 182 225 290 332
#     4  10  15  28  50  82 115 135 174 237 292 323
#
# _framework density 24.978549000000001
#
# number of rings (size 3 to 8) (size 9 to 14) (size 15 to 20)
#    0.000    2.000    6.250    0.750    1.750    1.500 
#    0.000    0.625    0.000    1.500    0.000    0.000 
#    0.000    0.000    0.000    0.000    0.000    0.000 
#
# Total GULP energy -89286.557647 kJ/mol
# GULP energy per Si atom -5580.409853 kJ/mol
# Density = 2.492170 g / cm^3
# Si number density = 24.978549 Si / 1000 Ang^3
#
#
#
# Elastic Constant Matrix: (Units=GPa)
#
#
# Indices 1 2 3 4 5 6 
#
# 1 95.1489 58.4407 57.1448 15.0287 13.6195 16.1675
# 2 58.4407 95.1584 70.7254 2.5347 20.6587 34.2873
# 3 57.1448 70.7254 263.9751 16.5260 36.7251 35.8241
# 4 15.0287 2.5347 16.5260 44.0088 16.1742 3.9859
# 5 13.6195 20.6587 36.7251 16.1742 26.4860 7.2238
# 6 16.1675 34.2873 35.8241 3.9859 7.2238 64.3362
#
#
#
# Elastic Compliance Matrix: (Units=1/GPa)
#
#
# Indices 1 2 3 4 5 6 
#
# 1 0.019080 -0.012686 -0.001445 -0.007717 0.006101 0.002564
# 2 -0.012686 0.025394 -0.001444 0.009640 -0.014857 -0.008470
# 3 -0.001445 -0.001444 0.005415 0.000778 -0.005764 -0.001284
# 4 -0.007717 0.009640 0.000778 0.033760 -0.024433 -0.002979
# 5 0.006101 -0.014857 -0.005764 -0.024433 0.068178 0.003453
# 6 0.002564 -0.008470 -0.001284 -0.002979 0.003453 0.019925
#
#
# Mechanical properties :
#
#
# Convention : Reuss Voigt Hill
#
# Bulk Modulus (GPa) = 53.36806 91.87825 72.62316
# Shear Modulus (GPa) = 23.90632 44.83098 34.36865
#
# Velocity S-wave (km/s) = 3.09702 4.24108 3.71337
# Velocity P-wave (km/s) = 5.84813 7.80032 6.89368
#
# Compressibility (1/GPa) = 0.01873780
#
# Stress axis : x y z
#
# Youngs Moduli (GPa) = 52.41212 39.37898 184.65621
#
# Poissons Ratio (x) = 0.49958 0.26682
# Poissons Ratio (y) = 0.66492 0.26672
# Poissons Ratio (z) = 0.07573 0.05688
#
# Static dielectric constant tensor:
#      x y z
#    x 2.303070 -0.306820 0.082790 
#    y -0.306820 2.250420 0.023350 
#    z 0.082790 0.023350 2.009280 
# 
# From -- ./inp_files/299310.got.cif
#   From: 2010.05.17/outbox.cif.g08.bks.cpg/sg2_150_cif.got.tgz:299310.got - 2010.06.03 11:33:40.
