data_PCOD9080190
_publ_section_title
;
Structure prediction by ZEFSAII (Michael W. Deem and Ramdas Pophale) SiO2 
 PCOD9080190
Probable space group: P -1
;
_chemical_formula_sum "Si O2"
_cell_formula_units_Z 14
_cell_length_a 10.096284
_cell_length_b 7.576625
_cell_length_c 10.261078
_cell_angle_alpha 69.251052
_cell_angle_beta 43.920351
_cell_angle_gamma 67.505974
_cell_volume 499.241503
_symmetry_space_group_name_H-M "P -1"
_symmetry_group_IT_number 2
_symmetry_cell_setting 'triclinic'
loop_
_space_group_symop_operation_xyz
x,y,z
-x,-y,-z
loop_
_atom_site_type_symbol
_atom_site_label
_atom_site_fract_x
_atom_site_fract_y
_atom_site_fract_z
Si Si1 0.431397 0.340409 0.681116
Si Si2 0.860775 0.686576 0.328026
Si Si3 0.654250 0.900476 0.646598
Si Si4 0.204481 0.586502 0.965169
Si Si5 0.648683 0.108092 0.947760
Si Si6 0.998629 0.220040 0.176875
Si Si7 0.914369 0.268110 0.508516
O O1 0.500000 0.500000 0.500000
O O2 0.089162 0.695531 0.141451
O O3 0.548349 0.124174 0.667992
O O4 0.404549 0.452286 0.810770
O O5 0.868725 0.496445 0.459548
O O6 0.083457 0.412289 0.090206
O O7 0.718930 0.849968 0.465783
O O8 0.762015 0.681011 0.258012
O O9 0.817920 0.946231 0.930298
O O10 0.859596 0.815787 0.595207
O O11 0.492042 0.794857 0.859680
O O12 0.150661 0.737963 0.846148
O O13 0.766433 0.210662 0.732713
O O14 0.500000 0.000000 0.000000
O O15 0.902245 0.188578 0.391006
#
# Coordination Sequence:
#
# PCOD9080190 Si02
#       7
#     2   2   2   2   2   2   2
#     4  12  25  42  73 107 139 183 246 290 344 429
#     4  11  24  50  71  98 151 186 232 295 362 419
#     4  12  27  46  72 109 145 186 230 301 362 413
#     4  10  19  41  70  93 130 189 231 281 346 412
#     4  12  25  39  69 104 142 185 237 289 348 419
#     4  10  18  38  65  96 131 174 234 289 329 407
#     4  11  25  43  70 103 142 186 238 283 355 426
#
# _framework density 28.042538
#
# number of rings (size 3 to 8) (size 9 to 14) (size 15 to 20)
#    0.000    0.857    7.143    1.286    4.000    0.571 
#    2.571    0.714    0.000    0.000    0.000    0.000 
#    0.000    0.000    0.000    0.000    0.000    0.000 
#
# Total GULP energy -78237.236740 kJ/mol
# GULP energy per Si atom -5588.374053 kJ/mol
# Density = 2.797871 g / cm^3
# Si number density = 28.042538 Si / 1000 Ang^3
#
#
#
# Elastic Constant Matrix: (Units=GPa)
#
#
# Indices 1 2 3 4 5 6 
#
# 1 89.5950 58.7998 42.8983 -7.3297 -9.7954 -44.1552
# 2 58.7998 151.7456 69.2833 21.5260 -8.0843 -43.8755
# 3 42.8983 69.2833 258.1826 21.1736 -27.5334 -16.8577
# 4 -7.3297 21.5260 21.1736 58.6891 -4.2124 6.8464
# 5 -9.7954 -8.0843 -27.5334 -4.2124 42.3186 11.0609
# 6 -44.1552 -43.8755 -16.8577 6.8464 11.0609 39.8185
#
#
#
# Elastic Compliance Matrix: (Units=1/GPa)
#
#
# Indices 1 2 3 4 5 6 
#
# 1 0.026762 -0.001640 -0.002651 0.001517 -0.002820 0.027270
# 2 -0.001640 0.012665 -0.002147 -0.005856 -0.003383 0.013175
# 3 -0.002651 -0.002147 0.005029 -0.000666 0.003216 -0.003955
# 4 0.001517 -0.005856 -0.000666 0.020980 0.003398 -0.009603
# 5 -0.002820 -0.003383 0.003216 0.003398 0.028413 -0.013971
# 6 0.027270 0.013175 -0.003955 -0.009603 -0.013971 0.073728
#
#
# Mechanical properties :
#
#
# Convention : Reuss Voigt Hill
#
# Bulk Modulus (GPa) = 31.66482 93.49844 62.58163
# Shear Modulus (GPa) = 26.18048 50.06802 38.12425
#
# Velocity S-wave (km/s) = 3.05880 4.23002 3.69116
# Velocity P-wave (km/s) = 4.87763 7.56779 6.36642
#
# Compressibility (1/GPa) = 0.03158079
#
# Stress axis : x y z
#
# Youngs Moduli (GPa) = 37.36577 78.95564 198.84360
#
# Poissons Ratio (x) = 0.12952 0.52716
# Poissons Ratio (y) = 0.06129 0.42683
# Poissons Ratio (z) = 0.09906 0.16948
#
# Static dielectric constant tensor:
#      x y z
#    x 2.349000 0.143670 -0.043330 
#    y 0.143670 2.313680 0.085330 
#    z -0.043330 0.085330 2.327680 
# 
# From -- ./inp_files/243310.got.cif
#   From: 2010.05.17/outbox.cif.g08.bks.cpg/sg2_122_cif.got.tgz:243310.got - 2010.06.03 11:33:40.
