data_PCOD9080994
_publ_section_title
;
Structure prediction by ZEFSAII (Michael W. Deem and Ramdas Pophale) SiO2 
 PCOD9080994
Probable space group: P -1
;
_chemical_formula_sum "Si O2"
_cell_formula_units_Z 16
_cell_length_a 16.687877
_cell_length_b 10.955357
_cell_length_c 8.301370
_cell_angle_alpha 46.594914
_cell_angle_beta 48.149545
_cell_angle_gamma 59.391791
_cell_volume 817.707427
_symmetry_space_group_name_H-M "P -1"
_symmetry_group_IT_number 2
_symmetry_cell_setting 'triclinic'
loop_
_space_group_symop_operation_xyz
x,y,z
-x,-y,-z
loop_
_atom_site_type_symbol
_atom_site_label
_atom_site_fract_x
_atom_site_fract_y
_atom_site_fract_z
Si Si1 0.243124 0.214985 0.814352
Si Si2 0.113907 0.549295 0.742768
Si Si3 0.620195 0.780841 0.053235
Si Si4 0.515068 0.407041 0.807723
Si Si5 0.598100 0.085060 0.582888
Si Si6 0.270281 0.723279 0.557931
Si Si7 0.471237 0.237125 0.351368
Si Si8 0.882014 0.076933 0.646322
O O1 0.173753 0.391572 0.713317
O O2 0.348555 0.198564 0.577541
O O3 0.289099 0.232130 0.920254
O O4 0.171142 0.057149 0.048551
O O5 0.184091 0.588762 0.771863
O O6 0.107977 0.727786 0.492939
O O7 0.000000 0.500000 0.000000
O O8 0.580859 0.614095 0.172579
O O9 0.641019 0.908159 0.765071
O O10 0.512480 0.859371 0.220342
O O11 0.499105 0.283826 0.090954
O O12 0.627721 0.341734 0.631427
O O13 0.518736 0.591864 0.709435
O O14 0.683563 0.217744 0.390629
O O15 0.557852 0.101040 0.440710
O O16 0.204940 0.886996 0.414274
O O17 0.000000 0.000000 0.500000
#
# Coordination Sequence:
#
# PCOD9080994 Si02
#       8
#     2   2   2   2   2   2   2   2
#     4  11  18  34  52  74 103 135 160 211 251 286
#     4  10  19  30  51  78  98 127 167 209 259 290
#     4   9  18  29  48  70  97 129 166 201 242 298
#     4  10  20  33  45  75 105 133 169 195 239 311
#     4   9  17  30  46  71  97 130 164 201 246 291
#     4   9  18  32  50  72 104 127 162 209 244 291
#     4  10  21  31  48  72 105 138 163 196 245 302
#     4  10  19  31  50  77 101 123 168 215 251 293
#
# _framework density 19.566901000000001
#
# number of rings (size 3 to 8) (size 9 to 14) (size 15 to 20)
#    0.750    1.500    3.750    0.000    3.500    2.000 
#    0.000    0.000    0.000    0.000    0.000   10.500 
#    0.000    0.000    0.000    0.000    0.000    0.000 
#
# Total GULP energy -89134.697045 kJ/mol
# GULP energy per Si atom -5570.918565 kJ/mol
# Density = 1.952237 g / cm^3
# Si number density = 19.566901 Si / 1000 Ang^3
#
#
#
# Elastic Constant Matrix: (Units=GPa)
#
#
# Indices 1 2 3 4 5 6 
#
# 1 55.2741 25.1946 40.3229 5.9355 -7.7290 1.9622
# 2 25.1946 93.3969 37.6087 -14.4938 -7.8139 -10.0006
# 3 40.3229 37.6087 116.5643 -20.8677 -17.4016 -0.3157
# 4 5.9355 -14.4938 -20.8677 27.2542 0.9854 1.1604
# 5 -7.7290 -7.8139 -17.4016 0.9854 33.9890 -7.7219
# 6 1.9622 -10.0006 -0.3157 1.1604 -7.7219 27.6575
#
#
#
# Elastic Compliance Matrix: (Units=1/GPa)
#
#
# Indices 1 2 3 4 5 6 
#
# 1 0.033332 -0.007624 -0.013051 -0.021056 -0.001325 -0.004757
# 2 -0.007624 0.015194 -0.000165 0.009236 0.002872 0.006447
# 3 -0.013051 -0.000165 0.016715 0.015268 0.005556 0.001968
# 4 -0.021056 0.009236 0.015268 0.057560 0.004348 0.003806
# 5 -0.001325 0.002872 0.005556 0.004348 0.034946 0.010770
# 6 -0.004757 0.006447 0.001968 0.003806 0.010770 0.041695
#
#
# Mechanical properties :
#
#
# Convention : Reuss Voigt Hill
#
# Bulk Modulus (GPa) = 42.44350 52.38753 47.41551
# Shear Modulus (GPa) = 20.08223 28.58740 24.33482
#
# Velocity S-wave (km/s) = 3.20712 3.82646 3.53040
# Velocity P-wave (km/s) = 5.95422 6.80838 6.39558
#
# Compressibility (1/GPa) = 0.02356073
#
# Stress axis : x y z
#
# Youngs Moduli (GPa) = 30.00096 65.81503 59.82610
#
# Poissons Ratio (x) = 0.50179 0.78079
# Poissons Ratio (y) = 0.22873 0.00989
# Poissons Ratio (z) = 0.39154 0.01088
#
# Static dielectric constant tensor:
#      x y z
#    x 1.716060 0.013750 0.016250 
#    y 0.013750 1.778220 -0.074850 
#    z 0.016250 -0.074850 1.696070 
# 
# From -- ./inp_files/221132.got.cif
#   From: 2010.05.17/outbox.cif.g08.bks.cpg/sg2_111_cif.got.tgz:221132.got - 2010.06.03 11:33:40.
