data_PCOD9080010
_publ_section_title
;
Structure prediction by ZEFSAII (Michael W. Deem and Ramdas Pophale) SiO2 
 PCOD9080010
Probable space group: P -1
;
_chemical_formula_sum "Si O2"
_cell_formula_units_Z 16
_cell_length_a 25.765326
_cell_length_b 16.595196
_cell_length_c 5.965835
_cell_angle_alpha 74.412863
_cell_angle_beta 93.696008
_cell_angle_gamma 158.019379
_cell_volume 789.794725
_symmetry_space_group_name_H-M "P -1"
_symmetry_group_IT_number 2
_symmetry_cell_setting 'triclinic'
loop_
_space_group_symop_operation_xyz
x,y,z
-x,-y,-z
loop_
_atom_site_type_symbol
_atom_site_label
_atom_site_fract_x
_atom_site_fract_y
_atom_site_fract_z
Si Si1 0.341399 0.869696 0.112951
Si Si2 0.394242 0.199677 0.738454
Si Si3 0.159891 0.309301 0.604871
Si Si4 0.914398 0.378559 0.817701
Si Si5 0.558512 0.550222 0.206078
Si Si6 0.185840 0.191552 0.990395
Si Si7 0.606375 0.390600 0.914197
Si Si8 0.585132 0.182608 0.580204
O O1 0.179226 0.674712 0.176304
O O2 0.328998 0.757526 0.287170
O O3 0.457924 0.101852 0.136382
O O4 0.446021 0.018696 0.803606
O O5 0.433465 0.283908 0.430698
O O6 0.420896 0.332718 0.739303
O O7 0.528257 0.338943 0.759333
O O8 0.225788 0.904777 0.985964
O O9 0.254573 0.449908 0.292517
O O10 0.274512 0.536542 0.635960
O O11 0.146574 0.193672 0.772771
O O12 0.981582 0.074886 0.725510
O O13 0.000000 0.500000 0.500000
O O14 0.000000 0.500000 0.000000
O O15 0.500000 0.500000 0.000000
O O16 0.730641 0.766496 0.089211
O O17 0.313594 0.435204 0.997810
O O18 0.500000 0.000000 0.500000
#
# Coordination Sequence:
#
# PCOD9080010 Si02
#       8
#     2   2   2   2   2   2   2   2
#     4   9  22  39  63  93 119 169 228 264 335 398
#     4  10  23  41  63  94 126 170 225 266 327 400
#     4  10  22  36  55  90 122 153 208 258 328 386
#     4  11  27  46  71 101 141 182 224 285 343 405
#     4  11  22  39  64  92 126 170 219 267 324 395
#     4  11  21  35  59  87 121 162 201 264 325 385
#     4  10  18  38  61  84 118 159 206 262 315 394
#     4  10  20  39  64  88 125 168 221 276 324 398
#
# _framework density 20.258427000000001
#
# number of rings (size 3 to 8) (size 9 to 14) (size 15 to 20)
#    0.000    1.750    2.500    1.125    3.500    1.000 
#    0.000    0.000    0.000    0.000    0.000    0.000 
#    0.000    0.000    0.000    0.000    0.000    0.000 
#
# Total GULP energy -89071.326585 kJ/mol
# GULP energy per Si atom -5566.957912 kJ/mol
# Density = 2.021232 g / cm^3
# Si number density = 20.258427 Si / 1000 Ang^3
#
#
#
# Elastic Constant Matrix: (Units=GPa)
#
#
# Indices 1 2 3 4 5 6 
#
# 1 54.5744 -31.9700 25.0640 -23.4157 33.8490 -11.5858
# 2 -31.9700 16.3599 18.3531 -11.8646 18.7390 -19.9117
# 3 25.0640 18.3531 86.0149 -16.7786 11.5127 13.5955
# 4 -23.4157 -11.8646 -16.7786 22.9418 4.0842 -5.6448
# 5 33.8490 18.7390 11.5127 4.0842 12.3769 17.2508
# 6 -11.5858 -19.9117 13.5955 -5.6448 17.2508 24.0113
#
#
#
# Elastic Compliance Matrix: (Units=1/GPa)
#
#
# Indices 1 2 3 4 5 6 
#
# 1 0.006496 -0.008021 0.000054 -0.001090 0.007542 -0.009223
# 2 -0.008021 0.012729 -0.003610 -0.009306 0.018805 -0.006969
# 3 0.000054 -0.003610 0.016201 0.010881 -0.009025 -0.003098
# 4 -0.001090 -0.009306 0.010881 0.041115 0.009416 -0.011503
# 5 0.007542 0.018805 -0.009025 0.009416 0.022383 0.010476
# 6 -0.009223 -0.006969 -0.003098 -0.011503 0.010476 0.022941
#
#
# Mechanical properties :
#
#
# Convention : Reuss Voigt Hill
#
# Bulk Modulus (GPa) = 81.48028 19.98261 50.73144
# Shear Modulus (GPa) = 33.53250 21.56614 27.54932
#
# Velocity S-wave (km/s) = 4.07287 3.26629 3.69168
# Velocity P-wave (km/s) = 7.90098 4.91020 6.57783
#
# Compressibility (1/GPa) = 0.01227291
#
# Stress axis : x y z
#
# Youngs Moduli (GPa) = 153.93696 78.55805 61.72627
#
# Poissons Ratio (x) = 0.63012 -0.00334
# Poissons Ratio (y) = 1.23475 0.22281
# Poissons Ratio (z) = -0.00833 0.28357
#
# Static dielectric constant tensor:
#      x y z
#    x 1.433180 0.232300 0.650430 
#    y 0.232300 1.509520 -0.592880 
#    z 0.650430 -0.592880 0.153750 
# 
# From -- ./inp_files/66234.got.cif
#   From: 2010.05.17/outbox.cif.g08.bks.cpg/sg2_34_cif.got.tgz:66234.got - 2010.06.03 11:33:40.
