data_PCOD9080088
_publ_section_title
;
Structure prediction by ZEFSAII (Michael W. Deem and Ramdas Pophale) SiO2 
 PCOD9080088
Probable space group: P -1
;
_chemical_formula_sum "Si O2"
_cell_formula_units_Z 16
_cell_length_a 14.901078
_cell_length_b 8.730353
_cell_length_c 19.605628
_cell_angle_alpha 140.192714
_cell_angle_beta 27.205629
_cell_angle_gamma 142.049078
_cell_volume 696.518421
_symmetry_space_group_name_H-M "P -1"
_symmetry_group_IT_number 2
_symmetry_cell_setting 'triclinic'
loop_
_space_group_symop_operation_xyz
x,y,z
-x,-y,-z
loop_
_atom_site_type_symbol
_atom_site_label
_atom_site_fract_x
_atom_site_fract_y
_atom_site_fract_z
Si Si1 0.353845 0.272926 0.568687
Si Si2 0.531678 0.500253 0.898276
Si Si3 0.729389 0.972525 0.836393
Si Si4 0.232102 0.758787 0.657394
Si Si5 0.883643 0.555406 0.931698
Si Si6 0.702608 0.569438 0.607326
Si Si7 0.222659 0.732142 0.426543
Si Si8 0.761267 0.696372 0.205677
O O1 0.500000 0.500000 0.500000
O O2 0.534228 0.205821 0.465081
O O3 0.207948 0.334848 0.745408
O O4 0.220720 0.014075 0.530745
O O5 0.699219 0.772192 0.850413
O O6 0.639114 0.293491 0.738793
O O7 0.500000 0.500000 0.000000
O O8 0.321290 0.445515 0.975067
O O9 0.775480 0.831869 0.690018
O O10 0.876506 0.265270 0.839936
O O11 0.500000 0.000000 0.000000
O O12 0.166399 0.506854 0.566328
O O13 0.085974 0.717131 0.807465
O O14 0.226241 0.010235 0.710012
O O15 0.882890 0.653169 0.042656
O O16 0.666891 0.344291 0.609717
O O17 0.469729 0.520756 0.722248
O O18 0.000000 0.500000 0.500000
#
# Coordination Sequence:
#
# PCOD9080088 Si02
#       8
#     2   2   2   2   2   2   2   2
#     4  11  24  42  63  96 126 161 210 271 326 364
#     4  10  22  38  59  89 129 170 206 257 316 379
#     4   9  18  37  58  82 130 157 209 250 320 362
#     4  11  22  38  66  91 122 163 222 248 308 385
#     4  11  22  38  63  97 124 165 215 260 313 377
#     4  10  18  38  63  86 113 172 205 251 302 378
#     4  11  22  40  62  88 128 166 209 256 318 379
#     4  11  19  41  68  83 124 172 206 254 310 381
#
# _framework density 22.971398000000001
#
# number of rings (size 3 to 8) (size 9 to 14) (size 15 to 20)
#    0.000    1.500    6.250    1.125    1.750    3.500 
#    2.250    0.625    0.000    0.000    0.000    0.000 
#    0.000    0.000    0.000    0.000    0.000    0.000 
#
# Total GULP energy -89261.598941 kJ/mol
# GULP energy per Si atom -5578.849934 kJ/mol
# Density = 2.291911 g / cm^3
# Si number density = 22.971398 Si / 1000 Ang^3
#
#
#
# Elastic Constant Matrix: (Units=GPa)
#
#
# Indices 1 2 3 4 5 6 
#
# 1 70.3923 31.3656 54.9610 9.3430 22.5939 4.6813
# 2 31.3656 113.0648 49.2436 11.5306 24.0349 -1.2907
# 3 54.9610 49.2436 174.8018 12.5095 54.5774 0.9424
# 4 9.3430 11.5306 12.5095 43.0240 -0.4539 4.4940
# 5 22.5939 24.0349 54.5774 -0.4539 45.6187 -3.3745
# 6 4.6813 -1.2907 0.9424 4.4940 -3.3745 22.8451
#
#
#
# Elastic Compliance Matrix: (Units=1/GPa)
#
#
# Indices 1 2 3 4 5 6 
#
# 1 0.020661 -0.002868 -0.004288 -0.002054 -0.003937 -0.004396
# 2 -0.002868 0.010992 -0.001125 -0.002157 -0.002955 0.001243
# 3 -0.004288 -0.001125 0.010697 -0.001906 -0.010156 -0.000751
# 4 -0.002054 -0.002157 -0.001906 0.025280 0.004394 -0.003946
# 5 -0.003937 -0.002955 -0.010156 0.004394 0.038052 0.005815
# 6 -0.004396 0.001243 -0.000751 -0.003946 0.005815 0.046411
#
#
# Mechanical properties :
#
#
# Convention : Reuss Voigt Hill
#
# Bulk Modulus (GPa) = 38.77608 69.93325 54.35466
# Shear Modulus (GPa) = 28.20859 37.14348 32.67603
#
# Velocity S-wave (km/s) = 3.50807 4.02549 3.77565
# Velocity P-wave (km/s) = 5.77283 7.21913 6.53610
#
# Compressibility (1/GPa) = 0.02578910
#
# Stress axis : x y z
#
# Youngs Moduli (GPa) = 48.40090 90.97352 93.48007
#
# Poissons Ratio (x) = 0.26088 0.40088
# Poissons Ratio (y) = 0.13880 0.10513
# Poissons Ratio (z) = 0.20756 0.10231
#
# Static dielectric constant tensor:
#      x y z
#    x 2.177760 0.042440 0.033710 
#    y 0.042440 1.872830 0.034400 
#    z 0.033710 0.034400 1.926090 
# 
# From -- ./inp_files/572921.got.cif
#   From: 2010.05.17/outbox.cif.g08.bks.cpg/sg2_287_cif.got.tgz:572921.got - 2010.06.03 11:33:40.
