data_PCOD9080425
_publ_section_title
;
Structure prediction by ZEFSAII (Michael W. Deem and Ramdas Pophale) SiO2 
 PCOD9080425
Probable space group: P -1
;
_chemical_formula_sum "Si O2"
_cell_formula_units_Z 15
_cell_length_a 9.092443
_cell_length_b 14.140823
_cell_length_c 15.363576
_cell_angle_alpha 38.583025
_cell_angle_beta 133.938253
_cell_angle_gamma 105.675360
_cell_volume 705.533460
_symmetry_space_group_name_H-M "P -1"
_symmetry_group_IT_number 2
_symmetry_cell_setting 'triclinic'
loop_
_space_group_symop_operation_xyz
x,y,z
-x,-y,-z
loop_
_atom_site_type_symbol
_atom_site_label
_atom_site_fract_x
_atom_site_fract_y
_atom_site_fract_z
Si Si1 0.018211 0.904867 0.363859
Si Si2 0.221340 0.349832 0.762683
Si Si3 0.214335 0.323784 0.975379
Si Si4 0.694424 0.345266 0.971939
Si Si5 0.500000 0.000000 0.000000
Si Si6 0.594323 0.048761 0.589521
Si Si7 0.151643 0.425539 0.207203
Si Si8 0.216963 0.781613 0.716671
O O1 0.261346 0.861465 0.441836
O O2 0.126469 0.772966 0.589744
O O3 0.801314 0.909961 0.220078
O O4 0.884666 0.123903 0.181163
O O5 0.130786 0.355340 0.818632
O O6 0.412462 0.404811 0.811330
O O7 0.000000 0.500000 0.500000
O O8 0.384860 0.141858 0.935735
O O9 0.017702 0.498519 0.831261
O O10 0.503376 0.263591 0.143757
O O11 0.229283 0.147298 0.145950
O O12 0.713285 0.471656 0.820508
O O13 0.757971 0.344862 0.100609
O O14 0.353422 0.200217 0.441687
O O15 0.500000 0.000000 0.500000
O O16 0.000000 0.500000 0.000000
O O17 0.000000 0.000000 0.500000
#
# Coordination Sequence:
#
# PCOD9080425 Si02
#       8
#     2   2   2   2   1   2   2   2
#     4  10  18  39  64  94 134 175 218 277 324 397
#     4  10  24  47  70  89 132 174 230 281 317 392
#     4  11  23  44  65 104 132 172 223 276 335 400
#     4   9  20  39  64  97 130 166 218 275 329 391
#     4  10  24  42  68  94 128 182 228 266 334 384
#     4  12  22  39  68  97 141 172 212 276 345 397
#     4  12  23  38  66 101 138 173 209 268 350 405
#     4   9  18  35  67  95 127 171 213 272 334 387
#
# _framework density 21.260507
#
# number of rings (size 3 to 8) (size 9 to 14) (size 15 to 20)
#    0.000    1.600    4.000    0.800    3.733    1.067 
#    2.400    3.333    0.000    0.000    0.000    0.000 
#    0.000    0.000    0.000    0.000    0.000    0.000 
#
# Total GULP energy -83546.550090 kJ/mol
# GULP energy per Si atom -5569.770006 kJ/mol
# Density = 2.121212 g / cm^3
# Si number density = 21.260507 Si / 1000 Ang^3
#
#
#
# Elastic Constant Matrix: (Units=GPa)
#
#
# Indices 1 2 3 4 5 6 
#
# 1 127.6117 56.3364 46.1986 7.3019 4.6742 -28.3315
# 2 56.3364 114.9957 42.7234 14.1489 1.4344 -26.1346
# 3 46.1986 42.7234 87.0675 11.8407 8.1174 -22.4185
# 4 7.3019 14.1489 11.8407 44.1063 -6.7793 8.7806
# 5 4.6742 1.4344 8.1174 -6.7793 34.8727 -5.9060
# 6 -28.3315 -26.1346 -22.4185 8.7806 -5.9060 36.1178
#
#
#
# Elastic Compliance Matrix: (Units=1/GPa)
#
#
# Indices 1 2 3 4 5 6 
#
# 1 0.011574 -0.003236 -0.003101 -0.001060 -0.000045 0.005062
# 2 -0.003236 0.013250 -0.002587 -0.004212 0.000789 0.006596
# 3 -0.003101 -0.002587 0.017254 -0.005216 -0.003300 0.007134
# 4 -0.001060 -0.004212 -0.005216 0.029015 0.004906 -0.013369
# 5 -0.000045 0.000789 -0.003300 0.004906 0.030765 0.002325
# 6 0.005062 0.006596 0.007134 -0.013369 0.002325 0.044490
#
#
# Mechanical properties :
#
#
# Convention : Reuss Voigt Hill
#
# Bulk Modulus (GPa) = 41.27246 68.91019 55.09132
# Shear Modulus (GPa) = 29.02367 35.31378 32.16872
#
# Velocity S-wave (km/s) = 3.69879 4.07996 3.89405
# Velocity P-wave (km/s) = 6.13973 7.39442 6.79609
#
# Compressibility (1/GPa) = 0.02422923
#
# Stress axis : x y z
#
# Youngs Moduli (GPa) = 86.40038 75.47114 57.95745
#
# Poissons Ratio (x) = 0.24426 0.17974
# Poissons Ratio (y) = 0.27963 0.14992
# Poissons Ratio (z) = 0.26796 0.19522
#
# Static dielectric constant tensor:
#      x y z
#    x 2.337910 0.248680 -0.303870 
#    y 0.248680 1.899270 -0.168360 
#    z -0.303870 -0.168360 2.003910 
# 
# From -- ./inp_files/505307.got.cif
#   From: 2010.05.17/outbox.cif.g08.bks.cpg/sg2_253_cif.got.tgz:505307.got - 2010.06.03 11:33:40.
