data_PCOD9080413
_publ_section_title
;
Structure prediction by ZEFSAII (Michael W. Deem and Ramdas Pophale) SiO2 
 PCOD9080413
Probable space group: P -1
;
_chemical_formula_sum "Si O2"
_cell_formula_units_Z 16
_cell_length_a 10.870977
_cell_length_b 18.365752
_cell_length_c 9.056332
_cell_angle_alpha 58.965397
_cell_angle_beta 92.850859
_cell_angle_gamma 41.594338
_cell_volume 662.070232
_symmetry_space_group_name_H-M "P -1"
_symmetry_group_IT_number 2
_symmetry_cell_setting 'triclinic'
loop_
_space_group_symop_operation_xyz
x,y,z
-x,-y,-z
loop_
_atom_site_type_symbol
_atom_site_label
_atom_site_fract_x
_atom_site_fract_y
_atom_site_fract_z
Si Si1 0.467242 0.159161 0.771154
Si Si2 0.941154 0.725939 0.226988
Si Si3 0.099901 0.156659 0.479033
Si Si4 0.500473 0.237856 0.982559
Si Si5 0.610089 0.369505 0.413460
Si Si6 0.393151 0.666681 0.230315
Si Si7 0.086650 0.358267 0.304285
Si Si8 0.083799 0.615211 0.018877
O O1 0.470126 0.232147 0.813419
O O2 0.338126 0.256850 0.499030
O O3 0.766696 0.922480 0.027673
O O4 0.239150 0.235702 0.747731
O O5 0.959121 0.687944 0.097338
O O6 0.261894 0.534996 0.509789
O O7 0.168133 0.207195 0.497556
O O8 0.025254 0.231090 0.231188
O O9 0.832141 0.280353 0.417164
O O10 0.351342 0.933603 0.750259
O O11 0.691281 0.204482 0.017558
O O12 0.207752 0.438643 0.840931
O O13 0.383559 0.581964 0.238458
O O14 0.737571 0.253725 0.696081
O O15 0.426122 0.414472 0.267985
O O16 0.021297 0.393053 0.089316
#
# Coordination Sequence:
#
# PCOD9080413 Si02
#       8
#     2   2   2   2   2   2   2   2
#     4  11  21  36  66  89 120 163 201 252 297 354
#     4  10  20  40  63  94 118 161 209 238 307 354
#     4  10  21  38  62  87 121 163 195 243 302 364
#     4  12  22  38  61  95 122 154 208 251 297 357
#     4  10  18  39  64  85 118 166 199 241 315 344
#     4  10  20  34  63  92 121 152 204 259 285 364
#     4  10  22  41  60  90 122 163 199 244 300 360
#     4   9  22  40  63  87 125 161 200 251 292 369
#
# _framework density 24.166620000000002
#
# number of rings (size 3 to 8) (size 9 to 14) (size 15 to 20)
#    0.750    1.000    2.500    3.000    0.000    1.000 
#    0.000    5.625    0.000    0.000    0.000    0.000 
#    0.000    0.000    0.000    0.000    0.000    0.000 
#
# Total GULP energy -89450.185264 kJ/mol
# GULP energy per Si atom -5590.636579 kJ/mol
# Density = 2.411162 g / cm^3
# Si number density = 24.166620 Si / 1000 Ang^3
#
#
#
# Elastic Constant Matrix: (Units=GPa)
#
#
# Indices 1 2 3 4 5 6 
#
# 1 53.7582 5.3620 5.6424 -0.4208 -1.0734 1.5061
# 2 5.3620 83.5061 31.2816 13.2551 -1.1976 9.1921
# 3 5.6424 31.2816 74.5646 10.8641 -8.4625 0.1833
# 4 -0.4208 13.2551 10.8641 32.4176 11.7471 -5.3073
# 5 -1.0734 -1.1976 -8.4625 11.7471 29.3878 -4.0724
# 6 1.5061 9.1921 0.1833 -5.3073 -4.0724 26.0024
#
#
#
# Elastic Compliance Matrix: (Units=1/GPa)
#
#
# Indices 1 2 3 4 5 6 
#
# 1 0.018836 -0.000834 -0.001233 0.000959 -0.000170 -0.000618
# 2 -0.000834 0.015805 -0.005663 -0.005799 0.000383 -0.006623
# 3 -0.001233 -0.005663 0.017592 -0.005984 0.007444 0.001894
# 4 0.000959 -0.005799 -0.005984 0.043083 -0.018036 0.008005
# 5 -0.000170 0.000383 0.007444 -0.018036 0.043806 0.003001
# 6 -0.000618 -0.006623 0.001894 0.008005 0.003001 0.042926
#
#
# Mechanical properties :
#
#
# Convention : Reuss Voigt Hill
#
# Bulk Modulus (GPa) = 27.19381 32.93342 30.06361
# Shear Modulus (GPa) = 23.83619 28.86441 26.35030
#
# Velocity S-wave (km/s) = 3.14399 3.45975 3.30564
# Velocity P-wave (km/s) = 4.94537 5.44215 5.19970
#
# Compressibility (1/GPa) = 0.03677308
#
# Stress axis : x y z
#
# Youngs Moduli (GPa) = 53.09020 63.27136 56.84329
#
# Poissons Ratio (x) = 0.05279 0.07008
# Poissons Ratio (y) = 0.04429 0.32189
# Poissons Ratio (z) = 0.06545 0.35829
#
# Static dielectric constant tensor:
#      x y z
#    x 1.964290 0.007770 -0.039180 
#    y 0.007770 1.906650 0.019610 
#    z -0.039180 0.019610 1.992240 
# 
# From -- ./inp_files/277730.got.cif
#   From: 2010.05.17/outbox.cif.g08.bks.cpg/sg2_139_cif.got.tgz:277730.got - 2010.06.03 11:33:40.
