data_PCOD9080080
_publ_section_title
;
Structure prediction by ZEFSAII (Michael W. Deem and Ramdas Pophale) SiO2 
 PCOD9080080
Probable space group: P -1
;
_chemical_formula_sum "Si O2"
_cell_formula_units_Z 13
_cell_length_a 14.297035
_cell_length_b 9.213127
_cell_length_c 7.180327
_cell_angle_alpha 132.051075
_cell_angle_beta 128.506297
_cell_angle_gamma 45.701971
_cell_volume 480.844809
_symmetry_space_group_name_H-M "P -1"
_symmetry_group_IT_number 2
_symmetry_cell_setting 'triclinic'
loop_
_space_group_symop_operation_xyz
x,y,z
-x,-y,-z
loop_
_atom_site_type_symbol
_atom_site_label
_atom_site_fract_x
_atom_site_fract_y
_atom_site_fract_z
Si Si1 0.260605 0.733732 0.342495
Si Si2 0.000000 0.000000 0.500000
Si Si3 0.584495 0.043310 0.363505
Si Si4 0.204168 0.350454 0.959169
Si Si5 0.713828 0.403884 0.145799
Si Si6 0.090326 0.494484 0.309098
Si Si7 0.578084 0.159782 0.889817
O O1 0.396225 0.759740 0.536739
O O2 0.281333 0.492820 0.214829
O O3 0.223586 0.744100 0.086011
O O4 0.131260 0.920684 0.449927
O O5 0.952534 0.263262 0.624307
O O6 0.599993 0.066809 0.625162
O O7 0.709869 0.834982 0.242314
O O8 0.454184 0.000827 0.156726
O O9 0.050701 0.499614 0.812169
O O10 0.168386 0.306492 0.086776
O O11 0.803763 0.513422 0.416481
O O12 0.566120 0.609812 0.091763
O O13 0.689601 0.244664 0.126399
#
# Coordination Sequence:
#
# PCOD9080080 Si02
#       7
#     2   1   2   2   2   2   2
#     4  10  20  35  63  86 120 155 193 242 303 346
#     4  10  20  38  56  88 120 156 186 244 294 368
#     4  10  18  38  63  84 114 162 196 243 292 351
#     4  10  20  39  59  87 119 164 185 251 305 351
#     4  10  20  39  62  90 117 161 198 249 290 353
#     4  10  22  38  61  88 124 154 201 241 305 358
#     4   9  20  37  62  87 121 153 205 247 290 335
#
# _framework density 27.035753
#
# number of rings (size 3 to 8) (size 9 to 14) (size 15 to 20)
#    0.000    2.154    3.077    0.000    0.000    1.231 
#    0.000   12.308    0.000    0.000    0.000    0.000 
#    0.000    0.000    0.000    0.000    0.000    0.000 
#
# Total GULP energy -72410.608359 kJ/mol
# GULP energy per Si atom -5570.046797 kJ/mol
# Density = 2.697422 g / cm^3
# Si number density = 27.035753 Si / 1000 Ang^3
#
#
#
# Elastic Constant Matrix: (Units=GPa)
#
#
# Indices 1 2 3 4 5 6 
#
# 1 196.5480 56.7777 59.4788 9.8830 2.9093 -28.5646
# 2 56.7777 62.2553 39.7224 19.9605 -7.0839 -22.4089
# 3 59.4788 39.7224 109.3909 -7.8382 10.6646 -34.2029
# 4 9.8830 19.9605 -7.8382 43.0624 -10.1452 1.9596
# 5 2.9093 -7.0839 10.6646 -10.1452 50.4845 19.6386
# 6 -28.5646 -22.4089 -34.2029 1.9596 19.6386 50.8117
#
#
#
# Elastic Compliance Matrix: (Units=1/GPa)
#
#
# Indices 1 2 3 4 5 6 
#
# 1 0.007305 -0.005557 -0.001439 0.000277 -0.001300 0.001179
# 2 -0.005557 0.034319 -0.008789 -0.016204 0.001320 0.006210
# 3 -0.001439 -0.008789 0.017216 0.005351 -0.007435 0.009571
# 4 0.000277 -0.016204 0.005351 0.033378 0.006010 -0.006999
# 5 -0.001300 0.001320 -0.007435 0.006010 0.029355 -0.016730
# 6 0.001179 0.006210 0.009571 -0.006999 -0.016730 0.036261
#
#
# Mechanical properties :
#
#
# Convention : Reuss Voigt Hill
#
# Bulk Modulus (GPa) = 36.66823 75.57247 56.12035
# Shear Modulus (GPa) = 25.18975 43.01941 34.10458
#
# Velocity S-wave (km/s) = 3.05572 3.99332 3.55556
# Velocity P-wave (km/s) = 5.10316 7.01966 6.13668
#
# Compressibility (1/GPa) = 0.02727157
#
# Stress axis : x y z
#
# Youngs Moduli (GPa) = 136.89096 29.13809 58.08481
#
# Poissons Ratio (x) = 0.16191 0.08359
# Poissons Ratio (y) = 0.76064 0.51051
# Poissons Ratio (z) = 0.19699 0.25609
#
# Static dielectric constant tensor:
#      x y z
#    x 2.156890 0.088630 0.016560 
#    y 0.088630 2.119070 -0.044910 
#    z 0.016560 -0.044910 2.083940 
# 
# From -- ./inp_files/249676.got.cif
#   From: 2010.05.17/outbox.cif.g08.bks.cpg/sg2_125_cif.got.tgz:249676.got - 2010.06.03 11:33:40.
