data_PCOD9080218
_publ_section_title
;
Structure prediction by ZEFSAII (Michael W. Deem and Ramdas Pophale) SiO2 
 PCOD9080218
Probable space group: P -1
;
_chemical_formula_sum "Si O2"
_cell_formula_units_Z 16
_cell_length_a 27.482665
_cell_length_b 20.302571
_cell_length_c 13.430592
_cell_angle_alpha 156.400115
_cell_angle_beta 19.899802
_cell_angle_gamma 161.846847
_cell_volume 775.991460
_symmetry_space_group_name_H-M "P -1"
_symmetry_group_IT_number 2
_symmetry_cell_setting 'triclinic'
loop_
_space_group_symop_operation_xyz
x,y,z
-x,-y,-z
loop_
_atom_site_type_symbol
_atom_site_label
_atom_site_fract_x
_atom_site_fract_y
_atom_site_fract_z
Si Si1 0.709566 0.578363 0.223753
Si Si2 0.275045 0.923927 0.287696
Si Si3 0.450921 0.527459 0.976236
Si Si4 0.850887 0.745084 0.407175
Si Si5 0.338788 0.840976 0.246676
Si Si6 0.875606 0.438033 0.058020
Si Si7 0.814078 0.785804 0.108604
Si Si8 0.522079 0.772960 0.368251
O O1 0.500000 0.500000 0.500000
O O2 0.799879 0.690169 0.311888
O O3 0.837187 0.733867 0.102233
O O4 0.693392 0.370121 0.957673
O O5 0.209326 0.806841 0.358930
O O6 0.310820 0.142680 0.537014
O O7 0.125457 0.736645 0.240113
O O8 0.464529 0.003605 0.978674
O O9 0.651823 0.641038 0.697106
O O10 0.295785 0.417115 0.035342
O O11 0.397919 0.331289 0.876786
O O12 0.480194 0.701226 0.235097
O O13 0.918069 0.620949 0.154143
O O14 0.000000 0.000000 0.500000
O O15 0.349557 0.974906 0.502431
O O16 0.674563 0.337246 0.352001
O O17 0.000000 0.500000 0.000000
O O18 0.000000 0.000000 0.000000
#
# Coordination Sequence:
#
# PCOD9080218 Si02
#       8
#     2   2   2   2   2   2   2   2
#     4  12  23  42  68  96 132 171 225 279 325 389
#     4  10  19  37  64  91 123 164 224 265 317 386
#     4  10  20  42  61  93 131 172 214 264 326 401
#     4  11  24  41  66  97 130 172 220 275 332 386
#     4  10  18  38  66  93 118 173 220 269 323 384
#     4  10  22  37  61  95 129 167 218 271 314 394
#     4  12  26  40  67  97 131 174 222 272 335 395
#     4   9  20  35  66  89 127 169 210 264 334 385
#
# _framework density 20.618783000000001
#
# number of rings (size 3 to 8) (size 9 to 14) (size 15 to 20)
#    0.000    1.500    5.000    0.000    3.500    2.000 
#    0.000    2.500    0.000    0.000    0.000    0.000 
#    0.000    0.000    0.000    0.000    0.000    0.000 
#
# Total GULP energy -89177.987144 kJ/mol
# GULP energy per Si atom -5573.624196 kJ/mol
# Density = 2.057185 g / cm^3
# Si number density = 20.618783 Si / 1000 Ang^3
#
#
#
# Elastic Constant Matrix: (Units=GPa)
#
#
# Indices 1 2 3 4 5 6 
#
# 1 155.8114 56.2041 39.6182 25.9355 30.1684 5.3787
# 2 56.2041 82.6259 17.1524 16.1144 22.0323 3.4271
# 3 39.6182 17.1524 61.3104 25.5807 31.7714 5.1925
# 4 25.9355 16.1144 25.5807 33.4878 9.5910 8.6296
# 5 30.1684 22.0323 31.7714 9.5910 37.2723 10.4259
# 6 5.3787 3.4271 5.1925 8.6296 10.4259 35.7906
#
#
#
# Elastic Compliance Matrix: (Units=1/GPa)
#
#
# Indices 1 2 3 4 5 6 
#
# 1 0.009747 -0.005033 -0.002836 -0.002545 -0.002018 0.000630
# 2 -0.005033 0.018678 0.007459 -0.008178 -0.012172 0.003404
# 3 -0.002836 0.007459 0.046720 -0.029151 -0.037481 0.010881
# 4 -0.002545 -0.008178 -0.029151 0.055569 0.021428 -0.014246
# 5 -0.002018 -0.012172 -0.037481 0.021428 0.067072 -0.017798
# 6 0.000630 0.003404 0.010881 -0.014246 -0.017798 0.034561
#
#
# Mechanical properties :
#
#
# Convention : Reuss Voigt Hill
#
# Bulk Modulus (GPa) = 13.45466 58.41077 35.93272
# Shear Modulus (GPa) = 19.38405 33.76169 26.57287
#
# Velocity S-wave (km/s) = 3.06946 4.05090 3.59384
# Velocity P-wave (km/s) = 4.37055 7.09014 5.88947
#
# Compressibility (1/GPa) = 0.07432368
#
# Stress axis : x y z
#
# Youngs Moduli (GPa) = 102.59132 53.53973 21.40392
#
# Poissons Ratio (x) = 0.26948 0.06071
# Poissons Ratio (y) = 0.51638 -0.15965
# Poissons Ratio (z) = 0.29100 -0.39935
#
# Static dielectric constant tensor:
#      x y z
#    x 1.165710 0.202000 0.753450 
#    y 0.202000 1.748590 -0.206550 
#    z 0.753450 -0.206550 0.811420 
# 
# From -- ./inp_files/475386.got.cif
#   From: 2010.05.17/outbox.cif.g08.bks.cpg/sg2_238_cif.got.tgz:475386.got - 2010.06.03 11:33:40.
