data_PCOD9080993
_publ_section_title
;
Structure prediction by ZEFSAII (Michael W. Deem and Ramdas Pophale) SiO2 
 PCOD9080993
Probable space group: P -1
;
_chemical_formula_sum "Si O2"
_cell_formula_units_Z 16
_cell_length_a 11.691830
_cell_length_b 17.565997
_cell_length_c 20.117798
_cell_angle_alpha 20.114909
_cell_angle_beta 142.954360
_cell_angle_gamma 149.704369
_cell_volume 714.908570
_symmetry_space_group_name_H-M "P -1"
_symmetry_group_IT_number 2
_symmetry_cell_setting 'triclinic'
loop_
_space_group_symop_operation_xyz
x,y,z
-x,-y,-z
loop_
_atom_site_type_symbol
_atom_site_label
_atom_site_fract_x
_atom_site_fract_y
_atom_site_fract_z
Si Si1 0.801324 0.636502 0.678741
Si Si2 0.257439 0.228939 0.598308
Si Si3 0.527026 0.726062 0.569750
Si Si4 0.474057 0.926763 0.948352
Si Si5 0.043551 0.532114 0.285088
Si Si6 0.439351 0.263686 0.992221
Si Si7 0.861732 0.318246 0.646702
Si Si8 0.241282 0.677691 0.798706
O O1 0.789492 0.792353 0.484045
O O2 0.750757 0.741246 0.635451
O O3 0.029144 0.641332 0.772226
O O4 0.590580 0.328305 0.829781
O O5 0.500000 0.500000 0.500000
O O6 0.080694 0.289742 0.496960
O O7 0.289084 0.995513 0.823069
O O8 0.369889 0.683969 0.467625
O O9 0.598966 0.007845 0.400800
O O10 0.405367 0.478635 0.765985
O O11 0.468132 0.834245 0.945101
O O12 0.722738 0.192548 0.853584
O O13 0.016667 0.569633 0.318826
O O14 0.856566 0.475344 0.190356
O O15 0.617644 0.388416 0.032779
O O16 0.220375 0.989188 0.142178
O O17 0.000000 0.500000 0.500000
#
# Coordination Sequence:
#
# PCOD9080993 Si02
#       8
#     2   2   2   2   2   2   2   2
#     4  10  19  30  51  78 110 152 182 203 245 310
#     4   9  16  27  44  70 107 137 169 211 256 303
#     4  10  20  36  55  79 112 146 181 216 255 315
#     4   9  18  32  50  74 109 148 183 213 245 305
#     4   9  19  34  52  79 107 138 177 226 275 309
#     4   9  20  37  55  80 111 144 180 215 258 317
#     4  10  21  41  64  78  96 133 185 237 277 315
#     4  10  20  32  51  81 117 147 172 208 261 322
#
# _framework density 22.380485
#
# number of rings (size 3 to 8) (size 9 to 14) (size 15 to 20)
#    0.000    2.500    0.000    3.375    0.000   10.000 
#    0.000   10.000    0.000    1.500    0.000    0.000 
#    0.000    0.000    0.000    0.000    0.000    0.000 
#
# Total GULP energy -89269.910066 kJ/mol
# GULP energy per Si atom -5579.369379 kJ/mol
# Density = 2.232955 g / cm^3
# Si number density = 22.380485 Si / 1000 Ang^3
#
#
#
# Elastic Constant Matrix: (Units=GPa)
#
#
# Indices 1 2 3 4 5 6 
#
# 1 48.9546 32.0452 10.4335 -4.5750 -19.5629 -9.1510
# 2 32.0452 96.2308 24.1549 10.6937 0.5282 -35.9997
# 3 10.4335 24.1549 102.9482 2.0793 -4.2457 -13.3543
# 4 -4.5750 10.6937 2.0793 22.9830 -0.9272 -2.4526
# 5 -19.5629 0.5282 -4.2457 -0.9272 19.7701 3.6993
# 6 -9.1510 -35.9997 -13.3543 -2.4526 3.6993 27.0051
#
#
#
# Elastic Compliance Matrix: (Units=1/GPa)
#
#
# Indices 1 2 3 4 5 6 
#
# 1 0.096700 -0.059237 0.000332 0.045139 0.110128 -0.057021
# 2 -0.059237 0.059181 -0.001818 -0.035237 -0.074386 0.064909
# 3 0.000332 -0.001818 0.010530 0.000327 0.002162 0.002629
# 4 0.045139 -0.035237 0.000327 0.067568 0.055006 -0.032915
# 5 0.110128 -0.074386 0.002162 0.055006 0.179628 -0.080385
# 6 -0.057021 0.064909 0.002629 -0.032915 -0.080385 0.113558
#
#
# Mechanical properties :
#
#
# Convention : Reuss Voigt Hill
#
# Bulk Modulus (GPa) = 22.23970 42.37787 32.30879
# Shear Modulus (GPa) = 7.53466 26.05164 16.79315
#
# Velocity S-wave (km/s) = 1.83683 3.41550 2.74222
# Velocity P-wave (km/s) = 3.80227 5.87626 4.94913
#
# Compressibility (1/GPa) = 0.04496463
#
# Stress axis : x y z
#
# Youngs Moduli (GPa) = 10.34123 16.89746 94.96447
#
# Poissons Ratio (x) = 1.00095 -0.03152
# Poissons Ratio (y) = 0.61258 0.17267
# Poissons Ratio (z) = -0.00343 0.03072
#
# Static dielectric constant tensor:
#      x y z
#    x 1.867080 0.038920 0.003680 
#    y 0.038920 1.868190 -0.028020 
#    z 0.003680 -0.028020 1.813790 
# 
# From -- ./inp_files/595953.got.cif
#   From: 2010.05.17/outbox.cif.g08.bks.cpg/sg2_298_cif.got.tgz:595953.got - 2010.06.03 11:33:40.
