data_PCOD9080788
_publ_section_title
;
Structure prediction by ZEFSAII (Michael W. Deem and Ramdas Pophale) SiO2 
 PCOD9080788
Probable space group: P -1
;
_chemical_formula_sum "Si O2"
_cell_formula_units_Z 16
_cell_length_a 14.826350
_cell_length_b 5.188270
_cell_length_c 29.171790
_cell_angle_alpha 98.326082
_cell_angle_beta 31.889586
_cell_angle_gamma 79.412542
_cell_volume 949.858072
_symmetry_space_group_name_H-M "P -1"
_symmetry_group_IT_number 2
_symmetry_cell_setting 'triclinic'
loop_
_space_group_symop_operation_xyz
x,y,z
-x,-y,-z
loop_
_atom_site_type_symbol
_atom_site_label
_atom_site_fract_x
_atom_site_fract_y
_atom_site_fract_z
Si Si1 0.284232 0.349849 0.709529
Si Si2 0.053184 0.677623 0.445604
Si Si3 0.773926 0.359287 0.422451
Si Si4 0.845677 0.694218 0.134988
Si Si5 0.763362 0.432263 0.078972
Si Si6 0.792350 0.890212 0.470577
Si Si7 0.540193 0.141705 0.205551
Si Si8 0.263996 0.821651 0.663296
O O1 0.200765 0.371477 0.796848
O O2 0.214104 0.678922 0.723972
O O3 0.540137 0.121212 0.594565
O O4 0.215218 0.164839 0.703670
O O5 0.914656 0.769519 0.462227
O O6 0.000000 0.500000 0.500000
O O7 0.299449 0.435568 0.321035
O O8 0.000000 0.000000 0.500000
O O9 0.838453 0.593962 0.412607
O O10 0.518267 0.582796 0.541489
O O11 0.830192 0.206954 0.343759
O O12 0.850106 0.093374 0.421778
O O13 0.866023 0.435529 0.083407
O O14 0.649939 0.029288 0.205827
O O15 0.054092 0.682521 0.039561
O O16 0.665857 0.238526 0.123477
O O17 0.582078 0.813293 0.160177
#
# Coordination Sequence:
#
# PCOD9080788 Si02
#       8
#     2   2   2   2   2   2   2   2
#     4  10  19  27  47  72 101 120 161 192 246 294
#     4  12  24  35  49  72 104 133 171 208 236 270
#     4   9  17  33  48  61  97 124 167 192 235 293
#     4   9  20  31  52  70 102 128 163 200 248 299
#     4   9  20  33  51  69  92 139 163 198 250 287
#     4  10  20  32  47  69  92 138 163 191 232 285
#     4  10  20  34  49  66  97 133 168 200 234 285
#     4   9  18  29  45  71  91 128 150 203 244 284
#
# _framework density 16.844621
#
# number of rings (size 3 to 8) (size 9 to 14) (size 15 to 20)
#    0.750    1.500    0.000    3.375    3.500    4.000 
#    0.000    0.000    0.000    0.000    0.000    0.000 
#    0.000   20.000    0.000    0.000    0.000    0.000 
#
# Total GULP energy -89189.518407 kJ/mol
# GULP energy per Si atom -5574.344900 kJ/mol
# Density = 1.680628 g / cm^3
# Si number density = 16.844621 Si / 1000 Ang^3
#
#
#
# Elastic Constant Matrix: (Units=GPa)
#
#
# Indices 1 2 3 4 5 6 
#
# 1 36.4333 -11.4300 3.4407 6.8070 -1.8719 -5.9810
# 2 -11.4300 62.2429 3.9076 -2.4077 -5.6255 2.6166
# 3 3.4407 3.9076 48.6514 -3.3953 0.0995 -5.5859
# 4 6.8070 -2.4077 -3.3953 23.8567 -5.2232 3.4908
# 5 -1.8719 -5.6255 0.0995 -5.2232 13.4733 -2.7753
# 6 -5.9810 2.6166 -5.5859 3.4908 -2.7753 23.7038
#
#
#
# Elastic Compliance Matrix: (Units=1/GPa)
#
#
# Indices 1 2 3 4 5 6 
#
# 1 0.033065 0.005965 -0.002434 -0.009339 0.005359 0.009114
# 2 0.005965 0.018179 -0.001783 0.001900 0.009141 -0.000131
# 3 -0.002434 -0.001783 0.021582 0.003145 0.000864 0.004307
# 4 -0.009339 0.001900 0.003145 0.050081 0.017412 -0.007162
# 5 0.005359 0.009141 0.000864 0.017412 0.087214 0.008194
# 6 0.009114 -0.000131 0.004307 -0.007162 0.008194 0.047530
#
#
# Mechanical properties :
#
#
# Convention : Reuss Voigt Hill
#
# Bulk Modulus (GPa) = 13.10260 15.46270 14.28265
# Shear Modulus (GPa) = 17.88297 22.30071 20.09184
#
# Velocity S-wave (km/s) = 3.26182 3.64250 3.45740
# Velocity P-wave (km/s) = 4.68843 5.18555 4.94324
#
# Compressibility (1/GPa) = 0.07632073
#
# Stress axis : x y z
#
# Youngs Moduli (GPa) = 30.24359 55.00992 46.33505
#
# Poissons Ratio (x) = -0.32812 0.11277
# Poissons Ratio (y) = -0.18039 0.08262
# Poissons Ratio (z) = 0.07361 0.09809
#
# Static dielectric constant tensor:
#      x y z
#    x 1.565770 0.017800 0.008520 
#    y 0.017800 1.585810 0.008410 
#    z 0.008520 0.008410 1.563550 
# 
# From -- ./inp_files/533768.got.cif
#   From: 2010.05.17/outbox.cif.g08.bks.cpg/sg2_267_cif.got.tgz:533768.got - 2010.06.03 11:33:40.
