data_PCOD9080672
_publ_section_title
;
Structure prediction by ZEFSAII (Michael W. Deem and Ramdas Pophale) SiO2 
 PCOD9080672
Probable space group: P -1
;
_chemical_formula_sum "Si O2"
_cell_formula_units_Z 16
_cell_length_a 18.641463
_cell_length_b 7.542830
_cell_length_c 12.058882
_cell_angle_alpha 119.082256
_cell_angle_beta 150.879021
_cell_angle_gamma 74.857890
_cell_volume 665.780128
_symmetry_space_group_name_H-M "P -1"
_symmetry_group_IT_number 2
_symmetry_cell_setting 'triclinic'
loop_
_space_group_symop_operation_xyz
x,y,z
-x,-y,-z
loop_
_atom_site_type_symbol
_atom_site_label
_atom_site_fract_x
_atom_site_fract_y
_atom_site_fract_z
Si Si1 0.409378 0.462261 0.672549
Si Si2 0.516785 0.123929 0.798217
Si Si3 0.369134 0.086677 0.805222
Si Si4 0.233213 0.990316 0.007163
Si Si5 0.810443 0.509552 0.430592
Si Si6 0.158691 0.557214 0.926748
Si Si7 0.888282 0.820906 0.417746
Si Si8 0.658068 0.522330 0.654891
O O1 0.461888 0.256586 0.672032
O O2 0.257520 0.411980 0.530583
O O3 0.383862 0.557539 0.550833
O O4 0.550217 0.651370 0.985695
O O5 0.371349 0.040632 0.663763
O O6 0.598093 0.968041 0.811907
O O7 0.667811 0.300614 0.122685
O O8 0.207629 0.022608 0.638399
O O9 0.500000 0.000000 0.000000
O O10 0.209672 0.782892 0.993067
O O11 0.080345 0.928745 0.699524
O O12 0.242400 0.214423 0.143562
O O13 0.865901 0.691180 0.464660
O O14 0.969650 0.473154 0.663378
O O15 0.184927 0.365910 0.831330
O O16 0.247607 0.581312 0.170434
O O17 0.500000 0.500000 0.500000
#
# Coordination Sequence:
#
# PCOD9080672 Si02
#       8
#     2   2   2   2   2   2   2   2
#     4  11  23  43  64  92 140 181 212 266 337 401
#     4  11  19  39  69  98 126 174 216 278 333 385
#     4  11  23  36  65 103 128 162 224 281 338 383
#     4  11  24  42  72  99 128 178 230 268 341 392
#     4  10  18  40  71  98 126 170 217 277 341 381
#     4  11  23  43  72 101 135 173 221 282 336 391
#     4  11  19  42  69 103 134 165 220 293 334 383
#     4  12  29  45  63  95 140 185 222 269 326 414
#
# _framework density 24.031956000000001
#
# number of rings (size 3 to 8) (size 9 to 14) (size 15 to 20)
#    0.000    1.000    5.000    3.000    3.500    5.000 
#    0.000    2.500    0.000    0.000    0.000    0.000 
#    0.000    0.000    0.000    0.000    0.000    0.000 
#
# Total GULP energy -89462.671918 kJ/mol
# GULP energy per Si atom -5591.416995 kJ/mol
# Density = 2.397726 g / cm^3
# Si number density = 24.031956 Si / 1000 Ang^3
#
#
#
# Elastic Constant Matrix: (Units=GPa)
#
#
# Indices 1 2 3 4 5 6 
#
# 1 105.8393 13.4584 26.1916 -18.1873 8.4566 -4.9169
# 2 13.4584 93.8310 19.0461 -13.3690 7.1272 -2.9800
# 3 26.1916 19.0461 74.7752 -29.2285 1.0828 -2.7547
# 4 -18.1873 -13.3690 -29.2285 46.8146 -1.0750 6.6822
# 5 8.4566 7.1272 1.0828 -1.0750 32.8159 -14.1178
# 6 -4.9169 -2.9800 -2.7547 6.6822 -14.1178 35.2003
#
#
#
# Elastic Compliance Matrix: (Units=1/GPa)
#
#
# Indices 1 2 3 4 5 6 
#
# 1 0.010778 -0.000472 -0.002715 0.002331 -0.002611 -0.000237
# 2 -0.000472 0.011579 -0.002034 0.001883 -0.002530 -0.000617
# 3 -0.002715 -0.002034 0.018805 0.010234 0.000503 -0.000821
# 4 0.002331 0.001883 0.010234 0.029915 -0.002728 -0.005487
# 5 -0.002611 -0.002530 0.000503 -0.002728 0.038165 0.015285
# 6 -0.000237 -0.000617 -0.000821 -0.005487 0.015285 0.035431
#
#
# Mechanical properties :
#
#
# Convention : Reuss Voigt Hill
#
# Bulk Modulus (GPa) = 32.55056 43.53752 38.04404
# Shear Modulus (GPa) = 30.23791 37.34945 33.79368
#
# Velocity S-wave (km/s) = 3.55101 3.94656 3.75400
# Velocity P-wave (km/s) = 5.51244 6.23882 5.88685
#
# Compressibility (1/GPa) = 0.03072144
#
# Stress axis : x y z
#
# Youngs Moduli (GPa) = 92.77857 86.36389 53.17673
#
# Poissons Ratio (x) = 0.04076 0.14436
# Poissons Ratio (y) = 0.04378 0.10816
# Poissons Ratio (z) = 0.25187 0.17565
#
# Static dielectric constant tensor:
#      x y z
#    x 1.956310 0.013220 0.039090 
#    y 0.013220 1.993010 -0.002590 
#    z 0.039090 -0.002590 1.926330 
# 
# From -- ./inp_files/403205.got.cif
#   From: 2010.05.17/outbox.cif.g08.bks.cpg/sg2_202_cif.got.tgz:403205.got - 2010.06.03 11:33:40.
