data_PCOD9080171
_publ_section_title
;
Structure prediction by ZEFSAII (Michael W. Deem and Ramdas Pophale) SiO2 
 PCOD9080171
Probable space group: P -1
;
_chemical_formula_sum "Si O2"
_cell_formula_units_Z 14
_cell_length_a 12.147529
_cell_length_b 8.344796
_cell_length_c 7.800750
_cell_angle_alpha 117.889969
_cell_angle_beta 130.544622
_cell_angle_gamma 77.533906
_cell_volume 526.496450
_symmetry_space_group_name_H-M "P -1"
_symmetry_group_IT_number 2
_symmetry_cell_setting 'triclinic'
loop_
_space_group_symop_operation_xyz
x,y,z
-x,-y,-z
loop_
_atom_site_type_symbol
_atom_site_label
_atom_site_fract_x
_atom_site_fract_y
_atom_site_fract_z
Si Si1 0.646629 0.491355 0.033092
Si Si2 0.952715 0.203128 0.031351
Si Si3 0.323710 0.947636 0.502391
Si Si4 0.454395 0.235002 0.502271
Si Si5 0.206729 0.176936 0.798299
Si Si6 0.119270 0.815727 0.669871
Si Si7 0.227198 0.482008 0.470254
O O1 0.699409 0.626655 0.998861
O O2 0.761321 0.556395 0.332128
O O3 0.500000 0.500000 0.000000
O O4 0.596944 0.297984 0.797801
O O5 0.898455 0.255900 0.190602
O O6 0.084566 0.357850 0.193880
O O7 0.824385 0.183758 0.754646
O O8 0.000000 0.000000 0.000000
O O9 0.468552 0.849576 0.621214
O O10 0.355951 0.082012 0.436867
O O11 0.289682 0.075757 0.686061
O O12 0.364845 0.407044 0.483278
O O13 0.041412 0.194387 0.580651
O O14 0.187890 0.028249 0.855322
O O15 0.212364 0.695810 0.583489
#
# Coordination Sequence:
#
# PCOD9080171 Si02
#       7
#     2   2   2   2   2   2   2
#     4  10  18  38  65  87 121 160 218 243 293 376
#     4  12  20  38  65  98 120 155 215 260 299 361
#     4  11  21  38  64  92 123 159 207 253 306 366
#     4  10  21  36  63  89 120 160 211 250 294 360
#     4  11  22  42  58  96 125 164 200 254 321 362
#     4  11  24  38  64  89 133 158 199 263 313 361
#     4  11  21  39  60  97 117 161 214 253 295 370
#
# _framework density 26.590873999999999
#
# number of rings (size 3 to 8) (size 9 to 14) (size 15 to 20)
#    0.000    1.143    7.143    1.286    2.000    0.000 
#    0.000    5.714    0.000    0.000    0.000    0.000 
#    0.000    0.000    0.000    0.000    0.000    0.000 
#
# Total GULP energy -78259.686079 kJ/mol
# GULP energy per Si atom -5589.977577 kJ/mol
# Density = 2.653035 g / cm^3
# Si number density = 26.590874 Si / 1000 Ang^3
#
#
#
# Elastic Constant Matrix: (Units=GPa)
#
#
# Indices 1 2 3 4 5 6 
#
# 1 92.5303 28.7730 3.7750 -13.2241 -2.0467 -30.2202
# 2 28.7730 77.4494 8.8920 13.6235 2.1626 -7.9905
# 3 3.7750 8.8920 94.2046 14.2173 17.0221 12.2465
# 4 -13.2241 13.6235 14.2173 33.0720 7.2508 1.1609
# 5 -2.0467 2.1626 17.0221 7.2508 40.9627 15.6536
# 6 -30.2202 -7.9905 12.2465 1.1609 15.6536 47.1499
#
#
#
# Elastic Compliance Matrix: (Units=1/GPa)
#
#
# Indices 1 2 3 4 5 6 
#
# 1 0.019207 -0.007553 -0.002799 0.012562 -0.004669 0.012999
# 2 -0.007553 0.017266 0.000305 -0.010464 0.001260 -0.002155
# 3 -0.002799 0.000305 0.012616 -0.005905 -0.002853 -0.003926
# 4 0.012562 -0.010464 -0.005905 0.043449 -0.007597 0.009264
# 5 -0.004669 0.001260 -0.002853 -0.007597 0.031325 -0.012251
# 6 0.012999 -0.002155 -0.003926 0.009264 -0.012251 0.034034
#
#
# Mechanical properties :
#
#
# Convention : Reuss Voigt Hill
#
# Bulk Modulus (GPa) = 34.48852 38.56270 36.52561
# Shear Modulus (GPa) = 26.64466 39.08654 32.86560
#
# Velocity S-wave (km/s) = 3.16891 3.83812 3.51945
# Velocity P-wave (km/s) = 5.13688 5.84596 5.50285
#
# Compressibility (1/GPa) = 0.02899515
#
# Stress axis : x y z
#
# Youngs Moduli (GPa) = 52.06352 57.91854 79.26680
#
# Poissons Ratio (x) = 0.43743 0.22184
# Poissons Ratio (y) = 0.39321 -0.02414
# Poissons Ratio (z) = 0.14571 -0.01764
#
# Static dielectric constant tensor:
#      x y z
#    x 2.133660 -0.014260 -0.030810 
#    y -0.014260 2.281440 -0.030560 
#    z -0.030810 -0.030560 2.040500 
# 
# From -- ./inp_files/159425.got.cif
#   From: 2010.05.17/outbox.cif.g08.bks.cpg/sg2_80_cif.got.tgz:159425.got - 2010.06.03 11:33:40.
