data_PCOD9080941
_publ_section_title
;
Structure prediction by ZEFSAII (Michael W. Deem and Ramdas Pophale) SiO2 
 PCOD9080941
Probable space group: P -1
;
_chemical_formula_sum "Si O2"
_cell_formula_units_Z 12
_cell_length_a 7.299121
_cell_length_b 5.522063
_cell_length_c 18.588849
_cell_angle_alpha 116.842289
_cell_angle_beta 131.482526
_cell_angle_gamma 89.664873
_cell_volume 450.057420
_symmetry_space_group_name_H-M "P -1"
_symmetry_group_IT_number 2
_symmetry_cell_setting 'triclinic'
loop_
_space_group_symop_operation_xyz
x,y,z
-x,-y,-z
loop_
_atom_site_type_symbol
_atom_site_label
_atom_site_fract_x
_atom_site_fract_y
_atom_site_fract_z
Si Si1 0.610054 0.414994 0.444297
Si Si2 0.254480 0.161782 0.941189
Si Si3 0.610608 0.933708 0.792225
Si Si4 0.781061 0.062090 0.542034
Si Si5 0.629573 0.586345 0.222130
Si Si6 0.209205 0.717798 0.977889
O O1 0.500000 0.500000 0.500000
O O2 0.377108 0.203099 0.300851
O O3 0.773835 0.233573 0.490509
O O4 0.777295 0.735514 0.492358
O O5 0.459588 0.377940 0.084364
O O6 0.103879 0.358904 0.902028
O O7 0.104079 0.847901 0.902076
O O8 0.462937 0.150268 0.934194
O O9 0.458966 0.632977 0.761304
O O10 0.452676 0.137916 0.760523
O O11 0.828554 0.155612 0.938332
O O12 0.047822 0.277585 0.684053
O O13 0.500000 0.000000 0.500000
#
# Coordination Sequence:
#
# PCOD9080941 Si02
#       6
#     2   2   2   2   2   2
#     4  10  21  35  48  65  92 129 162 192 235 280
#     4   8  14  25  41  64  94 120 143 180 230 277
#     4  10  19  30  48  73  96 121 157 197 231 271
#     4  10  21  35  48  65  92 129 162 192 235 280
#     4  10  19  30  48  73  96 121 157 197 231 271
#     4   8  14  25  41  64  94 120 143 180 230 277
#
# _framework density 26.663263000000001
#
# number of rings (size 3 to 8) (size 9 to 14) (size 15 to 20)
#    0.000    2.667    0.000    2.000    0.000    4.000 
#    0.000    0.000    0.000    0.000    0.000    9.333 
#    0.000    0.000    0.000    0.000    0.000    0.667 
#
# Total GULP energy -67068.428765 kJ/mol
# GULP energy per Si atom -5589.035730 kJ/mol
# Density = 2.660258 g / cm^3
# Si number density = 26.663263 Si / 1000 Ang^3
#
#
#
# Elastic Constant Matrix: (Units=GPa)
#
#
# Indices 1 2 3 4 5 6 
#
# 1 106.4047 25.1467 41.6224 -1.4930 -11.0401 1.7861
# 2 25.1467 298.1467 43.6748 -3.6910 -3.6952 2.0026
# 3 41.6224 43.6748 135.3366 -2.3879 -6.3326 0.9036
# 4 -1.4930 -3.6910 -2.3879 13.6383 0.6313 13.4822
# 5 -11.0401 -3.6952 -6.3326 0.6313 55.3890 -0.2214
# 6 1.7861 2.0026 0.9036 13.4822 -0.2214 12.5206
#
#
#
# Elastic Compliance Matrix: (Units=1/GPa)
#
#
# Indices 1 2 3 4 5 6 
#
# 1 0.010461 -0.000760 -0.003386 -0.020692 0.001968 0.021190
# 2 -0.000760 0.003313 -0.001183 -0.014397 0.000159 0.015170
# 3 -0.003386 -0.001183 0.008551 -0.011261 0.000401 0.012188
# 4 -0.020692 -0.014397 -0.011261 -0.910079 0.007941 0.986186
# 5 0.001968 0.000159 0.000401 0.007941 0.018378 -0.008561
# 6 0.021190 0.015170 0.012188 0.986186 -0.008561 -0.988542
#
#
# Mechanical properties :
#
#
# Convention : Reuss Voigt Hill
#
# Bulk Modulus (GPa) = 85.72599 84.53066 85.12833
# Shear Modulus (GPa) = -2.71242 44.93918 21.11338
#
# Velocity S-wave (km/s) = -1.00970 4.10986 2.81704
# Velocity P-wave (km/s) = 5.55534 7.36839 6.52514
#
# Compressibility (1/GPa) = 0.01166507
#
# Stress axis : x y z
#
# Youngs Moduli (GPa) = 95.59768 301.80822 116.94575
#
# Poissons Ratio (x) = 0.22947 0.39601
# Poissons Ratio (y) = 0.07269 0.13838
# Poissons Ratio (z) = 0.32372 0.35713
#
# Static dielectric constant tensor:
#      x y z
#    x 2.152080 -0.003050 -0.000980 
#    y -0.003050 2.169560 0.000740 
#    z -0.000980 0.000740 1.989380 
# 
# From -- ./inp_files/23155.got.cif
#   From: 2010.05.17/outbox.cif.g08.bks.cpg/sg2_12_cif.got.tgz:23155.got - 2010.06.03 11:33:40.
