data_PCOD9080452
_publ_section_title
;
Structure prediction by ZEFSAII (Michael W. Deem and Ramdas Pophale) SiO2 
 PCOD9080452
Probable space group: P -1
;
_chemical_formula_sum "Si O2"
_cell_formula_units_Z 16
_cell_length_a 7.295796
_cell_length_b 8.168070
_cell_length_c 18.707628
_cell_angle_alpha 134.651113
_cell_angle_beta 64.803318
_cell_angle_gamma 94.354081
_cell_volume 673.079851
_symmetry_space_group_name_H-M "P -1"
_symmetry_group_IT_number 2
_symmetry_cell_setting 'triclinic'
loop_
_space_group_symop_operation_xyz
x,y,z
-x,-y,-z
loop_
_atom_site_type_symbol
_atom_site_label
_atom_site_fract_x
_atom_site_fract_y
_atom_site_fract_z
Si Si1 0.342341 0.777729 0.703009
Si Si2 0.865570 0.616603 0.387134
Si Si3 0.723230 0.308434 0.929038
Si Si4 0.305131 0.032104 0.360368
Si Si5 0.044273 0.519080 0.175743
Si Si6 0.358793 0.511268 0.849641
Si Si7 0.057322 0.160308 0.302096
Si Si8 0.751538 0.017160 0.060882
O O1 0.315291 0.512524 0.639258
O O2 0.553704 0.806447 0.643009
O O3 0.154570 0.880357 0.707018
O O4 0.289882 0.933037 0.832624
O O5 0.763900 0.878603 0.520792
O O6 0.014290 0.436511 0.367884
O O7 0.005232 0.602931 0.289335
O O8 0.883402 0.325526 0.846096
O O9 0.500000 0.500000 0.000000
O O10 0.764638 0.390719 0.025351
O O11 0.743484 0.026025 0.833571
O O12 0.109386 0.106415 0.359429
O O13 0.448905 0.743863 0.246319
O O14 0.811091 0.527769 0.189263
O O15 0.227086 0.249001 0.053507
O O16 0.405100 0.745907 0.882044
O O17 0.000000 0.000000 0.000000
#
# Coordination Sequence:
#
# PCOD9080452 Si02
#       8
#     2   2   2   2   2   2   2   2
#     4  10  21  41  67  94 124 170 215 259 312 375
#     4  10  23  44  63  91 131 170 212 259 310 387
#     4  12  23  40  62  96 127 155 212 269 316 379
#     4  12  23  40  67  98 125 171 219 254 315 374
#     4  11  22  42  67  90 127 173 204 261 331 368
#     4  11  21  39  65  95 125 160 214 266 310 382
#     4  10  22  43  62  93 131 163 213 265 313 371
#     4  10  18  39  66  93 123 161 212 260 319 378
#
# _framework density 23.771325000000001
#
# number of rings (size 3 to 8) (size 9 to 14) (size 15 to 20)
#    0.750    0.500    3.750    4.875    0.000    0.500 
#    2.250    1.875    0.000    0.000    0.000    0.000 
#    0.000    0.000    0.000    0.000    0.000    0.000 
#
# Total GULP energy -89344.864677 kJ/mol
# GULP energy per Si atom -5584.054042 kJ/mol
# Density = 2.371722 g / cm^3
# Si number density = 23.771325 Si / 1000 Ang^3
#
#
#
# Elastic Constant Matrix: (Units=GPa)
#
#
# Indices 1 2 3 4 5 6 
#
# 1 55.8857 25.2606 14.1736 -14.5629 11.1479 -11.8861
# 2 25.2606 101.7833 43.4964 -6.9544 7.5548 -4.7610
# 3 14.1736 43.4964 163.0173 -21.9526 30.1250 -1.9803
# 4 -14.5629 -6.9544 -21.9526 36.0810 -8.3911 1.9449
# 5 11.1479 7.5548 30.1250 -8.3911 17.3020 -5.6371
# 6 -11.8861 -4.7610 -1.9803 1.9449 -5.6371 22.1181
#
#
#
# Elastic Compliance Matrix: (Units=1/GPa)
#
#
# Indices 1 2 3 4 5 6 
#
# 1 0.026286 -0.005796 0.002692 0.007770 -0.012294 0.009303
# 2 -0.005796 0.012502 -0.003822 -0.001237 0.004489 0.000487
# 3 0.002692 -0.003822 0.010639 0.002735 -0.018352 -0.003341
# 4 0.007770 -0.001237 0.002735 0.034042 0.008353 0.003289
# 5 -0.012294 0.004489 -0.018352 0.008353 0.105948 0.018984
# 6 0.009303 0.000487 -0.003341 0.003289 0.018984 0.054566
#
#
# Mechanical properties :
#
#
# Convention : Reuss Voigt Hill
#
# Bulk Modulus (GPa) = 28.10881 54.06084 41.08482
# Shear Modulus (GPa) = 18.53963 30.95060 24.74511
#
# Velocity S-wave (km/s) = 2.79573 3.61226 3.22990
# Velocity P-wave (km/s) = 4.71930 6.33950 5.58843
#
# Compressibility (1/GPa) = 0.03557604
#
# Stress axis : x y z
#
# Youngs Moduli (GPa) = 38.04269 79.99030 93.99271
#
# Poissons Ratio (x) = 0.46360 -0.25304
# Poissons Ratio (y) = 0.22048 0.35923
# Poissons Ratio (z) = -0.10242 0.30572
#
# Static dielectric constant tensor:
#      x y z
#    x 1.967320 0.055620 0.015730 
#    y 0.055620 1.952860 0.075400 
#    z 0.015730 0.075400 1.971140 
# 
# From -- ./inp_files/557568.got.cif
#   From: 2010.05.17/outbox.cif.g08.bks.cpg/sg2_279_cif.got.tgz:557568.got - 2010.06.03 11:33:40.
