data_PCOD9080345
_publ_section_title
;
Structure prediction by ZEFSAII (Michael W. Deem and Ramdas Pophale) SiO2 
 PCOD9080345
Probable space group: P -1
;
_chemical_formula_sum "Si O2"
_cell_formula_units_Z 16
_cell_length_a 11.077967
_cell_length_b 9.176554
_cell_length_c 12.651795
_cell_angle_alpha 40.890126
_cell_angle_beta 107.227405
_cell_angle_gamma 117.977360
_cell_volume 739.720735
_symmetry_space_group_name_H-M "P -1"
_symmetry_group_IT_number 2
_symmetry_cell_setting 'triclinic'
loop_
_space_group_symop_operation_xyz
x,y,z
-x,-y,-z
loop_
_atom_site_type_symbol
_atom_site_label
_atom_site_fract_x
_atom_site_fract_y
_atom_site_fract_z
Si Si1 0.055344 0.702264 0.614755
Si Si2 0.035166 0.203098 0.810586
Si Si3 0.611808 0.617874 0.553174
Si Si4 0.810654 0.670981 0.418158
Si Si5 0.885541 0.516156 0.881320
Si Si6 0.705497 0.830350 0.665036
Si Si7 0.352056 0.853181 0.095226
Si Si8 0.730094 0.114903 0.715710
O O1 0.086653 0.464231 0.735896
O O2 0.947008 0.693312 0.501835
O O3 0.974991 0.667581 0.722625
O O4 0.185076 0.942196 0.493797
O O5 0.146510 0.209208 0.749536
O O6 0.890676 0.159512 0.739893
O O7 0.000000 0.000000 0.000000
O O8 0.500000 0.500000 0.500000
O O9 0.735084 0.783211 0.418307
O O10 0.590700 0.722257 0.602482
O O11 0.650506 0.401300 0.724057
O O12 0.729331 0.378971 0.543907
O O13 0.786572 0.655984 0.811934
O O14 0.780158 0.249463 0.960107
O O15 0.000000 0.500000 0.000000
O O16 0.663510 0.926432 0.708246
O O17 0.329270 0.968791 0.135951
O O18 0.500000 0.000000 0.000000
#
# Coordination Sequence:
#
# PCOD9080345 Si02
#       8
#     2   2   2   2   2   2   2   2
#     4  11  19  38  60  91 126 164 204 252 328 381
#     4  11  21  32  59  97 131 158 199 263 328 374
#     4  10  23  41  62  88 119 173 225 254 309 392
#     4  10  18  39  60  83 125 167 205 253 322 383
#     4  11  24  38  60  98 134 163 214 269 322 380
#     4  11  21  38  67  92 121 167 214 267 317 378
#     4  10  22  44  64  84 129 176 208 260 333 386
#     4  10  19  37  64  86 118 170 208 258 315 384
#
# _framework density 21.629784000000001
#
# number of rings (size 3 to 8) (size 9 to 14) (size 15 to 20)
#    0.000    1.500    7.500    1.125    1.750    2.000 
#    0.000    5.000    2.750    0.000    0.000    0.000 
#    0.000    0.000    0.000    0.000    0.000    0.000 
#
# Total GULP energy -89173.198676 kJ/mol
# GULP energy per Si atom -5573.324917 kJ/mol
# Density = 2.158055 g / cm^3
# Si number density = 21.629784 Si / 1000 Ang^3
#
#
#
# Elastic Constant Matrix: (Units=GPa)
#
#
# Indices 1 2 3 4 5 6 
#
# 1 47.5546 37.8084 26.0015 15.9280 -19.6430 0.5387
# 2 37.8084 138.7104 27.3421 36.3422 -1.5172 -5.9403
# 3 26.0015 27.3421 82.7056 18.8659 -17.1733 -0.9179
# 4 15.9280 36.3422 18.8659 29.5999 -6.7565 -2.2869
# 5 -19.6430 -1.5172 -17.1733 -6.7565 41.9948 10.9137
# 6 0.5387 -5.9403 -0.9179 -2.2869 10.9137 33.2802
#
#
#
# Elastic Compliance Matrix: (Units=1/GPa)
#
#
# Indices 1 2 3 4 5 6 
#
# 1 0.039598 -0.009017 -0.005051 -0.003620 0.017746 -0.008458
# 2 -0.009017 0.012989 0.000000 -0.012336 -0.006726 0.003823
# 3 -0.005051 0.000000 0.015893 -0.006734 0.003321 -0.001032
# 4 -0.003620 -0.012336 -0.006734 0.056117 0.004087 0.000187
# 5 0.017746 -0.006726 0.003321 0.004087 0.037360 -0.013367
# 6 -0.008458 0.003823 -0.001032 0.000187 -0.013367 0.035235
#
#
# Mechanical properties :
#
#
# Convention : Reuss Voigt Hill
#
# Bulk Modulus (GPa) = 24.78657 50.14162 37.46410
# Shear Modulus (GPa) = 20.94006 32.82955 26.88481
#
# Velocity S-wave (km/s) = 3.11483 3.90011 3.52938
# Velocity P-wave (km/s) = 4.94171 6.59646 5.82811
#
# Compressibility (1/GPa) = 0.04034443
#
# Stress axis : x y z
#
# Youngs Moduli (GPa) = 25.25367 76.98734 62.91981
#
# Poissons Ratio (x) = 0.69421 0.31782
# Poissons Ratio (y) = 0.22772 -0.00002
# Poissons Ratio (z) = 0.12756 -0.00003
#
# Static dielectric constant tensor:
#      x y z
#    x 1.885550 -0.005090 0.003420 
#    y -0.005090 1.883300 0.001000 
#    z 0.003420 0.001000 1.772840 
# 
# From -- ./inp_files/270760.got.cif
#   From: 2010.05.17/outbox.cif.g08.bks.cpg/sg2_136_cif.got.tgz:270760.got - 2010.06.03 11:33:40.
