data_PCOD9080082
_publ_section_title
;
Structure prediction by ZEFSAII (Michael W. Deem and Ramdas Pophale) SiO2 
 PCOD9080082
Probable space group: P -1
;
_chemical_formula_sum "Si O2"
_cell_formula_units_Z 16
_cell_length_a 19.743486
_cell_length_b 14.189423
_cell_length_c 25.897429
_cell_angle_alpha 160.433545
_cell_angle_beta 20.524172
_cell_angle_gamma 149.177382
_cell_volume 834.361415
_symmetry_space_group_name_H-M "P -1"
_symmetry_group_IT_number 2
_symmetry_cell_setting 'triclinic'
loop_
_space_group_symop_operation_xyz
x,y,z
-x,-y,-z
loop_
_atom_site_type_symbol
_atom_site_label
_atom_site_fract_x
_atom_site_fract_y
_atom_site_fract_z
Si Si1 0.983785 0.376038 0.390990
Si Si2 0.263576 0.898463 0.886204
Si Si3 0.265982 0.241501 0.518083
Si Si4 0.418891 0.804169 0.914206
Si Si5 0.026707 0.822150 0.838265
Si Si6 0.640534 0.210205 0.493717
Si Si7 0.032513 0.049374 0.365055
Si Si8 0.767088 0.817367 0.607865
O O1 0.764989 0.315297 0.505485
O O2 0.006019 0.624967 0.461629
O O3 0.000000 0.500000 0.500000
O O4 0.141629 0.081393 0.114389
O O5 0.216725 0.583431 0.743659
O O6 0.497543 0.851127 0.698682
O O7 0.181722 0.107667 0.005141
O O8 0.203131 0.161798 0.463764
O O9 0.161227 0.073408 0.548207
O O10 0.505890 0.481672 0.702683
O O11 0.533311 0.851677 0.804727
O O12 0.500000 0.000000 0.000000
O O13 0.184716 0.879769 0.126539
O O14 0.184495 0.920327 0.738026
O O15 0.119251 0.499887 0.621259
O O16 0.000000 0.000000 0.000000
O O17 0.500000 0.000000 0.500000
O O18 0.147109 0.008705 0.318055
#
# Coordination Sequence:
#
# PCOD9080082 Si02
#       8
#     2   2   2   2   2   2   2   2
#     4  11  24  44  64  88 131 174 207 256 328 379
#     4  10  23  43  60  88 135 163 206 263 319 371
#     4  11  24  38  66  95 124 165 211 263 319 372
#     4   9  18  35  60  85 127 155 195 263 306 361
#     4  10  18  38  63  84 124 165 199 256 314 372
#     4  10  21  38  62  94 119 155 210 260 306 370
#     4  11  22  40  62  95 123 164 215 259 310 377
#     4  10  19  38  63  92 121 165 206 250 320 372
#
# _framework density 19.176341000000001
#
# number of rings (size 3 to 8) (size 9 to 14) (size 15 to 20)
#    0.000    1.750    6.250    0.375    5.250    0.500 
#    2.250    0.625    0.000    0.000    0.000    0.000 
#    0.000    0.000    0.000    0.000    0.000    0.000 
#
# Total GULP energy -89076.161236 kJ/mol
# GULP energy per Si atom -5567.260077 kJ/mol
# Density = 1.913270 g / cm^3
# Si number density = 19.176341 Si / 1000 Ang^3
#
#
#
# Elastic Constant Matrix: (Units=GPa)
#
#
# Indices 1 2 3 4 5 6 
#
# 1 79.3122 12.6279 18.7029 -4.7458 15.3579 -1.7711
# 2 12.6279 84.4549 9.5693 -9.1273 -5.9991 -5.6165
# 3 18.7029 9.5693 104.1491 -1.6528 3.6747 -3.2478
# 4 -4.7458 -9.1273 -1.6528 14.6020 0.4696 2.0789
# 5 15.3579 -5.9991 3.6747 0.4696 29.9379 0.1853
# 6 -1.7711 -5.6165 -3.2478 2.0789 0.1853 18.6563
#
#
#
# Elastic Compliance Matrix: (Units=1/GPa)
#
#
# Indices 1 2 3 4 5 6 
#
# 1 0.015253 -0.002213 -0.002192 0.003573 -0.008056 0.000082
# 2 -0.002213 0.013488 -0.000773 0.007090 0.003804 0.002888
# 3 -0.002192 -0.000773 0.010114 -0.000234 -0.000277 0.001349
# 4 0.003573 0.007090 -0.000234 0.074940 -0.001523 -0.005902
# 5 -0.008056 0.003804 -0.000277 -0.001523 0.038354 0.000121
# 6 0.000082 0.002888 0.001349 -0.005902 0.000121 0.055370
#
#
# Mechanical properties :
#
#
# Convention : Reuss Voigt Hill
#
# Bulk Modulus (GPa) = 35.09016 38.85738 36.97377
# Shear Modulus (GPa) = 21.99000 27.77365 24.88182
#
# Velocity S-wave (km/s) = 3.39001 3.80982 3.60603
# Velocity P-wave (km/s) = 5.80183 6.29763 6.05481
#
# Compressibility (1/GPa) = 0.02849801
#
# Stress axis : x y z
#
# Youngs Moduli (GPa) = 65.55976 74.14172 98.86817
#
# Poissons Ratio (x) = 0.16407 0.21675
# Poissons Ratio (y) = 0.14508 0.07647
# Poissons Ratio (z) = 0.14373 0.05735
#
# Static dielectric constant tensor:
#      x y z
#    x 1.702780 0.014260 0.010720 
#    y 0.014260 1.675520 -0.005700 
#    z 0.010720 -0.005700 1.712560 
# 
# From -- ./inp_files/620823.got.cif
#   From: 2010.05.17/outbox.cif.g08.bks.cpg/sg2_311_cif.got.tgz:620823.got - 2010.06.03 11:33:40.
