data_PCOD9080069
_publ_section_title
;
Structure prediction by ZEFSAII (Michael W. Deem and Ramdas Pophale) SiO2 
 PCOD9080069
Probable space group: P -1
;
_chemical_formula_sum "Si O2"
_cell_formula_units_Z 16
_cell_length_a 11.873433
_cell_length_b 21.966980
_cell_length_c 9.254144
_cell_angle_alpha 152.587003
_cell_angle_beta 131.360648
_cell_angle_gamma 35.756835
_cell_volume 633.239726
_symmetry_space_group_name_H-M "P -1"
_symmetry_group_IT_number 2
_symmetry_cell_setting 'triclinic'
loop_
_space_group_symop_operation_xyz
x,y,z
-x,-y,-z
loop_
_atom_site_type_symbol
_atom_site_label
_atom_site_fract_x
_atom_site_fract_y
_atom_site_fract_z
Si Si1 0.266652 0.698238 0.817034
Si Si2 0.302113 0.220796 0.617935
Si Si3 0.976973 0.799890 0.533357
Si Si4 0.411843 0.890878 0.856021
Si Si5 0.950761 0.097033 0.473028
Si Si6 0.122281 0.632724 0.814316
Si Si7 0.580554 0.185018 0.992695
Si Si8 0.770458 0.641765 0.440333
O O1 0.276403 0.598364 0.753130
O O2 0.120815 0.718227 0.618322
O O3 0.433443 0.668741 0.794893
O O4 0.145292 0.897021 0.192001
O O5 0.137144 0.273410 0.705156
O O6 0.493066 0.136213 0.697590
O O7 0.258262 0.360466 0.760220
O O8 0.328760 0.078585 0.236807
O O9 0.074015 0.790222 0.447569
O O10 0.806065 0.011535 0.851841
O O11 0.239333 0.889988 0.658777
O O12 0.572412 0.814434 0.707356
O O13 0.513794 0.775445 0.846464
O O14 0.971449 0.180711 0.803568
O O15 0.202931 0.503984 0.747188
O O16 0.956820 0.632249 0.603199
#
# Coordination Sequence:
#
# PCOD9080069 Si02
#       8
#     2   2   2   2   2   2   2   2
#     4  11  19  40  65  90 121 154 197 247 293 355
#     4  11  22  38  64  93 121 157 193 245 303 351
#     4  10  18  38  62  92 124 147 191 254 296 352
#     4  11  21  39  63  94 121 149 195 256 298 347
#     4  11  21  37  66  94 116 151 201 249 300 346
#     4  11  26  43  60  83 119 170 201 238 294 354
#     4  10  21  35  62  99 121 148 191 250 310 345
#     4  11  26  44  57  83 127 161 202 242 290 358
#
# _framework density 25.266894000000001
#
# number of rings (size 3 to 8) (size 9 to 14) (size 15 to 20)
#    0.000    1.250    5.000    3.000    7.000    0.500 
#    0.000    2.500    0.000    0.000    0.000    0.000 
#    0.000    0.000    0.000    0.000    0.000    0.000 
#
# Total GULP energy -89452.532598 kJ/mol
# GULP energy per Si atom -5590.783287 kJ/mol
# Density = 2.520939 g / cm^3
# Si number density = 25.266894 Si / 1000 Ang^3
#
#
#
# Elastic Constant Matrix: (Units=GPa)
#
#
# Indices 1 2 3 4 5 6 
#
# 1 152.8981 21.6854 16.1846 2.2013 20.8355 38.8887
# 2 21.6854 82.0745 19.8780 -0.1251 14.5781 37.3753
# 3 16.1846 19.8780 35.9120 -2.2944 -4.6764 11.6231
# 4 2.2013 -0.1251 -2.2944 28.6088 0.3597 5.0363
# 5 20.8355 14.5781 -4.6764 0.3597 25.3947 10.0809
# 6 38.8887 37.3753 11.6231 5.0363 10.0809 47.7015
#
#
#
# Elastic Compliance Matrix: (Units=1/GPa)
#
#
# Indices 1 2 3 4 5 6 
#
# 1 0.009570 0.003548 -0.004703 0.000382 -0.007639 -0.007862
# 2 0.003548 0.023362 -0.010668 0.001993 -0.011842 -0.016306
# 3 -0.004703 -0.010668 0.038823 0.003446 0.017621 -0.001355
# 4 0.000382 0.001993 0.003446 0.036398 0.001379 -0.006847
# 5 -0.007639 -0.011842 0.017621 0.001379 0.055972 -0.000761
# 6 -0.007862 -0.016306 -0.001355 -0.006847 -0.000761 0.041363
#
#
# Mechanical properties :
#
#
# Convention : Reuss Voigt Hill
#
# Bulk Modulus (GPa) = 20.78531 42.93117 31.85824
# Shear Modulus (GPa) = 20.39404 34.55011 27.47208
#
# Velocity S-wave (km/s) = 2.84411 3.70186 3.30096
# Velocity P-wave (km/s) = 4.36228 5.94135 5.21196
#
# Compressibility (1/GPa) = 0.04811091
#
# Stress axis : x y z
#
# Youngs Moduli (GPa) = 104.49283 42.80445 25.75774
#
# Poissons Ratio (x) = -0.15187 0.12113
# Poissons Ratio (y) = -0.37075 0.27478
# Poissons Ratio (z) = 0.49139 0.45662
#
# Static dielectric constant tensor:
#      x y z
#    x 2.041840 0.032230 0.008810 
#    y 0.032230 1.980250 0.095090 
#    z 0.008810 0.095090 2.050600 
# 
# From -- ./inp_files/204189.got.cif
#   From: 2010.05.17/outbox.cif.g08.bks.cpg/sg2_103_cif.got.tgz:204189.got - 2010.06.03 11:33:40.
