data_PCOD9080243
_publ_section_title
;
Structure prediction by ZEFSAII (Michael W. Deem and Ramdas Pophale) SiO2 
 PCOD9080243
Probable space group: P -1
;
_chemical_formula_sum "Si O2"
_cell_formula_units_Z 13
_cell_length_a 9.990103
_cell_length_b 7.343341
_cell_length_c 9.337568
_cell_angle_alpha 63.751508
_cell_angle_beta 68.215112
_cell_angle_gamma 98.716984
_cell_volume 527.925326
_symmetry_space_group_name_H-M "P -1"
_symmetry_group_IT_number 2
_symmetry_cell_setting 'triclinic'
loop_
_space_group_symop_operation_xyz
x,y,z
-x,-y,-z
loop_
_atom_site_type_symbol
_atom_site_label
_atom_site_fract_x
_atom_site_fract_y
_atom_site_fract_z
Si Si1 0.816575 0.058908 0.927768
Si Si2 0.949348 0.541633 0.162326
Si Si3 0.500000 0.500000 0.000000
Si Si4 0.811470 0.506851 0.712516
Si Si5 0.663849 0.943158 0.315140
Si Si6 0.397734 0.638547 0.708105
Si Si7 0.049304 0.055965 0.624963
O O1 0.763646 0.242832 0.807924
O O2 0.963475 0.206818 0.915368
O O3 0.891677 0.960554 0.812364
O O4 0.697002 0.921576 0.142551
O O5 0.766702 0.466880 0.266904
O O6 0.033034 0.430473 0.274079
O O7 0.000000 0.500000 0.000000
O O8 0.671271 0.538434 0.841020
O O9 0.425283 0.494524 0.872212
O O10 0.871361 0.674292 0.498488
O O11 0.605428 0.144467 0.282577
O O12 0.535266 0.729361 0.508192
O O13 0.815980 0.006179 0.334701
O O14 0.000000 0.000000 0.500000
#
# Coordination Sequence:
#
# PCOD9080243 Si02
#       7
#     2   2   1   2   2   2   2
#     4  10  23  43  66  96 137 177 229 275 322 409
#     4  10  18  38  67  94 127 180 217 261 329 402
#     4  12  18  38  66  98 132 176 222 264 328 404
#     4  10  22  39  67  96 130 174 224 271 322 402
#     4  11  22  39  63  99 137 175 215 279 339 393
#     4  11  21  37  67  98 137 176 218 271 337 399
#     4  12  25  40  68  99 131 178 230 282 337 390
#
# _framework density 24.624694000000002
#
# number of rings (size 3 to 8) (size 9 to 14) (size 15 to 20)
#    0.923    0.308    6.154    1.846    0.000    0.000 
#    0.000    0.769    3.385    9.231    0.000    0.000 
#    0.000    0.000    0.000    0.000    0.000    0.000 
#
# Total GULP energy -72433.736854 kJ/mol
# GULP energy per Si atom -5571.825912 kJ/mol
# Density = 2.456865 g / cm^3
# Si number density = 24.624694 Si / 1000 Ang^3
#
#
#
# Elastic Constant Matrix: (Units=GPa)
#
#
# Indices 1 2 3 4 5 6 
#
# 1 123.3313 13.9167 39.5195 -0.7384 -16.7004 -5.3579
# 2 13.9167 45.0010 18.7826 13.7764 1.7640 -2.3517
# 3 39.5195 18.7826 158.8127 12.4445 -24.5006 -7.4484
# 4 -0.7384 13.7764 12.4445 32.4208 -2.7994 4.0437
# 5 -16.7004 1.7640 -24.5006 -2.7994 40.8984 2.4942
# 6 -5.3579 -2.3517 -7.4484 4.0437 2.4942 12.0163
#
#
#
# Elastic Compliance Matrix: (Units=1/GPa)
#
#
# Indices 1 2 3 4 5 6 
#
# 1 0.009454 -0.002976 -0.001642 0.002223 0.003083 0.001227
# 2 -0.002976 0.028576 -0.002011 -0.012924 -0.005050 0.008417
# 3 -0.001642 -0.002011 0.007883 -0.002356 0.003747 0.003776
# 4 0.002223 -0.012924 -0.002356 0.039763 0.003823 -0.017173
# 5 0.003083 -0.005050 0.003747 0.003823 0.028711 -0.004537
# 6 0.001227 0.008417 0.003776 -0.017173 -0.004537 0.094476
#
#
# Mechanical properties :
#
#
# Convention : Reuss Voigt Hill
#
# Bulk Modulus (GPa) = 30.62203 52.39808 41.51006
# Shear Modulus (GPa) = 21.45887 34.06219 27.76053
#
# Velocity S-wave (km/s) = 2.95521 3.72325 3.36124
# Velocity P-wave (km/s) = 4.90988 6.30938 5.65310
#
# Compressibility (1/GPa) = 0.03265623
#
# Stress axis : x y z
#
# Youngs Moduli (GPa) = 105.77370 34.99490 126.85760
#
# Poissons Ratio (x) = 0.10414 0.20826
# Poissons Ratio (y) = 0.31476 0.25507
# Poissons Ratio (z) = 0.17365 0.07036
#
# Static dielectric constant tensor:
#      x y z
#    x 1.912350 -0.036920 -0.012300 
#    y -0.036920 2.130200 -0.047220 
#    z -0.012300 -0.047220 1.926070 
# 
# From -- ./inp_files/230651.got.cif
#   From: 2010.05.17/outbox.cif.g08.bks.cpg/sg2_116_cif.got.tgz:230651.got - 2010.06.03 11:33:40.
