data_PCOD9080529
_publ_section_title
;
Structure prediction by ZEFSAII (Michael W. Deem and Ramdas Pophale) SiO2 
 PCOD9080529
Probable space group: P -1
;
_chemical_formula_sum "Si O2"
_cell_formula_units_Z 11
_cell_length_a 9.557554
_cell_length_b 6.517808
_cell_length_c 7.696533
_cell_angle_alpha 64.755247
_cell_angle_beta 76.886063
_cell_angle_gamma 86.331674
_cell_volume 422.057794
_symmetry_space_group_name_H-M "P -1"
_symmetry_group_IT_number 2
_symmetry_cell_setting 'triclinic'
loop_
_space_group_symop_operation_xyz
x,y,z
-x,-y,-z
loop_
_atom_site_type_symbol
_atom_site_label
_atom_site_fract_x
_atom_site_fract_y
_atom_site_fract_z
Si Si1 0.148505 0.894877 0.430392
Si Si2 0.799617 0.685687 0.966206
Si Si3 0.228994 0.524598 0.309658
Si Si4 0.526265 0.690510 0.278247
Si Si5 0.000000 0.000000 0.000000
Si Si6 0.723955 0.959021 0.337876
O O1 0.123287 0.674109 0.399776
O O2 0.220474 0.075400 0.214204
O O3 0.252334 0.863014 0.576322
O O4 0.000000 0.000000 0.500000
O O5 0.814237 0.519211 0.859794
O O6 0.936791 0.755785 0.016818
O O7 0.660255 0.633309 0.139889
O O8 0.379559 0.670487 0.219846
O O9 0.249969 0.283063 0.485380
O O10 0.500000 0.500000 0.500000
O O11 0.577575 0.919450 0.285217
O O12 0.146684 0.994572 0.846683
#
# Coordination Sequence:
#
# PCOD9080529 Si02
#       6
#     2   2   2   2   1   2
#     4  11  22  40  59  89 125 160 206 244 296 357
#     4  10  21  38  64  87 122 156 197 256 294 363
#     4  10  22  38  63  91 118 165 198 244 308 349
#     4   9  19  40  64  89 122 153 201 247 304 360
#     4  10  18  40  56  86 126 152 194 248 298 348
#     4   9  20  38  62  85 122 157 193 255 289 361
#
# _framework density 26.062781000000001
#
# number of rings (size 3 to 8) (size 9 to 14) (size 15 to 20)
#    0.000    2.182    1.818    0.545    0.000    4.364 
#    0.000   12.727    0.000    0.000    0.000    0.000 
#    0.000    0.000    0.000    0.000    0.000    0.000 
#
# Total GULP energy -61295.041859 kJ/mol
# GULP energy per Si atom -5572.276533 kJ/mol
# Density = 2.600346 g / cm^3
# Si number density = 26.062781 Si / 1000 Ang^3
#
#
#
# Elastic Constant Matrix: (Units=GPa)
#
#
# Indices 1 2 3 4 5 6 
#
# 1 112.5693 78.2620 42.5953 -2.4918 -28.3548 23.2438
# 2 78.2620 165.6921 53.8196 41.6399 -3.4157 26.3504
# 3 42.5953 53.8196 129.0322 0.5127 -31.1641 14.5718
# 4 -2.4918 41.6399 0.5127 37.7521 14.7806 2.9682
# 5 -28.3548 -3.4157 -31.1641 14.7806 39.0954 -8.4120
# 6 23.2438 26.3504 14.5718 2.9682 -8.4120 30.4541
#
#
#
# Elastic Compliance Matrix: (Units=1/GPa)
#
#
# Indices 1 2 3 4 5 6 
#
# 1 0.020078 -0.011651 0.000894 0.010872 0.009247 -0.004176
# 2 -0.011651 0.018233 -0.004156 -0.018981 -0.003880 -0.004117
# 3 0.000894 -0.004156 0.011357 0.001006 0.008925 -0.000154
# 4 0.010872 -0.018981 0.001006 0.053507 -0.013479 -0.001294
# 5 0.009247 -0.003880 0.008925 -0.013479 0.045424 0.005889
# 6 -0.004176 -0.004117 -0.000154 -0.001294 0.005889 0.041412
#
#
# Mechanical properties :
#
#
# Convention : Reuss Voigt Hill
#
# Bulk Modulus (GPa) = 50.39831 84.07193 67.23512
# Shear Modulus (GPa) = 22.07989 36.96811 29.52400
#
# Velocity S-wave (km/s) = 2.91379 3.77028 3.36937
# Velocity P-wave (km/s) = 5.54071 7.16107 6.40236
#
# Compressibility (1/GPa) = 0.01984194
#
# Stress axis : x y z
#
# Youngs Moduli (GPa) = 49.80637 54.84544 88.05026
#
# Poissons Ratio (x) = 0.63901 -0.07868
# Poissons Ratio (y) = 0.58030 0.36589
# Poissons Ratio (z) = -0.04451 0.22791
#
# Static dielectric constant tensor:
#      x y z
#    x 2.162460 0.013240 0.087350 
#    y 0.013240 2.150760 0.018630 
#    z 0.087350 0.018630 2.012720 
# 
# From -- ./inp_files/41084.got.cif
#   From: 2010.05.17/outbox.cif.g08.bks.cpg/sg2_21_cif.got.tgz:41084.got - 2010.06.03 11:33:40.
