data_PCOD9080843
_publ_section_title
;
Structure prediction by ZEFSAII (Michael W. Deem and Ramdas Pophale) SiO2 
 PCOD9080843
Probable space group: P -1
;
_chemical_formula_sum "Si O2"
_cell_formula_units_Z 16
_cell_length_a 21.629252
_cell_length_b 12.654119
_cell_length_c 22.262802
_cell_angle_alpha 26.911138
_cell_angle_beta 160.899952
_cell_angle_gamma 143.317083
_cell_volume 867.744384
_symmetry_space_group_name_H-M "P -1"
_symmetry_group_IT_number 2
_symmetry_cell_setting 'triclinic'
loop_
_space_group_symop_operation_xyz
x,y,z
-x,-y,-z
loop_
_atom_site_type_symbol
_atom_site_label
_atom_site_fract_x
_atom_site_fract_y
_atom_site_fract_z
Si Si1 0.787894 0.810779 0.538908
Si Si2 0.747988 0.580342 0.140565
Si Si3 0.417242 0.578651 0.450643
Si Si4 0.699791 0.075561 0.136382
Si Si5 0.873002 0.239610 0.319613
Si Si6 0.690394 0.143040 0.391418
Si Si7 0.103775 0.989394 0.895685
Si Si8 0.216860 0.687564 0.029153
O O1 0.666230 0.636458 0.491241
O O2 0.817713 0.019436 0.416614
O O3 0.683867 0.943799 0.435917
O O4 0.004655 0.653613 0.836707
O O5 0.839913 0.459722 0.224009
O O6 0.743877 0.359746 0.293251
O O7 0.855864 0.753052 0.185977
O O8 0.525834 0.738668 0.842709
O O9 0.500000 0.500000 0.500000
O O10 0.615003 0.559908 0.678480
O O11 0.236498 0.813265 0.156424
O O12 0.897127 0.852677 0.439236
O O13 0.735711 0.269414 0.119904
O O14 0.500000 0.000000 0.000000
O O15 0.718167 0.174858 0.036524
O O16 0.869564 0.031036 0.657385
O O17 0.178938 0.865629 0.962591
#
# Coordination Sequence:
#
# PCOD9080843 Si02
#       8
#     2   2   2   2   2   2   2   2
#     4   9  17  32  48  71 106 129 161 205 239 291
#     4  10  19  32  48  70 104 129 158 197 237 302
#     4  10  19  29  47  72 100 135 167 198 238 284
#     4  10  19  33  54  76  98 124 164 210 249 290
#     4   9  20  34  51  77 100 129 161 200 253 289
#     4   9  18  29  47  70  96 136 161 189 246 290
#     4  10  20  31  47  74 104 132 161 193 238 294
#     4   9  19  32  49  73  99 131 164 203 250 283
#
# _framework density 18.438610000000001
#
# number of rings (size 3 to 8) (size 9 to 14) (size 15 to 20)
#    0.000    2.500    0.000    3.375    0.000    8.500 
#    0.000    0.000    0.000    0.750    0.000   13.125 
#    0.000    0.000    0.000    0.000    0.000    0.000 
#
# Total GULP energy -89168.840503 kJ/mol
# GULP energy per Si atom -5573.052531 kJ/mol
# Density = 1.839664 g / cm^3
# Si number density = 18.438610 Si / 1000 Ang^3
#
#
#
# Elastic Constant Matrix: (Units=GPa)
#
#
# Indices 1 2 3 4 5 6 
#
# 1 40.0209 7.5544 14.7682 9.7643 10.6542 -6.4634
# 2 7.5544 53.8765 8.4702 8.8606 5.1905 -3.7029
# 3 14.7682 8.4702 100.7207 11.4437 1.7501 -6.3900
# 4 9.7643 8.8606 11.4437 18.8529 1.0531 -3.5019
# 5 10.6542 5.1905 1.7501 1.0531 24.4750 2.8811
# 6 -6.4634 -3.7029 -6.3900 -3.5019 2.8811 18.3106
#
#
#
# Elastic Compliance Matrix: (Units=1/GPa)
#
#
# Indices 1 2 3 4 5 6 
#
# 1 0.035414 0.000037 -0.002629 -0.013738 -0.015996 0.011481
# 2 0.000037 0.020682 -0.000495 -0.008628 -0.004356 0.003058
# 3 -0.002629 -0.000495 0.011006 -0.004772 0.000452 0.001829
# 4 -0.013738 -0.008628 -0.004772 0.067568 0.004783 0.003910
# 5 -0.015996 -0.004356 0.000452 0.004783 0.050077 -0.013334
# 6 0.011481 0.003058 0.001829 0.003910 -0.013334 0.062768
#
#
# Mechanical properties :
#
#
# Convention : Reuss Voigt Hill
#
# Bulk Modulus (GPa) = 16.41232 28.46709 22.43970
# Shear Modulus (GPa) = 18.24831 23.24939 20.74885
#
# Velocity S-wave (km/s) = 3.14933 3.55478 3.35818
# Velocity P-wave (km/s) = 4.70582 5.68515 5.21851
#
# Compressibility (1/GPa) = 0.06092985
#
# Stress axis : x y z
#
# Youngs Moduli (GPa) = 28.23727 48.35036 90.86068
#
# Poissons Ratio (x) = -0.00179 0.23884
# Poissons Ratio (y) = -0.00105 0.04495
# Poissons Ratio (z) = 0.07422 0.02392
#
# Static dielectric constant tensor:
#      x y z
#    x 1.637820 0.007020 -0.019040 
#    y 0.007020 1.646520 0.005590 
#    z -0.019040 0.005590 1.688870 
# 
# From -- ./inp_files/425655.got.cif
#   From: 2010.05.17/outbox.cif.g08.bks.cpg/sg2_213_cif.got.tgz:425655.got - 2010.06.03 11:33:40.
