data_PCOD9080246
_publ_section_title
;
Structure prediction by ZEFSAII (Michael W. Deem and Ramdas Pophale) SiO2 
 PCOD9080246
Probable space group: P -1
;
_chemical_formula_sum "Si O2"
_cell_formula_units_Z 14
_cell_length_a 11.243371
_cell_length_b 7.485172
_cell_length_c 15.660563
_cell_angle_alpha 95.500464
_cell_angle_beta 142.165482
_cell_angle_gamma 112.129541
_cell_volume 540.385152
_symmetry_space_group_name_H-M "P -1"
_symmetry_group_IT_number 2
_symmetry_cell_setting 'triclinic'
loop_
_space_group_symop_operation_xyz
x,y,z
-x,-y,-z
loop_
_atom_site_type_symbol
_atom_site_label
_atom_site_fract_x
_atom_site_fract_y
_atom_site_fract_z
Si Si1 0.208666 0.680063 0.798380
Si Si2 0.958439 0.422848 0.108876
Si Si3 0.549955 0.985438 0.624958
Si Si4 0.913611 0.910128 0.849791
Si Si5 0.932773 0.795750 0.564033
Si Si6 0.667304 0.745369 0.043238
Si Si7 0.362942 0.090469 0.663350
O O1 0.383574 0.654571 0.842637
O O2 0.963255 0.614796 0.605173
O O3 0.086996 0.548153 0.816819
O O4 0.500000 0.000000 0.000000
O O5 0.647092 0.226448 0.880783
O O6 0.835930 0.305001 0.815479
O O7 0.070690 0.292987 0.168914
O O8 0.500000 0.000000 0.500000
O O9 0.323217 0.920554 0.557209
O O10 0.622742 0.825629 0.667265
O O11 0.140896 0.161529 0.925841
O O12 0.000000 0.000000 0.000000
O O13 0.120706 0.924045 0.590554
O O14 0.102129 0.008711 0.748486
O O15 0.652181 0.721860 0.380247
O O16 0.500000 0.500000 0.000000
#
# Coordination Sequence:
#
# PCOD9080246 Si02
#       7
#     2   2   2   2   2   2   2
#     4  10  18  38  67  97 124 176 232 271 342 407
#     4  12  23  47  75  96 137 191 228 287 354 412
#     4  12  29  46  68 103 145 182 233 286 358 430
#     4  12  25  41  70 108 139 183 237 285 347 427
#     4  10  21  39  70  96 129 178 232 282 338 406
#     4  11  21  38  69 100 141 181 231 287 348 417
#     4  11  22  42  68 100 133 178 229 287 344 407
#
# _framework density 25.907446
#
# number of rings (size 3 to 8) (size 9 to 14) (size 15 to 20)
#    0.000    0.857    7.143    2.143    0.000    0.571 
#    0.000    0.000    3.143    3.429    0.000    0.000 
#    0.000    0.000    0.000    0.000    0.000    0.000 
#
# Total GULP energy -78221.669468 kJ/mol
# GULP energy per Si atom -5587.262105 kJ/mol
# Density = 2.584848 g / cm^3
# Si number density = 25.907446 Si / 1000 Ang^3
#
#
#
# Elastic Constant Matrix: (Units=GPa)
#
#
# Indices 1 2 3 4 5 6 
#
# 1 159.5517 15.3820 55.9014 -22.9092 -2.3100 27.5574
# 2 15.3820 71.9031 22.1124 -13.3365 18.9667 6.8380
# 3 55.9014 22.1124 107.0552 -47.7254 9.0920 -12.8432
# 4 -22.9092 -13.3365 -47.7254 48.2960 -9.4119 9.3501
# 5 -2.3100 18.9667 9.0920 -9.4119 50.2261 -15.6964
# 6 27.5574 6.8380 -12.8432 9.3501 -15.6964 47.2114
#
#
#
# Elastic Compliance Matrix: (Units=1/GPa)
#
#
# Indices 1 2 3 4 5 6 
#
# 1 0.009629 0.000870 -0.005951 0.000202 -0.001210 -0.007808
# 2 0.000870 0.017900 -0.003605 0.001605 -0.007969 -0.007048
# 3 -0.005951 -0.003605 0.020993 0.016000 0.002599 0.007402
# 4 0.000202 0.001605 0.016000 0.038113 0.002835 -0.002603
# 5 -0.001210 -0.007969 0.002599 0.002835 0.026282 0.010744
# 6 -0.007808 -0.007048 0.007402 -0.002603 0.010744 0.032861
#
#
# Mechanical properties :
#
#
# Convention : Reuss Voigt Hill
#
# Bulk Modulus (GPa) = 32.10287 58.36687 45.23487
# Shear Modulus (GPa) = 28.81273 45.48765 37.15019
#
# Velocity S-wave (km/s) = 3.33850 4.19474 3.79087
# Velocity P-wave (km/s) = 5.22293 6.78521 6.05467
#
# Compressibility (1/GPa) = 0.03114986
#
# Stress axis : x y z
#
# Youngs Moduli (GPa) = 103.85367 55.86546 47.63394
#
# Poissons Ratio (x) = -0.04858 0.28348
# Poissons Ratio (y) = -0.09032 0.17171
# Poissons Ratio (z) = 0.61806 0.20138
#
# Static dielectric constant tensor:
#      x y z
#    x 2.098860 -0.058110 0.117280 
#    y -0.058110 2.029090 -0.076350 
#    z 0.117280 -0.076350 1.990890 
# 
# From -- ./inp_files/514331.got.cif
#   From: 2010.05.17/outbox.cif.g08.bks.cpg/sg2_258_cif.got.tgz:514331.got - 2010.06.03 11:33:40.
