data_PCOD9080801
_publ_section_title
;
Structure prediction by ZEFSAII (Michael W. Deem and Ramdas Pophale) SiO2 
 PCOD9080801
Probable space group: P -1
;
_chemical_formula_sum "Si O2"
_cell_formula_units_Z 16
_cell_length_a 9.131354
_cell_length_b 16.462594
_cell_length_c 14.329598
_cell_angle_alpha 142.856637
_cell_angle_beta 137.915536
_cell_angle_gamma 69.096034
_cell_volume 710.028873
_symmetry_space_group_name_H-M "P -1"
_symmetry_group_IT_number 2
_symmetry_cell_setting 'triclinic'
loop_
_space_group_symop_operation_xyz
x,y,z
-x,-y,-z
loop_
_atom_site_type_symbol
_atom_site_label
_atom_site_fract_x
_atom_site_fract_y
_atom_site_fract_z
Si Si1 0.281864 0.302296 0.698520
Si Si2 0.416761 0.570023 0.383183
Si Si3 0.707214 0.088552 0.969296
Si Si4 0.628259 0.773916 0.131328
Si Si5 0.187355 0.437280 0.530445
Si Si6 0.406326 0.163251 0.453932
Si Si7 0.764502 0.238895 0.464686
Si Si8 0.957245 0.246839 0.771210
O O1 0.329753 0.222727 0.560815
O O2 0.986162 0.263442 0.522076
O O3 0.500000 0.500000 0.000000
O O4 0.300185 0.212576 0.715127
O O5 0.664923 0.555268 0.489109
O O6 0.502828 0.696375 0.452747
O O7 0.339955 0.647494 0.497778
O O8 0.150811 0.400698 0.069284
O O9 0.779006 0.007907 0.847092
O O10 0.502105 0.944784 0.812471
O O11 0.533361 0.151027 0.903572
O O12 0.980734 0.245552 0.282440
O O13 0.435304 0.575047 0.836960
O O14 0.891189 0.839709 0.252690
O O15 0.000000 0.500000 0.500000
O O16 0.663139 0.159709 0.593558
O O17 0.922382 0.289787 0.687083
#
# Coordination Sequence:
#
# PCOD9080801 Si02
#       8
#     2   2   2   2   2   2   2   2
#     4  11  20  32  49  75 104 129 160 194 245 301
#     4   9  15  29  49  71  95 124 162 201 240 279
#     4   9  19  34  49  73  98 127 170 200 239 283
#     4   9  18  32  53  72  97 131 160 202 241 285
#     4   9  17  31  53  74  92 123 170 210 233 273
#     4  10  19  28  48  75 102 126 151 201 248 294
#     4   9  18  28  48  72  98 127 156 203 243 285
#     4   8  14  27  46  70  94 122 161 195 236 284
#
# _framework density 22.534293999999999
#
# number of rings (size 3 to 8) (size 9 to 14) (size 15 to 20)
#    0.000    3.000    0.000    4.500    0.000    7.000 
#    0.000    0.000    0.000    9.750    0.000   25.375 
#    0.000    0.000    0.000    0.000    0.000    0.000 
#
# Total GULP energy -89157.592819 kJ/mol
# GULP energy per Si atom -5572.349551 kJ/mol
# Density = 2.248300 g / cm^3
# Si number density = 22.534294 Si / 1000 Ang^3
#
#
#
# Elastic Constant Matrix: (Units=GPa)
#
#
# Indices 1 2 3 4 5 6 
#
# 1 158.2506 38.4969 52.5732 -0.4189 -6.6424 -45.9146
# 2 38.4969 56.0792 32.1810 -1.6599 -6.4034 -25.7148
# 3 52.5732 32.1810 114.1399 19.2509 5.9551 -20.9786
# 4 -0.4189 -1.6599 19.2509 32.6669 -16.6911 3.9520
# 5 -6.6424 -6.4034 5.9551 -16.6911 24.0342 1.7944
# 6 -45.9146 -25.7148 -20.9786 3.9520 1.7944 36.7835
#
#
#
# Elastic Compliance Matrix: (Units=1/GPa)
#
#
# Indices 1 2 3 4 5 6 
#
# 1 0.011167 0.001199 -0.004791 0.005600 0.007655 0.011070
# 2 0.001199 0.034464 -0.012149 0.019985 0.025262 0.015282
# 3 -0.004791 -0.012149 0.021194 -0.028714 -0.029915 0.002158
# 4 0.005600 0.019985 -0.028714 0.088573 0.076144 -0.008646
# 5 0.007655 0.025262 -0.029915 0.076144 0.111003 -0.003441
# 6 0.011070 0.015282 0.002158 -0.008646 -0.003441 0.054015
#
#
# Mechanical properties :
#
#
# Convention : Reuss Voigt Hill
#
# Bulk Modulus (GPa) = 28.29428 63.88578 46.09003
# Shear Modulus (GPa) = 13.74846 32.37816 23.06331
#
# Velocity S-wave (km/s) = 2.47273 3.79468 3.20265
# Velocity P-wave (km/s) = 4.55366 6.90011 5.84582
#
# Compressibility (1/GPa) = 0.03534283
#
# Stress axis : x y z
#
# Youngs Moduli (GPa) = 89.55056 29.01587 47.18381
#
# Poissons Ratio (x) = -0.03480 0.22605
# Poissons Ratio (y) = -0.10740 0.57325
# Poissons Ratio (z) = 0.42902 0.35252
#
# Static dielectric constant tensor:
#      x y z
#    x 1.893210 -0.063470 0.014470 
#    y -0.063470 1.894430 0.018280 
#    z 0.014470 0.018280 1.878970 
# 
# From -- ./inp_files/267471.got.cif
#   From: 2010.05.17/outbox.cif.g08.bks.cpg/sg2_134_cif.got.tgz:267471.got - 2010.06.03 11:33:40.
