data_PCOD9080733
_publ_section_title
;
Structure prediction by ZEFSAII (Michael W. Deem and Ramdas Pophale) SiO2 
 PCOD9080733
Probable space group: P -1
;
_chemical_formula_sum "Si O2"
_cell_formula_units_Z 12
_cell_length_a 11.110608
_cell_length_b 13.693122
_cell_length_c 10.824011
_cell_angle_alpha 139.997371
_cell_angle_beta 140.854385
_cell_angle_gamma 32.240835
_cell_volume 524.151924
_symmetry_space_group_name_H-M "P -1"
_symmetry_group_IT_number 2
_symmetry_cell_setting 'triclinic'
loop_
_space_group_symop_operation_xyz
x,y,z
-x,-y,-z
loop_
_atom_site_type_symbol
_atom_site_label
_atom_site_fract_x
_atom_site_fract_y
_atom_site_fract_z
Si Si1 0.582687 0.286321 0.846188
Si Si2 0.182653 0.489455 0.541357
Si Si3 0.549312 0.923486 0.322652
Si Si4 0.712754 0.790327 0.832851
Si Si5 0.198290 0.973098 0.723131
Si Si6 0.005092 0.882625 0.694261
O O1 0.446666 0.318326 0.638485
O O2 0.471454 0.245813 0.832902
O O3 0.852903 0.088181 0.844417
O O4 0.500000 0.500000 0.000000
O O5 0.153679 0.421691 0.321542
O O6 0.000000 0.500000 0.500000
O O7 0.132210 0.693362 0.696471
O O8 0.806844 0.875942 0.456877
O O9 0.500000 0.000000 0.500000
O O10 0.364620 0.069466 0.212379
O O11 0.464427 0.856575 0.763257
O O12 0.856043 0.830136 0.077969
O O13 0.188494 0.868440 0.732381
O O14 0.000000 0.000000 0.500000
#
# Coordination Sequence:
#
# PCOD9080733 Si02
#       6
#     2   2   2   2   2   2
#     4  11  24  40  64 103 145 175 222 290 347 416
#     4  12  23  42  68 101 139 182 227 282 356 419
#     4  10  18  42  64  96 140 170 218 286 340 407
#     4  11  24  44  71 102 140 186 232 290 346 409
#     4  11  24  45  73  97 140 189 236 290 338 413
#     4  11  23  41  68  97 134 184 233 277 346 413
#
# _framework density 22.894124999999999
#
# number of rings (size 3 to 8) (size 9 to 14) (size 15 to 20)
#    0.000    1.000    6.667    1.000    4.667    1.333 
#    0.000    0.833    0.000    0.000    0.000    0.000 
#    0.000    0.000    0.000    0.000    0.000    0.000 
#
# Total GULP energy -66991.001836 kJ/mol
# GULP energy per Si atom -5582.583486 kJ/mol
# Density = 2.284202 g / cm^3
# Si number density = 22.894125 Si / 1000 Ang^3
#
#
#
# Elastic Constant Matrix: (Units=GPa)
#
#
# Indices 1 2 3 4 5 6 
#
# 1 144.0744 43.8019 43.1589 28.0889 20.3341 6.7107
# 2 43.8019 122.6017 38.5423 24.0042 -0.7895 19.5704
# 3 43.1589 38.5423 143.5975 18.3678 1.9073 -3.1896
# 4 28.0889 24.0042 18.3678 47.4920 5.0416 2.1480
# 5 20.3341 -0.7895 1.9073 5.0416 30.6772 10.2750
# 6 6.7107 19.5704 -3.1896 2.1480 10.2750 27.4032
#
#
#
# Elastic Compliance Matrix: (Units=1/GPa)
#
#
# Indices 1 2 3 4 5 6 
#
# 1 0.009701 -0.002708 -0.001656 -0.003124 -0.006579 0.002077
# 2 -0.002708 0.012346 -0.002314 -0.003951 0.006431 -0.010525
# 3 -0.001656 -0.002314 0.008310 -0.001172 -0.000377 0.003259
# 4 -0.003124 -0.003951 -0.001172 0.025558 -0.003022 0.002580
# 5 -0.006579 0.006431 -0.000377 -0.003022 0.044119 -0.019331
# 6 0.002077 -0.010525 0.003259 0.002580 -0.019331 0.050926
#
#
# Mechanical properties :
#
#
# Convention : Reuss Voigt Hill
#
# Bulk Modulus (GPa) = 58.81436 73.47552 66.14494
# Shear Modulus (GPa) = 29.41489 40.09917 34.75703
#
# Velocity S-wave (km/s) = 3.58833 4.18964 3.90059
# Velocity P-wave (km/s) = 6.55085 7.45435 7.01716
#
# Compressibility (1/GPa) = 0.01700265
#
# Stress axis : x y z
#
# Youngs Moduli (GPa) = 103.08275 80.99653 120.33707
#
# Poissons Ratio (x) = 0.21930 0.19925
# Poissons Ratio (y) = 0.27910 0.27845
# Poissons Ratio (z) = 0.17068 0.18742
#
# Static dielectric constant tensor:
#      x y z
#    x 1.862390 0.011440 0.009870 
#    y 0.011440 1.867680 -0.027570 
#    z 0.009870 -0.027570 2.043950 
# 
# From -- ./inp_files/431983.got.cif
#   From: 2010.05.17/outbox.cif.g08.bks.cpg/sg2_216_cif.got.tgz:431983.got - 2010.06.03 11:33:40.
