data_PCOD9080051
_publ_section_title
;
Structure prediction by ZEFSAII (Michael W. Deem and Ramdas Pophale) SiO2 
 PCOD9080051
Probable space group: P -1
;
_chemical_formula_sum "Si O2"
_cell_formula_units_Z 16
_cell_length_a 7.304303
_cell_length_b 9.523203
_cell_length_c 14.510450
_cell_angle_alpha 103.612149
_cell_angle_beta 128.459531
_cell_angle_gamma 93.424636
_cell_volume 739.462289
_symmetry_space_group_name_H-M "P -1"
_symmetry_group_IT_number 2
_symmetry_cell_setting 'triclinic'
loop_
_space_group_symop_operation_xyz
x,y,z
-x,-y,-z
loop_
_atom_site_type_symbol
_atom_site_label
_atom_site_fract_x
_atom_site_fract_y
_atom_site_fract_z
Si Si1 0.690356 0.152961 0.555786
Si Si2 0.957342 0.136680 0.908470
Si Si3 0.174649 0.710553 0.942658
Si Si4 0.586488 0.603518 0.165566
Si Si5 0.498771 0.261162 0.120220
Si Si6 0.073610 0.613281 0.204526
Si Si7 0.488307 0.889037 0.709166
Si Si8 0.159644 0.100300 0.644980
O O1 0.638974 0.178926 0.436705
O O2 0.713083 0.299377 0.646822
O O3 0.947959 0.115912 0.648878
O O4 0.500000 0.000000 0.500000
O O5 0.908155 0.278998 0.860686
O O6 0.764660 0.985469 0.792328
O O7 0.900023 0.164058 0.001547
O O8 0.241765 0.154237 0.989215
O O9 0.284520 0.753315 0.881975
O O10 0.949674 0.560247 0.848548
O O11 0.392358 0.663546 0.057212
O O12 0.484066 0.432617 0.136512
O O13 0.814971 0.602192 0.171774
O O14 0.691343 0.726583 0.297064
O O15 0.533252 0.223133 0.230788
O O16 0.350393 0.011518 0.718507
O O17 0.000000 0.000000 0.500000
#
# Coordination Sequence:
#
# PCOD9080051 Si02
#       8
#     2   2   2   2   2   2   2   2
#     4  10  20  38  64  85 116 160 206 251 294 357
#     4  12  21  36  63  92 122 158 203 249 302 362
#     4  11  21  37  61  90 121 162 204 244 304 360
#     4  10  18  38  62  84 121 164 199 249 297 357
#     4  11  24  40  57  94 131 156 197 253 309 365
#     4  10  19  35  61  90 116 149 211 256 283 357
#     4  11  23  40  59  92 124 160 200 252 314 349
#     4   9  20  38  59  87 112 155 212 241 287 363
#
# _framework density 21.637345
#
# number of rings (size 3 to 8) (size 9 to 14) (size 15 to 20)
#    0.000    1.500    5.000    1.500    0.000    0.500 
#    2.250   10.000    0.000    0.750    0.000    0.000 
#    0.000    0.000    0.000    0.000    0.000    0.000 
#
# Total GULP energy -89316.325289 kJ/mol
# GULP energy per Si atom -5582.270331 kJ/mol
# Density = 2.158810 g / cm^3
# Si number density = 21.637345 Si / 1000 Ang^3
#
#
#
# Elastic Constant Matrix: (Units=GPa)
#
#
# Indices 1 2 3 4 5 6 
#
# 1 52.3601 8.1719 10.6008 -0.9184 0.4631 18.5540
# 2 8.1719 66.5194 32.3393 1.9421 -0.2921 25.1536
# 3 10.6008 32.3393 105.4662 17.3347 -6.6815 13.0482
# 4 -0.9184 1.9421 17.3347 43.2728 2.4774 -7.4735
# 5 0.4631 -0.2921 -6.6815 2.4774 27.1556 -0.4849
# 6 18.5540 25.1536 13.0482 -7.4735 -0.4849 29.5011
#
#
#
# Elastic Compliance Matrix: (Units=1/GPa)
#
#
# Indices 1 2 3 4 5 6 
#
# 1 0.025964 0.005523 -0.001272 -0.002802 -0.000819 -0.021200
# 2 0.005523 0.026114 -0.005121 -0.003128 -0.001222 -0.024287
# 3 -0.001272 -0.005121 0.012469 -0.005273 0.003486 -0.001627
# 4 -0.002802 -0.003128 -0.005273 0.027885 -0.003581 0.013766
# 5 -0.000819 -0.001222 0.003486 -0.003581 0.038005 -0.000268
# 6 -0.021200 -0.024287 -0.001627 0.013766 -0.000268 0.072140
#
#
# Mechanical properties :
#
#
# Convention : Reuss Voigt Hill
#
# Bulk Modulus (GPa) = 15.92171 36.28551 26.10361
# Shear Modulus (GPa) = 22.19727 31.53482 26.86605
#
# Velocity S-wave (km/s) = 3.20641 3.82177 3.52753
# Velocity P-wave (km/s) = 4.59157 6.02335 5.35552
#
# Compressibility (1/GPa) = 0.06280731
#
# Stress axis : x y z
#
# Youngs Moduli (GPa) = 38.51448 38.29337 80.20144
#
# Poissons Ratio (x) = -0.21150 0.10202
# Poissons Ratio (y) = -0.21273 0.41072
# Poissons Ratio (z) = 0.04899 0.19611
#
# Static dielectric constant tensor:
#      x y z
#    x 1.878530 -0.020780 -0.029190 
#    y -0.020780 1.809460 0.039170 
#    z -0.029190 0.039170 1.822030 
# 
# From -- ./inp_files/218851.got.cif
#   From: 2010.05.17/outbox.cif.g08.bks.cpg/sg2_110_cif.got.tgz:218851.got - 2010.06.03 11:33:40.
