data_PCOD9080629
_publ_section_title
;
Structure prediction by ZEFSAII (Michael W. Deem and Ramdas Pophale) SiO2 
 PCOD9080629
Probable space group: P -1
;
_chemical_formula_sum "Si O2"
_cell_formula_units_Z 16
_cell_length_a 17.521929
_cell_length_b 12.060051
_cell_length_c 11.524195
_cell_angle_alpha 48.471636
_cell_angle_beta 29.914558
_cell_angle_gamma 37.162383
_cell_volume 730.512588
_symmetry_space_group_name_H-M "P -1"
_symmetry_group_IT_number 2
_symmetry_cell_setting 'triclinic'
loop_
_space_group_symop_operation_xyz
x,y,z
-x,-y,-z
loop_
_atom_site_type_symbol
_atom_site_label
_atom_site_fract_x
_atom_site_fract_y
_atom_site_fract_z
Si Si1 0.343518 0.181468 0.154672
Si Si2 0.600355 0.620277 0.226493
Si Si3 0.234594 0.756126 0.850991
Si Si4 0.944627 0.892868 0.320294
Si Si5 0.175628 0.854547 0.506686
Si Si6 0.522286 0.647573 0.725657
Si Si7 0.179534 0.502429 0.742815
Si Si8 0.416356 0.741697 0.058620
O O1 0.196859 0.156594 0.425734
O O2 0.271544 0.337802 0.044564
O O3 0.438730 0.228514 0.093566
O O4 0.500000 0.000000 0.000000
O O5 0.659840 0.423828 0.242160
O O6 0.380549 0.761387 0.371919
O O7 0.663381 0.609309 0.283476
O O8 0.371973 0.773783 0.737478
O O9 0.129979 0.928379 0.784206
O O10 0.112363 0.741502 0.120995
O O11 0.976773 0.955714 0.357626
O O12 0.129782 0.706699 0.673270
O O13 0.226735 0.873438 0.295188
O O14 0.723255 0.581360 0.452754
O O15 0.534050 0.460536 0.844407
O O16 0.443388 0.747457 0.882439
O O17 0.000000 0.500000 0.000000
#
# Coordination Sequence:
#
# PCOD9080629 Si02
#       8
#     2   2   2   2   2   2   2   2
#     4  11  21  38  65  97 121 158 214 268 305 359
#     4  11  20  40  70  90 119 172 220 240 312 388
#     4  11  22  40  64  92 119 174 212 251 313 380
#     4  11  23  37  63  94 130 152 215 271 306 358
#     4  10  18  40  67  86 120 174 210 247 308 388
#     4  10  20  40  62  90 123 170 210 252 320 384
#     4  11  22  36  64  98 122 157 217 269 304 365
#     4   9  19  37  65  88 122 162 211 259 311 368
#
# _framework density 21.902429000000001
#
# number of rings (size 3 to 8) (size 9 to 14) (size 15 to 20)
#    0.000    1.500    7.500    1.125    0.000    1.500 
#    6.750    2.500    0.000    0.000    0.000    0.000 
#    0.000    0.000    0.000    0.000    0.000    0.000 
#
# Total GULP energy -89203.256959 kJ/mol
# GULP energy per Si atom -5575.203560 kJ/mol
# Density = 2.185258 g / cm^3
# Si number density = 21.902429 Si / 1000 Ang^3
#
#
#
# Elastic Constant Matrix: (Units=GPa)
#
#
# Indices 1 2 3 4 5 6 
#
# 1 121.7474 12.3581 60.0718 6.9315 34.5704 20.3064
# 2 12.3581 18.7449 16.0277 -4.6119 5.1718 11.6483
# 3 60.0718 16.0277 196.7673 -9.9598 12.5736 21.9418
# 4 6.9315 -4.6119 -9.9598 32.6907 12.4707 1.8232
# 5 34.5704 5.1718 12.5736 12.4707 37.5884 6.4934
# 6 20.3064 11.6483 21.9418 1.8232 6.4934 20.1708
#
#
#
# Elastic Compliance Matrix: (Units=1/GPa)
#
#
# Indices 1 2 3 4 5 6 
#
# 1 0.013831 0.001880 -0.002641 0.001207 -0.010992 -0.008707
# 2 0.001880 0.094239 -0.000456 0.020334 -0.011996 -0.053795
# 3 -0.002641 -0.000456 0.006551 0.002669 0.000194 -0.004508
# 4 0.001207 0.020334 0.002669 0.040874 -0.015865 -0.014448
# 5 -0.010992 -0.011996 0.000194 -0.015865 0.042613 0.005499
# 6 -0.008707 -0.053795 -0.004508 -0.014448 0.005499 0.093847
#
#
# Mechanical properties :
#
#
# Convention : Reuss Voigt Hill
#
# Bulk Modulus (GPa) = 8.91365 57.13054 33.02210
# Shear Modulus (GPa) = 15.07007 34.67677 24.87342
#
# Velocity S-wave (km/s) = 2.62593 3.98331 3.37359
# Velocity P-wave (km/s) = 3.64315 6.87724 5.50313
#
# Compressibility (1/GPa) = 0.11218745
#
# Stress axis : x y z
#
# Youngs Moduli (GPa) = 72.30280 10.61128 152.64854
#
# Poissons Ratio (x) = -0.01995 0.40318
# Poissons Ratio (y) = -0.13594 0.06956
# Poissons Ratio (z) = 0.19097 0.00484
#
# Static dielectric constant tensor:
#      x y z
#    x 1.841660 -0.021870 0.008430 
#    y -0.021870 1.867730 0.040000 
#    z 0.008430 0.040000 1.894440 
# 
# From -- ./inp_files/464348.got.cif
#   From: 2010.05.17/outbox.cif.g08.bks.cpg/sg2_233_cif.got.tgz:464348.got - 2010.06.03 11:33:40.
