data_PCOD9080259
_publ_section_title
;
Structure prediction by ZEFSAII (Michael W. Deem and Ramdas Pophale) SiO2 
 PCOD9080259
Probable space group: P -1
;
_chemical_formula_sum "Si O2"
_cell_formula_units_Z 12
_cell_length_a 9.286952
_cell_length_b 10.760057
_cell_length_c 14.190272
_cell_angle_alpha 150.673389
_cell_angle_beta 50.078727
_cell_angle_gamma 113.676443
_cell_volume 483.289194
_symmetry_space_group_name_H-M "P -1"
_symmetry_group_IT_number 2
_symmetry_cell_setting 'triclinic'
loop_
_space_group_symop_operation_xyz
x,y,z
-x,-y,-z
loop_
_atom_site_type_symbol
_atom_site_label
_atom_site_fract_x
_atom_site_fract_y
_atom_site_fract_z
Si Si1 0.477166 0.648774 0.251620
Si Si2 0.175096 0.443811 0.810091
Si Si3 0.869879 0.666011 0.440210
Si Si4 0.202478 0.769969 0.713796
Si Si5 0.351392 0.227714 0.932178
Si Si6 0.966770 0.065614 0.301752
O O1 0.614934 0.626890 0.269626
O O2 0.577544 0.729599 0.173257
O O3 0.243968 0.880657 0.517903
O O4 0.466592 0.354079 0.038398
O O5 0.187293 0.245279 0.585651
O O6 0.000000 0.500000 0.000000
O O7 0.090869 0.754061 0.005512
O O8 0.738419 0.512246 0.439424
O O9 0.883044 0.880457 0.652954
O O10 0.111145 0.444554 0.186915
O O11 0.125413 0.735567 0.618441
O O12 0.355169 0.924138 0.745992
O O13 0.000000 0.000000 0.000000
#
# Coordination Sequence:
#
# PCOD9080259 Si02
#       6
#     2   2   2   2   2   2
#     4  10  22  40  63  98 127 157 216 255 311 375
#     4  12  23  42  62  97 131 159 206 268 306 367
#     4  10  21  40  64  94 126 166 215 249 312 376
#     4  10  18  38  68  88 123 172 208 253 310 372
#     4   9  18  39  62  90 129 166 199 266 307 359
#     4  11  23  41  69  92 121 175 202 256 322 363
#
# _framework density 24.829854000000001
#
# number of rings (size 3 to 8) (size 9 to 14) (size 15 to 20)
#    0.000    1.667    5.000    0.500    0.000    3.333 
#    3.000    1.667    0.000    0.000    0.000    0.000 
#    0.000    0.000    0.000    0.000    0.000    0.000 
#
# Total GULP energy -67142.629358 kJ/mol
# GULP energy per Si atom -5595.219113 kJ/mol
# Density = 2.477334 g / cm^3
# Si number density = 24.829854 Si / 1000 Ang^3
#
#
#
# Elastic Constant Matrix: (Units=GPa)
#
#
# Indices 1 2 3 4 5 6 
#
# 1 159.1737 53.0051 30.6011 17.0250 38.7759 0.4849
# 2 53.0051 103.3252 8.4812 -11.9278 13.5888 9.7044
# 3 30.6011 8.4812 66.3177 -4.0209 19.0326 7.2086
# 4 17.0250 -11.9278 -4.0209 24.2626 -2.3982 7.4635
# 5 38.7759 13.5888 19.0326 -2.3982 52.7703 -1.4365
# 6 0.4849 9.7044 7.2086 7.4635 -1.4365 42.5689
#
#
#
# Elastic Compliance Matrix: (Units=1/GPa)
#
#
# Indices 1 2 3 4 5 6 
#
# 1 0.013020 -0.007746 -0.004662 -0.015887 -0.006478 0.004974
# 2 -0.007746 0.015723 0.002933 0.015833 0.001121 -0.006731
# 3 -0.004662 0.002933 0.019165 0.009223 -0.003975 -0.005612
# 4 -0.015887 0.015833 0.009223 0.067458 0.006885 -0.016585
# 5 -0.006478 0.001121 -0.003975 0.006885 0.025172 0.000134
# 6 0.004974 -0.006731 -0.005612 -0.016585 0.000134 0.028832
#
#
# Mechanical properties :
#
#
# Convention : Reuss Voigt Hill
#
# Bulk Modulus (GPa) = 34.53135 56.99904 45.76520
# Shear Modulus (GPa) = 25.25592 39.70232 32.47912
#
# Velocity S-wave (km/s) = 3.19275 4.00306 3.62064
# Velocity P-wave (km/s) = 5.24680 6.66120 5.99586
#
# Compressibility (1/GPa) = 0.02895919
#
# Stress axis : x y z
#
# Youngs Moduli (GPa) = 76.80294 63.59942 52.17772
#
# Poissons Ratio (x) = 0.49263 0.24326
# Poissons Ratio (y) = 0.59491 -0.15305
# Poissons Ratio (z) = 0.35807 -0.18655
#
# Static dielectric constant tensor:
#      x y z
#    x 1.969470 -0.002340 -0.002940 
#    y -0.002340 2.023840 0.042070 
#    z -0.002940 0.042070 1.976770 
# 
# From -- ./inp_files/165289.got.cif
#   From: 2010.05.17/outbox.cif.g08.bks.cpg/sg2_83_cif.got.tgz:165289.got - 2010.06.03 11:33:40.
