data_PCOD9080741
_publ_section_title
;
Structure prediction by ZEFSAII (Michael W. Deem and Ramdas Pophale) SiO2 
 PCOD9080741
Probable space group: P -1
;
_chemical_formula_sum "Si O2"
_cell_formula_units_Z 16
_cell_length_a 9.185647
_cell_length_b 13.687264
_cell_length_c 10.478783
_cell_angle_alpha 31.429345
_cell_angle_beta 79.187605
_cell_angle_gamma 69.385922
_cell_volume 625.583174
_symmetry_space_group_name_H-M "P -1"
_symmetry_group_IT_number 2
_symmetry_cell_setting 'triclinic'
loop_
_space_group_symop_operation_xyz
x,y,z
-x,-y,-z
loop_
_atom_site_type_symbol
_atom_site_label
_atom_site_fract_x
_atom_site_fract_y
_atom_site_fract_z
Si Si1 0.032602 0.834429 0.974370
Si Si2 0.580090 0.804179 0.090119
Si Si3 0.860209 0.789769 0.516785
Si Si4 0.855030 0.925799 0.640261
Si Si5 0.314181 0.400065 0.426750
Si Si6 0.790226 0.446601 0.303051
Si Si7 0.271142 0.912924 0.141443
Si Si8 0.599065 0.348243 0.259286
O O1 0.920228 0.838915 0.866122
O O2 0.107635 0.005862 0.748859
O O3 0.172202 0.619114 0.206490
O O4 0.903914 0.909165 0.028513
O O5 0.656514 0.676616 0.347757
O O6 0.671010 0.666877 0.113126
O O7 0.391716 0.848171 0.075057
O O8 0.622247 0.001810 0.879754
O O9 0.837941 0.795923 0.666972
O O10 0.730857 0.748479 0.496500
O O11 0.023871 0.605955 0.659884
O O12 0.685030 0.114447 0.467719
O O13 0.000000 0.000000 0.500000
O O14 0.476528 0.402175 0.337411
O O15 0.757150 0.279227 0.583704
O O16 0.750240 0.398999 0.220971
O O17 0.500000 0.500000 0.000000
#
# Coordination Sequence:
#
# PCOD9080741 Si02
#       8
#     2   2   2   2   2   2   2   2
#     4  10  21  42  68  91 136 182 217 268 333 398
#     4  11  24  42  69  98 135 173 227 278 319 394
#     4  10  23  41  67  97 132 182 218 264 337 400
#     4  10  18  42  67  89 131 178 216 259 329 400
#     4  12  26  42  65 108 135 162 232 282 318 382
#     4  11  22  45  72  93 131 187 219 257 349 398
#     4  10  21  43  66  93 130 180 221 267 329 396
#     4  12  24  44  70 103 134 168 224 284 322 395
#
# _framework density 25.576138
#
# number of rings (size 3 to 8) (size 9 to 14) (size 15 to 20)
#    0.000    1.250    5.000    2.625    0.000    4.000 
#    9.000    2.500    0.000    0.000    0.000    0.000 
#    0.000    0.000    0.000    0.000    0.000    0.000 
#
# Total GULP energy -89552.546389 kJ/mol
# GULP energy per Si atom -5597.034149 kJ/mol
# Density = 2.551793 g / cm^3
# Si number density = 25.576138 Si / 1000 Ang^3
#
#
#
# Elastic Constant Matrix: (Units=GPa)
#
#
# Indices 1 2 3 4 5 6 
#
# 1 94.4201 25.7154 23.4331 -2.2192 14.0522 -3.9142
# 2 25.7154 109.6536 25.3783 -23.9979 15.5208 -11.0653
# 3 23.4331 25.3783 102.6941 -27.6610 23.0873 -7.4259
# 4 -2.2192 -23.9979 -27.6610 44.5994 -1.2583 13.1781
# 5 14.0522 15.5208 23.0873 -1.2583 38.4162 -13.0133
# 6 -3.9142 -11.0653 -7.4259 13.1781 -13.0133 50.2060
#
#
#
# Elastic Compliance Matrix: (Units=1/GPa)
#
#
# Indices 1 2 3 4 5 6 
#
# 1 0.012096 -0.002495 -0.002268 -0.002237 -0.002092 0.000103
# 2 -0.002495 0.011511 0.000206 0.006154 -0.003731 -0.000209
# 3 -0.002268 0.000206 0.014512 0.009560 -0.008583 -0.002719
# 4 -0.002237 0.006154 0.009560 0.033857 -0.009247 -0.008688
# 5 -0.002092 -0.003731 -0.008583 -0.009247 0.036414 0.009611
# 6 0.000103 -0.000209 -0.002719 -0.008688 0.009611 0.024249
#
#
# Mechanical properties :
#
#
# Convention : Reuss Voigt Hill
#
# Bulk Modulus (GPa) = 34.47688 50.64682 42.56185
# Shear Modulus (GPa) = 33.02007 42.12706 37.57356
#
# Velocity S-wave (km/s) = 3.59702 4.06288 3.83702
# Velocity P-wave (km/s) = 5.54624 6.46952 6.02559
#
# Compressibility (1/GPa) = 0.02900494
#
# Stress axis : x y z
#
# Youngs Moduli (GPa) = 82.66895 86.87482 68.90695
#
# Poissons Ratio (x) = 0.21674 0.15631
# Poissons Ratio (y) = 0.20625 -0.01419
# Poissons Ratio (z) = 0.18753 -0.01789
#
# Static dielectric constant tensor:
#      x y z
#    x 1.974250 -0.011180 -0.033640 
#    y -0.011180 2.056640 0.001050 
#    z -0.033640 0.001050 2.050280 
# 
# From -- ./inp_files/398110.got.cif
#   From: 2010.05.17/outbox.cif.g08.bks.cpg/sg2_200_cif.got.tgz:398110.got - 2010.06.03 11:33:40.
