data_PCOD9080278
_publ_section_title
;
Structure prediction by ZEFSAII (Michael W. Deem and Ramdas Pophale) SiO2 
 PCOD9080278
Probable space group: P -1
;
_chemical_formula_sum "Si O2"
_cell_formula_units_Z 16
_cell_length_a 18.458355
_cell_length_b 8.428364
_cell_length_c 13.811969
_cell_angle_alpha 42.130562
_cell_angle_beta 33.945410
_cell_angle_gamma 42.183922
_cell_volume 758.184680
_symmetry_space_group_name_H-M "P -1"
_symmetry_group_IT_number 2
_symmetry_cell_setting 'triclinic'
loop_
_space_group_symop_operation_xyz
x,y,z
-x,-y,-z
loop_
_atom_site_type_symbol
_atom_site_label
_atom_site_fract_x
_atom_site_fract_y
_atom_site_fract_z
Si Si1 0.843735 0.319602 0.723014
Si Si2 0.891741 0.938928 0.575406
Si Si3 0.289609 0.238478 0.455131
Si Si4 0.009466 0.819796 0.191397
Si Si5 0.457945 0.259135 0.631184
Si Si6 0.245660 0.139451 0.045381
Si Si7 0.026075 0.648751 0.036551
Si Si8 0.246439 0.500019 0.584870
O O1 0.730277 0.572489 0.697583
O O2 0.877626 0.339713 0.787405
O O3 0.786925 0.095322 0.859228
O O4 0.995608 0.254674 0.531849
O O5 0.803980 0.195307 0.501558
O O6 0.794523 0.859119 0.796213
O O7 0.000000 0.000000 0.500000
O O8 0.142363 0.196283 0.635654
O O9 0.303725 0.394638 0.463345
O O10 0.410089 0.975797 0.438123
O O11 0.061353 0.736498 0.063406
O O12 0.991700 0.103190 0.115916
O O13 0.500000 0.500000 0.500000
O O14 0.351639 0.358250 0.615257
O O15 0.390363 0.158059 0.842211
O O16 0.142907 0.394198 0.997254
O O17 0.888416 0.581008 0.220864
#
# Coordination Sequence:
#
# PCOD9080278 Si02
#       8
#     2   2   2   2   2   2   2   2
#     4  11  21  39  71 100 122 164 209 272 319 374
#     4  10  18  38  68  99 123 149 207 269 324 365
#     4  11  23  43  62  90 133 171 208 251 318 383
#     4  10  22  36  64 100 132 160 205 269 322 367
#     4  12  29  44  62  91 128 178 217 257 306 386
#     4  11  22  41  65  93 127 163 212 261 316 375
#     4  10  20  38  64  99 129 160 208 268 323 371
#     4  11  21  43  69  89 124 171 212 263 319 371
#
# _framework density 21.103037
#
# number of rings (size 3 to 8) (size 9 to 14) (size 15 to 20)
#    0.000    1.250    5.000    3.000    3.500    1.500 
#    0.000    1.875    0.000    0.000    0.000    0.000 
#    0.000    0.000    0.000    0.000    0.000    0.000 
#
# Total GULP energy -89291.933137 kJ/mol
# GULP energy per Si atom -5580.745821 kJ/mol
# Density = 2.105501 g / cm^3
# Si number density = 21.103037 Si / 1000 Ang^3
#
#
#
# Elastic Constant Matrix: (Units=GPa)
#
#
# Indices 1 2 3 4 5 6 
#
# 1 78.4819 19.6016 8.1043 2.2127 14.3663 -16.6409
# 2 19.6016 125.1558 4.8352 -11.4976 -2.7672 -25.2999
# 3 8.1043 4.8352 68.5880 -13.2971 2.9826 1.7046
# 4 2.2127 -11.4976 -13.2971 30.8080 1.6221 -0.2090
# 5 14.3663 -2.7672 2.9826 1.6221 16.6699 -7.3129
# 6 -16.6409 -25.2999 1.7046 -0.2090 -7.3129 22.7617
#
#
#
# Elastic Compliance Matrix: (Units=1/GPa)
#
#
# Indices 1 2 3 4 5 6 
#
# 1 0.016965 -0.001553 -0.001980 -0.002016 -0.011160 0.007221
# 2 -0.001553 0.011941 -0.000723 0.003843 0.009824 0.015383
# 3 -0.001980 -0.000723 0.016562 0.007208 -0.004168 -0.004764
# 4 -0.002016 0.003843 0.007208 0.037249 -0.001628 0.002077
# 5 -0.011160 0.009824 -0.004168 -0.001628 0.085538 0.030540
# 6 0.007221 0.015383 -0.004764 0.002077 0.030540 0.076499
#
#
# Mechanical properties :
#
#
# Convention : Reuss Voigt Hill
#
# Bulk Modulus (GPa) = 27.05878 37.47867 32.26872
# Shear Modulus (GPa) = 18.82641 30.02688 24.42664
#
# Velocity S-wave (km/s) = 2.99008 3.77619 3.40589
# Velocity P-wave (km/s) = 4.97703 6.06722 5.54896
#
# Compressibility (1/GPa) = 0.03695658
#
# Stress axis : x y z
#
# Youngs Moduli (GPa) = 58.94504 83.74466 60.37993
#
# Poissons Ratio (x) = 0.13003 0.11956
# Poissons Ratio (y) = 0.09152 0.04364
# Poissons Ratio (z) = 0.11672 0.06053
#
# Static dielectric constant tensor:
#      x y z
#    x 1.768870 0.018290 0.066760 
#    y 0.018290 1.787310 -0.020030 
#    z 0.066760 -0.020030 1.835760 
# 
# From -- ./inp_files/406709.got.cif
#   From: 2010.05.17/outbox.cif.g08.bks.cpg/sg2_204_cif.got.tgz:406709.got - 2010.06.03 11:33:40.
