data_PCOD9080649
_publ_section_title
;
Structure prediction by ZEFSAII (Michael W. Deem and Ramdas Pophale) SiO2 
 PCOD9080649
Probable space group: P -1
;
_chemical_formula_sum "Si O2"
_cell_formula_units_Z 14
_cell_length_a 6.546801
_cell_length_b 21.612568
_cell_length_c 16.301143
_cell_angle_alpha 159.113702
_cell_angle_beta 108.846193
_cell_angle_gamma 60.006232
_cell_volume 629.952858
_symmetry_space_group_name_H-M "P -1"
_symmetry_group_IT_number 2
_symmetry_cell_setting 'triclinic'
loop_
_space_group_symop_operation_xyz
x,y,z
-x,-y,-z
loop_
_atom_site_type_symbol
_atom_site_label
_atom_site_fract_x
_atom_site_fract_y
_atom_site_fract_z
Si Si1 0.694243 0.751989 0.051367
Si Si2 0.802868 0.256552 0.288599
Si Si3 0.233906 0.757072 0.910326
Si Si4 0.398756 0.161128 0.609343
Si Si5 0.791730 0.459322 0.849019
Si Si6 0.678550 0.223243 0.413866
Si Si7 0.892925 0.544260 0.400410
O O1 0.587532 0.996874 0.358620
O O2 0.433851 0.764717 0.005576
O O3 0.813688 0.604800 0.965581
O O4 0.919558 0.621787 0.851662
O O5 0.646224 0.293694 0.229542
O O6 0.692640 0.310919 0.434648
O O7 0.964517 0.357194 0.421444
O O8 0.000000 0.000000 0.000000
O O9 0.163802 0.593319 0.720702
O O10 0.948727 0.987624 0.161751
O O11 0.087135 0.272762 0.687407
O O12 0.500000 0.000000 0.500000
O O13 0.392287 0.366659 0.889062
O O14 0.673662 0.358752 0.656573
O O15 0.398953 0.255063 0.418963
#
# Coordination Sequence:
#
# PCOD9080649 Si02
#       7
#     2   2   2   2   2   2   2
#     4  11  22  40  65  96 132 170 213 261 326 380
#     4  10  24  43  65  92 130 175 222 265 320 377
#     4  11  24  40  66  94 131 173 219 270 314 381
#     4   9  20  36  71  98 120 167 216 258 322 385
#     4  10  18  40  68  93 127 170 211 263 318 382
#     4  11  23  42  65  94 133 172 218 266 323 378
#     4  12  24  40  64  97 132 171 216 267 324 376
#
# _framework density 22.223884000000002
#
# number of rings (size 3 to 8) (size 9 to 14) (size 15 to 20)
#    0.000    1.429    4.286    0.429    0.000    9.143 
#    0.000    0.714    0.000    5.143    0.000    0.000 
#    0.000    0.000    0.000    0.000    0.000    0.000 
#
# Total GULP energy -78102.799388 kJ/mol
# GULP energy per Si atom -5578.771385 kJ/mol
# Density = 2.217330 g / cm^3
# Si number density = 22.223884 Si / 1000 Ang^3
#
#
#
# Elastic Constant Matrix: (Units=GPa)
#
#
# Indices 1 2 3 4 5 6 
#
# 1 57.6231 30.4081 28.7356 6.8168 -5.6274 -11.6388
# 2 30.4081 123.7350 34.5917 6.8530 -6.3567 -13.6368
# 3 28.7356 34.5917 135.8004 -7.2340 -19.0177 -6.0968
# 4 6.8168 6.8530 -7.2340 44.8952 -6.5695 -0.7896
# 5 -5.6274 -6.3567 -19.0177 -6.5695 28.3390 8.5378
# 6 -11.6388 -13.6368 -6.0968 -0.7896 8.5378 20.3457
#
#
#
# Elastic Compliance Matrix: (Units=1/GPa)
#
#
# Indices 1 2 3 4 5 6 
#
# 1 0.023704 -0.003313 -0.004344 -0.004077 -0.003289 0.011259
# 2 -0.003313 0.009960 -0.001906 -0.001457 -0.001479 0.004773
# 3 -0.004344 -0.001906 0.009801 0.003521 0.007224 -0.003721
# 4 -0.004077 -0.001457 0.003521 0.024833 0.008439 -0.004831
# 5 -0.003289 -0.001479 0.007224 0.008439 0.047187 -0.020181
# 6 0.011259 0.004773 -0.003721 -0.004831 -0.020181 0.065957
#
#
# Mechanical properties :
#
#
# Convention : Reuss Voigt Hill
#
# Bulk Modulus (GPa) = 41.08891 56.06992 48.57941
# Shear Modulus (GPa) = 23.96003 33.61085 28.78544
#
# Velocity S-wave (km/s) = 3.28704 3.89315 3.60286
# Velocity P-wave (km/s) = 5.73889 6.74486 6.26211
#
# Compressibility (1/GPa) = 0.02433747
#
# Stress axis : x y z
#
# Youngs Moduli (GPa) = 42.18665 100.40477 102.03271
#
# Poissons Ratio (x) = 0.33266 0.44324
# Poissons Ratio (y) = 0.13977 0.19451
# Poissons Ratio (z) = 0.18326 0.19140
#
# Static dielectric constant tensor:
#      x y z
#    x 1.785400 0.038980 -0.042300 
#    y 0.038980 1.859480 0.000500 
#    z -0.042300 0.000500 1.892760 
# 
# From -- ./inp_files/551305.got.cif
#   From: 2010.05.17/outbox.cif.g08.bks.cpg/sg2_276_cif.got.tgz:551305.got - 2010.06.03 11:33:40.
