data_PCOD9080583
_publ_section_title
;
Structure prediction by ZEFSAII (Michael W. Deem and Ramdas Pophale) SiO2 
 PCOD9080583
Probable space group: P -1
;
_chemical_formula_sum "Si O2"
_cell_formula_units_Z 16
_cell_length_a 15.364887
_cell_length_b 14.708840
_cell_length_c 11.115060
_cell_angle_alpha 31.943112
_cell_angle_beta 113.300379
_cell_angle_gamma 136.037207
_cell_volume 747.567973
_symmetry_space_group_name_H-M "P -1"
_symmetry_group_IT_number 2
_symmetry_cell_setting 'triclinic'
loop_
_space_group_symop_operation_xyz
x,y,z
-x,-y,-z
loop_
_atom_site_type_symbol
_atom_site_label
_atom_site_fract_x
_atom_site_fract_y
_atom_site_fract_z
Si Si1 0.684881 0.283346 0.276554
Si Si2 0.802987 0.647603 0.538038
Si Si3 0.505184 0.693985 0.235479
Si Si4 0.822995 0.196762 0.275501
Si Si5 0.674760 0.183721 0.647312
Si Si6 0.178363 0.286027 0.789370
Si Si7 0.377752 0.951677 0.859252
Si Si8 0.168008 0.159744 0.192434
O O1 0.756984 0.265837 0.235001
O O2 0.731088 0.274206 0.441374
O O3 0.500000 0.000000 0.500000
O O4 0.745041 0.566036 0.992966
O O5 0.660418 0.515537 0.685555
O O6 0.763317 0.675880 0.354446
O O7 0.755589 0.379247 0.813949
O O8 0.981576 0.928724 0.351180
O O9 0.500000 0.500000 0.500000
O O10 0.546100 0.875297 0.169345
O O11 0.639676 0.941652 0.939984
O O12 0.710656 0.028854 0.286059
O O13 0.811812 0.002658 0.561581
O O14 0.000000 0.500000 0.000000
O O15 0.796318 0.473304 0.458646
O O16 0.514654 0.060138 0.731558
O O17 0.226120 0.268458 0.962395
O O18 0.000000 0.000000 0.000000
#
# Coordination Sequence:
#
# PCOD9080583 Si02
#       8
#     2   2   2   2   2   2   2   2
#     4  11  25  45  67  97 137 183 229 276 338 398
#     4  10  18  40  64  89 131 174 216 271 342 390
#     4  11  23  35  65 105 129 171 223 283 337 404
#     4  12  26  45  69  98 139 182 228 280 334 413
#     4  10  19  41  64  92 131 170 220 280 329 396
#     4   9  17  34  64  88 121 168 216 264 333 395
#     4  11  20  40  68  91 133 180 218 269 344 394
#     4  10  24  41  67  99 128 183 224 274 343 400
#
# _framework density 21.402736000000001
#
# number of rings (size 3 to 8) (size 9 to 14) (size 15 to 20)
#    0.000    1.500    5.000    0.750    0.000    4.000 
#    0.000    0.000    0.000    6.750    0.000    0.000 
#    0.000    0.000    0.000    0.000    0.000    0.000 
#
# Total GULP energy -89087.596344 kJ/mol
# GULP energy per Si atom -5567.974771 kJ/mol
# Density = 2.135402 g / cm^3
# Si number density = 21.402736 Si / 1000 Ang^3
#
#
#
# Elastic Constant Matrix: (Units=GPa)
#
#
# Indices 1 2 3 4 5 6 
#
# 1 56.0817 20.3461 27.2260 -12.1321 2.1941 0.7989
# 2 20.3461 62.8052 22.7143 -8.1407 1.3638 10.1087
# 3 27.2260 22.7143 149.0510 -15.6533 17.7964 9.6686
# 4 -12.1321 -8.1407 -15.6533 49.9904 9.5445 -3.0043
# 5 2.1941 1.3638 17.7964 9.5445 37.5929 4.6029
# 6 0.7989 10.1087 9.6686 -3.0043 4.6029 23.5124
#
#
#
# Elastic Compliance Matrix: (Units=1/GPa)
#
#
# Indices 1 2 3 4 5 6 
#
# 1 0.022332 -0.006297 -0.002804 0.003982 -0.001230 0.003851
# 2 -0.006297 0.019793 -0.001436 0.000553 0.001151 -0.007860
# 3 -0.002804 -0.001436 0.008283 0.002369 -0.004113 -0.001586
# 4 0.003982 0.000553 0.002369 0.023466 -0.007719 0.003162
# 5 -0.001230 0.001151 -0.004113 -0.007719 0.031256 -0.005867
# 6 0.003851 -0.007860 -0.001586 0.003162 -0.005867 0.047984
#
#
# Mechanical properties :
#
#
# Convention : Reuss Voigt Hill
#
# Bulk Modulus (GPa) = 34.09033 45.39008 39.74020
# Shear Modulus (GPa) = 27.17892 35.39590 31.28741
#
# Velocity S-wave (km/s) = 3.56740 4.07111 3.82755
# Velocity P-wave (km/s) = 5.73856 6.58424 6.17589
#
# Compressibility (1/GPa) = 0.02933383
#
# Stress axis : x y z
#
# Youngs Moduli (GPa) = 44.77889 50.52209 120.73184
#
# Poissons Ratio (x) = 0.31816 0.33856
# Poissons Ratio (y) = 0.28199 0.17331
# Poissons Ratio (z) = 0.12557 0.07253
#
# Static dielectric constant tensor:
#      x y z
#    x 1.843260 -0.043430 -0.028480 
#    y -0.043430 1.870720 0.041220 
#    z -0.028480 0.041220 1.833150 
# 
# From -- ./inp_files/455406.got.cif
#   From: 2010.05.17/outbox.cif.g08.bks.cpg/sg2_228_cif.got.tgz:455406.got - 2010.06.03 11:33:40.
