data_PCOD9080938
_publ_section_title
;
Structure prediction by ZEFSAII (Michael W. Deem and Ramdas Pophale) SiO2 
 PCOD9080938
Probable space group: P -1
;
_chemical_formula_sum "Si O2"
_cell_formula_units_Z 16
_cell_length_a 11.299018
_cell_length_b 11.745205
_cell_length_c 11.075547
_cell_angle_alpha 49.746344
_cell_angle_beta 112.463460
_cell_angle_gamma 72.247392
_cell_volume 645.610221
_symmetry_space_group_name_H-M "P -1"
_symmetry_group_IT_number 2
_symmetry_cell_setting 'triclinic'
loop_
_space_group_symop_operation_xyz
x,y,z
-x,-y,-z
loop_
_atom_site_type_symbol
_atom_site_label
_atom_site_fract_x
_atom_site_fract_y
_atom_site_fract_z
Si Si1 0.962527 0.212282 0.850402
Si Si2 0.333117 0.223438 0.386297
Si Si3 0.824314 0.103447 0.451677
Si Si4 0.115243 0.230673 0.120159
Si Si5 0.519431 0.654679 0.501581
Si Si6 0.653607 0.048441 0.242388
Si Si7 0.582113 0.278406 0.842021
Si Si8 0.989426 0.190342 0.604137
O O1 0.747278 0.432904 0.683969
O O2 0.947855 0.286358 0.656512
O O3 0.118646 0.153833 0.042071
O O4 0.000000 0.000000 0.000000
O O5 0.295391 0.177242 0.274710
O O6 0.460969 0.256849 0.436700
O O7 0.398541 0.047937 0.635922
O O8 0.097825 0.485623 0.147167
O O9 0.888657 0.902757 0.694876
O O10 0.653217 0.189300 0.238087
O O11 0.000000 0.000000 0.500000
O O12 0.808458 0.261160 0.424145
O O13 0.463096 0.541191 0.602766
O O14 0.400894 0.801363 0.231300
O O15 0.887964 0.815439 0.438331
O O16 0.518529 0.214141 0.959803
O O17 0.814990 0.101342 0.098881
#
# Coordination Sequence:
#
# PCOD9080938 Si02
#       8
#     2   2   2   2   2   2   2   2
#     4  11  16  28  50  74  96 121 155 195 237 275
#     4   9  17  30  46  69  97 123 156 196 235 270
#     4   9  14  24  45  70  92 116 152 197 226 262
#     4   9  17  27  43  71  98 118 155 197 233 275
#     4  10  19  30  48  71  95 123 154 201 233 274
#     4   8  17  29  46  72  92 124 157 195 231 274
#     4   9  18  31  46  71  95 119 161 197 230 275
#     4   9  16  28  46  72  92 119 155 192 229 274
#
# _framework density 24.782755000000002
#
# number of rings (size 3 to 8) (size 9 to 14) (size 15 to 20)
#    0.750    2.000    2.500    0.750    0.000    0.500 
#    0.000    2.500    0.000    1.500    0.000    0.000 
#    0.000    0.000    0.000    0.000    0.000    0.000 
#
# Total GULP energy -89201.745144 kJ/mol
# GULP energy per Si atom -5575.109071 kJ/mol
# Density = 2.472635 g / cm^3
# Si number density = 24.782755 Si / 1000 Ang^3
#
#
#
# Elastic Constant Matrix: (Units=GPa)
#
#
# Indices 1 2 3 4 5 6 
#
# 1 73.1245 24.9555 22.5982 9.8350 -19.3402 -5.6054
# 2 24.9555 166.8892 34.0273 39.4270 -5.4875 -2.3544
# 3 22.5982 34.0273 100.8761 24.1762 -13.8711 -1.1825
# 4 9.8350 39.4270 24.1762 33.6675 1.3380 1.3950
# 5 -19.3402 -5.4875 -13.8711 1.3380 41.1356 16.2472
# 6 -5.6054 -2.3544 -1.1825 1.3950 16.2472 39.0470
#
#
#
# Elastic Compliance Matrix: (Units=1/GPa)
#
#
# Indices 1 2 3 4 5 6 
#
# 1 0.016946 -0.001387 -0.001731 -0.002352 0.007580 -0.000773
# 2 -0.001387 0.008494 -0.000214 -0.009427 0.000552 0.000414
# 3 -0.001731 -0.000214 0.013054 -0.008734 0.004388 -0.001380
# 4 -0.002352 -0.009427 -0.008734 0.047975 -0.006856 -0.000032
# 5 0.007580 0.000552 0.004388 -0.006856 0.034773 -0.012969
# 6 -0.000773 0.000414 -0.001380 -0.000032 -0.012969 0.030880
#
#
# Mechanical properties :
#
#
# Convention : Reuss Voigt Hill
#
# Bulk Modulus (GPa) = 31.41874 56.00574 43.71224
# Shear Modulus (GPa) = 29.51660 40.05727 34.78694
#
# Velocity S-wave (km/s) = 3.45485 4.02473 3.75063
# Velocity P-wave (km/s) = 5.34975 6.65174 6.03596
#
# Compressibility (1/GPa) = 0.03182814
#
# Stress axis : x y z
#
# Youngs Moduli (GPa) = 59.01244 117.72627 76.60578
#
# Poissons Ratio (x) = 0.16328 0.13263
# Poissons Ratio (y) = 0.08185 0.01643
# Poissons Ratio (z) = 0.10217 0.02524
#
# Static dielectric constant tensor:
#      x y z
#    x 2.023830 -0.066100 0.082150 
#    y -0.066100 2.034190 -0.008390 
#    z 0.082150 -0.008390 2.052800 
# 
# From -- ./inp_files/448660.got.cif
#   From: 2010.05.17/outbox.cif.g08.bks.cpg/sg2_225_cif.got.tgz:448660.got - 2010.06.03 11:33:40.
