data_PCOD9080456
_publ_section_title
;
Structure prediction by ZEFSAII (Michael W. Deem and Ramdas Pophale) SiO2 
 PCOD9080456
Probable space group: P -1
;
_chemical_formula_sum "Si O2"
_cell_formula_units_Z 16
_cell_length_a 20.396148
_cell_length_b 16.945301
_cell_length_c 7.971414
_cell_angle_alpha 39.111068
_cell_angle_beta 48.489198
_cell_angle_gamma 22.439867
_cell_volume 646.248138
_symmetry_space_group_name_H-M "P -1"
_symmetry_group_IT_number 2
_symmetry_cell_setting 'triclinic'
loop_
_space_group_symop_operation_xyz
x,y,z
-x,-y,-z
loop_
_atom_site_type_symbol
_atom_site_label
_atom_site_fract_x
_atom_site_fract_y
_atom_site_fract_z
Si Si1 0.193196 0.506880 0.735356
Si Si2 0.485091 0.326437 0.547985
Si Si3 0.819221 0.998685 0.727440
Si Si4 0.392869 0.032548 0.334674
Si Si5 0.776505 0.179067 0.984713
Si Si6 0.762504 0.578072 0.585303
Si Si7 0.871716 0.805577 0.314613
Si Si8 0.149382 0.790745 0.838490
O O1 0.317076 0.458864 0.686275
O O2 0.183118 0.539587 0.498654
O O3 0.997971 0.743475 0.746844
O O4 0.297417 0.250529 0.019340
O O5 0.545312 0.158373 0.573773
O O6 0.401560 0.557097 0.237692
O O7 0.645307 0.157828 0.675392
O O8 0.816154 0.154231 0.459799
O O9 0.839838 0.912103 0.016506
O O10 0.565355 0.869871 0.406871
O O11 0.250549 0.159333 0.498375
O O12 0.776261 0.234620 0.079205
O O13 0.943840 0.025611 0.848804
O O14 0.808964 0.991843 0.242224
O O15 0.920858 0.472331 0.545480
O O16 0.769210 0.449262 0.908849
#
# Coordination Sequence:
#
# PCOD9080456 Si02
#       8
#     2   2   2   2   2   2   2   2
#     4  11  23  46  68  95 122 162 222 272 312 362
#     4  11  22  41  69  97 121 162 217 267 317 365
#     4  12  26  40  61  96 138 174 202 250 320 389
#     4  11  24  43  70  94 123 162 222 270 311 366
#     4  10  19  38  67  93 130 157 211 267 313 372
#     4  10  21  42  70  94 123 161 215 270 317 363
#     4  11  27  41  57 101 135 173 205 247 321 390
#     4  10  18  39  66  95 128 160 207 266 318 367
#
# _framework density 24.758291
#
# number of rings (size 3 to 8) (size 9 to 14) (size 15 to 20)
#    0.000    1.250    3.750    4.500    1.750    8.000 
#    0.000    1.250    0.000    0.000    0.000    0.000 
#    0.000    0.000    0.000    0.000    0.000    0.000 
#
# Total GULP energy -89614.723686 kJ/mol
# GULP energy per Si atom -5600.920230 kJ/mol
# Density = 2.470194 g / cm^3
# Si number density = 24.758291 Si / 1000 Ang^3
#
#
#
# Elastic Constant Matrix: (Units=GPa)
#
#
# Indices 1 2 3 4 5 6 
#
# 1 32.3739 65.8875 5.0552 -8.7685 33.0745 -22.0238
# 2 65.8875 67.4504 40.9336 -17.9622 13.6156 -44.0646
# 3 5.0552 40.9336 106.1811 1.8551 18.7843 -14.3140
# 4 -8.7685 -17.9622 1.8551 48.2787 1.9156 4.0729
# 5 33.0745 13.6156 18.7843 1.9156 26.4143 -15.7251
# 6 -22.0238 -44.0646 -14.3140 4.0729 -15.7251 46.9439
#
#
#
# Elastic Compliance Matrix: (Units=1/GPa)
#
#
# Indices 1 2 3 4 5 6 
#
# 1 -0.005023 0.018797 -0.006796 0.004519 0.010917 0.016480
# 2 0.018797 0.005873 0.001936 0.005990 -0.024734 0.006117
# 3 -0.006796 0.001936 0.008854 -0.001157 0.002685 0.002329
# 4 0.004519 0.005990 -0.001157 0.023909 -0.008110 0.002599
# 5 0.010917 -0.024734 0.002685 -0.008110 0.032165 -0.005798
# 6 0.016480 0.006117 0.002329 0.002599 -0.005798 0.033318
#
#
# Mechanical properties :
#
#
# Convention : Reuss Voigt Hill
#
# Bulk Modulus (GPa) = 26.61026 47.75090 37.18058
# Shear Modulus (GPa) = 59.70280 30.60267 45.15273
#
# Velocity S-wave (km/s) = 4.91596 3.51957 4.27516
# Velocity P-wave (km/s) = 6.55694 5.98709 6.27849
#
# Compressibility (1/GPa) = 0.03757949
#
# Stress axis : x y z
#
# Youngs Moduli (GPa) = -199.07294 170.25686 112.94244
#
# Poissons Ratio (x) = -3.20032 0.76754
# Poissons Ratio (y) = 3.74197 -0.21870
# Poissons Ratio (z) = -1.35286 -0.32969
#
# Static dielectric constant tensor:
#      x y z
#    x 1.967620 0.016490 -0.027920 
#    y 0.016490 1.988210 0.021430 
#    z -0.027920 0.021430 1.932100 
# 
# From -- ./inp_files/271713.got.cif
#   From: 2010.05.17/outbox.cif.g08.bks.cpg/sg2_136_cif.got.tgz:271713.got - 2010.06.03 11:33:40.
