data_PCOD9080031
_publ_section_title
;
Structure prediction by ZEFSAII (Michael W. Deem and Ramdas Pophale) SiO2 
 PCOD9080031
Probable space group: P -1
;
_chemical_formula_sum "Si O2"
_cell_formula_units_Z 14
_cell_length_a 11.786255
_cell_length_b 11.603473
_cell_length_c 11.015355
_cell_angle_alpha 115.530380
_cell_angle_beta 76.553832
_cell_angle_gamma 50.908720
_cell_volume 732.132919
_symmetry_space_group_name_H-M "P -1"
_symmetry_group_IT_number 2
_symmetry_cell_setting 'triclinic'
loop_
_space_group_symop_operation_xyz
x,y,z
-x,-y,-z
loop_
_atom_site_type_symbol
_atom_site_label
_atom_site_fract_x
_atom_site_fract_y
_atom_site_fract_z
Si Si1 0.984793 0.706527 0.557046
Si Si2 0.343179 0.035496 0.901391
Si Si3 0.242487 0.323118 0.507293
Si Si4 0.386336 0.286489 0.097531
Si Si5 0.089616 0.523157 0.894157
Si Si6 0.173257 0.881557 0.303849
Si Si7 0.628891 0.535877 0.056759
O O1 0.809640 0.764537 0.583494
O O2 0.076914 0.573676 0.601779
O O3 0.179981 0.509078 0.326999
O O4 0.904541 0.922217 0.658997
O O5 0.523813 0.852625 0.672001
O O6 0.419581 0.893351 0.938687
O O7 0.348650 0.179579 0.004927
O O8 0.114812 0.216556 0.987867
O O9 0.201771 0.355389 0.674654
O O10 0.410335 0.361750 0.016922
O O11 0.250676 0.472380 0.894608
O O12 0.000000 0.500000 0.000000
O O13 0.396171 0.708771 0.236337
O O14 0.228597 0.716943 0.122885
O O15 0.000000 0.000000 0.500000
#
# Coordination Sequence:
#
# PCOD9080031 Si02
#       7
#     2   2   2   2   2   2   2
#     4  10  19  38  66  92 123 159 217 261 296 370
#     4  10  21  35  62  91 127 161 195 257 316 371
#     4  10  22  37  62  97 123 163 204 256 323 364
#     4  10  18  38  61  93 122 159 210 251 306 376
#     4  12  24  40  59  97 137 158 198 266 324 375
#     4  11  24  41  66  90 121 171 215 258 296 373
#     4  11  24  41  62  93 124 166 212 252 317 368
#
# _framework density 19.122209999999999
#
# number of rings (size 3 to 8) (size 9 to 14) (size 15 to 20)
#    0.000    1.429    4.286    0.857    4.000    1.714 
#    0.000    0.714    0.000    2.571    0.000    0.000 
#    0.000    0.000    0.000    0.000    0.000    0.000 
#
# Total GULP energy -78236.956906 kJ/mol
# GULP energy per Si atom -5588.354065 kJ/mol
# Density = 1.907869 g / cm^3
# Si number density = 19.122210 Si / 1000 Ang^3
#
#
#
# Elastic Constant Matrix: (Units=GPa)
#
#
# Indices 1 2 3 4 5 6 
#
# 1 82.0345 30.3454 33.8822 -3.5655 -6.0463 -5.8770
# 2 30.3454 89.0838 41.8170 -4.7253 8.3812 9.7530
# 3 33.8822 41.8170 96.8578 -6.4914 -4.2767 -0.6526
# 4 -3.5655 -4.7253 -6.4914 30.8405 6.4059 6.7417
# 5 -6.0463 8.3812 -4.2767 6.4059 31.4646 11.0601
# 6 -5.8770 9.7530 -0.6526 6.7417 11.0601 33.3933
#
#
#
# Elastic Compliance Matrix: (Units=1/GPa)
#
#
# Indices 1 2 3 4 5 6 
#
# 1 0.015639 -0.004331 -0.003517 -0.000866 0.002725 0.003221
# 2 -0.004331 0.016481 -0.005658 0.002873 -0.004950 -0.004627
# 3 -0.003517 -0.005658 0.014183 0.001147 0.002429 0.000275
# 4 -0.000866 0.002873 0.001147 0.035578 -0.005833 -0.006220
# 5 0.002725 -0.004950 0.002429 -0.005833 0.038519 -0.009607
# 6 0.003221 -0.004627 0.000275 -0.006220 -0.009607 0.036308
#
#
# Mechanical properties :
#
#
# Convention : Reuss Voigt Hill
#
# Bulk Modulus (GPa) = 51.83503 53.34061 52.58782
# Shear Modulus (GPa) = 26.29526 29.93511 28.11518
#
# Velocity S-wave (km/s) = 3.71228 3.96089 3.83860
# Velocity P-wave (km/s) = 6.74839 6.99094 6.87074
#
# Compressibility (1/GPa) = 0.01929197
#
# Stress axis : x y z
#
# Youngs Moduli (GPa) = 63.94444 60.67528 70.50623
#
# Poissons Ratio (x) = 0.26280 0.24795
# Poissons Ratio (y) = 0.27696 0.39889
# Poissons Ratio (z) = 0.22487 0.34327
#
# Static dielectric constant tensor:
#      x y z
#    x 1.653030 0.005370 -0.028350 
#    y 0.005370 1.676130 0.011680 
#    z -0.028350 0.011680 1.695980 
# 
# From -- ./inp_files/306948.got.cif
#   From: 2010.05.17/outbox.cif.g08.bks.cpg/sg2_154_cif.got.tgz:306948.got - 2010.06.03 11:33:40.
