data_PCOD9080184
_publ_section_title
;
Structure prediction by ZEFSAII (Michael W. Deem and Ramdas Pophale) SiO2 
 PCOD9080184
Probable space group: P -1
;
_chemical_formula_sum "Si O2"
_cell_formula_units_Z 14
_cell_length_a 12.006215
_cell_length_b 9.583282
_cell_length_c 7.668648
_cell_angle_alpha 130.973645
_cell_angle_beta 61.881962
_cell_angle_gamma 102.875719
_cell_volume 582.615056
_symmetry_space_group_name_H-M "P -1"
_symmetry_group_IT_number 2
_symmetry_cell_setting 'triclinic'
loop_
_space_group_symop_operation_xyz
x,y,z
-x,-y,-z
loop_
_atom_site_type_symbol
_atom_site_label
_atom_site_fract_x
_atom_site_fract_y
_atom_site_fract_z
Si Si1 0.039733 0.520967 0.685596
Si Si2 0.623718 0.487812 0.773467
Si Si3 0.263540 0.580280 0.784746
Si Si4 0.529413 0.195214 0.057390
Si Si5 0.700061 0.104760 0.509309
Si Si6 0.230776 0.317483 0.891354
Si Si7 0.931418 0.182886 0.616173
O O1 0.179805 0.568092 0.663087
O O2 0.000000 0.500000 0.500000
O O3 0.032747 0.317908 0.603077
O O4 0.923511 0.657089 0.972276
O O5 0.650107 0.265199 0.541324
O O6 0.500000 0.500000 0.000000
O O7 0.586918 0.647547 0.786463
O O8 0.730020 0.548007 0.875328
O O9 0.282306 0.389042 0.728246
O O10 0.386060 0.687423 0.785399
O O11 0.163908 0.706535 0.086344
O O12 0.612733 0.140435 0.776124
O O13 0.500000 0.000000 0.000000
O O14 0.843545 0.134682 0.481682
O O15 0.707136 0.889807 0.278173
O O16 0.000000 0.000000 0.500000
#
# Coordination Sequence:
#
# PCOD9080184 Si02
#       7
#     2   2   2   2   2   2   2
#     4  11  23  41  64  97 137 164 211 287 331 377
#     4  10  19  41  66  95 133 162 231 270 309 395
#     4  10  20  41  66  93 129 175 223 258 328 411
#     4  10  22  43  65  97 137 169 213 281 331 377
#     4  10  20  38  70  97 122 177 222 259 321 390
#     4  11  20  42  71  98 126 177 223 261 326 403
#     4  10  18  38  65  93 128 169 217 259 320 404
#
# _framework density 24.029588
#
# number of rings (size 3 to 8) (size 9 to 14) (size 15 to 20)
#    0.000    1.714    5.714    3.429    0.000    2.286 
#   10.286    3.571    0.000    0.000    0.000    0.000 
#    0.000    0.000    0.000    0.000    0.000    0.000 
#
# Total GULP energy -78278.867132 kJ/mol
# GULP energy per Si atom -5591.347652 kJ/mol
# Density = 2.397490 g / cm^3
# Si number density = 24.029588 Si / 1000 Ang^3
#
#
#
# Elastic Constant Matrix: (Units=GPa)
#
#
# Indices 1 2 3 4 5 6 
#
# 1 134.6368 63.6410 13.2620 1.1315 1.7833 -7.4332
# 2 63.6410 188.3088 56.6027 32.5888 -16.6005 -22.2212
# 3 13.2620 56.6027 53.2397 26.7592 1.4323 -10.7314
# 4 1.1315 32.5888 26.7592 48.0986 -15.0645 -9.6694
# 5 1.7833 -16.6005 1.4323 -15.0645 38.4440 -1.1456
# 6 -7.4332 -22.2212 -10.7314 -9.6694 -1.1456 41.9231
#
#
#
# Elastic Compliance Matrix: (Units=1/GPa)
#
#
# Indices 1 2 3 4 5 6 
#
# 1 0.009113 -0.003780 0.001229 0.001183 -0.001633 0.000155
# 2 -0.003780 0.010215 -0.010031 0.000954 0.005410 0.002544
# 3 0.001229 -0.010031 0.039169 -0.019180 -0.013360 0.000138
# 4 0.001183 0.000954 -0.019180 0.036597 0.015552 0.004672
# 5 -0.001633 0.005410 -0.013360 0.015552 0.035126 0.003705
# 6 0.000155 0.002544 0.000138 0.004672 0.003705 0.026444
#
#
# Mechanical properties :
#
#
# Convention : Reuss Voigt Hill
#
# Bulk Modulus (GPa) = 29.99933 71.46631 50.73282
# Shear Modulus (GPa) = 25.91505 41.87177 33.89341
#
# Velocity S-wave (km/s) = 3.28756 4.17887 3.75972
# Velocity P-wave (km/s) = 5.18866 7.28625 6.32501
#
# Compressibility (1/GPa) = 0.03333408
#
# Stress axis : x y z
#
# Youngs Moduli (GPa) = 109.73170 97.89578 25.53034
#
# Poissons Ratio (x) = 0.37001 -0.03138
# Poissons Ratio (y) = 0.41474 0.25610
# Poissons Ratio (z) = -0.13487 0.98200
#
# Static dielectric constant tensor:
#      x y z
#    x 2.626830 -0.254720 -0.143060 
#    y -0.254720 2.042500 -0.039020 
#    z -0.143060 -0.039020 2.034070 
# 
# From -- ./inp_files/215563.got.cif
#   From: 2010.05.17/outbox.cif.g08.bks.cpg/sg2_108_cif.got.tgz:215563.got - 2010.06.03 11:33:40.
