data_PCOD9080260
_publ_section_title
;
Structure prediction by ZEFSAII (Michael W. Deem and Ramdas Pophale) SiO2 
 PCOD9080260
Probable space group: P -1
;
_chemical_formula_sum "Si O2"
_cell_formula_units_Z 16
_cell_length_a 11.862629
_cell_length_b 11.451977
_cell_length_c 8.859927
_cell_angle_alpha 115.829013
_cell_angle_beta 94.153930
_cell_angle_gamma 49.624220
_cell_volume 785.753124
_symmetry_space_group_name_H-M "P -1"
_symmetry_group_IT_number 2
_symmetry_cell_setting 'triclinic'
loop_
_space_group_symop_operation_xyz
x,y,z
-x,-y,-z
loop_
_atom_site_type_symbol
_atom_site_label
_atom_site_fract_x
_atom_site_fract_y
_atom_site_fract_z
Si Si1 0.527608 0.611186 0.153523
Si Si2 0.029867 0.172759 0.132676
Si Si3 0.604223 0.089828 0.939533
Si Si4 0.979864 0.982256 0.236332
Si Si5 0.769090 0.102660 0.566246
Si Si6 0.461301 0.157072 0.273333
Si Si7 0.327941 0.095394 0.598838
Si Si8 0.227037 0.438259 0.666150
O O1 0.477118 0.765474 0.120309
O O2 0.405444 0.710965 0.334862
O O3 0.688940 0.521225 0.196174
O O4 0.500000 0.500000 0.000000
O O5 0.950453 0.125960 0.203222
O O6 0.944562 0.373956 0.277001
O O7 0.214592 0.018673 0.088845
O O8 0.003362 0.154453 0.946023
O O9 0.599967 0.939151 0.823173
O O10 0.507873 0.189336 0.140520
O O11 0.847667 0.065719 0.393722
O O12 0.132281 0.899467 0.299852
O O13 0.758165 0.957221 0.517520
O O14 0.336248 0.325282 0.465866
O O15 0.623249 0.000257 0.288657
O O16 0.229813 0.301858 0.683469
O O17 0.500000 0.000000 0.500000
#
# Coordination Sequence:
#
# PCOD9080260 Si02
#       8
#     2   2   2   2   2   2   2   2
#     4  12  23  39  66  92 124 169 213 261 303 377
#     4  11  24  42  61  95 131 167 201 267 318 371
#     4  11  23  42  67  91 130 167 212 255 323 373
#     4  10  24  40  63  86 131 167 209 247 321 381
#     4  11  20  42  65  90 117 174 213 254 306 381
#     4  10  21  41  68  94 122 168 213 263 308 379
#     4  10  18  38  68  89 118 163 214 256 308 371
#     4  11  23  40  65  96 127 158 218 262 314 368
#
# _framework density 20.362629999999999
#
# number of rings (size 3 to 8) (size 9 to 14) (size 15 to 20)
#    0.000    1.250    5.000    2.250    1.750    1.500 
#    0.000    3.750    0.000    0.000    0.000    0.000 
#    0.000    0.000    0.000    0.000    0.000    0.000 
#
# Total GULP energy -89279.481784 kJ/mol
# GULP energy per Si atom -5579.967611 kJ/mol
# Density = 2.031628 g / cm^3
# Si number density = 20.362630 Si / 1000 Ang^3
#
#
#
# Elastic Constant Matrix: (Units=GPa)
#
#
# Indices 1 2 3 4 5 6 
#
# 1 73.3538 -4.4859 15.2229 -6.2874 -1.4973 -2.2531
# 2 -4.4859 36.1530 17.4044 2.5282 -20.4762 -2.7614
# 3 15.2229 17.4044 95.3983 -9.7979 -8.1572 -0.1688
# 4 -6.2874 2.5282 -9.7979 30.5873 5.5505 2.6320
# 5 -1.4973 -20.4762 -8.1572 5.5505 29.8383 -1.1701
# 6 -2.2531 -2.7614 -0.1688 2.6320 -1.1701 19.4977
#
#
#
# Elastic Compliance Matrix: (Units=1/GPa)
#
#
# Indices 1 2 3 4 5 6 
#
# 1 0.014802 0.005476 -0.002967 0.000755 0.003650 0.002577
# 2 0.005476 0.058261 -0.009547 -0.015339 0.041022 0.013334
# 3 -0.002967 -0.009547 0.012872 0.005297 -0.004267 -0.002555
# 4 0.000755 -0.015339 0.005297 0.039571 -0.016730 -0.008385
# 5 0.003650 0.041022 -0.004267 -0.016730 0.064276 0.012310
# 6 0.002577 0.013334 -0.002555 -0.008385 0.012310 0.055323
#
#
# Mechanical properties :
#
#
# Convention : Reuss Voigt Hill
#
# Bulk Modulus (GPa) = 13.91608 29.02087 21.46847
# Shear Modulus (GPa) = 17.65960 27.76893 22.71427
#
# Velocity S-wave (km/s) = 2.94812 3.69686 3.34352
# Velocity P-wave (km/s) = 4.29389 5.70135 5.04692
#
# Compressibility (1/GPa) = 0.07185934
#
# Stress axis : x y z
#
# Youngs Moduli (GPa) = 67.56050 17.16426 77.68717
#
# Poissons Ratio (x) = -0.09400 0.23048
# Poissons Ratio (y) = -0.36998 0.74168
# Poissons Ratio (z) = 0.20043 0.16387
#
# Static dielectric constant tensor:
#      x y z
#    x 1.744700 -0.004290 0.034370 
#    y -0.004290 1.724200 -0.024090 
#    z 0.034370 -0.024090 1.774830 
# 
# From -- ./inp_files/260118.got.cif
#   From: 2010.05.17/outbox.cif.g08.bks.cpg/sg2_131_cif.got.tgz:260118.got - 2010.06.03 11:33:40.
