data_PCOD9080618
_publ_section_title
;
Structure prediction by ZEFSAII (Michael W. Deem and Ramdas Pophale) SiO2 
 PCOD9080618
Probable space group: P -1
;
_chemical_formula_sum "Si O2"
_cell_formula_units_Z 12
_cell_length_a 7.328229
_cell_length_b 10.747844
_cell_length_c 10.207968
_cell_angle_alpha 139.103260
_cell_angle_beta 64.896827
_cell_angle_gamma 124.588364
_cell_volume 433.326847
_symmetry_space_group_name_H-M "P -1"
_symmetry_group_IT_number 2
_symmetry_cell_setting 'triclinic'
loop_
_space_group_symop_operation_xyz
x,y,z
-x,-y,-z
loop_
_atom_site_type_symbol
_atom_site_label
_atom_site_fract_x
_atom_site_fract_y
_atom_site_fract_z
Si Si1 0.686218 0.856645 0.948301
Si Si2 0.178409 0.723721 0.900613
Si Si3 0.685011 0.473068 0.513776
Si Si4 0.561329 0.747263 0.191210
Si Si5 0.273349 0.139475 0.488447
Si Si6 0.912054 0.297450 0.741714
O O1 0.429704 0.782771 0.920871
O O2 0.762138 0.674975 0.741500
O O3 0.670109 0.860210 0.112803
O O4 0.822875 0.064661 0.988732
O O5 0.146189 0.578989 0.665009
O O6 0.014476 0.551210 0.913896
O O7 0.500000 0.500000 0.500000
O O8 0.525276 0.262100 0.467460
O O9 0.715985 0.838547 0.340517
O O10 0.326345 0.757834 0.295238
O O11 0.500000 0.500000 0.000000
O O12 0.112549 0.248219 0.581133
O O13 0.175581 0.899324 0.284716
#
# Coordination Sequence:
#
# PCOD9080618 Si02
#       6
#     2   2   2   2   2   2
#     4  10  21  40  67  97 135 180 218 276 343 394
#     4  10  21  41  68 100 132 179 229 273 334 408
#     4  10  18  40  66  94 131 177 218 267 343 393
#     4  12  24  44  67  99 142 173 222 285 339 399
#     4  11  23  44  70  99 135 176 227 281 338 399
#     4  11  24  43  70 104 128 181 232 274 335 406
#
# _framework density 27.692720999999999
#
# number of rings (size 3 to 8) (size 9 to 14) (size 15 to 20)
#    0.000    1.333    5.000    1.500    0.000    2.667 
#    3.000    4.167    0.000    0.000    0.000    0.000 
#    0.000    0.000    0.000    0.000    0.000    0.000 
#
# Total GULP energy -67097.781518 kJ/mol
# GULP energy per Si atom -5591.481793 kJ/mol
# Density = 2.762969 g / cm^3
# Si number density = 27.692721 Si / 1000 Ang^3
#
#
#
# Elastic Constant Matrix: (Units=GPa)
#
#
# Indices 1 2 3 4 5 6 
#
# 1 145.2731 37.5735 43.8000 12.1298 -14.7729 -10.4548
# 2 37.5735 243.0280 73.9269 35.1259 8.0439 -38.0145
# 3 43.8000 73.9269 134.8569 43.7215 -6.4859 -28.2724
# 4 12.1298 35.1259 43.7215 76.2986 -12.7255 -21.6009
# 5 -14.7729 8.0439 -6.4859 -12.7255 39.4156 9.0482
# 6 -10.4548 -38.0145 -28.2724 -21.6009 9.0482 84.0004
#
#
#
# Elastic Compliance Matrix: (Units=1/GPa)
#
#
# Indices 1 2 3 4 5 6 
#
# 1 0.008027 -0.000796 -0.002365 0.000893 0.003131 -0.000265
# 2 -0.000796 0.005371 -0.002114 -0.001091 -0.002463 0.001605
# 3 -0.002365 -0.002114 0.011133 -0.004730 -0.000455 0.001329
# 4 0.000893 -0.001091 -0.004730 0.017578 0.004993 0.002008
# 5 0.003131 -0.002463 -0.000455 0.004993 0.029213 -0.002741
# 6 -0.000265 0.001605 0.001329 0.002008 -0.002741 0.013857
#
#
# Mechanical properties :
#
#
# Convention : Reuss Voigt Hill
#
# Bulk Modulus (GPa) = 71.52821 92.63987 82.08404
# Shear Modulus (GPa) = 49.80582 64.46675 57.13629
#
# Velocity S-wave (km/s) = 4.24549 4.83010 4.54720
# Velocity P-wave (km/s) = 7.06524 8.03940 7.56801
#
# Compressibility (1/GPa) = 0.01398050
#
# Stress axis : x y z
#
# Youngs Moduli (GPa) = 124.57472 186.18014 89.82659
#
# Poissons Ratio (x) = 0.14813 0.21248
# Poissons Ratio (y) = 0.09911 0.18991
# Poissons Ratio (z) = 0.29467 0.39363
#
# Static dielectric constant tensor:
#      x y z
#    x 2.133680 0.016910 0.050740 
#    y 0.016910 2.282120 -0.016230 
#    z 0.050740 -0.016230 2.305330 
# 
# From -- ./inp_files/386250.got.cif
#   From: 2010.05.17/outbox.cif.g08.bks.cpg/sg2_194_cif.got.tgz:386250.got - 2010.06.03 11:33:40.
