data_PCOD9080471
_publ_section_title
;
Structure prediction by ZEFSAII (Michael W. Deem and Ramdas Pophale) SiO2 
 PCOD9080471
Probable space group: P -1
;
_chemical_formula_sum "Si O2"
_cell_formula_units_Z 16
_cell_length_a 7.930235
_cell_length_b 13.043143
_cell_length_c 15.241827
_cell_angle_alpha 29.437036
_cell_angle_beta 124.262540
_cell_angle_gamma 109.278083
_cell_volume 588.485541
_symmetry_space_group_name_H-M "P -1"
_symmetry_group_IT_number 2
_symmetry_cell_setting 'triclinic'
loop_
_space_group_symop_operation_xyz
x,y,z
-x,-y,-z
loop_
_atom_site_type_symbol
_atom_site_label
_atom_site_fract_x
_atom_site_fract_y
_atom_site_fract_z
Si Si1 0.604399 0.084650 0.318407
Si Si2 0.051028 0.539990 0.586067
Si Si3 0.125560 0.653899 0.847028
Si Si4 0.324803 0.302431 0.500844
Si Si5 0.753701 0.198450 0.963999
Si Si6 0.843723 0.821327 0.805186
Si Si7 0.467503 0.412423 0.879784
Si Si8 0.232073 0.021016 0.041471
O O1 0.775761 0.208913 0.290592
O O2 0.418167 0.063523 0.342234
O O3 0.722654 0.851134 0.473429
O O4 0.446776 0.273078 0.061929
O O5 0.256016 0.604728 0.628902
O O6 0.000000 0.500000 0.500000
O O7 0.835218 0.669478 0.483609
O O8 0.167882 0.282190 0.847075
O O9 0.932618 0.812610 0.737778
O O10 0.077997 0.447559 0.949217
O O11 0.336109 0.518525 0.075961
O O12 0.301318 0.551643 0.278786
O O13 0.577017 0.157354 0.711890
O O14 0.597332 0.234345 0.974819
O O15 0.710852 0.042201 0.995998
O O16 0.005927 0.099464 0.145817
O O17 0.000000 0.000000 0.000000
#
# Coordination Sequence:
#
# PCOD9080471 Si02
#       8
#     2   2   2   2   2   2   2   2
#     4  10  20  39  64  91 128 168 207 264 321 377
#     4  12  26  40  65  94 125 170 215 269 321 380
#     4   8  19  36  70  96 122 171 214 260 328 387
#     4  12  25  43  61  95 131 167 221 261 320 392
#     4  11  23  38  65  92 128 170 217 266 314 390
#     4  10  18  39  67  96 127 167 216 265 327 375
#     4   9  21  41  59  92 123 167 210 262 327 370
#     4  12  24  42  62  90 126 171 214 264 323 377
#
# _framework density 27.188434000000001
#
# number of rings (size 3 to 8) (size 9 to 14) (size 15 to 20)
#    0.750    0.750    2.500    3.000    3.500    1.000 
#    2.250    0.625    0.000    2.250    0.000    0.000 
#    0.000    0.000    0.000    0.000    0.000    0.000 
#
# Total GULP energy -89520.585062 kJ/mol
# GULP energy per Si atom -5595.036566 kJ/mol
# Density = 2.712655 g / cm^3
# Si number density = 27.188434 Si / 1000 Ang^3
#
#
#
# Elastic Constant Matrix: (Units=GPa)
#
#
# Indices 1 2 3 4 5 6 
#
# 1 139.0993 -5.3776 38.7852 14.9833 28.0278 -3.8972
# 2 -5.3776 55.6959 12.9679 2.0589 -2.5304 -2.2382
# 3 38.7852 12.9679 135.4048 -3.9614 6.9293 1.8006
# 4 14.9833 2.0589 -3.9614 34.0591 0.9318 1.1195
# 5 28.0278 -2.5304 6.9293 0.9318 33.9826 -0.2169
# 6 -3.8972 -2.2382 1.8006 1.1195 -0.2169 33.5068
#
#
#
# Elastic Compliance Matrix: (Units=1/GPa)
#
#
# Indices 1 2 3 4 5 6 
#
# 1 0.010093 0.001524 -0.002811 -0.004704 -0.007499 0.001535
# 2 0.001524 0.018828 -0.002360 -0.002156 0.000696 0.001638
# 3 -0.002811 -0.002360 0.008483 0.002390 0.000341 -0.001018
# 4 -0.004704 -0.002156 0.002390 0.031836 0.002347 -0.001868
# 5 -0.007499 0.000696 0.000341 0.002347 0.035525 -0.000692
# 6 0.001535 0.001638 -0.001018 -0.001868 -0.000692 0.030245
#
#
# Mechanical properties :
#
#
# Convention : Reuss Voigt Hill
#
# Bulk Modulus (GPa) = 33.21306 46.99455 40.10381
# Shear Modulus (GPa) = 32.82120 39.23133 36.02627
#
# Velocity S-wave (km/s) = 3.47821 3.80273 3.64408
# Velocity P-wave (km/s) = 5.32663 6.05006 5.69984
#
# Compressibility (1/GPa) = 0.03010864
#
# Stress axis : x y z
#
# Youngs Moduli (GPa) = 99.08329 53.11105 117.88934
#
# Poissons Ratio (x) = -0.08094 0.33140
# Poissons Ratio (y) = -0.15100 0.27824
# Poissons Ratio (z) = 0.27854 0.12535
#
# Static dielectric constant tensor:
#      x y z
#    x 3.531840 2.455970 -0.126090 
#    y 2.455970 6.376600 -0.238570 
#    z -0.126090 -0.238570 2.215680 
# 
# From -- ./inp_files/294123.got.cif
#   From: 2010.05.17/outbox.cif.g08.bks.cpg/sg2_148_cif.got.tgz:294123.got - 2010.06.03 11:33:40.
