data_PCOD9080890
_publ_section_title
;
Structure prediction by ZEFSAII (Michael W. Deem and Ramdas Pophale) SiO2 
 PCOD9080890
Probable space group: P -1
;
_chemical_formula_sum "Si O2"
_cell_formula_units_Z 14
_cell_length_a 11.447253
_cell_length_b 19.854957
_cell_length_c 9.423334
_cell_angle_alpha 141.834763
_cell_angle_beta 124.278995
_cell_angle_gamma 30.585547
_cell_volume 627.908184
_symmetry_space_group_name_H-M "P -1"
_symmetry_group_IT_number 2
_symmetry_cell_setting 'triclinic'
loop_
_space_group_symop_operation_xyz
x,y,z
-x,-y,-z
loop_
_atom_site_type_symbol
_atom_site_label
_atom_site_fract_x
_atom_site_fract_y
_atom_site_fract_z
Si Si1 0.298986 0.493510 0.464742
Si Si2 0.277976 0.278750 0.941139
Si Si3 0.707220 0.579403 0.046125
Si Si4 0.784096 0.310924 0.506934
Si Si5 0.793670 0.446221 0.168438
Si Si6 0.015175 0.108011 0.619596
Si Si7 0.658569 0.911263 0.100555
O O1 0.243157 0.410233 0.227330
O O2 0.583339 0.346925 0.392210
O O3 0.136855 0.683684 0.579316
O O4 0.275874 0.509543 0.643989
O O5 0.433897 0.096152 0.838050
O O6 0.007368 0.396979 0.929245
O O7 0.386430 0.257234 0.833345
O O8 0.652286 0.604962 0.216563
O O9 0.647024 0.501696 0.803824
O O10 0.964776 0.150351 0.486209
O O11 0.076489 0.308192 0.123086
O O12 0.808479 0.314619 0.896688
O O13 0.000000 0.000000 0.500000
O O14 0.260405 0.019097 0.683592
O O15 0.500000 0.000000 0.000000
#
# Coordination Sequence:
#
# PCOD9080890 Si02
#       7
#     2   2   2   2   2   2   2
#     4  10  19  29  54  77 109 121 161 211 258 296
#     4   9  16  29  51  74  97 134 157 204 254 297
#     4   8  15  30  47  71 101 124 165 195 251 292
#     4   9  18  33  49  79  98 136 164 198 253 304
#     4   8  18  33  50  78  99 129 162 217 242 289
#     4   9  19  35  53  68  98 140 174 199 241 295
#     4   9  19  33  52  74  96 133 177 201 233 300
#
# _framework density 22.296254000000001
#
# number of rings (size 3 to 8) (size 9 to 14) (size 15 to 20)
#    0.857    2.286    1.429    0.000    2.000    4.571 
#    0.000    0.714    3.143    2.571    0.000    0.000 
#    0.000    0.000    0.000    0.000    0.000    0.000 
#
# Total GULP energy -77946.355925 kJ/mol
# GULP energy per Si atom -5567.596852 kJ/mol
# Density = 2.224551 g / cm^3
# Si number density = 22.296254 Si / 1000 Ang^3
#
#
#
# Elastic Constant Matrix: (Units=GPa)
#
#
# Indices 1 2 3 4 5 6 
#
# 1 94.1548 63.9717 39.2350 -10.2062 11.7569 53.4453
# 2 63.9717 129.6198 43.1765 -35.2505 10.7026 56.7182
# 3 39.2350 43.1765 56.7118 -21.6851 1.9288 18.9405
# 4 -10.2062 -35.2505 -21.6851 36.9517 3.7779 -9.8940
# 5 11.7569 10.7026 1.9288 3.7779 39.0877 -11.5428
# 6 53.4453 56.7182 18.9405 -9.8940 -11.5428 58.7333
#
#
#
# Elastic Compliance Matrix: (Units=1/GPa)
#
#
# Indices 1 2 3 4 5 6 
#
# 1 0.042548 0.006113 -0.019700 -0.003063 -0.026176 -0.043928
# 2 0.006113 0.025768 -0.007369 0.016081 -0.018657 -0.029029
# 3 -0.019700 -0.007369 0.035126 0.011837 0.010303 0.017735
# 4 -0.003063 0.016081 0.011837 0.046766 -0.011837 -0.011007
# 5 -0.026176 -0.018657 0.010303 -0.011837 0.053065 0.046949
# 6 -0.043928 -0.029029 0.017735 -0.011007 0.046949 0.086685
#
#
# Mechanical properties :
#
#
# Convention : Reuss Voigt Hill
#
# Bulk Modulus (GPa) = 16.25237 63.69476 39.97357
# Shear Modulus (GPa) = 14.18919 35.89473 25.04196
#
# Velocity S-wave (km/s) = 2.52542 4.01671 3.35497
# Velocity P-wave (km/s) = 3.97603 7.08106 5.74239
#
# Compressibility (1/GPa) = 0.06152947
#
# Stress axis : x y z
#
# Youngs Moduli (GPa) = 23.50294 38.80740 28.46913
#
# Poissons Ratio (x) = -0.23725 0.56085
# Poissons Ratio (y) = -0.14368 0.20980
# Poissons Ratio (z) = 0.46301 0.28599
#
# Static dielectric constant tensor:
#      x y z
#    x 1.882130 0.027920 -0.046860 
#    y 0.027920 1.911640 0.010080 
#    z -0.046860 0.010080 1.811370 
# 
# From -- ./inp_files/246775.got.cif
#   From: 2010.05.17/outbox.cif.g08.bks.cpg/sg2_124_cif.got.tgz:246775.got - 2010.06.03 11:33:40.
