data_PCOD9080366
_publ_section_title
;
Structure prediction by ZEFSAII (Michael W. Deem and Ramdas Pophale) SiO2 
 PCOD9080366
Probable space group: P -1
;
_chemical_formula_sum "Si O2"
_cell_formula_units_Z 16
_cell_length_a 14.961366
_cell_length_b 12.122417
_cell_length_c 12.158364
_cell_angle_alpha 46.110814
_cell_angle_beta 28.966968
_cell_angle_gamma 39.306374
_cell_volume 675.562145
_symmetry_space_group_name_H-M "P -1"
_symmetry_group_IT_number 2
_symmetry_cell_setting 'triclinic'
loop_
_space_group_symop_operation_xyz
x,y,z
-x,-y,-z
loop_
_atom_site_type_symbol
_atom_site_label
_atom_site_fract_x
_atom_site_fract_y
_atom_site_fract_z
Si Si1 0.551770 0.907703 0.127419
Si Si2 0.292852 0.006367 0.668527
Si Si3 0.704351 0.303247 0.253625
Si Si4 0.408588 0.685279 0.316754
Si Si5 0.371614 0.257851 0.176022
Si Si6 0.996469 0.861197 0.750470
Si Si7 0.233502 0.830159 0.061863
Si Si8 0.073614 0.630173 0.241503
O O1 0.789387 0.846642 0.952111
O O2 0.397708 0.067032 0.260795
O O3 0.502943 0.750277 0.270057
O O4 0.500000 0.000000 0.000000
O O5 0.328270 0.856194 0.646032
O O6 0.500000 0.000000 0.500000
O O7 0.184045 0.959828 0.921005
O O8 0.154390 0.202442 0.637626
O O9 0.486958 0.480930 0.381927
O O10 0.856174 0.258744 0.226253
O O11 0.817794 0.349448 0.000879
O O12 0.506400 0.715248 0.079071
O O13 0.158882 0.806652 0.512715
O O14 0.522485 0.245825 0.121113
O O15 0.143291 0.425363 0.311549
O O16 0.903295 0.053902 0.769561
O O17 0.186136 0.677176 0.185824
#
# Coordination Sequence:
#
# PCOD9080366 Si02
#       8
#     2   2   2   2   2   2   2   2
#     4   9  21  39  55  84 120 160 204 247 291 353
#     4  11  22  39  64  89 124 153 200 256 306 360
#     4  10  20  39  59  90 118 158 205 246 303 367
#     4  10  22  39  60  89 126 161 206 247 298 359
#     4   9  20  36  63  87 120 157 199 249 297 360
#     4  11  20  37  64  87 125 162 201 248 303 357
#     4  10  19  37  62  88 115 159 200 241 305 363
#     4  10  18  39  62  84 118 158 192 250 309 354
#
# _framework density 23.683980999999999
#
# number of rings (size 3 to 8) (size 9 to 14) (size 15 to 20)
#    0.000    2.000    2.500    1.500    0.000    7.000 
#    6.750    0.625    5.500    0.000    0.000    0.000 
#    0.000    0.000    0.000    0.000    0.000    0.000 
#
# Total GULP energy -89412.608933 kJ/mol
# GULP energy per Si atom -5588.288058 kJ/mol
# Density = 2.363008 g / cm^3
# Si number density = 23.683981 Si / 1000 Ang^3
#
#
#
# Elastic Constant Matrix: (Units=GPa)
#
#
# Indices 1 2 3 4 5 6 
#
# 1 96.2655 69.6899 36.5706 5.1955 -23.5041 -2.9406
# 2 69.6899 138.3083 53.8639 15.2474 5.1036 3.6354
# 3 36.5706 53.8639 80.5563 14.0890 3.1261 15.1301
# 4 5.1955 15.2474 14.0890 38.5678 4.4424 5.4685
# 5 -23.5041 5.1036 3.1261 4.4424 34.0990 -2.2742
# 6 -2.9406 3.6354 15.1301 5.4685 -2.2742 22.7316
#
#
#
# Elastic Compliance Matrix: (Units=1/GPa)
#
#
# Indices 1 2 3 4 5 6 
#
# 1 0.028502 -0.012402 -0.007965 -0.000605 0.023208 0.013440
# 2 -0.012402 0.015512 -0.003615 -0.001601 -0.010487 -0.002343
# 3 -0.007965 -0.003615 0.022055 -0.002503 -0.007666 -0.015297
# 4 -0.000605 -0.001601 -0.002503 0.028805 -0.004067 -0.005493
# 5 0.023208 -0.010487 -0.007666 -0.004067 0.049171 0.015679
# 6 0.013440 -0.002343 -0.015297 -0.005493 0.015679 0.059177
#
#
# Mechanical properties :
#
#
# Convention : Reuss Voigt Hill
#
# Bulk Modulus (GPa) = 55.23545 70.59765 62.91655
# Shear Modulus (GPa) = 19.43851 29.41340 24.42596
#
# Velocity S-wave (km/s) = 2.86797 3.52790 3.21491
# Velocity P-wave (km/s) = 5.85999 6.81672 6.35638
#
# Compressibility (1/GPa) = 0.01810431
#
# Stress axis : x y z
#
# Youngs Moduli (GPa) = 35.08536 64.46534 45.34083
#
# Poissons Ratio (x) = 0.79951 0.36116
# Poissons Ratio (y) = 0.43513 0.16390
# Poissons Ratio (z) = 0.27947 0.23303
#
# Static dielectric constant tensor:
#      x y z
#    x 2.034940 -0.082670 0.130660 
#    y -0.082670 1.937780 -0.024480 
#    z 0.130660 -0.024480 1.969360 
# 
# From -- ./inp_files/345906.got.cif
#   From: 2010.05.17/outbox.cif.g08.bks.cpg/sg2_173_cif.got.tgz:345906.got - 2010.06.03 11:33:40.
