data_PCOD9080602
_publ_section_title
;
Structure prediction by ZEFSAII (Michael W. Deem and Ramdas Pophale) SiO2 
 PCOD9080602
Probable space group: P -1
;
_chemical_formula_sum "Si O2"
_cell_formula_units_Z 16
_cell_length_a 12.129917
_cell_length_b 8.205402
_cell_length_c 12.521109
_cell_angle_alpha 61.630119
_cell_angle_beta 100.320760
_cell_angle_gamma 55.287962
_cell_volume 705.961304
_symmetry_space_group_name_H-M "P -1"
_symmetry_group_IT_number 2
_symmetry_cell_setting 'triclinic'
loop_
_space_group_symop_operation_xyz
x,y,z
-x,-y,-z
loop_
_atom_site_type_symbol
_atom_site_label
_atom_site_fract_x
_atom_site_fract_y
_atom_site_fract_z
Si Si1 0.445719 0.626179 0.182125
Si Si2 0.259568 0.812649 0.883126
Si Si3 0.599878 0.062438 0.476058
Si Si4 0.941847 0.864631 0.056787
Si Si5 0.818594 0.755116 0.803393
Si Si6 0.653882 0.726272 0.184705
Si Si7 0.799050 0.783523 0.386885
Si Si8 0.835076 0.489396 0.076324
O O1 0.417611 0.654555 0.039470
O O2 0.490557 0.370147 0.316369
O O3 0.250493 0.919631 0.091908
O O4 0.588634 0.601105 0.239326
O O5 0.232469 0.629669 0.922566
O O6 0.250823 0.943012 0.735717
O O7 0.098939 0.090459 0.838611
O O8 0.500000 0.000000 0.500000
O O9 0.683337 0.007683 0.620726
O O10 0.736275 0.837955 0.478972
O O11 0.000000 0.000000 0.000000
O O12 0.078537 0.542365 0.145231
O O13 0.967544 0.720968 0.854873
O O14 0.745490 0.745849 0.899262
O O15 0.701618 0.780660 0.281640
O O16 0.807129 0.550292 0.178990
O O17 0.500000 0.000000 0.000000
O O18 0.000000 0.500000 0.500000
#
# Coordination Sequence:
#
# PCOD9080602 Si02
#       8
#     2   2   2   2   2   2   2   2
#     4  10  24  41  70 101 136 178 232 284 344 419
#     4  10  21  40  66  98 129 179 232 276 342 409
#     4  12  26  45  68 101 144 179 228 290 354 411
#     4  10  18  40  65  97 132 179 228 273 340 419
#     4  11  23  42  66 101 138 180 227 284 350 416
#     4  12  24  43  71  98 137 178 234 297 341 406
#     4  12  27  46  71  99 142 186 234 285 357 420
#     4  11  23  39  69  98 132 178 234 283 340 418
#
# _framework density 22.664134000000001
#
# number of rings (size 3 to 8) (size 9 to 14) (size 15 to 20)
#    0.750    0.250    2.500    5.250    3.500    2.000 
#    0.000    3.125    0.000    0.000    0.000    0.000 
#    0.000    0.000    0.000    0.000    0.000    0.000 
#
# Total GULP energy -89410.622480 kJ/mol
# GULP energy per Si atom -5588.163905 kJ/mol
# Density = 2.261255 g / cm^3
# Si number density = 22.664134 Si / 1000 Ang^3
#
#
#
# Elastic Constant Matrix: (Units=GPa)
#
#
# Indices 1 2 3 4 5 6 
#
# 1 149.6968 19.0432 40.7586 8.1836 -21.3618 8.7324
# 2 19.0432 50.4402 -1.6103 -6.8865 -15.0575 2.5130
# 3 40.7586 -1.6103 106.8845 -1.5290 -14.9539 5.5131
# 4 8.1836 -6.8865 -1.5290 32.8816 2.6429 1.2201
# 5 -21.3618 -15.0575 -14.9539 2.6429 35.0289 10.1609
# 6 8.7324 2.5130 5.5131 1.2201 10.1609 35.5381
#
#
#
# Elastic Compliance Matrix: (Units=1/GPa)
#
#
# Indices 1 2 3 4 5 6 
#
# 1 0.008603 -0.002403 -0.002659 -0.002998 0.004056 -0.002588
# 2 -0.002403 0.025424 0.003335 0.005309 0.012038 -0.005349
# 3 -0.002659 0.003335 0.011348 0.001564 0.005391 -0.002938
# 4 -0.002998 0.005309 0.001564 0.032459 -0.001133 -0.000672
# 5 0.004056 0.012038 0.005391 -0.001133 0.042909 -0.014914
# 6 -0.002588 -0.005349 -0.002938 -0.000672 -0.014914 0.033896
#
#
# Mechanical properties :
#
#
# Convention : Reuss Voigt Hill
#
# Bulk Modulus (GPa) = 23.85311 47.04495 35.44903
# Shear Modulus (GPa) = 29.05857 37.27839 33.16848
#
# Velocity S-wave (km/s) = 3.58458 4.06004 3.82969
# Velocity P-wave (km/s) = 5.26116 6.54072 5.93552
#
# Compressibility (1/GPa) = 0.04192325
#
# Stress axis : x y z
#
# Youngs Moduli (GPa) = 116.23302 39.33280 88.11947
#
# Poissons Ratio (x) = 0.09450 0.23430
# Poissons Ratio (y) = 0.27927 -0.29391
# Poissons Ratio (z) = 0.30905 -0.13119
#
# Static dielectric constant tensor:
#      x y z
#    x 1.859220 -0.030300 0.040870 
#    y -0.030300 1.955000 0.027360 
#    z 0.040870 0.027360 1.844960 
# 
# From -- ./inp_files/419154.got.cif
#   From: 2010.05.17/outbox.cif.g08.bks.cpg/sg2_210_cif.got.tgz:419154.got - 2010.06.03 11:33:40.
