data_PCOD9080125
_publ_section_title
;
Structure prediction by ZEFSAII (Michael W. Deem and Ramdas Pophale) SiO2 
 PCOD9080125
Probable space group: P -1
;
_chemical_formula_sum "Si O2"
_cell_formula_units_Z 15
_cell_length_a 11.535283
_cell_length_b 10.050715
_cell_length_c 10.588755
_cell_angle_alpha 93.653630
_cell_angle_beta 37.703237
_cell_angle_gamma 68.595640
_cell_volume 548.978173
_symmetry_space_group_name_H-M "P -1"
_symmetry_group_IT_number 2
_symmetry_cell_setting 'triclinic'
loop_
_space_group_symop_operation_xyz
x,y,z
-x,-y,-z
loop_
_atom_site_type_symbol
_atom_site_label
_atom_site_fract_x
_atom_site_fract_y
_atom_site_fract_z
Si Si1 0.426615 0.603771 0.252503
Si Si2 0.161949 0.047601 0.633282
Si Si3 0.000000 0.000000 0.500000
Si Si4 0.983770 0.403970 0.719818
Si Si5 0.699875 0.907472 0.089899
Si Si6 0.795487 0.220741 0.269901
Si Si7 0.466647 0.317653 0.319629
Si Si8 0.876137 0.818307 0.657058
O O1 0.352210 0.677362 0.463612
O O2 0.475395 0.421668 0.206041
O O3 0.167514 0.752609 0.400389
O O4 0.677245 0.559617 0.987116
O O5 0.122728 0.971076 0.780671
O O6 0.037645 0.253167 0.756540
O O7 0.468128 0.929232 0.344120
O O8 0.022497 0.043379 0.635303
O O9 0.259895 0.978785 0.246044
O O10 0.162707 0.437182 0.612580
O O11 0.097926 0.303922 0.478601
O O12 0.957701 0.800654 0.943602
O O13 0.795419 0.817106 0.863977
O O14 0.584422 0.113494 0.188348
O O15 0.606653 0.312480 0.320297
#
# Coordination Sequence:
#
# PCOD9080125 Si02
#       8
#     2   2   1   2   2   2   2   2
#     4  11  23  41  62  89 126 170 201 253 312 369
#     4  10  21  39  66  92 122 161 207 258 306 360
#     4  10  18  38  64  88 120 152 198 252 302 360
#     4  10  24  41  60  96 124 163 207 253 313 370
#     4  10  22  41  65  95 121 162 208 258 310 359
#     4  11  23  43  62  92 124 166 212 256 302 362
#     4  11  25  40  63  91 128 164 209 255 306 368
#     4  10  22  42  63  94 125 157 208 255 313 369
#
# _framework density 27.323491000000001
#
# number of rings (size 3 to 8) (size 9 to 14) (size 15 to 20)
#    0.000    1.600    2.667    2.000    1.867   11.200 
#    0.000    0.000    0.000    0.000    0.000    0.000 
#    0.000    0.000    0.000    0.000    0.000    0.000 
#
# Total GULP energy -83851.669553 kJ/mol
# GULP energy per Si atom -5590.111304 kJ/mol
# Density = 2.726130 g / cm^3
# Si number density = 27.323491 Si / 1000 Ang^3
#
#
#
# Elastic Constant Matrix: (Units=GPa)
#
#
# Indices 1 2 3 4 5 6 
#
# 1 159.6008 37.8290 90.2818 0.1073 -35.2355 -12.7844
# 2 37.8290 128.8402 28.1696 2.3533 -10.8769 -4.5335
# 3 90.2818 28.1696 143.7849 -19.8307 -45.4428 2.0469
# 4 0.1073 2.3533 -19.8307 36.1600 10.3518 4.0740
# 5 -35.2355 -10.8769 -45.4428 10.3518 56.1532 -6.7540
# 6 -12.7844 -4.5335 2.0469 4.0740 -6.7540 37.4528
#
#
#
# Elastic Compliance Matrix: (Units=1/GPa)
#
#
# Indices 1 2 3 4 5 6 
#
# 1 0.011527 -0.001364 -0.006788 -0.005134 0.003053 0.005250
# 2 -0.001364 0.008432 -0.000843 -0.001218 0.000417 0.000809
# 3 -0.006788 -0.000843 0.014024 0.006561 0.005364 -0.002932
# 4 -0.005134 -0.001218 0.006561 0.033597 -0.005164 -0.006844
# 5 0.003053 0.000417 0.005364 -0.005164 0.025822 0.006018
# 6 0.005250 0.000809 -0.002932 -0.006844 0.006018 0.030580
#
#
# Mechanical properties :
#
#
# Convention : Reuss Voigt Hill
#
# Bulk Modulus (GPa) = 62.52992 82.75409 72.64201
# Shear Modulus (GPa) = 33.94330 44.34958 39.14644
#
# Velocity S-wave (km/s) = 3.52842 4.03318 3.78921
# Velocity P-wave (km/s) = 6.28764 7.21396 6.76667
#
# Compressibility (1/GPa) = 0.01599234
#
# Stress axis : x y z
#
# Youngs Moduli (GPa) = 86.75383 118.59164 71.30435
#
# Poissons Ratio (x) = 0.16176 0.48404
# Poissons Ratio (y) = 0.11833 0.06013
# Poissons Ratio (z) = 0.58891 0.10001
#
# Static dielectric constant tensor:
#      x y z
#    x 2.122340 0.051400 0.039830 
#    y 0.051400 2.604600 0.248810 
#    z 0.039830 0.248810 2.324490 
# 
# From -- ./inp_files/251440.got.cif
#   From: 2010.05.17/outbox.cif.g08.bks.cpg/sg2_126_cif.got.tgz:251440.got - 2010.06.03 11:33:40.
