data_PCOD9080390
_publ_section_title
;
Structure prediction by ZEFSAII (Michael W. Deem and Ramdas Pophale) SiO2 
 PCOD9080390
Probable space group: P -1
;
_chemical_formula_sum "Si O2"
_cell_formula_units_Z 14
_cell_length_a 9.278530
_cell_length_b 9.497456
_cell_length_c 10.520334
_cell_angle_alpha 67.850012
_cell_angle_beta 51.896582
_cell_angle_gamma 72.796876
_cell_volume 673.140240
_symmetry_space_group_name_H-M "P -1"
_symmetry_group_IT_number 2
_symmetry_cell_setting 'triclinic'
loop_
_space_group_symop_operation_xyz
x,y,z
-x,-y,-z
loop_
_atom_site_type_symbol
_atom_site_label
_atom_site_fract_x
_atom_site_fract_y
_atom_site_fract_z
Si Si1 0.077794 0.161072 0.884609
Si Si2 0.453326 0.487952 0.264107
Si Si3 0.821533 0.432122 0.414654
Si Si4 0.192024 0.410510 0.895017
Si Si5 0.366247 0.152514 0.495714
Si Si6 0.119230 0.643604 0.261439
Si Si7 0.967178 0.841042 0.509248
O O1 0.160408 0.236438 0.938293
O O2 0.231567 0.160302 0.689890
O O3 0.905570 0.272646 0.888229
O O4 0.000000 0.000000 0.000000
O O5 0.360346 0.584863 0.400317
O O6 0.647890 0.551388 0.110928
O O7 0.460526 0.310843 0.365156
O O8 0.303224 0.534819 0.220915
O O9 0.762231 0.511629 0.290167
O O10 0.942331 0.544710 0.391279
O O11 0.963614 0.283361 0.379400
O O12 0.000000 0.500000 0.000000
O O13 0.236264 0.143957 0.445011
O O14 0.500000 0.000000 0.500000
O O15 0.087715 0.772417 0.345161
O O16 0.000000 0.000000 0.500000
#
# Coordination Sequence:
#
# PCOD9080390 Si02
#       7
#     2   2   2   2   2   2   2
#     4  10  23  43  60  84 130 162 191 239 312 362
#     4  11  19  39  66  89 115 151 216 246 288 356
#     4  10  18  39  63  82 118 158 197 243 294 356
#     4  11  25  37  59  91 120 161 199 247 298 353
#     4  11  23  36  61  95 121 155 197 253 302 349
#     4   9  18  39  64  84 114 163 195 242 301 351
#     4  10  19  31  55  92 119 143 193 252 296 340
#
# _framework density 20.798044000000001
#
# number of rings (size 3 to 8) (size 9 to 14) (size 15 to 20)
#    0.000    1.714    5.714    1.286    4.000    2.286 
#    0.000    5.000    0.000    0.000    0.000    0.000 
#    0.000    0.000    0.000    0.000    0.000    0.000 
#
# Total GULP energy -77975.485118 kJ/mol
# GULP energy per Si atom -5569.677508 kJ/mol
# Density = 2.075071 g / cm^3
# Si number density = 20.798044 Si / 1000 Ang^3
#
#
#
# Elastic Constant Matrix: (Units=GPa)
#
#
# Indices 1 2 3 4 5 6 
#
# 1 101.1194 47.1536 16.1761 -2.8414 -28.1197 -10.8905
# 2 47.1536 154.8274 21.3364 -17.1449 -20.9112 -1.6357
# 3 16.1761 21.3364 29.6643 -5.1566 -20.6583 4.7630
# 4 -2.8414 -17.1449 -5.1566 28.0950 -0.3883 -0.2301
# 5 -28.1197 -20.9112 -20.6583 -0.3883 29.4599 -1.4439
# 6 -10.8905 -1.6357 4.7630 -0.2301 -1.4439 47.9840
#
#
#
# Elastic Compliance Matrix: (Units=1/GPa)
#
#
# Indices 1 2 3 4 5 6 
#
# 1 0.015381 -0.003037 0.004343 0.000745 0.015749 0.003434
# 2 -0.003037 0.008405 -0.002844 0.004315 0.001126 -0.000066
# 3 0.004343 -0.002844 0.073973 0.012987 0.053936 -0.004769
# 4 0.000745 0.004315 0.012987 0.040868 0.013401 -0.000374
# 5 0.015749 0.001126 0.053936 0.013401 0.087823 0.000966
# 6 0.003434 -0.000066 -0.004769 -0.000374 0.000966 0.022118
#
#
# Mechanical properties :
#
#
# Convention : Reuss Voigt Hill
#
# Bulk Modulus (GPa) = 10.56162 50.54925 30.55543
# Shear Modulus (GPa) = 17.65508 34.50412 26.07960
#
# Velocity S-wave (km/s) = 2.91672 4.07751 3.54495
# Velocity P-wave (km/s) = 4.05366 6.82097 5.61061
#
# Compressibility (1/GPa) = 0.09468249
#
# Stress axis : x y z
#
# Youngs Moduli (GPa) = 65.01465 118.97751 13.51849
#
# Poissons Ratio (x) = 0.36134 -0.05871
# Poissons Ratio (y) = 0.19745 0.03845
# Poissons Ratio (z) = -0.28237 0.33841
#
# Static dielectric constant tensor:
#      x y z
#    x 1.800350 -0.012560 0.029930 
#    y -0.012560 1.790260 -0.005820 
#    z 0.029930 -0.005820 1.804420 
# 
# From -- ./inp_files/153970.got.cif
#   From: 2010.05.17/outbox.cif.g08.bks.cpg/sg2_77_cif.got.tgz:153970.got - 2010.06.03 11:33:40.
