data_PCOD9080933
_publ_section_title
;
Structure prediction by ZEFSAII (Michael W. Deem and Ramdas Pophale) SiO2 
 PCOD9080933
Probable space group: P -1
;
_chemical_formula_sum "Si O2"
_cell_formula_units_Z 16
_cell_length_a 10.428478
_cell_length_b 6.566280
_cell_length_c 27.268184
_cell_angle_alpha 119.765698
_cell_angle_beta 31.110539
_cell_angle_gamma 133.183850
_cell_volume 683.359079
_symmetry_space_group_name_H-M "P -1"
_symmetry_group_IT_number 2
_symmetry_cell_setting 'triclinic'
loop_
_space_group_symop_operation_xyz
x,y,z
-x,-y,-z
loop_
_atom_site_type_symbol
_atom_site_label
_atom_site_fract_x
_atom_site_fract_y
_atom_site_fract_z
Si Si1 0.491138 0.088511 0.952632
Si Si2 0.126877 0.443224 0.998897
Si Si3 0.472520 0.772194 0.151149
Si Si4 0.962333 0.846282 0.828932
Si Si5 0.179673 0.656517 0.811828
Si Si6 0.089442 0.289725 0.646086
Si Si7 0.664664 0.704110 0.322924
Si Si8 0.446807 0.061818 0.469389
O O1 0.395609 0.777904 0.965297
O O2 0.162324 0.636471 0.122358
O O3 0.260136 0.142550 0.059655
O O4 0.423172 0.059038 0.913675
O O5 0.884390 0.300057 0.106072
O O6 0.280041 0.278364 0.917038
O O7 0.000000 0.500000 0.000000
O O8 0.209799 0.453326 0.178494
O O9 0.265370 0.837836 0.257380
O O10 0.214518 0.880636 0.787535
O O11 0.095820 0.070099 0.768286
O O12 0.418604 0.586084 0.710724
O O13 0.192669 0.287379 0.668982
O O14 0.171971 0.097721 0.566581
O O15 0.285508 0.619244 0.600827
O O16 0.441565 0.806983 0.413288
O O17 0.500000 0.000000 0.500000
#
# Coordination Sequence:
#
# PCOD9080933 Si02
#       8
#     2   2   2   2   2   2   2   2
#     4  11  20  34  55  74 101 145 181 221 259 310
#     4  12  25  35  48  75 111 146 182 223 263 310
#     4  11  20  33  53  75 107 142 182 216 260 318
#     4  11  18  30  54  79 101 136 184 221 252 308
#     4  11  19  32  52  78 100 137 184 217 259 316
#     4  10  19  30  47  77 108 141 172 213 270 321
#     4  11  17  28  50  76 106 134 171 218 267 308
#     4   9  19  30  45  74 115 139 162 214 276 322
#
# _framework density 23.413751000000001
#
# number of rings (size 3 to 8) (size 9 to 14) (size 15 to 20)
#    0.000    1.250    7.500    1.875    0.000    0.500 
#    0.000    0.000    0.000    0.000    0.000    0.875 
#    0.000   11.500    0.000    1.125    0.000    0.125 
#
# Total GULP energy -89217.642269 kJ/mol
# GULP energy per Si atom -5576.102642 kJ/mol
# Density = 2.336046 g / cm^3
# Si number density = 23.413751 Si / 1000 Ang^3
#
#
#
# Elastic Constant Matrix: (Units=GPa)
#
#
# Indices 1 2 3 4 5 6 
#
# 1 73.2276 13.9459 25.5008 0.1456 9.9935 -25.2838
# 2 13.9459 98.7857 44.9392 24.3762 -2.0087 -36.3595
# 3 25.5008 44.9392 156.0687 42.0444 -4.0567 -20.6744
# 4 0.1456 24.3762 42.0444 67.2304 -11.4709 8.6599
# 5 9.9935 -2.0087 -4.0567 -11.4709 31.9712 0.0479
# 6 -25.2838 -36.3595 -20.6744 8.6599 0.0479 41.2089
#
#
#
# Elastic Compliance Matrix: (Units=1/GPa)
#
#
# Indices 1 2 3 4 5 6 
#
# 1 0.020164 0.005035 -0.001493 -0.004458 -0.007801 0.017011
# 2 0.005035 0.021067 -0.000989 -0.010782 -0.004279 0.023452
# 3 -0.001493 -0.000989 0.009040 -0.005903 -0.000572 0.003988
# 4 -0.004458 -0.010782 -0.005903 0.026812 0.009618 -0.020855
# 5 -0.007801 -0.004279 -0.000572 0.009618 0.036842 -0.010913
# 6 0.017011 0.023452 0.003988 -0.020855 -0.010913 0.061792
#
#
# Mechanical properties :
#
#
# Convention : Reuss Voigt Hill
#
# Bulk Modulus (GPa) = 18.05785 55.20599 36.63192
# Shear Modulus (GPa) = 26.44525 44.32849 35.38687
#
# Velocity S-wave (km/s) = 3.36441 4.35589 3.89185
# Velocity P-wave (km/s) = 4.77720 6.99486 5.98956
#
# Compressibility (1/GPa) = 0.05537759
#
# Stress axis : x y z
#
# Youngs Moduli (GPa) = 49.59338 47.46679 110.62334
#
# Poissons Ratio (x) = -0.23900 0.16515
# Poissons Ratio (y) = -0.24971 0.10939
# Poissons Ratio (z) = 0.07404 0.04694
#
# Static dielectric constant tensor:
#      x y z
#    x 2.012130 0.056990 -0.035490 
#    y 0.056990 2.049100 0.029330 
#    z -0.035490 0.029330 1.955230 
# 
# From -- ./inp_files/622841.got.cif
#   From: 2010.05.17/outbox.cif.g08.bks.cpg/sg2_312_cif.got.tgz:622841.got - 2010.06.03 11:33:40.
