data_PCOD9080908
_publ_section_title
;
Structure prediction by ZEFSAII (Michael W. Deem and Ramdas Pophale) SiO2 
 PCOD9080908
Probable space group: P -1
;
_chemical_formula_sum "Si O2"
_cell_formula_units_Z 16
_cell_length_a 10.025279
_cell_length_b 7.602437
_cell_length_c 11.986311
_cell_angle_alpha 90.216269
_cell_angle_beta 74.306295
_cell_angle_gamma 122.332227
_cell_volume 731.911087
_symmetry_space_group_name_H-M "P -1"
_symmetry_group_IT_number 2
_symmetry_cell_setting 'triclinic'
loop_
_space_group_symop_operation_xyz
x,y,z
-x,-y,-z
loop_
_atom_site_type_symbol
_atom_site_label
_atom_site_fract_x
_atom_site_fract_y
_atom_site_fract_z
Si Si1 0.597127 0.822936 0.988870
Si Si2 0.559753 0.663670 0.590423
Si Si3 0.120117 0.265587 0.082228
Si Si4 0.903772 0.810532 0.166299
Si Si5 0.530591 0.681722 0.243805
Si Si6 0.733225 0.288552 0.018579
Si Si7 0.215048 0.610272 0.736824
Si Si8 0.343902 0.994679 0.583372
O O1 0.503071 0.739905 0.128848
O O2 0.709055 0.077513 0.973749
O O3 0.710187 0.731047 0.946861
O O4 0.452293 0.756160 0.933749
O O5 0.500000 0.500000 0.500000
O O6 0.401146 0.448451 0.321031
O O7 0.400803 0.664865 0.668360
O O8 0.693288 0.885715 0.502625
O O9 0.047618 0.204480 0.971476
O O10 0.162119 0.500923 0.080336
O O11 0.993267 0.054257 0.179886
O O12 0.708597 0.710310 0.195860
O O13 0.909368 0.643470 0.242365
O O14 0.575211 0.859453 0.324949
O O15 0.792881 0.328264 0.133273
O O16 0.200904 0.761617 0.655207
O O17 0.500000 0.000000 0.500000
#
# Coordination Sequence:
#
# PCOD9080908 Si02
#       8
#     2   2   2   2   2   2   2   2
#     4  10  19  30  46  65  92 123 151 182 215 256
#     4   8  15  24  40  60  87 114 139 176 222 273
#     4   9  17  31  42  61  89 122 153 183 213 251
#     4   8  16  28  42  59  87 120 151 175 215 269
#     4   9  15  28  42  62  92 119 137 179 224 262
#     4  10  19  30  45  66  91 122 153 181 213 262
#     4   9  15  27  42  62  93 117 140 178 223 262
#     4   9  15  24  40  64  89 113 138 177 226 275
#
# _framework density 21.860578
#
# number of rings (size 3 to 8) (size 9 to 14) (size 15 to 20)
#    0.000    3.000    1.250    1.125    0.000    0.000 
#    2.250    2.500    0.000    0.000    0.000    0.000 
#    0.000  126.000    0.000    0.000    0.000    0.000 
#
# Total GULP energy -89098.622960 kJ/mol
# GULP energy per Si atom -5568.663935 kJ/mol
# Density = 2.181082 g / cm^3
# Si number density = 21.860578 Si / 1000 Ang^3
#
#
#
# Elastic Constant Matrix: (Units=GPa)
#
#
# Indices 1 2 3 4 5 6 
#
# 1 52.4304 12.7151 10.9513 -3.9113 1.3752 -0.6002
# 2 12.7151 114.9220 56.5654 -48.9785 15.4256 -27.9328
# 3 10.9513 56.5654 83.9329 -39.7505 18.7590 -15.1309
# 4 -3.9113 -48.9785 -39.7505 52.1265 -20.5260 10.6132
# 5 1.3752 15.4256 18.7590 -20.5260 16.9476 -6.3327
# 6 -0.6002 -27.9328 -15.1309 10.6132 -6.3327 29.0627
#
#
#
# Elastic Compliance Matrix: (Units=1/GPa)
#
#
# Indices 1 2 3 4 5 6 
#
# 1 0.020008 -0.002692 -0.002314 -0.002508 -0.000620 -0.002598
# 2 -0.002692 0.020929 -0.006164 0.017721 0.014514 0.013542
# 3 -0.002314 -0.006164 0.021900 0.006552 -0.010204 0.000814
# 4 -0.002508 0.017721 0.006552 0.059152 0.052267 0.010179
# 5 -0.000620 0.014514 -0.010204 0.052267 0.126861 0.017181
# 6 -0.002598 0.013542 0.000814 0.010179 0.017181 0.047820
#
#
# Mechanical properties :
#
#
# Convention : Reuss Voigt Hill
#
# Bulk Modulus (GPa) = 24.69196 45.74988 35.22092
# Shear Modulus (GPa) = 15.03715 31.03094 23.03404
#
# Velocity S-wave (km/s) = 2.62557 3.77170 3.24956
# Velocity P-wave (km/s) = 4.52893 6.31990 5.49783
#
# Compressibility (1/GPa) = 0.04049900
#
# Stress axis : x y z
#
# Youngs Moduli (GPa) = 49.97880 47.78089 45.66129
#
# Poissons Ratio (x) = 0.12862 0.10566
# Poissons Ratio (y) = 0.13454 0.28144
# Poissons Ratio (z) = 0.11565 0.29450
#
# Static dielectric constant tensor:
#      x y z
#    x 1.843300 -0.063850 -0.028720 
#    y -0.063850 1.865690 -0.085150 
#    z -0.028720 -0.085150 1.840950 
# 
# From -- ./inp_files/511878.got.cif
#   From: 2010.05.17/outbox.cif.g08.bks.cpg/sg2_256_cif.got.tgz:511878.got - 2010.06.03 11:33:40.
