data_PCOD9080238
_publ_section_title
;
Structure prediction by ZEFSAII (Michael W. Deem and Ramdas Pophale) SiO2 
 PCOD9080238
Probable space group: P -1
;
_chemical_formula_sum "Si O2"
_cell_formula_units_Z 16
_cell_length_a 11.078596
_cell_length_b 13.261454
_cell_length_c 14.218157
_cell_angle_alpha 147.493467
_cell_angle_beta 103.720493
_cell_angle_gamma 54.246378
_cell_volume 738.185989
_symmetry_space_group_name_H-M "P -1"
_symmetry_group_IT_number 2
_symmetry_cell_setting 'triclinic'
loop_
_space_group_symop_operation_xyz
x,y,z
-x,-y,-z
loop_
_atom_site_type_symbol
_atom_site_label
_atom_site_fract_x
_atom_site_fract_y
_atom_site_fract_z
Si Si1 0.647007 0.206211 0.173723
Si Si2 0.141705 0.127059 0.858990
Si Si3 0.649372 0.184843 0.682932
Si Si4 0.958394 0.595565 0.674990
Si Si5 0.253857 0.619594 0.989597
Si Si6 0.817480 0.306289 0.174584
Si Si7 0.965150 0.373325 0.689038
Si Si8 0.709481 0.316377 0.607595
O O1 0.671886 0.393789 0.290924
O O2 0.435293 0.410538 0.270759
O O3 0.734505 0.087702 0.199678
O O4 0.773941 0.925398 0.913873
O O5 0.225935 0.942983 0.637376
O O6 0.929868 0.292513 0.954232
O O7 0.134440 0.357054 0.055514
O O8 0.458143 0.303247 0.771673
O O9 0.626331 0.346770 0.715832
O O10 0.817988 0.862693 0.437610
O O11 0.721281 0.237196 0.821649
O O12 0.000000 0.500000 0.500000
O O13 0.129591 0.535497 0.692637
O O14 0.940798 0.450919 0.634828
O O15 0.223157 0.720911 0.957452
O O16 0.000000 0.000000 0.000000
O O17 0.880307 0.266420 0.612021
#
# Coordination Sequence:
#
# PCOD9080238 Si02
#       8
#     2   2   2   2   2   2   2   2
#     4  10  22  41  67  97 128 172 217 267 338 397
#     4  11  24  44  68  97 130 173 217 276 336 384
#     4  11  26  41  69  96 126 183 226 264 327 386
#     4  10  23  37  66 102 130 168 214 275 341 380
#     4  11  21  43  67  94 128 166 228 271 321 385
#     4  10  18  38  67  90 126 163 213 270 330 381
#     4  11  25  43  63  96 136 174 217 269 324 396
#     4  12  25  45  68  94 136 178 219 265 330 395
#
# _framework density 21.674755000000001
#
# number of rings (size 3 to 8) (size 9 to 14) (size 15 to 20)
#    0.000    1.250    6.250    0.750    5.250    3.000 
#    2.250    0.000    0.000    0.000    0.000    0.000 
#    0.000    0.000    0.000    0.000    0.000    0.000 
#
# Total GULP energy -89249.051423 kJ/mol
# GULP energy per Si atom -5578.065714 kJ/mol
# Density = 2.162542 g / cm^3
# Si number density = 21.674755 Si / 1000 Ang^3
#
#
#
# Elastic Constant Matrix: (Units=GPa)
#
#
# Indices 1 2 3 4 5 6 
#
# 1 44.3046 21.2427 8.5629 -0.7694 -10.1799 -1.4548
# 2 21.2427 95.4343 44.2784 -16.5072 2.3114 -19.2334
# 3 8.5629 44.2784 86.0458 -11.0310 -1.8938 -0.5415
# 4 -0.7694 -16.5072 -11.0310 39.0390 -10.9858 -8.6159
# 5 -10.1799 2.3114 -1.8938 -10.9858 17.4362 8.6302
# 6 -1.4548 -19.2334 -0.5415 -8.6159 8.6302 21.9321
#
#
#
# Elastic Compliance Matrix: (Units=1/GPa)
#
#
# Indices 1 2 3 4 5 6 
#
# 1 0.038292 -0.018365 0.006256 -0.000550 0.039576 -0.029199
# 2 -0.018365 0.032104 -0.013845 0.009910 -0.031453 0.042863
# 3 0.006256 -0.013845 0.018393 0.000168 0.016316 -0.017627
# 4 -0.000550 0.009910 0.000168 0.037531 0.012974 0.018296
# 5 0.039576 -0.031453 0.016316 0.012974 0.129410 -0.070380
# 6 -0.029199 0.042863 -0.017627 0.018296 -0.070380 0.115694
#
#
# Mechanical properties :
#
#
# Convention : Reuss Voigt Hill
#
# Bulk Modulus (GPa) = 27.11267 41.55029 34.33148
# Shear Modulus (GPa) = 11.47775 25.79483 18.63629
#
# Velocity S-wave (km/s) = 2.30368 3.45351 2.93544
# Velocity P-wave (km/s) = 4.42854 5.92569 5.23095
#
# Compressibility (1/GPa) = 0.03688313
#
# Stress axis : x y z
#
# Youngs Moduli (GPa) = 26.11497 31.14862 54.36763
#
# Poissons Ratio (x) = 0.57203 -0.34014
# Poissons Ratio (y) = 0.47959 0.75272
# Poissons Ratio (z) = -0.16338 0.43125
#
# Static dielectric constant tensor:
#      x y z
#    x 1.896610 -0.050140 -0.009860 
#    y -0.050140 1.819050 0.020790 
#    z -0.009860 0.020790 1.807590 
# 
# From -- ./inp_files/521923.got.cif
#   From: 2010.05.17/outbox.cif.g08.bks.cpg/sg2_261_cif.got.tgz:521923.got - 2010.06.03 11:33:40.
