data_PCOD9080115
_publ_section_title
;
Structure prediction by ZEFSAII (Michael W. Deem and Ramdas Pophale) SiO2 
 PCOD9080115
Probable space group: P -1
;
_chemical_formula_sum "Si O2"
_cell_formula_units_Z 15
_cell_length_a 6.124001
_cell_length_b 10.064715
_cell_length_c 20.538371
_cell_angle_alpha 36.979028
_cell_angle_beta 99.759688
_cell_angle_gamma 116.371138
_cell_volume 640.625693
_symmetry_space_group_name_H-M "P -1"
_symmetry_group_IT_number 2
_symmetry_cell_setting 'triclinic'
loop_
_space_group_symop_operation_xyz
x,y,z
-x,-y,-z
loop_
_atom_site_type_symbol
_atom_site_label
_atom_site_fract_x
_atom_site_fract_y
_atom_site_fract_z
Si Si1 0.500000 0.000000 0.500000
Si Si2 0.205828 0.206894 0.077452
Si Si3 0.239923 0.344313 0.345678
Si Si4 0.696758 0.444330 0.940174
Si Si5 0.416614 0.899147 0.284876
Si Si6 0.090645 0.898847 0.689479
Si Si7 0.000180 0.672661 0.520939
Si Si8 0.646484 0.904570 0.156824
O O1 0.382736 0.186845 0.404662
O O2 0.711331 0.216800 0.480561
O O3 0.184837 0.414726 0.039122
O O4 0.332410 0.090503 0.176929
O O5 0.395818 0.356216 0.968964
O O6 0.934057 0.964024 0.137937
O O7 0.160116 0.339926 0.417283
O O8 0.424992 0.641092 0.217410
O O9 0.969309 0.201081 0.348560
O O10 0.875553 0.657607 0.814287
O O11 0.672432 0.172094 0.032492
O O12 0.164136 0.622517 0.396362
O O13 0.578437 0.877502 0.240933
O O14 0.622268 0.013370 0.308374
O O15 0.033030 0.129546 0.603422
#
# Coordination Sequence:
#
# PCOD9080115 Si02
#       8
#     1   2   2   2   2   2   2   2
#     4  10  18  38  64  84 114 154 196 230 282 358
#     4  10  20  37  61  87 114 158 194 241 297 342
#     4  10  23  41  63  86 118 158 194 237 303 344
#     4  10  22  35  60  87 119 155 197 240 292 344
#     4  10  21  37  63  89 117 151 200 241 290 347
#     4  11  21  39  57  89 122 152 194 246 286 351
#     4  10  22  42  61  88 118 158 192 240 296 351
#     4  10  20  40  63  84 118 157 196 242 287 354
#
# _framework density 23.414608000000001
#
# number of rings (size 3 to 8) (size 9 to 14) (size 15 to 20)
#    0.000    1.867    1.333    3.200    3.733    0.533 
#    9.600    1.333    0.000    0.000    0.000    0.000 
#    0.000    0.000    0.000    0.000    0.000    0.000 
#
# Total GULP energy -83586.127128 kJ/mol
# GULP energy per Si atom -5572.408475 kJ/mol
# Density = 2.336132 g / cm^3
# Si number density = 23.414608 Si / 1000 Ang^3
#
#
#
# Elastic Constant Matrix: (Units=GPa)
#
#
# Indices 1 2 3 4 5 6 
#
# 1 51.7542 37.5649 23.2286 -4.6156 3.6720 21.8686
# 2 37.5649 95.9784 49.7310 -33.4108 6.9997 28.4257
# 3 23.2286 49.7310 143.5670 -30.6927 -15.0328 13.9607
# 4 -4.6156 -33.4108 -30.6927 31.4061 6.0758 -10.3895
# 5 3.6720 6.9997 -15.0328 6.0758 31.8050 -1.6608
# 6 21.8686 28.4257 13.9607 -10.3895 -1.6608 37.9692
#
#
#
# Elastic Compliance Matrix: (Units=1/GPa)
#
#
# Indices 1 2 3 4 5 6 
#
# 1 0.035130 -0.014385 -0.003163 -0.017626 0.000298 -0.013111
# 2 -0.014385 0.029355 -0.002769 0.026694 -0.011515 -0.005873
# 3 -0.003163 -0.002769 0.010044 0.006202 0.004647 0.002102
# 4 -0.017626 0.026694 0.006202 0.068330 -0.013649 0.005988
# 5 0.000298 -0.011515 0.004647 -0.013649 0.038991 0.004711
# 6 -0.013111 -0.005873 0.002102 0.005988 0.004711 0.039357
#
#
# Mechanical properties :
#
#
# Convention : Reuss Voigt Hill
#
# Bulk Modulus (GPa) = 29.50264 56.92765 43.21514
# Shear Modulus (GPa) = 18.30560 32.28773 25.29666
#
# Velocity S-wave (km/s) = 2.79911 3.71746 3.29048
# Velocity P-wave (km/s) = 4.80355 6.54153 5.73872
#
# Compressibility (1/GPa) = 0.03389527
#
# Stress axis : x y z
#
# Youngs Moduli (GPa) = 28.46596 34.06548 99.55748
#
# Poissons Ratio (x) = 0.49003 0.31492
# Poissons Ratio (y) = 0.40948 0.27567
# Poissons Ratio (z) = 0.09004 0.09433
#
# Static dielectric constant tensor:
#      x y z
#    x 2.001340 -0.040250 -0.064750 
#    y -0.040250 1.936370 0.018410 
#    z -0.064750 0.018410 1.917450 
# 
# From -- ./inp_files/604293.got.cif
#   From: 2010.05.17/outbox.cif.g08.bks.cpg/sg2_303_cif.got.tgz:604293.got - 2010.06.03 11:33:40.
