data_PCOD9080677
_publ_section_title
;
Structure prediction by ZEFSAII (Michael W. Deem and Ramdas Pophale) SiO2 
 PCOD9080677
Probable space group: P -1
;
_chemical_formula_sum "Si O2"
_cell_formula_units_Z 16
_cell_length_a 11.946427
_cell_length_b 17.867094
_cell_length_c 9.629643
_cell_angle_alpha 132.145649
_cell_angle_beta 103.389491
_cell_angle_gamma 39.534289
_cell_volume 771.748932
_symmetry_space_group_name_H-M "P -1"
_symmetry_group_IT_number 2
_symmetry_cell_setting 'triclinic'
loop_
_space_group_symop_operation_xyz
x,y,z
-x,-y,-z
loop_
_atom_site_type_symbol
_atom_site_label
_atom_site_fract_x
_atom_site_fract_y
_atom_site_fract_z
Si Si1 0.700181 0.929210 0.963523
Si Si2 0.926943 0.105644 0.253150
Si Si3 0.931089 0.810632 0.159365
Si Si4 0.823455 0.174921 0.776832
Si Si5 0.512450 0.261623 0.679368
Si Si6 0.122965 0.512933 0.066527
Si Si7 0.489095 0.305836 0.417052
Si Si8 0.094389 0.643635 0.511502
O O1 0.867347 0.789406 0.709447
O O2 0.844679 0.817269 0.007015
O O3 0.500000 0.000000 0.000000
O O4 0.597993 0.118604 0.166308
O O5 0.690283 0.235786 0.391496
O O6 0.913383 0.235313 0.393371
O O7 0.112504 0.931489 0.197929
O O8 0.000000 0.000000 0.000000
O O9 0.121185 0.749168 0.097596
O O10 0.007036 0.682880 0.146292
O O11 0.725021 0.032610 0.427885
O O12 0.590783 0.311176 0.822697
O O13 0.000000 0.000000 0.500000
O O14 0.406711 0.351505 0.608275
O O15 0.362159 0.324457 0.830568
O O16 0.127790 0.547440 0.268466
O O17 0.000000 0.500000 0.000000
O O18 0.295992 0.481663 0.476316
#
# Coordination Sequence:
#
# PCOD9080677 Si02
#       8
#     2   2   2   2   2   2   2   2
#     4  11  25  46  75  96 131 192 236 272 333 407
#     4  12  22  43  71 105 142 169 224 288 354 403
#     4  10  22  47  70  94 131 179 228 281 332 400
#     4  10  18  40  72  94 127 174 223 271 333 410
#     4  10  23  44  72  96 131 181 230 271 336 413
#     4  12  30  45  64 103 141 179 228 281 337 402
#     4  11  24  45  73 102 135 183 227 277 345 415
#     4  12  27  44  68 105 142 174 223 292 347 398
#
# _framework density 20.732130999999999
#
# number of rings (size 3 to 8) (size 9 to 14) (size 15 to 20)
#    0.000    1.000    5.000    2.625    7.000    2.500 
#    2.250    0.000    0.000    0.000    0.000    0.000 
#    0.000    0.000    0.000    0.000    0.000    0.000 
#
# Total GULP energy -89481.978433 kJ/mol
# GULP energy per Si atom -5592.623652 kJ/mol
# Density = 2.068494 g / cm^3
# Si number density = 20.732131 Si / 1000 Ang^3
#
#
#
# Elastic Constant Matrix: (Units=GPa)
#
#
# Indices 1 2 3 4 5 6 
#
# 1 70.3187 13.6435 -13.3901 -2.6161 -20.8687 -15.6443
# 2 13.6435 114.0218 6.4046 -13.9939 7.4114 12.1206
# 3 -13.3901 6.4046 62.8174 -20.0080 -21.6497 -0.4883
# 4 -2.6161 -13.9939 -20.0080 39.4762 3.5484 5.6196
# 5 -20.8687 7.4114 -21.6497 3.5484 29.0724 2.3150
# 6 -15.6443 12.1206 -0.4883 5.6196 2.3150 29.7750
#
#
#
# Elastic Compliance Matrix: (Units=1/GPa)
#
#
# Indices 1 2 3 4 5 6 
#
# 1 0.046601 -0.013106 0.034148 0.006927 0.059429 0.024452
# 2 -0.013106 0.013713 -0.010541 0.002089 -0.020095 -0.011473
# 3 0.034148 -0.010541 0.051071 0.016689 0.061991 0.015101
# 4 0.006927 0.002089 0.016689 0.034454 0.013017 -0.004452
# 5 0.059429 -0.020095 0.061991 0.013017 0.124501 0.028285
# 6 0.024452 -0.011473 0.015101 -0.004452 0.028285 0.049992
#
#
# Mechanical properties :
#
#
# Convention : Reuss Voigt Hill
#
# Bulk Modulus (GPa) = 7.55371 28.94155 18.24763
# Shear Modulus (GPa) = 14.55776 35.69804 25.12790
#
# Velocity S-wave (km/s) = 2.65275 4.15404 3.48519
# Velocity P-wave (km/s) = 3.61029 6.08261 5.00162
#
# Compressibility (1/GPa) = 0.13238532
#
# Stress axis : x y z
#
# Youngs Moduli (GPa) = 21.45876 72.92446 19.58075
#
# Poissons Ratio (x) = 0.95577 -0.66864
# Poissons Ratio (y) = 0.28124 0.20640
# Poissons Ratio (z) = -0.73277 0.76870
#
# Static dielectric constant tensor:
#      x y z
#    x 1.750810 -0.007070 0.011240 
#    y -0.007070 1.725380 0.026380 
#    z 0.011240 0.026380 1.753650 
# 
# From -- ./inp_files/279916.got.cif
#   From: 2010.05.17/outbox.cif.g08.bks.cpg/sg2_140_cif.got.tgz:279916.got - 2010.06.03 11:33:40.
