data_PCOD9080848
_publ_section_title
;
Structure prediction by ZEFSAII (Michael W. Deem and Ramdas Pophale) SiO2 
 PCOD9080848
Probable space group: P -1
;
_chemical_formula_sum "Si O2"
_cell_formula_units_Z 14
_cell_length_a 17.984517
_cell_length_b 10.777023
_cell_length_c 16.954434
_cell_angle_alpha 150.080539
_cell_angle_beta 155.624592
_cell_angle_gamma 31.113875
_cell_volume 639.993065
_symmetry_space_group_name_H-M "P -1"
_symmetry_group_IT_number 2
_symmetry_cell_setting 'triclinic'
loop_
_space_group_symop_operation_xyz
x,y,z
-x,-y,-z
loop_
_atom_site_type_symbol
_atom_site_label
_atom_site_fract_x
_atom_site_fract_y
_atom_site_fract_z
Si Si1 0.401760 0.211849 0.315879
Si Si2 0.227445 0.935891 0.695771
Si Si3 0.859718 0.008267 0.795776
Si Si4 0.150210 0.477483 0.973966
Si Si5 0.740771 0.631413 0.572084
Si Si6 0.729149 0.157755 0.487843
Si Si7 0.037569 0.098862 0.862470
O O1 0.389518 0.193683 0.388408
O O2 0.601771 0.106874 0.407238
O O3 0.328630 0.527683 0.405756
O O4 0.254552 0.081051 0.065059
O O5 0.302736 0.637490 0.634401
O O6 0.300382 0.948692 0.684236
O O7 0.257483 0.171672 0.904478
O O8 0.000000 0.000000 0.500000
O O9 0.752837 0.806933 0.605904
O O10 0.981856 0.945615 0.798215
O O11 0.747305 0.320747 0.848798
O O12 0.000000 0.000000 0.000000
O O13 0.952682 0.538754 0.767449
O O14 0.082426 0.598809 0.060988
O O15 0.947442 0.045775 0.665552
#
# Coordination Sequence:
#
# PCOD9080848 Si02
#       7
#     2   2   2   2   2   2   2
#     4   9  17  29  46  71 103 126 157 209 250 277
#     4   9  16  28  47  73  96 128 161 201 253 293
#     4   8  13  26  50  73  89 130 169 194 237 298
#     4   7  14  25  47  71  90 126 162 193 248 285
#     4   8  13  26  47  70  91 127 166 193 236 295
#     4  10  19  29  48  75  99 125 168 204 243 295
#     4   9  17  30  52  75  93 128 170 204 238 288
#
# _framework density 21.875236999999998
#
# number of rings (size 3 to 8) (size 9 to 14) (size 15 to 20)
#    0.857    2.571    1.429    1.286    0.000    0.000 
#    0.000    0.714    0.000   25.714    0.000    0.000 
#    0.000    0.000    0.000    0.000    0.000    0.000 
#
# Total GULP energy -77993.847702 kJ/mol
# GULP energy per Si atom -5570.989122 kJ/mol
# Density = 2.182545 g / cm^3
# Si number density = 21.875237 Si / 1000 Ang^3
#
#
#
# Elastic Constant Matrix: (Units=GPa)
#
#
# Indices 1 2 3 4 5 6 
#
# 1 75.6739 17.1757 26.1087 13.2422 26.4444 5.2538
# 2 17.1757 40.6753 30.6550 5.8049 9.5068 2.2301
# 3 26.1087 30.6550 62.2378 6.9477 13.7037 4.7480
# 4 13.2422 5.8049 6.9477 37.3468 4.7312 6.3731
# 5 26.4444 9.5068 13.7037 4.7312 22.5954 -1.5909
# 6 5.2538 2.2301 4.7480 6.3731 -1.5909 17.4779
#
#
#
# Elastic Compliance Matrix: (Units=1/GPa)
#
#
# Indices 1 2 3 4 5 6 
#
# 1 0.025020 -0.001049 -0.003110 -0.003417 -0.026784 -0.007734
# 2 -0.001049 0.039910 -0.018125 -0.002026 -0.004111 0.000511
# 3 -0.003110 -0.018125 0.027998 0.000351 -0.006143 -0.005045
# 4 -0.003417 -0.002026 0.000351 0.030259 -0.002406 -0.010062
# 5 -0.026784 -0.004111 -0.006143 -0.002406 0.082876 0.018665
# 6 -0.007734 0.000511 -0.005045 -0.010062 0.018665 0.066213
#
#
# Mechanical properties :
#
#
# Convention : Reuss Voigt Hill
#
# Bulk Modulus (GPa) = 20.67880 36.27397 28.47639
# Shear Modulus (GPa) = 15.01657 22.46053 18.73855
#
# Velocity S-wave (km/s) = 2.62289 3.20778 2.92997
# Velocity P-wave (km/s) = 4.31814 5.50799 4.94896
#
# Compressibility (1/GPa) = 0.04835871
#
# Stress axis : x y z
#
# Youngs Moduli (GPa) = 39.96732 25.05648 35.71705
#
# Poissons Ratio (x) = 0.02629 0.11109
# Poissons Ratio (y) = 0.04194 0.64737
# Poissons Ratio (z) = 0.12431 0.45415
#
# Static dielectric constant tensor:
#      x y z
#    x 1.832630 0.003060 0.029930 
#    y 0.003060 1.813200 -0.004080 
#    z 0.029930 -0.004080 1.854220 
# 
# From -- ./inp_files/575700.got.cif
#   From: 2010.05.17/outbox.cif.g08.bks.cpg/sg2_288_cif.got.tgz:575700.got - 2010.06.03 11:33:40.
