data_PCOD9080483
_publ_section_title
;
Structure prediction by ZEFSAII (Michael W. Deem and Ramdas Pophale) SiO2 
 PCOD9080483
Probable space group: P -1
;
_chemical_formula_sum "Si O2"
_cell_formula_units_Z 16
_cell_length_a 17.555910
_cell_length_b 9.082849
_cell_length_c 7.823551
_cell_angle_alpha 47.092268
_cell_angle_beta 85.118109
_cell_angle_gamma 111.704681
_cell_volume 737.644043
_symmetry_space_group_name_H-M "P -1"
_symmetry_group_IT_number 2
_symmetry_cell_setting 'triclinic'
loop_
_space_group_symop_operation_xyz
x,y,z
-x,-y,-z
loop_
_atom_site_type_symbol
_atom_site_label
_atom_site_fract_x
_atom_site_fract_y
_atom_site_fract_z
Si Si1 0.257716 0.760867 0.226513
Si Si2 0.593932 0.756816 0.326909
Si Si3 0.696737 0.563138 0.654176
Si Si4 0.882428 0.064939 0.197712
Si Si5 0.937763 0.873192 0.778914
Si Si6 0.594917 0.122789 0.279315
Si Si7 0.097100 0.763874 0.315373
Si Si8 0.795662 0.331923 0.099474
O O1 0.299091 0.601899 0.364462
O O2 0.171527 0.705776 0.399575
O O3 0.222132 0.683759 0.092995
O O4 0.337627 0.054830 0.983094
O O5 0.500000 0.500000 0.500000
O O6 0.652034 0.696826 0.484416
O O7 0.569199 0.921978 0.298822
O O8 0.805030 0.787284 0.496663
O O9 0.635916 0.382208 0.967023
O O10 0.861198 0.234333 0.176262
O O11 0.987772 0.139824 0.112886
O O12 0.861819 0.084089 0.989475
O O13 0.915489 0.060687 0.704328
O O14 0.849935 0.599934 0.962026
O O15 0.000000 0.000000 0.500000
O O16 0.687975 0.171546 0.315340
O O17 0.500000 0.000000 0.500000
O O18 0.000000 0.500000 0.500000
#
# Coordination Sequence:
#
# PCOD9080483 Si02
#       8
#     2   2   2   2   2   2   2   2
#     4   9  20  38  60  87 121 161 206 253 301 368
#     4  10  20  38  64  87 118 161 211 253 302 363
#     4  10  18  39  68  83 119 168 199 246 317 355
#     4  11  20  41  64  85 119 173 208 245 313 370
#     4  12  23  35  62  93 126 163 204 255 308 367
#     4  10  22  39  61  93 127 158 201 255 311 372
#     4  11  22  39  60  89 126 159 210 255 302 364
#     4   9  19  38  56  86 123 156 204 252 298 364
#
# _framework density 21.690678999999999
#
# number of rings (size 3 to 8) (size 9 to 14) (size 15 to 20)
#    0.000    2.000    3.750    4.500    0.000    3.500 
#    0.000    0.000    2.750    0.000    0.000    0.000 
#    0.000    0.000    0.000    0.000    0.000    0.000 
#
# Total GULP energy -89191.128568 kJ/mol
# GULP energy per Si atom -5574.445536 kJ/mol
# Density = 2.164131 g / cm^3
# Si number density = 21.690679 Si / 1000 Ang^3
#
#
#
# Elastic Constant Matrix: (Units=GPa)
#
#
# Indices 1 2 3 4 5 6 
#
# 1 61.7594 21.3321 20.8375 3.0040 -25.7524 -25.9207
# 2 21.3321 82.2338 41.1033 -32.1651 -22.3580 -20.1105
# 3 20.8375 41.1033 101.9850 -26.9388 -22.7579 -17.0153
# 4 3.0040 -32.1651 -26.9388 40.2943 5.6154 -7.8815
# 5 -25.7524 -22.3580 -22.7579 5.6154 46.5719 -1.7258
# 6 -25.9207 -20.1105 -17.0153 -7.8815 -1.7258 41.7015
#
#
#
# Elastic Compliance Matrix: (Units=1/GPa)
#
#
# Indices 1 2 3 4 5 6 
#
# 1 0.033754 0.003872 0.001469 0.003413 0.021756 0.024993
# 2 0.003872 0.031917 0.001549 0.028841 0.015652 0.024529
# 3 0.001469 0.001549 0.015890 0.012739 0.008188 0.010890
# 4 0.003413 0.028841 0.012739 0.060399 0.015910 0.033302
# 5 0.021756 0.015652 0.008188 0.015910 0.044183 0.029248
# 6 0.024993 0.024529 0.010890 0.033302 0.029248 0.063292
#
#
# Mechanical properties :
#
#
# Convention : Reuss Voigt Hill
#
# Bulk Modulus (GPa) = 10.48869 45.83601 28.16235
# Shear Modulus (GPa) = 18.69597 36.56057 27.62827
#
# Velocity S-wave (km/s) = 2.93906 4.10999 3.57282
# Velocity P-wave (km/s) = 4.04518 6.61062 5.48013
#
# Compressibility (1/GPa) = 0.09534083
#
# Stress axis : x y z
#
# Youngs Moduli (GPa) = 29.62578 31.33099 62.93232
#
# Poissons Ratio (x) = -0.12130 -0.09246
# Poissons Ratio (y) = -0.11470 -0.09747
# Poissons Ratio (z) = -0.04352 -0.04852
#
# Static dielectric constant tensor:
#      x y z
#    x 2.070210 0.058270 0.065990 
#    y 0.058270 1.830460 0.049190 
#    z 0.065990 0.049190 1.880580 
# 
# From -- ./inp_files/328411.got.cif
#   From: 2010.05.17/outbox.cif.g08.bks.cpg/sg2_165_cif.got.tgz:328411.got - 2010.06.03 11:33:40.
