data_PCOD9080879
_publ_section_title
;
Structure prediction by ZEFSAII (Michael W. Deem and Ramdas Pophale) SiO2 
 PCOD9080879
Probable space group: P -1
;
_chemical_formula_sum "Si O2"
_cell_formula_units_Z 14
_cell_length_a 15.570383
_cell_length_b 11.451566
_cell_length_c 5.319041
_cell_angle_alpha 79.254515
_cell_angle_beta 111.087567
_cell_angle_gamma 49.386080
_cell_volume 540.431273
_symmetry_space_group_name_H-M "P -1"
_symmetry_group_IT_number 2
_symmetry_cell_setting 'triclinic'
loop_
_space_group_symop_operation_xyz
x,y,z
-x,-y,-z
loop_
_atom_site_type_symbol
_atom_site_label
_atom_site_fract_x
_atom_site_fract_y
_atom_site_fract_z
Si Si1 0.695543 0.402130 0.381721
Si Si2 0.014526 0.820312 0.069193
Si Si3 0.248522 0.102325 0.615595
Si Si4 0.627316 0.960410 0.726373
Si Si5 0.055302 0.575371 0.591037
Si Si6 0.743139 0.471453 0.901256
Si Si7 0.663045 0.173348 0.507662
O O1 0.876976 0.201839 0.650423
O O2 0.663483 0.484318 0.039673
O O3 0.621655 0.352181 0.390951
O O4 0.669980 0.522130 0.532037
O O5 0.060307 0.646662 0.312487
O O6 0.095922 0.749383 0.914076
O O7 0.838944 0.998845 0.837006
O O8 0.254875 0.160584 0.329752
O O9 0.333050 0.892412 0.737809
O O10 0.084035 0.240261 0.466648
O O11 0.319064 0.109686 0.906035
O O12 0.588650 0.141208 0.597471
O O13 0.500000 0.000000 0.500000
O O14 0.000000 0.500000 0.500000
O O15 0.204668 0.455729 0.951748
#
# Coordination Sequence:
#
# PCOD9080879 Si02
#       7
#     2   2   2   2   2   2   2
#     4   9  19  28  47  67 101 134 164 196 243 300
#     4   9  18  32  43  69 103 130 170 199 230 298
#     4  10  20  34  49  74 100 130 174 202 246 302
#     4  10  21  35  52  70 103 133 167 213 252 291
#     4  11  20  34  51  72 104 145 171 207 246 289
#     4   9  19  32  41  70  99 130 177 199 224 295
#     4  10  19  29  52  69 103 133 167 195 259 296
#
# _framework density 25.905238000000001
#
# number of rings (size 3 to 8) (size 9 to 14) (size 15 to 20)
#    1.714    0.571    2.857    0.857    2.000    1.143 
#    0.000    0.000    0.000    0.000    0.000    0.000 
#    0.000   16.000    0.000    0.000    0.000    0.000 
#
# Total GULP energy -77949.521502 kJ/mol
# GULP energy per Si atom -5567.822964 kJ/mol
# Density = 2.584628 g / cm^3
# Si number density = 25.905238 Si / 1000 Ang^3
#
#
#
# Elastic Constant Matrix: (Units=GPa)
#
#
# Indices 1 2 3 4 5 6 
#
# 1 165.6191 38.1045 35.4440 22.2210 10.2638 24.6328
# 2 38.1045 61.0241 27.8704 23.8688 -7.3914 -4.3636
# 3 35.4440 27.8704 102.1326 21.9007 1.0106 -0.1089
# 4 22.2210 23.8688 21.9007 33.3497 -9.1370 -1.3392
# 5 10.2638 -7.3914 1.0106 -9.1370 45.4616 9.4027
# 6 24.6328 -4.3636 -0.1089 -1.3392 9.4027 46.4143
#
#
#
# Elastic Compliance Matrix: (Units=1/GPa)
#
#
# Indices 1 2 3 4 5 6 
#
# 1 0.008429 -0.004320 -0.001191 -0.002513 -0.002149 -0.004520
# 2 -0.004320 0.026053 -0.002771 -0.013302 0.001774 0.003993
# 3 -0.001191 -0.002771 0.012196 -0.005678 -0.001715 0.000584
# 4 -0.002513 -0.013302 -0.005678 0.047103 0.008039 -0.000200
# 5 -0.002149 0.001774 -0.001715 0.008039 0.025161 -0.003562
# 6 -0.004520 0.003993 0.000584 -0.000200 -0.003562 0.025036
#
#
# Mechanical properties :
#
#
# Convention : Reuss Voigt Hill
#
# Bulk Modulus (GPa) = 33.20730 59.06817 46.13773
# Shear Modulus (GPa) = 29.31139 40.20224 34.75682
#
# Velocity S-wave (km/s) = 3.36740 3.94369 3.66688
# Velocity P-wave (km/s) = 5.28827 6.60212 5.98138
#
# Compressibility (1/GPa) = 0.03011386
#
# Stress axis : x y z
#
# Youngs Moduli (GPa) = 118.63325 38.38259 81.99397
#
# Poissons Ratio (x) = 0.16582 0.09767
# Poissons Ratio (y) = 0.51251 0.22722
# Poissons Ratio (z) = 0.14131 0.10636
#
# Static dielectric constant tensor:
#      x y z
#    x 2.005770 0.023590 0.035210 
#    y 0.023590 2.149570 -0.091860 
#    z 0.035210 -0.091860 2.167110 
# 
# From -- ./inp_files/109732.got.cif
#   From: 2010.05.17/outbox.cif.g08.bks.cpg/sg2_55_cif.got.tgz:109732.got - 2010.06.03 11:33:40.
