data_PCOD9080970
_publ_section_title
;
Structure prediction by ZEFSAII (Michael W. Deem and Ramdas Pophale) SiO2 
 PCOD9080970
Probable space group: P -1
;
_chemical_formula_sum "Si O2"
_cell_formula_units_Z 16
_cell_length_a 8.418892
_cell_length_b 19.123904
_cell_length_c 13.628081
_cell_angle_alpha 42.061815
_cell_angle_beta 137.263315
_cell_angle_gamma 146.365543
_cell_volume 773.126365
_symmetry_space_group_name_H-M "P -1"
_symmetry_group_IT_number 2
_symmetry_cell_setting 'triclinic'
loop_
_space_group_symop_operation_xyz
x,y,z
-x,-y,-z
loop_
_atom_site_type_symbol
_atom_site_label
_atom_site_fract_x
_atom_site_fract_y
_atom_site_fract_z
Si Si1 0.269738 0.553551 0.642188
Si Si2 0.209824 0.544344 0.145699
Si Si3 0.410743 0.950088 0.121929
Si Si4 0.731907 0.685050 0.087970
Si Si5 0.040602 0.038343 0.594500
Si Si6 0.176964 0.761001 0.925190
Si Si7 0.378445 0.258211 0.223498
Si Si8 0.892043 0.707511 0.645956
O O1 0.232861 0.427556 0.801022
O O2 0.353926 0.652061 0.669557
O O3 0.569117 0.635809 0.625458
O O4 0.000000 0.500000 0.500000
O O5 0.542456 0.636907 0.152063
O O6 0.139767 0.412075 0.299929
O O7 0.184656 0.644973 0.088105
O O8 0.000000 0.500000 0.000000
O O9 0.625733 0.913690 0.284844
O O10 0.060812 0.827254 0.100449
O O11 0.525791 0.086276 0.086123
O O12 0.500000 0.000000 0.000000
O O13 0.558662 0.691054 0.912360
O O14 0.019533 0.153217 0.496378
O O15 0.000000 0.000000 0.500000
O O16 0.783212 0.899129 0.677615
O O17 0.894225 0.740838 0.867065
O O18 0.114199 0.745367 0.797369
#
# Coordination Sequence:
#
# PCOD9080970 Si02
#       8
#     2   2   2   2   2   2   2   2
#     4  10  19  30  49  80 115 142 181 232 278 327
#     4   9  20  36  57  79 109 153 194 224 270 344
#     4  11  20  33  54  91 115 138 182 239 292 318
#     4  11  21  34  54  87 114 140 187 241 278 329
#     4  11  17  32  58  81 115 146 182 232 276 338
#     4   9  17  34  56  79 110 147 187 223 270 346
#     4  10  20  34  54  88 111 142 185 235 293 317
#     4   9  17  32  52  80 103 145 187 221 270 325
#
# _framework density 20.695194000000001
#
# number of rings (size 3 to 8) (size 9 to 14) (size 15 to 20)
#    0.000    2.000    6.250    1.875    0.000    0.500 
#    0.000    0.000    0.000    3.750    9.750    2.625 
#    0.000    0.000    0.000    0.000    0.000    0.000 
#
# Total GULP energy -89189.759306 kJ/mol
# GULP energy per Si atom -5574.359957 kJ/mol
# Density = 2.064809 g / cm^3
# Si number density = 20.695194 Si / 1000 Ang^3
#
#
#
# Elastic Constant Matrix: (Units=GPa)
#
#
# Indices 1 2 3 4 5 6 
#
# 1 27.2524 28.1514 17.8654 -15.6905 10.1923 -0.6735
# 2 28.1514 149.0518 50.4843 -12.0297 16.2292 -9.9619
# 3 17.8654 50.4843 107.2179 -20.7945 10.5378 -14.6474
# 4 -15.6905 -12.0297 -20.7945 52.1684 -12.1566 14.1471
# 5 10.1923 16.2292 10.5378 -12.1566 23.4889 -11.4899
# 6 -0.6735 -9.9619 -14.6474 14.1471 -11.4899 17.6055
#
#
#
# Elastic Compliance Matrix: (Units=1/GPa)
#
#
# Indices 1 2 3 4 5 6 
#
# 1 0.077438 -0.009748 -0.007157 0.023590 -0.036550 -0.051317
# 2 -0.009748 0.009616 -0.002806 -0.003316 -0.000339 0.005177
# 3 -0.007157 -0.002806 0.013049 0.000334 0.005335 0.012208
# 4 0.023590 -0.003316 0.000334 0.032554 -0.006439 -0.031057
# 5 -0.036550 -0.000339 0.005335 -0.006439 0.083533 0.062538
# 6 -0.051317 0.005177 0.012208 -0.031057 0.062538 0.133694
#
#
# Mechanical properties :
#
#
# Convention : Reuss Voigt Hill
#
# Bulk Modulus (GPa) = 16.47947 52.94713 34.71330
# Shear Modulus (GPa) = 12.20906 31.12062 21.66484
#
# Velocity S-wave (km/s) = 2.43152 3.88204 3.23902
# Velocity P-wave (km/s) = 3.98287 6.76265 5.54963
#
# Compressibility (1/GPa) = 0.06068155
#
# Stress axis : x y z
#
# Youngs Moduli (GPa) = 12.91356 103.99481 76.63574
#
# Poissons Ratio (x) = 1.01375 0.54845
# Poissons Ratio (y) = 0.12588 0.21504
# Poissons Ratio (z) = 0.09242 0.29180
#
# Static dielectric constant tensor:
#      x y z
#    x 1.761210 -0.048970 -0.024720 
#    y -0.048970 1.810890 0.020800 
#    z -0.024720 0.020800 1.808050 
# 
# From -- ./inp_files/448236.got.cif
#   From: 2010.05.17/outbox.cif.g08.bks.cpg/sg2_225_cif.got.tgz:448236.got - 2010.06.03 11:33:40.
