data_PCOD9080002
_publ_section_title
;
Structure prediction by ZEFSAII (Michael W. Deem and Ramdas Pophale) SiO2 
 PCOD9080002
Probable space group: P -1
;
_chemical_formula_sum "Si O2"
_cell_formula_units_Z 14
_cell_length_a 7.827181
_cell_length_b 11.625851
_cell_length_c 12.515564
_cell_angle_alpha 60.392975
_cell_angle_beta 127.592421
_cell_angle_gamma 123.336095
_cell_volume 731.923516
_symmetry_space_group_name_H-M "P -1"
_symmetry_group_IT_number 2
_symmetry_cell_setting 'triclinic'
loop_
_space_group_symop_operation_xyz
x,y,z
-x,-y,-z
loop_
_atom_site_type_symbol
_atom_site_label
_atom_site_fract_x
_atom_site_fract_y
_atom_site_fract_z
Si Si1 0.386476 0.842881 0.978503
Si Si2 0.231277 0.477305 0.397840
Si Si3 0.710381 0.954090 0.636926
Si Si4 0.732803 0.950767 0.889268
Si Si5 0.081969 0.201010 0.562765
Si Si6 0.386775 0.771585 0.242405
Si Si7 0.953402 0.784564 0.689536
O O1 0.155467 0.825633 0.833766
O O2 0.938008 0.096908 0.645768
O O3 0.337562 0.745104 0.108928
O O4 0.500000 0.000000 0.000000
O O5 0.500000 0.500000 0.500000
O O6 0.104350 0.366030 0.494342
O O7 0.232186 0.633878 0.313014
O O8 0.139027 0.381026 0.301044
O O9 0.573701 0.837643 0.965306
O O10 0.755413 0.838575 0.631146
O O11 0.500000 0.000000 0.500000
O O12 0.689589 0.900051 0.774594
O O13 0.661563 0.089582 0.805521
O O14 0.000000 0.000000 0.000000
O O15 0.341190 0.201453 0.654740
O O16 0.963166 0.146265 0.427112
#
# Coordination Sequence:
#
# PCOD9080002 Si02
#       7
#     2   2   2   2   2   2   2
#     4  10  20  35  57  80 108 145 187 226 268 324
#     4   8  19  35  62  78 104 142 200 225 249 318
#     4  12  21  31  55  85 115 140 172 230 292 316
#     4  11  22  34  53  83 117 138 176 230 284 324
#     4   9  19  36  56  82 106 144 189 222 262 326
#     4  10  18  38  61  77 106 151 188 221 269 321
#     4  10  20  36  57  81 111 139 191 227 264 324
#
# _framework density 19.127682
#
# number of rings (size 3 to 8) (size 9 to 14) (size 15 to 20)
#    0.857    1.143    0.000    6.429    0.000    0.571 
#    0.000    0.714    3.143    1.714    0.000    0.000 
#    0.000    0.000    0.000    0.000    0.000    0.000 
#
# Total GULP energy -77962.268982 kJ/mol
# GULP energy per Si atom -5568.733499 kJ/mol
# Density = 1.908415 g / cm^3
# Si number density = 19.127682 Si / 1000 Ang^3
#
#
#
# Elastic Constant Matrix: (Units=GPa)
#
#
# Indices 1 2 3 4 5 6 
#
# 1 47.7523 -6.1565 -2.4839 -0.0990 4.2554 -1.5516
# 2 -6.1565 46.4600 -12.4213 -7.1187 7.6269 11.1967
# 3 -2.4839 -12.4213 74.2661 18.1894 10.3287 1.3066
# 4 -0.0990 -7.1187 18.1894 34.4359 5.7143 -0.6476
# 5 4.2554 7.6269 10.3287 5.7143 41.6056 0.9395
# 6 -1.5516 11.1967 1.3066 -0.6476 0.9395 14.0317
#
#
#
# Elastic Compliance Matrix: (Units=1/GPa)
#
#
# Indices 1 2 3 4 5 6 
#
# 1 0.021871 0.004261 0.001814 0.000553 -0.003524 -0.000889
# 2 0.004261 0.031467 0.005869 0.004233 -0.007690 -0.024474
# 3 0.001814 0.005869 0.016968 -0.007136 -0.004356 -0.006100
# 4 0.000553 0.004233 -0.007136 0.034293 -0.003752 -0.000818
# 5 -0.003524 -0.007690 -0.004356 -0.003752 0.027308 0.004150
# 6 -0.000889 -0.024474 -0.006100 -0.000818 0.004150 0.090951
#
#
# Mechanical properties :
#
#
# Convention : Reuss Voigt Hill
#
# Bulk Modulus (GPa) = 10.61632 14.03944 12.32788
# Shear Modulus (GPa) = 21.70436 30.65064 26.17750
#
# Velocity S-wave (km/s) = 3.37220 4.00737 3.70343
# Velocity P-wave (km/s) = 4.55243 5.36356 4.97456
#
# Compressibility (1/GPa) = 0.09419460
#
# Stress axis : x y z
#
# Youngs Moduli (GPa) = 45.72167 31.77969 58.93332
#
# Poissons Ratio (x) = -0.13541 -0.10693
# Poissons Ratio (y) = -0.19482 -0.34586
# Poissons Ratio (z) = -0.08296 -0.18651
#
# Static dielectric constant tensor:
#      x y z
#    x 1.674570 0.007710 -0.024350 
#    y 0.007710 1.680580 -0.019420 
#    z -0.024350 -0.019420 1.699980 
# 
# From -- ./inp_files/421000.got.cif
#   From: 2010.05.17/outbox.cif.g08.bks.cpg/sg2_211_cif.got.tgz:421000.got - 2010.06.03 11:33:40.
