data_PCOD9080415
_publ_section_title
;
Structure prediction by ZEFSAII (Michael W. Deem and Ramdas Pophale) SiO2 
 PCOD9080415
Probable space group: P -1
;
_chemical_formula_sum "Si O2"
_cell_formula_units_Z 16
_cell_length_a 11.671701
_cell_length_b 9.232621
_cell_length_c 20.551448
_cell_angle_alpha 51.316725
_cell_angle_beta 29.233796
_cell_angle_gamma 51.270784
_cell_volume 825.378642
_symmetry_space_group_name_H-M "P -1"
_symmetry_group_IT_number 2
_symmetry_cell_setting 'triclinic'
loop_
_space_group_symop_operation_xyz
x,y,z
-x,-y,-z
loop_
_atom_site_type_symbol
_atom_site_label
_atom_site_fract_x
_atom_site_fract_y
_atom_site_fract_z
Si Si1 0.683219 0.222147 0.740592
Si Si2 0.552134 0.814074 0.571316
Si Si3 0.756994 0.418657 0.141640
Si Si4 0.166472 0.230157 0.424746
Si Si5 0.668652 0.869293 0.762887
Si Si6 0.935028 0.348302 0.690102
Si Si7 0.789354 0.472698 0.864991
Si Si8 0.823050 0.203608 0.033047
O O1 0.458464 0.396217 0.805353
O O2 0.804679 0.203900 0.756848
O O3 0.901343 0.259102 0.577348
O O4 0.619961 0.038925 0.790382
O O5 0.329129 0.711100 0.722484
O O6 0.650779 0.847519 0.585666
O O7 0.787296 0.684085 0.458024
O O8 0.500000 0.000000 0.500000
O O9 0.778101 0.289245 0.102921
O O10 0.000000 0.500000 0.000000
O O11 0.204601 0.105288 0.375779
O O12 0.191397 0.440847 0.331341
O O13 0.823524 0.684368 0.774082
O O14 0.419309 0.828671 0.871523
O O15 0.894990 0.344769 0.787280
O O16 0.500000 0.500000 0.000000
O O17 0.896956 0.367587 0.906113
O O18 0.000000 0.000000 0.000000
#
# Coordination Sequence:
#
# PCOD9080415 Si02
#       8
#     2   2   2   2   2   2   2   2
#     4  11  19  36  63  96 118 163 211 260 316 374
#     4  11  22  39  66  96 123 163 216 262 320 375
#     4  12  24  43  65  92 131 169 213 264 318 389
#     4  10  18  39  64  86 124 165 208 257 315 378
#     4  10  20  36  62  90 122 161 207 261 312 374
#     4  10  19  38  68  88 122 165 212 265 312 369
#     4   9  20  38  59  89 120 162 207 257 307 373
#     4  11  23  42  61  82 126 175 210 244 325 391
#
# _framework density 19.385041999999999
#
# number of rings (size 3 to 8) (size 9 to 14) (size 15 to 20)
#    0.000    1.500    3.750    3.375    1.750    0.000 
#    4.500    3.125    0.000    1.500    0.000    0.000 
#    0.000    0.000    0.000    0.000    0.000    0.000 
#
# Total GULP energy -89166.030726 kJ/mol
# GULP energy per Si atom -5572.876920 kJ/mol
# Density = 1.934092 g / cm^3
# Si number density = 19.385042 Si / 1000 Ang^3
#
#
#
# Elastic Constant Matrix: (Units=GPa)
#
#
# Indices 1 2 3 4 5 6 
#
# 1 57.5687 52.1882 45.8747 -0.8495 8.2029 1.2287
# 2 52.1882 112.0491 34.8101 13.7907 8.5827 5.6607
# 3 45.8747 34.8101 105.9348 2.5406 2.2321 -2.4291
# 4 -0.8495 13.7907 2.5406 17.4194 6.3177 4.0743
# 5 8.2029 8.5827 2.2321 6.3177 38.6191 -2.7733
# 6 1.2287 5.6607 -2.4291 4.0743 -2.7733 42.9942
#
#
#
# Elastic Compliance Matrix: (Units=1/GPa)
#
#
# Indices 1 2 3 4 5 6 
#
# 1 0.050458 -0.020973 -0.015426 0.025360 -0.009498 -0.002568
# 2 -0.020973 0.019789 0.002957 -0.018175 0.002864 0.000068
# 3 -0.015426 0.002957 0.015289 -0.006812 0.002976 0.001753
# 4 0.025360 -0.018175 -0.006812 0.081095 -0.014748 -0.007353
# 5 -0.009498 0.002864 0.002976 -0.014748 0.029758 0.003380
# 6 -0.002568 0.000068 0.001753 -0.007353 0.003380 0.024337
#
#
# Mechanical properties :
#
#
# Convention : Reuss Voigt Hill
#
# Bulk Modulus (GPa) = 53.61453 60.14427 56.87940
# Shear Modulus (GPa) = 17.01678 29.31853 23.16765
#
# Velocity S-wave (km/s) = 2.96603 3.89322 3.46082
# Velocity P-wave (km/s) = 6.28073 7.16261 6.73612
#
# Compressibility (1/GPa) = 0.01865166
#
# Stress axis : x y z
#
# Youngs Moduli (GPa) = 19.81837 50.53408 65.40584
#
# Poissons Ratio (x) = 1.05986 1.00895
# Poissons Ratio (y) = 0.41565 -0.19340
# Poissons Ratio (z) = 0.30572 -0.14942
#
# Static dielectric constant tensor:
#      x y z
#    x 1.757260 0.014630 0.078720 
#    y 0.014630 1.698870 -0.017560 
#    z 0.078720 -0.017560 1.821950 
# 
# From -- ./inp_files/295244.got.cif
#   From: 2010.05.17/outbox.cif.g08.bks.cpg/sg2_148_cif.got.tgz:295244.got - 2010.06.03 11:33:40.
