data_PCOD9080901
_publ_section_title
;
Structure prediction by ZEFSAII (Michael W. Deem and Ramdas Pophale) SiO2 
 PCOD9080901
Probable space group: P -1
;
_chemical_formula_sum "Si O2"
_cell_formula_units_Z 16
_cell_length_a 5.028108
_cell_length_b 15.116898
_cell_length_c 15.441095
_cell_angle_alpha 54.117674
_cell_angle_beta 108.373507
_cell_angle_gamma 94.670286
_cell_volume 894.269836
_symmetry_space_group_name_H-M "P -1"
_symmetry_group_IT_number 2
_symmetry_cell_setting 'triclinic'
loop_
_space_group_symop_operation_xyz
x,y,z
-x,-y,-z
loop_
_atom_site_type_symbol
_atom_site_label
_atom_site_fract_x
_atom_site_fract_y
_atom_site_fract_z
Si Si1 0.861918 0.888564 0.548939
Si Si2 0.245829 0.689529 0.603926
Si Si3 0.673931 0.577971 0.852502
Si Si4 0.740127 0.356244 0.076219
Si Si5 0.358207 0.744441 0.395384
Si Si6 0.007954 0.116525 0.240055
Si Si7 0.520551 0.971854 0.311436
Si Si8 0.099949 0.383616 0.534274
O O1 0.852484 0.859331 0.665882
O O2 0.583670 0.927885 0.441712
O O3 0.062193 0.791933 0.574800
O O4 0.000000 0.000000 0.500000
O O5 0.473619 0.625569 0.727273
O O6 0.404818 0.726504 0.513994
O O7 0.028509 0.618399 0.575218
O O8 0.526820 0.632710 0.893308
O O9 0.992598 0.606252 0.865178
O O10 0.683318 0.447248 0.943152
O O11 0.830933 0.231417 0.128781
O O12 0.432762 0.865842 0.313910
O O13 0.043410 0.712178 0.375541
O O14 0.569508 0.654663 0.417580
O O15 0.262697 0.068900 0.232221
O O16 0.800545 0.022325 0.282019
O O17 0.000000 0.500000 0.500000
#
# Coordination Sequence:
#
# PCOD9080901 Si02
#       8
#     2   2   2   2   2   2   2   2
#     4  10  19  30  42  71  99 138 164 197 224 291
#     4  10  21  32  54  71 103 136 168 206 242 298
#     4  10  21  34  50  67  94 135 180 207 252 275
#     4  10  21  35  47  68  96 135 177 219 233 280
#     4  10  20  33  51  70 103 128 159 198 248 301
#     4  11  21  29  48  63 102 130 174 200 237 274
#     4  11  20  33  43  72  95 136 163 198 239 293
#     4  10  21  35  52  73 100 130 160 205 253 300
#
# _framework density 17.891691000000002
#
# number of rings (size 3 to 8) (size 9 to 14) (size 15 to 20)
#    0.750    1.000    2.500    3.750    5.250    0.000 
#    0.000    0.000    0.000    0.000    0.000    0.000 
#    0.000    6.000    0.000    0.000    0.000    0.000 
#
# Total GULP energy -89120.049349 kJ/mol
# GULP energy per Si atom -5570.003084 kJ/mol
# Density = 1.785097 g / cm^3
# Si number density = 17.891691 Si / 1000 Ang^3
#
#
#
# Elastic Constant Matrix: (Units=GPa)
#
#
# Indices 1 2 3 4 5 6 
#
# 1 52.3175 -3.7935 -8.8561 2.9685 8.2300 -6.6020
# 2 -3.7935 69.2408 9.3840 -16.9750 3.6076 -12.2114
# 3 -8.8561 9.3840 54.6658 -18.6800 11.5489 -2.8865
# 4 2.9685 -16.9750 -18.6800 17.6540 -3.8307 4.6494
# 5 8.2300 3.6076 11.5489 -3.8307 18.6880 -9.9096
# 6 -6.6020 -12.2114 -2.8865 4.6494 -9.9096 25.5256
#
#
#
# Elastic Compliance Matrix: (Units=1/GPa)
#
#
# Indices 1 2 3 4 5 6 
#
# 1 0.022617 0.001795 0.006827 0.001763 -0.013056 0.002091
# 2 0.001795 0.020736 0.004846 0.023065 0.000641 0.006980
# 3 0.006827 0.004846 0.036207 0.038973 -0.022359 -0.007600
# 4 0.001763 0.023065 0.038973 0.120209 -0.009889 -0.009837
# 5 -0.013056 0.000641 -0.022359 -0.009889 0.086777 0.029891
# 6 0.002091 0.006980 -0.007600 -0.009837 0.029891 0.055593
#
#
# Mechanical properties :
#
#
# Convention : Reuss Voigt Hill
#
# Bulk Modulus (GPa) = 9.38987 18.85477 14.12232
# Shear Modulus (GPa) = 14.25711 24.33950 19.29831
#
# Velocity S-wave (km/s) = 2.82593 3.69233 3.28780
# Velocity P-wave (km/s) = 3.98841 5.36087 4.72474
#
# Compressibility (1/GPa) = 0.10649779
#
# Stress axis : x y z
#
# Youngs Moduli (GPa) = 44.21357 48.22466 27.61898
#
# Poissons Ratio (x) = -0.08657 -0.18856
# Poissons Ratio (y) = -0.07937 -0.13384
# Poissons Ratio (z) = -0.30185 -0.23370
#
# Static dielectric constant tensor:
#      x y z
#    x 1.673250 0.038700 -0.018490 
#    y 0.038700 1.632360 -0.022300 
#    z -0.018490 -0.022300 1.619210 
# 
# From -- ./inp_files/484923.got.cif
#   From: 2010.05.17/outbox.cif.g08.bks.cpg/sg2_243_cif.got.tgz:484923.got - 2010.06.03 11:33:40.
