data_PCOD9080191
_publ_section_title
;
Structure prediction by ZEFSAII (Michael W. Deem and Ramdas Pophale) SiO2 
 PCOD9080191
Probable space group: P -1
;
_chemical_formula_sum "Si O2"
_cell_formula_units_Z 14
_cell_length_a 12.633587
_cell_length_b 15.290464
_cell_length_c 9.311901
_cell_angle_alpha 65.995356
_cell_angle_beta 141.706096
_cell_angle_gamma 142.511425
_cell_volume 556.208911
_symmetry_space_group_name_H-M "P -1"
_symmetry_group_IT_number 2
_symmetry_cell_setting 'triclinic'
loop_
_space_group_symop_operation_xyz
x,y,z
-x,-y,-z
loop_
_atom_site_type_symbol
_atom_site_label
_atom_site_fract_x
_atom_site_fract_y
_atom_site_fract_z
Si Si1 0.415104 0.018409 0.039895
Si Si2 0.257136 0.563984 0.568615
Si Si3 0.817598 0.848564 0.133014
Si Si4 0.489047 0.248468 0.560159
Si Si5 0.955044 0.702931 0.290508
Si Si6 0.750347 0.170708 0.760533
Si Si7 0.437699 0.704766 0.066241
O O1 0.376872 0.107712 0.886537
O O2 0.721577 0.157757 0.371978
O O3 0.169137 0.856639 0.996584
O O4 0.500000 0.000000 0.000000
O O5 0.387411 0.616367 0.511956
O O6 0.907881 0.441936 0.270705
O O7 0.516034 0.752181 0.796400
O O8 0.254989 0.465977 0.724189
O O9 0.899820 0.789977 0.177871
O O10 0.679400 0.752376 0.204938
O O11 0.117415 0.056473 0.304014
O O12 0.623939 0.210145 0.668900
O O13 0.602890 0.327095 0.787502
O O14 0.974435 0.681402 0.159354
O O15 0.500000 0.000000 0.500000
#
# Coordination Sequence:
#
# PCOD9080191 Si02
#       7
#     2   2   2   2   2   2   2
#     4  10  18  38  65  98 125 173 217 268 324 392
#     4  11  27  44  67  98 136 180 220 269 334 398
#     4  12  24  44  69  98 135 173 224 277 326 391
#     4  12  24  44  70 101 131 175 224 279 322 394
#     4  10  23  43  65  96 132 175 220 273 326 392
#     4  10  20  37  69  96 130 166 229 265 326 384
#     4  11  25  43  69  99 138 173 218 274 341 389
#
# _framework density 25.170400000000001
#
# number of rings (size 3 to 8) (size 9 to 14) (size 15 to 20)
#    0.000    1.143    4.286    2.143    8.000    1.143 
#    0.000    0.714    0.000    0.000    0.000    0.000 
#    0.000    0.000    0.000    0.000    0.000    0.000 
#
# Total GULP energy -78251.640666 kJ/mol
# GULP energy per Si atom -5589.402905 kJ/mol
# Density = 2.511311 g / cm^3
# Si number density = 25.170400 Si / 1000 Ang^3
#
#
#
# Elastic Constant Matrix: (Units=GPa)
#
#
# Indices 1 2 3 4 5 6 
#
# 1 140.2348 28.0924 20.3430 -15.4481 -6.1280 31.1627
# 2 28.0924 114.4277 21.9028 -16.6437 1.3056 39.5161
# 3 20.3430 21.9028 60.8158 12.3418 -3.9685 14.3690
# 4 -15.4481 -16.6437 12.3418 36.7593 14.3618 -7.9118
# 5 -6.1280 1.3056 -3.9685 14.3618 28.0063 -6.9502
# 6 31.1627 39.5161 14.3690 -7.9118 -6.9502 51.4446
#
#
#
# Elastic Compliance Matrix: (Units=1/GPa)
#
#
# Indices 1 2 3 4 5 6 
#
# 1 0.008962 0.000849 -0.003427 0.005241 -0.002404 -0.004642
# 2 0.000849 0.014667 -0.005992 0.010485 -0.009138 -0.009728
# 3 -0.003427 -0.005992 0.024208 -0.016975 0.011378 -0.001157
# 4 0.005241 0.010485 -0.016975 0.050314 -0.028183 -0.002557
# 5 -0.002404 -0.009138 0.011378 -0.028183 0.053711 0.008220
# 6 -0.004642 -0.009728 -0.001157 -0.002557 0.008220 0.030763
#
#
# Mechanical properties :
#
#
# Convention : Reuss Voigt Hill
#
# Bulk Modulus (GPa) = 32.57743 50.68387 41.63065
# Shear Modulus (GPa) = 23.80982 39.58471 31.69726
#
# Velocity S-wave (km/s) = 3.07896 3.96999 3.55252
# Velocity P-wave (km/s) = 5.06071 6.41829 5.77950
#
# Compressibility (1/GPa) = 0.03069610
#
# Stress axis : x y z
#
# Youngs Moduli (GPa) = 111.58324 68.18189 41.30860
#
# Poissons Ratio (x) = -0.05786 0.14157
# Poissons Ratio (y) = -0.09470 0.24751
# Poissons Ratio (z) = 0.38241 0.40853
#
# Static dielectric constant tensor:
#      x y z
#    x 2.145350 0.032000 0.017070 
#    y 0.032000 2.168630 0.050090 
#    z 0.017070 0.050090 2.020510 
# 
# From -- ./inp_files/279338.got.cif
#   From: 2010.05.17/outbox.cif.g08.bks.cpg/sg2_140_cif.got.tgz:279338.got - 2010.06.03 11:33:40.
