data_PCOD9080354
_publ_section_title
;
Structure prediction by ZEFSAII (Michael W. Deem and Ramdas Pophale) SiO2 
 PCOD9080354
Probable space group: P -1
;
_chemical_formula_sum "Si O2"
_cell_formula_units_Z 16
_cell_length_a 19.238310
_cell_length_b 8.852118
_cell_length_c 8.189465
_cell_angle_alpha 85.780801
_cell_angle_beta 112.021220
_cell_angle_gamma 41.896850
_cell_volume 709.606140
_symmetry_space_group_name_H-M "P -1"
_symmetry_group_IT_number 2
_symmetry_cell_setting 'triclinic'
loop_
_space_group_symop_operation_xyz
x,y,z
-x,-y,-z
loop_
_atom_site_type_symbol
_atom_site_label
_atom_site_fract_x
_atom_site_fract_y
_atom_site_fract_z
Si Si1 0.824212 0.795069 0.942867
Si Si2 0.460159 0.082098 0.647681
Si Si3 0.104016 0.253918 0.351395
Si Si4 0.715258 0.827758 0.293892
Si Si5 0.885329 0.399822 0.184293
Si Si6 0.442659 0.393676 0.823290
Si Si7 0.304903 0.520968 0.993645
Si Si8 0.430894 0.589921 0.259222
O O1 0.829865 0.849750 0.761416
O O2 0.695708 0.082842 0.892489
O O3 0.821772 0.616956 0.969567
O O4 0.965758 0.588303 0.177630
O O5 0.336465 0.185767 0.596606
O O6 0.431196 0.300968 0.665577
O O7 0.500000 0.000000 0.500000
O O8 0.592222 0.795372 0.883179
O O9 0.199105 0.173242 0.570267
O O10 0.040844 0.196045 0.340570
O O11 0.811915 0.572702 0.274620
O O12 0.577629 0.112247 0.060819
O O13 0.843312 0.298882 0.121335
O O14 0.461872 0.532456 0.770099
O O15 0.321350 0.571012 0.828715
O O16 0.369220 0.529956 0.177357
O O17 0.500000 0.500000 0.500000
#
# Coordination Sequence:
#
# PCOD9080354 Si02
#       8
#     2   2   2   2   2   2   2   2
#     4   9  21  41  59  90 121 154 208 251 299 353
#     4  11  22  34  61  94 122 154 202 257 305 358
#     4   9  21  36  68  90 114 161 207 260 292 346
#     4  11  19  33  66  94 115 151 207 256 302 350
#     4  10  18  39  61  87 116 154 210 249 296 348
#     4  11  21  41  57  90 125 157 204 251 303 366
#     4  11  22  37  58  87 123 163 189 254 310 353
#     4  12  25  39  59  88 128 165 197 241 317 378
#
# _framework density 22.547719000000001
#
# number of rings (size 3 to 8) (size 9 to 14) (size 15 to 20)
#    0.750    0.750    3.750    2.250    7.000    0.000 
#    0.000    0.625    0.000    3.000    0.000    0.000 
#    0.000    0.000    0.000    0.000    0.000    0.000 
#
# Total GULP energy -89324.404264 kJ/mol
# GULP energy per Si atom -5582.775266 kJ/mol
# Density = 2.249640 g / cm^3
# Si number density = 22.547719 Si / 1000 Ang^3
#
#
#
# Elastic Constant Matrix: (Units=GPa)
#
#
# Indices 1 2 3 4 5 6 
#
# 1 192.6766 25.2713 47.8969 37.4261 19.1822 -4.8506
# 2 25.2713 36.8400 24.3021 16.7778 3.9530 0.8543
# 3 47.8969 24.3021 66.4694 28.4498 9.2417 3.2359
# 4 37.4261 16.7778 28.4498 30.8130 6.2736 -1.3719
# 5 19.1822 3.9530 9.2417 6.2736 34.4758 19.2756
# 6 -4.8506 0.8543 3.2359 -1.3719 19.2756 33.4853
#
#
#
# Elastic Compliance Matrix: (Units=1/GPa)
#
#
# Indices 1 2 3 4 5 6 
#
# 1 0.007465 -0.000697 -0.002352 -0.005429 -0.004531 0.003712
# 2 -0.000697 0.038905 -0.008233 -0.013106 0.001454 -0.001672
# 3 -0.002352 -0.008233 0.027856 -0.018598 0.000256 -0.003732
# 4 -0.005429 -0.013106 -0.018598 0.065082 -0.006750 0.007897
# 5 -0.004531 0.001454 0.000256 -0.006750 0.048773 -0.029071
# 6 0.003712 -0.001672 -0.003732 0.007897 -0.029071 0.047863
#
#
# Mechanical properties :
#
#
# Convention : Reuss Voigt Hill
#
# Bulk Modulus (GPa) = 19.35650 54.54741 36.95195
# Shear Modulus (GPa) = 18.13379 32.98919 25.56149
#
# Velocity S-wave (km/s) = 2.83899 3.82918 3.37064
# Velocity P-wave (km/s) = 4.39884 6.61775 5.61892
#
# Compressibility (1/GPa) = 0.05166224
#
# Stress axis : x y z
#
# Youngs Moduli (GPa) = 133.95770 25.70340 35.89947
#
# Poissons Ratio (x) = 0.01792 0.08442
# Poissons Ratio (y) = 0.09340 0.29556
# Poissons Ratio (z) = 0.31501 0.21162
#
# Static dielectric constant tensor:
#      x y z
#    x 1.942820 0.005160 -0.004830 
#    y 0.005160 1.829130 0.019210 
#    z -0.004830 0.019210 1.827850 
# 
# From -- ./inp_files/328881.got.cif
#   From: 2010.05.17/outbox.cif.g08.bks.cpg/sg2_165_cif.got.tgz:328881.got - 2010.06.03 11:33:40.
