data_PCOD9080787
_publ_section_title
;
Structure prediction by ZEFSAII (Michael W. Deem and Ramdas Pophale) SiO2 
 PCOD9080787
Probable space group: P -1
;
_chemical_formula_sum "Si O2"
_cell_formula_units_Z 12
_cell_length_a 9.760913
_cell_length_b 13.841415
_cell_length_c 14.076344
_cell_angle_alpha 20.878857
_cell_angle_beta 118.684983
_cell_angle_gamma 114.503930
_cell_volume 591.131304
_symmetry_space_group_name_H-M "P -1"
_symmetry_group_IT_number 2
_symmetry_cell_setting 'triclinic'
loop_
_space_group_symop_operation_xyz
x,y,z
-x,-y,-z
loop_
_atom_site_type_symbol
_atom_site_label
_atom_site_fract_x
_atom_site_fract_y
_atom_site_fract_z
Si Si1 0.347745 0.328465 0.701884
Si Si2 0.383137 0.317983 0.503161
Si Si3 0.921419 0.259614 0.011719
Si Si4 0.160725 0.374708 0.117165
Si Si5 0.141460 0.885668 0.085937
Si Si6 0.732393 0.095961 0.273929
O O1 0.392158 0.242968 0.686443
O O2 0.493503 0.462370 0.672005
O O3 0.210222 0.579155 0.416555
O O4 0.280876 0.079006 0.960220
O O5 0.401829 0.057085 0.680840
O O6 0.211445 0.481038 0.276853
O O7 0.094752 0.333719 0.027577
O O8 0.860321 0.090630 0.235271
O O9 0.912590 0.112101 0.044053
O O10 0.213043 0.093265 0.445255
O O11 0.000000 0.500000 0.000000
O O12 0.282260 0.594978 0.976273
O O13 0.000000 0.000000 0.000000
#
# Coordination Sequence:
#
# PCOD9080787 Si02
#       6
#     2   2   2   2   2   2
#     4  10  23  35  53  78 106 137 176 212 261 312
#     4  10  20  32  54  79 112 137 161 213 275 315
#     4  10  20  32  52  78 111 135 167 214 260 306
#     4  10  19  27  46  75 113 132 166 200 258 326
#     4  11  23  39  55  74 103 143 183 213 247 301
#     4  11  18  30  47  79 111 135 160 203 266 324
#
# _framework density 20.300059000000001
#
# number of rings (size 3 to 8) (size 9 to 14) (size 15 to 20)
#    0.000    1.667    5.000    2.500    2.333    2.000 
#    0.000    0.000    0.000    0.000    0.000    7.000 
#    0.000    0.000    0.000    0.000    0.000    0.000 
#
# Total GULP energy -66952.706451 kJ/mol
# GULP energy per Si atom -5579.392204 kJ/mol
# Density = 2.025385 g / cm^3
# Si number density = 20.300059 Si / 1000 Ang^3
#
#
#
# Elastic Constant Matrix: (Units=GPa)
#
#
# Indices 1 2 3 4 5 6 
#
# 1 43.5684 20.9768 10.6119 -2.3337 1.0765 -1.7565
# 2 20.9768 144.5118 26.5000 -9.2603 -8.3865 14.6063
# 3 10.6119 26.5000 86.9097 -2.8220 -2.6064 0.0197
# 4 -2.3337 -9.2603 -2.8220 26.7790 8.0154 -2.0308
# 5 1.0765 -8.3865 -2.6064 8.0154 14.8141 -4.7797
# 6 -1.7565 14.6063 0.0197 -2.0308 -4.7797 12.3131
#
#
#
# Elastic Compliance Matrix: (Units=1/GPa)
#
#
# Indices 1 2 3 4 5 6 
#
# 1 0.025984 -0.004269 -0.001901 0.002164 -0.003274 0.007860
# 2 -0.004269 0.009194 -0.002207 0.001512 0.000771 -0.010963
# 3 -0.001901 -0.002207 0.012473 -0.000005 0.002099 0.003142
# 4 0.002164 0.001512 -0.000005 0.045250 -0.024986 -0.003721
# 5 -0.003274 0.000771 0.002099 -0.024986 0.091785 0.030123
# 6 0.007860 -0.010963 0.003142 -0.003721 0.030123 0.106415
#
#
# Mechanical properties :
#
#
# Convention : Reuss Voigt Hill
#
# Bulk Modulus (GPa) = 32.36504 43.46301 37.91403
# Shear Modulus (GPa) = 15.71558 25.24132 20.47845
#
# Velocity S-wave (km/s) = 2.78540 3.53003 3.17959
# Velocity P-wave (km/s) = 5.13055 6.17022 5.67424
#
# Compressibility (1/GPa) = 0.03089754
#
# Stress axis : x y z
#
# Youngs Moduli (GPa) = 38.48454 108.76589 80.17026
#
# Poissons Ratio (x) = 0.46432 0.15239
# Poissons Ratio (y) = 0.16429 0.17697
# Poissons Ratio (z) = 0.07315 0.24009
#
# Static dielectric constant tensor:
#      x y z
#    x 1.701090 0.045950 -0.008190 
#    y 0.045950 1.852590 -0.019720 
#    z -0.008190 -0.019720 1.770050 
# 
# From -- ./inp_files/61079.got.cif
#   From: 2010.05.17/outbox.cif.g08.bks.cpg/sg2_31_cif.got.tgz:61079.got - 2010.06.03 11:33:40.
