data_PCOD9080219
_publ_section_title
;
Structure prediction by ZEFSAII (Michael W. Deem and Ramdas Pophale) SiO2 
 PCOD9080219
Probable space group: P -1
;
_chemical_formula_sum "Si O2"
_cell_formula_units_Z 16
_cell_length_a 21.145978
_cell_length_b 9.691602
_cell_length_c 24.981033
_cell_angle_alpha 32.764973
_cell_angle_beta 15.600383
_cell_angle_gamma 40.016342
_cell_volume 710.148250
_symmetry_space_group_name_H-M "P -1"
_symmetry_group_IT_number 2
_symmetry_cell_setting 'triclinic'
loop_
_space_group_symop_operation_xyz
x,y,z
-x,-y,-z
loop_
_atom_site_type_symbol
_atom_site_label
_atom_site_fract_x
_atom_site_fract_y
_atom_site_fract_z
Si Si1 0.480518 0.994835 0.769293
Si Si2 0.517980 0.917392 0.641267
Si Si3 0.008657 0.198528 0.083166
Si Si4 0.837118 0.096932 0.677743
Si Si5 0.201173 0.389817 0.206864
Si Si6 0.723284 0.377517 0.531514
Si Si7 0.272506 0.056728 0.698805
Si Si8 0.424648 0.305599 0.902760
O O1 0.548007 0.023399 0.642369
O O2 0.688582 0.151484 0.589443
O O3 0.394552 0.679304 0.954889
O O4 0.255930 0.124079 0.919289
O O5 0.405647 0.595839 0.837257
O O6 0.781137 0.009004 0.365615
O O7 0.327133 0.016936 0.728596
O O8 0.958105 0.135163 0.082008
O O9 0.000000 0.500000 0.000000
O O10 0.100125 0.278590 0.383683
O O11 0.652256 0.271279 0.763602
O O12 0.743781 0.854539 0.789288
O O13 0.800237 0.945551 0.813396
O O14 0.967709 0.421904 0.352951
O O15 0.728629 0.646922 0.409370
O O16 0.500206 0.303705 0.780180
O O17 0.500000 0.000000 0.500000
#
# Coordination Sequence:
#
# PCOD9080219 Si02
#       8
#     2   2   2   2   2   2   2   2
#     4  12  24  42  66  96 133 172 212 271 317 377
#     4  11  23  41  66  94 131 171 223 257 313 394
#     4  11  23  40  62  95 135 173 213 265 320 369
#     4   9  19  36  69  87 122 167 212 264 331 382
#     4  10  20  42  63  94 126 165 212 270 327 377
#     4  11  22  40  65  93 132 164 216 265 318 384
#     4  10  19  38  62  91 128 170 210 258 307 383
#     4  10  18  38  66  93 119 173 212 261 326 382
#
# _framework density 22.530508999999999
#
# number of rings (size 3 to 8) (size 9 to 14) (size 15 to 20)
#    0.000    1.500    5.000    2.250    0.000    2.500 
#    4.500    6.250    0.000    0.000    0.000    0.000 
#    0.000    0.000    0.000    0.000    0.000    0.000 
#
# Total GULP energy -89437.253116 kJ/mol
# GULP energy per Si atom -5589.828320 kJ/mol
# Density = 2.247923 g / cm^3
# Si number density = 22.530509 Si / 1000 Ang^3
#
#
#
# Elastic Constant Matrix: (Units=GPa)
#
#
# Indices 1 2 3 4 5 6 
#
# 1 98.4072 30.3009 38.6468 -12.8912 20.1626 12.8883
# 2 30.3009 72.4496 24.8567 -11.9921 15.5303 -11.1900
# 3 38.6468 24.8567 48.9894 -13.1325 20.3203 0.9038
# 4 -12.8912 -11.9921 -13.1325 38.3297 -0.7710 4.3901
# 5 20.1626 15.5303 20.3203 -0.7710 33.8980 -1.5829
# 6 12.8883 -11.1900 0.9038 4.3901 -1.5829 41.6086
#
#
#
# Elastic Compliance Matrix: (Units=1/GPa)
#
#
# Indices 1 2 3 4 5 6 
#
# 1 0.016683 -0.003801 -0.009485 0.001836 -0.002748 -0.006282
# 2 -0.003801 0.019052 -0.004827 0.002271 -0.003241 0.006043
# 3 -0.009485 -0.004827 0.038985 0.008426 -0.015357 -0.000680
# 4 0.001836 0.002271 0.008426 0.030585 -0.006657 -0.003621
# 5 -0.002748 -0.003241 -0.015357 -0.006657 0.041795 0.002606
# 6 -0.006282 0.006043 -0.000680 -0.003621 0.002606 0.028101
#
#
# Mechanical properties :
#
#
# Convention : Reuss Voigt Hill
#
# Bulk Modulus (GPa) = 25.97667 45.27275 35.62471
# Shear Modulus (GPa) = 22.29560 31.17007 26.73283
#
# Velocity S-wave (km/s) = 3.14916 3.72353 3.44832
# Velocity P-wave (km/s) = 4.97770 6.21480 5.63033
#
# Compressibility (1/GPa) = 0.03849608
#
# Stress axis : x y z
#
# Youngs Moduli (GPa) = 59.93994 52.48682 25.65070
#
# Poissons Ratio (x) = 0.19949 0.24329
# Poissons Ratio (y) = 0.22781 0.12382
# Poissons Ratio (z) = 0.56851 0.25336
#
# Static dielectric constant tensor:
#      x y z
#    x 1.847550 -0.025410 0.012370 
#    y -0.025410 1.875500 0.076360 
#    z 0.012370 0.076360 1.899300 
# 
# From -- ./inp_files/214834.got.cif
#   From: 2010.05.17/outbox.cif.g08.bks.cpg/sg2_108_cif.got.tgz:214834.got - 2010.06.03 11:33:40.
