data_PCOD9080340
_publ_section_title
;
Structure prediction by ZEFSAII (Michael W. Deem and Ramdas Pophale) SiO2 
 PCOD9080340
Probable space group: P -1
;
_chemical_formula_sum "Si O2"
_cell_formula_units_Z 16
_cell_length_a 14.652170
_cell_length_b 8.942342
_cell_length_c 12.340628
_cell_angle_alpha 110.828122
_cell_angle_beta 114.977632
_cell_angle_gamma 25.809870
_cell_volume 636.907367
_symmetry_space_group_name_H-M "P -1"
_symmetry_group_IT_number 2
_symmetry_cell_setting 'triclinic'
loop_
_space_group_symop_operation_xyz
x,y,z
-x,-y,-z
loop_
_atom_site_type_symbol
_atom_site_label
_atom_site_fract_x
_atom_site_fract_y
_atom_site_fract_z
Si Si1 0.195706 0.562091 0.768332
Si Si2 0.571235 0.779725 0.711704
Si Si3 0.508349 0.239625 0.564005
Si Si4 0.521263 0.545518 0.762407
Si Si5 0.055436 0.191634 0.097647
Si Si6 0.278520 0.807438 0.900084
Si Si7 0.053153 0.755726 0.521223
Si Si8 0.910667 0.526293 0.709468
O O1 0.256756 0.659274 0.806602
O O2 0.018386 0.779673 0.638931
O O3 0.115989 0.662784 0.878188
O O4 0.395349 0.160110 0.753987
O O5 0.484850 0.806166 0.570549
O O6 0.594646 0.611129 0.769683
O O7 0.792769 0.555065 0.728707
O O8 0.466944 0.483843 0.632112
O O9 0.314931 0.399468 0.553465
O O10 0.720691 0.883659 0.639350
O O11 0.323745 0.846530 0.825649
O O12 0.719761 0.187824 0.835787
O O13 0.009769 0.440366 0.168022
O O14 0.088052 0.120450 0.968027
O O15 0.500000 0.500000 0.000000
O O16 0.968390 0.733565 0.395971
O O17 0.000000 0.000000 0.500000
#
# Coordination Sequence:
#
# PCOD9080340 Si02
#       8
#     2   2   2   2   2   2   2   2
#     4  12  22  41  63  94 125 158 203 254 313 356
#     4  11  20  35  62  90 123 160 204 248 299 368
#     4  10  18  39  59  86 125 168 200 239 301 372
#     4  10  21  38  63  91 116 165 210 246 295 370
#     4  10  24  40  63  89 122 163 206 253 303 357
#     4  10  21  45  68  84 117 167 211 252 301 360
#     4  11  22  35  63  94 129 162 194 253 310 363
#     4  10  20  42  59  87 128 167 200 239 305 373
#
# _framework density 25.121393000000001
#
# number of rings (size 3 to 8) (size 9 to 14) (size 15 to 20)
#    0.000    1.500    3.750    3.000    3.500    1.500 
#    0.000    6.250    0.000    0.000    0.000    0.000 
#    0.000    0.000    0.000    0.000    0.000    0.000 
#
# Total GULP energy -89516.710734 kJ/mol
# GULP energy per Si atom -5594.794421 kJ/mol
# Density = 2.506422 g / cm^3
# Si number density = 25.121393 Si / 1000 Ang^3
#
#
#
# Elastic Constant Matrix: (Units=GPa)
#
#
# Indices 1 2 3 4 5 6 
#
# 1 111.0624 5.1774 10.9976 5.9812 -14.4988 23.8536
# 2 5.1774 70.6449 25.4774 20.2428 4.0603 23.9248
# 3 10.9976 25.4774 91.8937 5.4643 -3.3931 9.0595
# 4 5.9812 20.2428 5.4643 25.7124 -1.8124 -1.6875
# 5 -14.4988 4.0603 -3.3931 -1.8124 28.9334 10.9997
# 6 23.8536 23.9248 9.0595 -1.6875 10.9997 38.2110
#
#
#
# Elastic Compliance Matrix: (Units=1/GPa)
#
#
# Indices 1 2 3 4 5 6 
#
# 1 0.014483 0.006892 -0.000997 -0.008847 0.012077 -0.016987
# 2 0.006892 0.031509 -0.005188 -0.026540 0.006597 -0.025872
# 3 -0.000997 -0.005188 0.012331 0.001845 0.001571 0.000577
# 4 -0.008847 -0.026540 0.001845 0.062718 -0.006588 0.026369
# 5 0.012077 0.006597 0.001571 -0.006588 0.049574 -0.026604
# 6 -0.016987 -0.025872 0.000577 0.026369 -0.026604 0.061660
#
#
# Mechanical properties :
#
#
# Convention : Reuss Voigt Hill
#
# Bulk Modulus (GPa) = 16.74034 39.65621 28.19827
# Shear Modulus (GPa) = 19.93824 34.03460 26.98642
#
# Velocity S-wave (km/s) = 2.82028 3.68476 3.28112
# Velocity P-wave (km/s) = 4.15735 5.82438 5.05999
#
# Compressibility (1/GPa) = 0.05973593
#
# Stress axis : x y z
#
# Youngs Moduli (GPa) = 69.04666 31.73724 81.09381
#
# Poissons Ratio (x) = -0.21873 0.08088
# Poissons Ratio (y) = -0.47587 0.42073
# Poissons Ratio (z) = 0.06886 0.16466
#
# Static dielectric constant tensor:
#      x y z
#    x 1.982000 -0.068260 -0.074900 
#    y -0.068260 2.072260 0.039930 
#    z -0.074900 0.039930 2.224880 
# 
# From -- ./inp_files/200172.got.cif
#   From: 2010.05.17/outbox.cif.g08.bks.cpg/sg2_101_cif.got.tgz:200172.got - 2010.06.03 11:33:40.
