data_PCOD9080984
_publ_section_title
;
Structure prediction by ZEFSAII (Michael W. Deem and Ramdas Pophale) SiO2 
 PCOD9080984
Probable space group: P -1
;
_chemical_formula_sum "Si O2"
_cell_formula_units_Z 16
_cell_length_a 18.583492
_cell_length_b 10.334314
_cell_length_c 15.140307
_cell_angle_alpha 47.778429
_cell_angle_beta 22.569288
_cell_angle_gamma 35.039577
_cell_volume 592.277644
_symmetry_space_group_name_H-M "P -1"
_symmetry_group_IT_number 2
_symmetry_cell_setting 'triclinic'
loop_
_space_group_symop_operation_xyz
x,y,z
-x,-y,-z
loop_
_atom_site_type_symbol
_atom_site_label
_atom_site_fract_x
_atom_site_fract_y
_atom_site_fract_z
Si Si1 0.756356 0.730159 0.753913
Si Si2 0.699672 0.468188 0.069219
Si Si3 0.426940 0.998677 0.730896
Si Si4 0.637984 0.210424 0.371151
Si Si5 0.713268 0.775161 0.020143
Si Si6 0.880157 0.226455 0.252755
Si Si7 0.102156 0.821834 0.548163
Si Si8 0.693507 0.532631 0.741979
O O1 0.716839 0.651872 0.742687
O O2 0.997740 0.704183 0.508654
O O3 0.492737 0.016741 0.913856
O O4 0.829399 0.519495 0.831829
O O5 0.764618 0.234276 0.135402
O O6 0.711015 0.571658 0.099651
O O7 0.411721 0.636658 0.277805
O O8 0.594752 0.037252 0.475108
O O9 0.379774 0.118177 0.825897
O O10 0.570730 0.722739 0.713353
O O11 0.133314 0.158425 0.958045
O O12 0.785575 0.147239 0.325256
O O13 0.353803 0.489490 0.583854
O O14 0.979564 0.707450 0.733677
O O15 0.967211 0.087233 0.312401
O O16 0.000000 0.000000 0.500000
O O17 0.500000 0.500000 0.000000
#
# Coordination Sequence:
#
# PCOD9080984 Si02
#       8
#     2   2   2   2   2   2   2   2
#     4  10  22  39  59  86 117 149 197 242 292 350
#     4  11  22  36  58  91 126 154 183 238 296 360
#     4  10  20  37  59  84 114 154 200 240 277 343
#     4  10  20  35  56  84 118 156 192 228 289 350
#     4  10  20  34  57  90 125 153 183 234 299 355
#     4   9  19  33  54  84 121 156 191 228 282 351
#     4  10  19  30  50  84 123 157 186 224 289 344
#     4  10  24  42  61  82 111 154 202 249 293 336
#
# _framework density 27.014358000000001
#
# number of rings (size 3 to 8) (size 9 to 14) (size 15 to 20)
#    0.000    2.000    1.250    3.000    0.000   10.000 
#    0.000    0.625    0.000    1.500    0.000    0.000 
#    0.000    0.000    0.000    0.000    0.000    0.000 
#
# Total GULP energy -89505.047996 kJ/mol
# GULP energy per Si atom -5594.065500 kJ/mol
# Density = 2.695287 g / cm^3
# Si number density = 27.014358 Si / 1000 Ang^3
#
#
#
# Elastic Constant Matrix: (Units=GPa)
#
#
# Indices 1 2 3 4 5 6 
#
# 1 88.0377 28.4815 32.6172 1.8850 -15.1485 -15.7117
# 2 28.4815 112.1770 71.4804 -32.7658 -20.9553 -14.6172
# 3 32.6172 71.4804 159.0606 -35.6306 -49.3619 -7.0440
# 4 1.8850 -32.7658 -35.6306 46.7174 -6.1219 -2.0603
# 5 -15.1485 -20.9553 -49.3619 -6.1219 48.4780 -0.8449
# 6 -15.7117 -14.6172 -7.0440 -2.0603 -0.8449 31.0174
#
#
#
# Elastic Compliance Matrix: (Units=1/GPa)
#
#
# Indices 1 2 3 4 5 6 
#
# 1 0.014086 -0.002415 -0.002068 -0.003486 0.000905 0.005321
# 2 -0.002415 0.015914 -0.002528 0.010268 0.004961 0.006520
# 3 -0.002068 -0.002528 0.015656 0.012437 0.015818 0.002574
# 4 -0.003486 0.010268 0.012437 0.041446 0.021408 0.009234
# 5 0.000905 0.004961 0.015818 0.021408 0.042021 0.008955
# 6 0.005321 0.006520 0.002574 0.009234 0.008955 0.039449
#
#
# Mechanical properties :
#
#
# Convention : Reuss Voigt Hill
#
# Bulk Modulus (GPa) = 31.61070 69.38149 50.49610
# Shear Modulus (GPa) = 25.88839 40.35564 33.12201
#
# Velocity S-wave (km/s) = 3.09903 3.86924 3.50535
# Velocity P-wave (km/s) = 4.95300 6.76020 5.92590
#
# Compressibility (1/GPa) = 0.03163486
#
# Stress axis : x y z
#
# Youngs Moduli (GPa) = 70.99290 62.83798 63.87446
#
# Poissons Ratio (x) = 0.15172 0.13207
# Poissons Ratio (y) = 0.17141 0.16148
# Poissons Ratio (z) = 0.14679 0.15886
#
# Static dielectric constant tensor:
#      x y z
#    x 2.131370 0.034460 0.115370 
#    y 0.034460 2.205580 0.058160 
#    z 0.115370 0.058160 2.178440 
# 
# From -- ./inp_files/570821.got.cif
#   From: 2010.05.17/outbox.cif.g08.bks.cpg/sg2_286_cif.got.tgz:570821.got - 2010.06.03 11:33:40.
