data_PCOD9080842
_publ_section_title
;
Structure prediction by ZEFSAII (Michael W. Deem and Ramdas Pophale) SiO2 
 PCOD9080842
Probable space group: P -1
;
_chemical_formula_sum "Si O2"
_cell_formula_units_Z 12
_cell_length_a 9.894293
_cell_length_b 10.095870
_cell_length_c 13.694318
_cell_angle_alpha 110.721387
_cell_angle_beta 109.391006
_cell_angle_gamma 29.520595
_cell_volume 629.570415
_symmetry_space_group_name_H-M "P -1"
_symmetry_group_IT_number 2
_symmetry_cell_setting 'triclinic'
loop_
_space_group_symop_operation_xyz
x,y,z
-x,-y,-z
loop_
_atom_site_type_symbol
_atom_site_label
_atom_site_fract_x
_atom_site_fract_y
_atom_site_fract_z
Si Si1 0.795231 0.770949 0.961268
Si Si2 0.671512 0.277043 0.571043
Si Si3 0.885328 0.867797 0.389623
Si Si4 0.329968 0.312866 0.262402
Si Si5 0.506280 0.435335 0.211101
Si Si6 0.011655 0.904658 0.077785
O O1 0.777702 0.728367 0.835510
O O2 0.000000 0.500000 0.000000
O O3 0.500000 0.000000 0.000000
O O4 0.896429 0.845245 0.014084
O O5 0.500000 0.500000 0.500000
O O6 0.505871 0.439266 0.672772
O O7 0.952743 0.130320 0.612117
O O8 0.754233 0.048078 0.502212
O O9 0.115848 0.552310 0.354293
O O10 0.628584 0.037421 0.307673
O O11 0.377438 0.401375 0.219707
O O12 0.807610 0.147850 0.170403
O O13 0.311795 0.641869 0.128725
O O14 0.000000 0.000000 0.000000
#
# Coordination Sequence:
#
# PCOD9080842 Si02
#       6
#     2   2   2   2   2   2
#     4  12  22  36  59  85 109 152 198 243 287 334
#     4  10  19  29  52  82 119 143 178 230 307 339
#     4  10  19  29  46  81 119 140 170 230 292 350
#     4  11  19  32  53  80 115 140 185 228 292 329
#     4  11  21  35  58  81 118 151 189 237 290 336
#     4  12  25  41  56  83 120 159 196 234 280 344
#
# _framework density 19.060616
#
# number of rings (size 3 to 8) (size 9 to 14) (size 15 to 20)
#    0.000    1.000    6.667    3.500    2.333    0.000 
#    0.000    0.000    0.000    0.000    0.000    7.000 
#    0.000    0.000    0.000    0.000    0.000    0.000 
#
# Total GULP energy -66976.038237 kJ/mol
# GULP energy per Si atom -5581.336520 kJ/mol
# Density = 1.901723 g / cm^3
# Si number density = 19.060616 Si / 1000 Ang^3
#
#
#
# Elastic Constant Matrix: (Units=GPa)
#
#
# Indices 1 2 3 4 5 6 
#
# 1 36.7380 17.6535 15.6450 -0.1348 -0.5482 6.3040
# 2 17.6535 92.0088 4.9247 3.0780 7.2769 -17.0776
# 3 15.6450 4.9247 82.5671 20.2169 14.7900 -7.3227
# 4 -0.1348 3.0780 20.2169 45.4843 -3.1143 1.9511
# 5 -0.5482 7.2769 14.7900 -3.1143 18.4204 -9.1946
# 6 6.3040 -17.0776 -7.3227 1.9511 -9.1946 13.8824
#
#
#
# Elastic Compliance Matrix: (Units=1/GPa)
#
#
# Indices 1 2 3 4 5 6 
#
# 1 0.057767 -0.023080 -0.017180 0.011814 -0.008948 -0.071273
# 2 -0.023080 0.023721 0.007672 -0.006704 0.007374 0.049535
# 3 -0.017180 0.007672 0.022043 -0.012160 -0.012003 0.022626
# 4 0.011814 -0.006704 -0.012160 0.029253 0.008457 -0.018536
# 5 -0.008948 0.007374 -0.012003 0.008457 0.097068 0.069904
# 6 -0.071273 0.049535 0.022626 -0.018536 0.069904 0.226175
#
#
# Mechanical properties :
#
#
# Convention : Reuss Voigt Hill
#
# Bulk Modulus (GPa) = 26.07250 31.97337 29.02293
# Shear Modulus (GPa) = 9.36348 27.09681 18.23015
#
# Velocity S-wave (km/s) = 2.21882 3.77452 3.09598
# Velocity P-wave (km/s) = 4.50251 5.98389 5.29526
#
# Compressibility (1/GPa) = 0.03835459
#
# Stress axis : x y z
#
# Youngs Moduli (GPa) = 17.31105 42.15589 45.36515
#
# Poissons Ratio (x) = 0.97298 0.77938
# Poissons Ratio (y) = 0.39955 -0.34805
# Poissons Ratio (z) = 0.29741 -0.32343
#
# Static dielectric constant tensor:
#      x y z
#    x 1.627440 -0.012370 0.010270 
#    y -0.012370 1.687440 0.028480 
#    z 0.010270 0.028480 1.729810 
# 
# From -- ./inp_files/293710.got.cif
#   From: 2010.05.17/outbox.cif.g08.bks.cpg/sg2_147_cif.got.tgz:293710.got - 2010.06.03 11:33:40.
