data_PCOD9080304
_publ_section_title
;
Structure prediction by ZEFSAII (Michael W. Deem and Ramdas Pophale) SiO2 
 PCOD9080304
Probable space group: P -1
;
_chemical_formula_sum "Si O2"
_cell_formula_units_Z 15
_cell_length_a 10.793852
_cell_length_b 18.364958
_cell_length_c 8.581108
_cell_angle_alpha 48.434535
_cell_angle_beta 39.839443
_cell_angle_gamma 31.294582
_cell_volume 565.914532
_symmetry_space_group_name_H-M "P -1"
_symmetry_group_IT_number 2
_symmetry_cell_setting 'triclinic'
loop_
_space_group_symop_operation_xyz
x,y,z
-x,-y,-z
loop_
_atom_site_type_symbol
_atom_site_label
_atom_site_fract_x
_atom_site_fract_y
_atom_site_fract_z
Si Si1 0.393044 0.783335 0.416187
Si Si2 0.209493 0.706764 0.458004
Si Si3 0.000000 0.000000 0.000000
Si Si4 0.612122 0.941522 0.648329
Si Si5 0.301034 0.509379 0.895804
Si Si6 0.341712 0.272316 0.219432
Si Si7 0.130102 0.062177 0.109396
Si Si8 0.090339 0.359970 0.658020
O O1 0.413548 0.706098 0.355876
O O2 0.266058 0.930535 0.272393
O O3 0.661871 0.712547 0.355516
O O4 0.161601 0.812066 0.704716
O O5 0.184904 0.623225 0.714282
O O6 0.366680 0.612809 0.285183
O O7 0.923599 0.871563 0.467373
O O8 0.669422 0.157330 0.102767
O O9 0.929212 0.960668 0.969463
O O10 0.684647 0.800368 0.783033
O O11 0.500000 0.000000 0.500000
O O12 0.379052 0.048467 0.850646
O O13 0.227045 0.421002 0.082271
O O14 0.171965 0.590198 0.069232
O O15 0.194859 0.282386 0.502144
O O16 0.000000 0.500000 0.500000
#
# Coordination Sequence:
#
# PCOD9080304 Si02
#       8
#     2   2   1   2   2   2   2   2
#     4  11  23  41  68  99 134 168 223 275 334 391
#     4  11  25  42  61  97 134 177 218 277 329 391
#     4  10  18  38  70  94 124 164 220 272 314 392
#     4  11  26  39  64  98 135 175 220 271 336 395
#     4  10  24  42  67  89 131 177 224 268 324 394
#     4  10  22  41  67  94 125 172 225 270 326 396
#     4  10  23  39  68  99 130 180 215 271 333 393
#     4  10  22  41  67  96 125 172 222 271 323 394
#
# _framework density 26.505769999999998
#
# number of rings (size 3 to 8) (size 9 to 14) (size 15 to 20)
#    0.000    1.600    1.333    2.400    7.467    6.933 
#    0.000    3.333    0.000    0.000    0.000    0.000 
#    0.000    0.000    0.000    0.000    0.000    0.000 
#
# Total GULP energy -83657.346194 kJ/mol
# GULP energy per Si atom -5577.156413 kJ/mol
# Density = 2.644544 g / cm^3
# Si number density = 26.505770 Si / 1000 Ang^3
#
#
#
# Elastic Constant Matrix: (Units=GPa)
#
#
# Indices 1 2 3 4 5 6 
#
# 1 84.0159 22.8758 2.4830 6.4642 -2.3555 -13.8965
# 2 22.8758 71.8494 25.3760 0.7813 -2.6119 -6.4462
# 3 2.4830 25.3760 169.1958 34.9663 20.5944 8.4208
# 4 6.4642 0.7813 34.9663 68.5377 19.9688 0.3215
# 5 -2.3555 -2.6119 20.5944 19.9688 24.9597 -0.4680
# 6 -13.8965 -6.4462 8.4208 0.3215 -0.4680 35.7001
#
#
#
# Elastic Compliance Matrix: (Units=1/GPa)
#
#
# Indices 1 2 3 4 5 6 
#
# 1 0.014006 -0.004035 0.000315 -0.002177 0.002470 0.004701
# 2 -0.004035 0.016611 -0.003112 0.000799 0.003327 0.002199
# 3 0.000315 -0.003112 0.007559 -0.002509 -0.004568 -0.002260
# 4 -0.002177 0.000799 -0.002509 0.020217 -0.014234 -0.000480
# 5 0.002470 0.003327 -0.004568 -0.014234 0.055869 0.003500
# 6 0.004701 0.002199 -0.002260 -0.000480 0.003500 0.030821
#
#
# Mechanical properties :
#
#
# Convention : Reuss Voigt Hill
#
# Bulk Modulus (GPa) = 40.79470 47.39233 44.09351
# Shear Modulus (GPa) = 29.95472 44.12792 37.04132
#
# Velocity S-wave (km/s) = 3.36537 4.08467 3.74235
# Velocity P-wave (km/s) = 5.52497 6.33758 5.94517
#
# Compressibility (1/GPa) = 0.02451299
#
# Stress axis : x y z
#
# Youngs Moduli (GPa) = 71.39642 60.19974 132.28493
#
# Poissons Ratio (x) = 0.24293 -0.04168
# Poissons Ratio (y) = 0.28812 0.41163
# Poissons Ratio (z) = -0.02250 0.18732
#
# Static dielectric constant tensor:
#      x y z
#    x 2.045920 -0.012120 -0.165720 
#    y -0.012120 2.056390 0.084810 
#    z -0.165720 0.084810 2.744010 
# 
# From -- ./inp_files/281600.got.cif
#   From: 2010.05.17/outbox.cif.g08.bks.cpg/sg2_141_cif.got.tgz:281600.got - 2010.06.03 11:33:40.
