data_PCOD9080926
_publ_section_title
;
Structure prediction by ZEFSAII (Michael W. Deem and Ramdas Pophale) SiO2 
 PCOD9080926
Probable space group: P -1
;
_chemical_formula_sum "Si O2"
_cell_formula_units_Z 16
_cell_length_a 13.829510
_cell_length_b 12.336499
_cell_length_c 14.169560
_cell_angle_alpha 56.192352
_cell_angle_beta 150.176393
_cell_angle_gamma 121.699986
_cell_volume 993.614861
_symmetry_space_group_name_H-M "P -1"
_symmetry_group_IT_number 2
_symmetry_cell_setting 'triclinic'
loop_
_space_group_symop_operation_xyz
x,y,z
-x,-y,-z
loop_
_atom_site_type_symbol
_atom_site_label
_atom_site_fract_x
_atom_site_fract_y
_atom_site_fract_z
Si Si1 0.749992 0.614962 0.569723
Si Si2 0.423161 0.387534 0.376694
Si Si3 0.281842 0.134953 0.274616
Si Si4 0.439763 0.198635 0.816078
Si Si5 0.544486 0.988157 0.694158
Si Si6 0.855191 0.161073 0.973413
Si Si7 0.403095 0.037748 0.044344
Si Si8 0.819723 0.374441 0.992956
O O1 0.631719 0.473820 0.516167
O O2 0.642013 0.662673 0.549554
O O3 0.709821 0.714806 0.404105
O O4 0.975516 0.609328 0.787411
O O5 0.400901 0.271770 0.339162
O O6 0.267826 0.490773 0.169772
O O7 0.358052 0.025424 0.461413
O O8 0.057628 0.149740 0.099221
O O9 0.330575 0.093036 0.230841
O O10 0.467458 0.068924 0.840543
O O11 0.387439 0.149688 0.900466
O O12 0.649632 0.285495 0.947687
O O13 0.509899 0.921106 0.799325
O O14 0.677234 0.123568 0.768930
O O15 0.849579 0.296042 0.958894
O O16 0.803634 0.045788 0.063806
#
# Coordination Sequence:
#
# PCOD9080926 Si02
#       8
#     2   2   2   2   2   2   2   2
#     4  10  19  30  47  72  99 129 157 198 243 283
#     4  10  21  29  49  74 103 125 159 201 245 288
#     4  11  19  33  51  73  99 133 161 191 246 294
#     4   9  17  33  47  71 102 128 159 200 239 285
#     4   9  21  33  49  72 102 129 160 200 236 289
#     4   9  19  31  50  73 101 125 159 199 240 292
#     4   8  17  33  48  69 102 128 158 203 236 279
#     4  10  19  31  49  76 100 128 159 195 250 290
#
# _framework density 16.102817999999999
#
# number of rings (size 3 to 8) (size 9 to 14) (size 15 to 20)
#    0.750    1.750    1.250    1.500    3.500    0.000 
#    2.250    1.875    0.000    3.000    0.000    1.750 
#    0.000    0.000    0.000    0.000    0.000    0.000 
#
# Total GULP energy -89098.467594 kJ/mol
# GULP energy per Si atom -5568.654225 kJ/mol
# Density = 1.606617 g / cm^3
# Si number density = 16.102818 Si / 1000 Ang^3
#
#
#
# Elastic Constant Matrix: (Units=GPa)
#
#
# Indices 1 2 3 4 5 6 
#
# 1 76.7940 24.2413 27.9708 -8.3560 -21.6605 -3.3437
# 2 24.2413 43.5094 15.3329 -2.6280 -8.1193 -1.0296
# 3 27.9708 15.3329 81.0181 1.5740 -5.3918 6.4643
# 4 -8.3560 -2.6280 1.5740 22.4486 4.8552 -4.2379
# 5 -21.6605 -8.1193 -5.3918 4.8552 28.5558 -3.7802
# 6 -3.3437 -1.0296 6.4643 -4.2379 -3.7802 16.4949
#
#
#
# Elastic Compliance Matrix: (Units=1/GPa)
#
#
# Indices 1 2 3 4 5 6 
#
# 1 0.023207 -0.007053 -0.006819 0.007423 0.014664 0.012204
# 2 -0.007053 0.028515 -0.003004 0.000846 0.002349 0.002283
# 3 -0.006819 -0.003004 0.015927 -0.005132 -0.003461 -0.009923
# 4 0.007423 0.000846 -0.005132 0.051210 -0.001640 0.016350
# 5 0.014664 0.002349 -0.003461 -0.001640 0.048442 0.015156
# 6 0.012204 0.002283 -0.009923 0.016350 0.015156 0.074804
#
#
# Mechanical properties :
#
#
# Convention : Reuss Voigt Hill
#
# Bulk Modulus (GPa) = 29.50147 37.37908 33.44028
# Shear Modulus (GPa) = 17.41210 22.41830 19.91520
#
# Velocity S-wave (km/s) = 3.29189 3.73526 3.52056
# Velocity P-wave (km/s) = 5.72793 6.47040 6.11045
#
# Compressibility (1/GPa) = 0.03389661
#
# Stress axis : x y z
#
# Youngs Moduli (GPa) = 43.08964 35.06897 62.78688
#
# Poissons Ratio (x) = 0.24735 0.42817
# Poissons Ratio (y) = 0.30392 0.18860
# Poissons Ratio (z) = 0.29385 0.10534
#
# Static dielectric constant tensor:
#      x y z
#    x 1.531100 0.008810 -0.005930 
#    y 0.008810 1.551070 0.007570 
#    z -0.005930 0.007570 1.553030 
# 
# From -- ./inp_files/530501.got.cif
#   From: 2010.05.17/outbox.cif.g08.bks.cpg/sg2_266_cif.got.tgz:530501.got - 2010.06.03 11:33:40.
