data_PCOD9080894
_publ_section_title
;
Structure prediction by ZEFSAII (Michael W. Deem and Ramdas Pophale) SiO2 
 PCOD9080894
Probable space group: P -1
;
_chemical_formula_sum "Si O2"
_cell_formula_units_Z 15
_cell_length_a 9.999041
_cell_length_b 21.281204
_cell_length_c 5.268397
_cell_angle_alpha 68.927957
_cell_angle_beta 110.620134
_cell_angle_gamma 147.573949
_cell_volume 558.270085
_symmetry_space_group_name_H-M "P -1"
_symmetry_group_IT_number 2
_symmetry_cell_setting 'triclinic'
loop_
_space_group_symop_operation_xyz
x,y,z
-x,-y,-z
loop_
_atom_site_type_symbol
_atom_site_label
_atom_site_fract_x
_atom_site_fract_y
_atom_site_fract_z
Si Si1 0.500000 0.000000 0.500000
Si Si2 0.157505 0.542150 0.790635
Si Si3 0.402310 0.770697 0.634972
Si Si4 0.695680 0.159045 0.883085
Si Si5 0.747933 0.995495 0.838169
Si Si6 0.118751 0.212851 0.079613
Si Si7 0.849725 0.584077 0.739173
Si Si8 0.628854 0.647641 0.472681
O O1 0.412721 0.913014 0.342338
O O2 0.793262 0.076493 0.570819
O O3 0.382008 0.683000 0.746720
O O4 0.000000 0.500000 0.500000
O O5 0.193313 0.476359 0.948803
O O6 0.000000 0.500000 0.000000
O O7 0.360658 0.784653 0.301581
O O8 0.651823 0.893147 0.774359
O O9 0.143466 0.695775 0.706108
O O10 0.949220 0.215826 0.993911
O O11 0.523357 0.077013 0.135007
O O12 0.938796 0.079399 0.074117
O O13 0.284684 0.291254 0.829229
O O14 0.283089 0.272243 0.354681
O O15 0.747288 0.619549 0.630720
O O16 0.669644 0.478154 0.568554
#
# Coordination Sequence:
#
# PCOD9080894 Si02
#       8
#     1   2   2   2   2   2   2   2
#     4   8  16  28  42  78 112 154 186 220 312 342
#     4  10  24  40  64  90 120 159 203 263 309 350
#     4  10  21  38  60  91 116 155 201 260 315 353
#     4  10  19  29  55  82 125 155 191 250 306 358
#     4  10  21  32  56  85 124 158 192 258 307 367
#     4  11  23  37  58  91 124 161 207 236 306 372
#     4  10  23  44  60  89 127 159 214 244 306 366
#     4  11  25  39  63  87 125 175 195 248 292 372
#
# _framework density 26.868718999999999
#
# number of rings (size 3 to 8) (size 9 to 14) (size 15 to 20)
#    0.000    1.867    1.333    2.400   14.933    4.267 
#    0.000    0.000    0.000    1.600    0.000    0.000 
#    0.000    0.000    0.000    0.000    0.000    0.000 
#
# Total GULP energy -83641.290900 kJ/mol
# GULP energy per Si atom -5576.086060 kJ/mol
# Density = 2.680756 g / cm^3
# Si number density = 26.868719 Si / 1000 Ang^3
#
#
#
# Elastic Constant Matrix: (Units=GPa)
#
#
# Indices 1 2 3 4 5 6 
#
# 1 96.6414 23.6511 38.2944 -13.0083 3.2950 8.5000
# 2 23.6511 149.4765 64.3432 29.2446 -13.5864 -10.2720
# 3 38.2944 64.3432 179.5160 9.5332 -13.4151 -6.5543
# 4 -13.0083 29.2446 9.5332 64.1374 -13.4814 7.1951
# 5 3.2950 -13.5864 -13.4151 -13.4814 37.2037 -6.5852
# 6 8.5000 -10.2720 -6.5543 7.1951 -6.5852 13.1175
#
#
#
# Elastic Compliance Matrix: (Units=1/GPa)
#
#
# Indices 1 2 3 4 5 6 
#
# 1 0.015882 -0.004474 -0.003391 0.007071 -0.005629 -0.022193
# 2 -0.004474 0.010929 -0.001695 -0.006573 0.004292 0.016369
# 3 -0.003391 -0.001695 0.007445 -0.001118 0.003163 0.006791
# 4 0.007071 -0.006573 -0.001118 0.022890 0.000901 -0.022391
# 5 -0.005629 0.004292 0.003163 0.000901 0.034950 0.025640
# 6 -0.022193 0.016369 0.006791 -0.022391 0.025640 0.131980
#
#
# Mechanical properties :
#
#
# Convention : Reuss Voigt Hill
#
# Bulk Modulus (GPa) = 66.06830 75.35680 70.71255
# Shear Modulus (GPa) = 20.14171 42.84806 31.49489
#
# Velocity S-wave (km/s) = 2.74092 3.99773 3.42742
# Velocity P-wave (km/s) = 5.88723 7.02967 6.48366
#
# Compressibility (1/GPa) = 0.01513585
#
# Stress axis : x y z
#
# Youngs Moduli (GPa) = 62.96527 91.50376 134.31419
#
# Poissons Ratio (x) = 0.40934 0.45545
# Poissons Ratio (y) = 0.28168 0.22771
# Poissons Ratio (z) = 0.21351 0.15513
#
# Static dielectric constant tensor:
#      x y z
#    x 2.182430 -0.022140 0.117520 
#    y -0.022140 2.276170 -0.191750 
#    z 0.117520 -0.191750 2.415070 
# 
# From -- ./inp_files/83802.got.cif
#   From: 2010.05.17/outbox.cif.g08.bks.cpg/sg2_42_cif.got.tgz:83802.got - 2010.06.03 11:33:40.
