data_PCOD9080757
_publ_section_title
;
Structure prediction by ZEFSAII (Michael W. Deem and Ramdas Pophale) SiO2 
 PCOD9080757
Probable space group: P -1
;
_chemical_formula_sum "Si O2"
_cell_formula_units_Z 11
_cell_length_a 10.104669
_cell_length_b 6.586089
_cell_length_c 10.341553
_cell_angle_alpha 115.890187
_cell_angle_beta 138.742059
_cell_angle_gamma 63.394259
_cell_volume 399.919962
_symmetry_space_group_name_H-M "P -1"
_symmetry_group_IT_number 2
_symmetry_cell_setting 'triclinic'
loop_
_space_group_symop_operation_xyz
x,y,z
-x,-y,-z
loop_
_atom_site_type_symbol
_atom_site_label
_atom_site_fract_x
_atom_site_fract_y
_atom_site_fract_z
Si Si1 0.330622 0.033504 0.513011
Si Si2 0.650625 0.314181 0.879724
Si Si3 0.500000 0.500000 0.500000
Si Si4 0.920690 0.630747 0.782836
Si Si5 0.374400 0.799238 0.866118
Si Si6 0.963866 0.725695 0.444708
O O1 0.369463 0.763234 0.478963
O O2 0.249835 0.137727 0.622425
O O3 0.534603 0.138530 0.674163
O O4 0.162584 0.171517 0.329786
O O5 0.503118 0.566598 0.827430
O O6 0.659810 0.259374 0.024498
O O7 0.877174 0.305798 0.990061
O O8 0.718751 0.599881 0.700123
O O9 0.013351 0.388913 0.710500
O O10 0.149081 0.849513 0.651684
O O11 0.500000 0.000000 0.000000
O O12 0.000000 0.500000 0.500000
#
# Coordination Sequence:
#
# PCOD9080757 Si02
#       6
#     2   2   1   2   2   2
#     4  11  24  47  68 100 135 174 225 281 327 401
#     4  11  22  41  70  98 136 178 214 272 356 378
#     4  12  30  44  70  96 132 194 226 260 342 400
#     4  11  24  47  68 100 135 174 225 281 327 401
#     4  11  22  36  66 115 135 163 217 286 334 405
#     4  10  18  42  72  95 137 166 211 289 334 369
#
# _framework density 27.505503000000001
#
# number of rings (size 3 to 8) (size 9 to 14) (size 15 to 20)
#    0.000    1.091    7.273    1.636    5.091    1.455 
#    0.000    1.818    0.000    0.000    0.000    0.000 
#    0.000    0.000    0.000    0.000    0.000    0.000 
#
# Total GULP energy -61470.091887 kJ/mol
# GULP energy per Si atom -5588.190172 kJ/mol
# Density = 2.744290 g / cm^3
# Si number density = 27.505503 Si / 1000 Ang^3
#
#
#
# Elastic Constant Matrix: (Units=GPa)
#
#
# Indices 1 2 3 4 5 6 
#
# 1 67.4925 25.2831 17.2568 -12.0417 29.0889 2.5308
# 2 25.2831 174.0558 38.3773 20.9823 2.7633 -37.5484
# 3 17.2568 38.3773 198.3617 9.9157 37.9099 1.3087
# 4 -12.0417 20.9823 9.9157 52.8506 7.1046 7.3881
# 5 29.0889 2.7633 37.9099 7.1046 55.5174 2.3617
# 6 2.5308 -37.5484 1.3087 7.3881 2.3617 45.1288
#
#
#
# Elastic Compliance Matrix: (Units=1/GPa)
#
#
# Indices 1 2 3 4 5 6 
#
# 1 0.026304 -0.007214 0.001560 0.011876 -0.015640 -0.008648
# 2 -0.007214 0.010176 -0.002028 -0.007379 0.005182 0.009867
# 3 0.001560 -0.002028 0.006220 0.000924 -0.005004 -0.001845
# 4 0.011876 -0.007379 0.000924 0.027168 -0.009504 -0.010783
# 5 -0.015640 0.005182 -0.005004 -0.009504 0.030357 0.005301
# 6 -0.008648 0.009867 -0.001845 -0.010783 0.005301 0.032395
#
#
# Mechanical properties :
#
#
# Convention : Reuss Voigt Hill
#
# Bulk Modulus (GPa) = 36.58115 66.86047 51.72081
# Shear Modulus (GPa) = 31.82779 54.63223 43.23001
#
# Velocity S-wave (km/s) = 3.40537 4.46155 3.96875
# Velocity P-wave (km/s) = 5.36568 7.13452 6.31236
#
# Compressibility (1/GPa) = 0.02733648
#
# Stress axis : x y z
#
# Youngs Moduli (GPa) = 38.01725 98.26961 160.76719
#
# Poissons Ratio (x) = 0.70889 -0.25076
# Poissons Ratio (y) = 0.27424 0.32602
# Poissons Ratio (z) = -0.05930 0.19928
#
# Static dielectric constant tensor:
#      x y z
#    x 2.745750 -0.676590 0.132970 
#    y -0.676590 3.683920 -0.476620 
#    z 0.132970 -0.476620 2.282330 
# 
# From -- ./inp_files/57313.got.cif
#   From: 2010.05.17/outbox.cif.g08.bks.cpg/sg2_29_cif.got.tgz:57313.got - 2010.06.03 11:33:40.
