data_PCOD9080310
_publ_section_title
;
Structure prediction by ZEFSAII (Michael W. Deem and Ramdas Pophale) SiO2 
 PCOD9080310
Probable space group: P -1
;
_chemical_formula_sum "Si O2"
_cell_formula_units_Z 16
_cell_length_a 10.173668
_cell_length_b 13.781297
_cell_length_c 9.627553
_cell_angle_alpha 45.482620
_cell_angle_beta 91.789688
_cell_angle_gamma 57.464092
_cell_volume 595.517026
_symmetry_space_group_name_H-M "P -1"
_symmetry_group_IT_number 2
_symmetry_cell_setting 'triclinic'
loop_
_space_group_symop_operation_xyz
x,y,z
-x,-y,-z
loop_
_atom_site_type_symbol
_atom_site_label
_atom_site_fract_x
_atom_site_fract_y
_atom_site_fract_z
Si Si1 0.271905 0.446442 0.849610
Si Si2 0.081464 0.550491 0.345200
Si Si3 0.271024 0.742823 0.501356
Si Si4 0.279603 0.959358 0.503659
Si Si5 0.518003 0.234929 0.739015
Si Si6 0.152731 0.056483 0.709832
Si Si7 0.362199 0.068413 0.147545
Si Si8 0.881235 0.468004 0.957870
O O1 0.269823 0.476568 0.504799
O O2 0.367574 0.513099 0.741258
O O3 0.295897 0.417804 0.046831
O O4 0.017804 0.680553 0.573698
O O5 0.000000 0.500000 0.500000
O O6 0.861623 0.805854 0.046875
O O7 0.156471 0.469616 0.266987
O O8 0.379451 0.740419 0.386835
O O9 0.016447 0.928498 0.293620
O O10 0.305825 0.795540 0.592125
O O11 0.286646 0.948232 0.680629
O O12 0.035058 0.212315 0.223332
O O13 0.397571 0.975369 0.393812
O O14 0.331957 0.252827 0.981284
O O15 0.680667 0.080194 0.023828
O O16 0.484443 0.116968 0.776584
O O17 0.000000 0.500000 0.000000
#
# Coordination Sequence:
#
# PCOD9080310 Si02
#       8
#     2   2   2   2   2   2   2   2
#     4   9  19  36  73 102 138 180 227 294 349 398
#     4  11  26  44  69 101 144 183 232 293 356 408
#     4   9  20  37  69 105 140 184 236 282 348 416
#     4   9  17  35  67 101 136 189 234 284 344 406
#     4  11  24  45  69 104 142 189 232 279 350 431
#     4   9  20  34  69 102 144 185 232 279 350 417
#     4  10  22  43  71 100 137 180 235 291 346 402
#     4  10  18  38  70  98 132 184 232 290 349 400
#
# _framework density 26.867408999999999
#
# number of rings (size 3 to 8) (size 9 to 14) (size 15 to 20)
#    0.750    1.500    2.500    0.750    1.750    0.500 
#    0.000    3.750    0.000   24.750    0.000    0.875 
#    0.000    0.000    0.000    0.000    0.000    0.000 
#
# Total GULP energy -89421.178198 kJ/mol
# GULP energy per Si atom -5588.823637 kJ/mol
# Density = 2.680626 g / cm^3
# Si number density = 26.867409 Si / 1000 Ang^3
#
#
#
# Elastic Constant Matrix: (Units=GPa)
#
#
# Indices 1 2 3 4 5 6 
#
# 1 129.6943 48.4245 69.9472 16.5526 -16.8089 2.2886
# 2 48.4245 127.8892 59.9606 29.4325 -16.9342 16.6409
# 3 69.9472 59.9606 211.0394 37.8510 1.3004 18.1463
# 4 16.5526 29.4325 37.8510 51.4400 -1.0775 -12.9502
# 5 -16.8089 -16.9342 1.3004 -1.0775 57.6513 6.4091
# 6 2.2886 16.6409 18.1463 -12.9502 6.4091 51.3082
#
#
#
# Elastic Compliance Matrix: (Units=1/GPa)
#
#
# Indices 1 2 3 4 5 6 
#
# 1 0.010466 -0.002605 -0.002982 0.000699 0.002219 0.001332
# 2 -0.002605 0.011889 -0.000868 -0.006646 0.003241 -0.005515
# 3 -0.002982 -0.000868 0.007061 -0.004541 -0.001024 -0.003101
# 4 0.000699 -0.006646 -0.004541 0.029178 -0.002367 0.011391
# 5 0.002219 0.003241 -0.001024 -0.002367 0.019346 -0.003802
# 6 0.001332 -0.005515 -0.003101 0.011391 -0.003802 0.025666
#
#
# Mechanical properties :
#
#
# Convention : Reuss Voigt Hill
#
# Bulk Modulus (GPa) = 60.58808 91.69860 76.14334
# Shear Modulus (GPa) = 40.97699 51.43261 46.20480
#
# Velocity S-wave (km/s) = 3.90956 4.38003 4.15147
# Velocity P-wave (km/s) = 6.55586 7.73199 7.16809
#
# Compressibility (1/GPa) = 0.01650490
#
# Stress axis : x y z
#
# Youngs Moduli (GPa) = 95.54323 84.11082 141.62061
#
# Poissons Ratio (x) = 0.21913 0.42237
# Poissons Ratio (y) = 0.24891 0.12296
# Poissons Ratio (z) = 0.28495 0.07303
#
# Static dielectric constant tensor:
#      x y z
#    x 2.102130 -0.088970 0.035840 
#    y -0.088970 2.233280 -0.001960 
#    z 0.035840 -0.001960 2.107760 
# 
# From -- ./inp_files/266776.got.cif
#   From: 2010.05.17/outbox.cif.g08.bks.cpg/sg2_134_cif.got.tgz:266776.got - 2010.06.03 11:33:40.
