data_PCOD9080128
_publ_section_title
;
Structure prediction by ZEFSAII (Michael W. Deem and Ramdas Pophale) SiO2 
 PCOD9080128
Probable space group: P -1
;
_chemical_formula_sum "Si O2"
_cell_formula_units_Z 14
_cell_length_a 9.920164
_cell_length_b 10.253613
_cell_length_c 8.013910
_cell_angle_alpha 91.881775
_cell_angle_beta 133.211759
_cell_angle_gamma 95.614338
_cell_volume 585.631952
_symmetry_space_group_name_H-M "P -1"
_symmetry_group_IT_number 2
_symmetry_cell_setting 'triclinic'
loop_
_space_group_symop_operation_xyz
x,y,z
-x,-y,-z
loop_
_atom_site_type_symbol
_atom_site_label
_atom_site_fract_x
_atom_site_fract_y
_atom_site_fract_z
Si Si1 0.010737 0.778601 0.913423
Si Si2 0.060272 0.368976 0.478958
Si Si3 0.143195 0.167430 0.781974
Si Si4 0.526870 0.638820 0.313882
Si Si5 0.196003 0.982292 0.306041
Si Si6 0.688237 0.638510 0.817332
Si Si7 0.575773 0.922124 0.213321
O O1 0.046950 0.709711 0.769844
O O2 0.906084 0.664950 0.942256
O O3 0.847135 0.871204 0.761312
O O4 0.184243 0.879571 0.139476
O O5 0.036613 0.273658 0.612585
O O6 0.277277 0.389815 0.601889
O O7 0.000000 0.500000 0.500000
O O8 0.223592 0.095574 0.694815
O O9 0.996799 0.075588 0.765173
O O10 0.311594 0.247728 0.038686
O O11 0.562836 0.650889 0.546163
O O12 0.374338 0.506240 0.163182
O O13 0.491234 0.773138 0.197327
O O14 0.375231 0.990957 0.575493
O O15 0.500000 0.000000 0.000000
#
# Coordination Sequence:
#
# PCOD9080128 Si02
#       7
#     2   2   2   2   2   2   2
#     4   9  18  35  68  91 118 163 216 257 314 372
#     4  10  20  37  58  96 126 159 212 263 311 373
#     4  10  21  37  60  89 124 164 213 255 323 369
#     4   9  19  39  63  87 127 164 207 252 323 373
#     4  10  18  38  64  89 121 167 206 260 316 373
#     4   9  17  37  65  85 118 167 203 258 312 375
#     4  11  22  38  60  95 129 160 207 262 317 379
#
# _framework density 23.905798999999998
#
# number of rings (size 3 to 8) (size 9 to 14) (size 15 to 20)
#    0.000    2.286    4.286    0.429    0.000    2.286 
#    5.143    7.143    3.143    0.000    0.000    0.000 
#    0.000    0.000    0.000    0.000    0.000    0.000 
#
# Total GULP energy -78129.402069 kJ/mol
# GULP energy per Si atom -5580.671576 kJ/mol
# Density = 2.385139 g / cm^3
# Si number density = 23.905799 Si / 1000 Ang^3
#
#
#
# Elastic Constant Matrix: (Units=GPa)
#
#
# Indices 1 2 3 4 5 6 
#
# 1 57.5695 47.8507 23.6616 2.0551 -12.1099 5.0916
# 2 47.8507 160.6525 75.6948 10.1302 -4.5283 16.6177
# 3 23.6616 75.6948 128.3247 19.5115 -19.0491 -2.5532
# 4 2.0551 10.1302 19.5115 44.2620 0.0709 -6.2055
# 5 -12.1099 -4.5283 -19.0491 0.0709 32.8583 6.3275
# 6 5.0916 16.6177 -2.5532 -6.2055 6.3275 47.0934
#
#
#
# Elastic Compliance Matrix: (Units=1/GPa)
#
#
# Indices 1 2 3 4 5 6 
#
# 1 0.025349 -0.007756 0.001271 -0.000145 0.009241 -0.001196
# 2 -0.007756 0.011602 -0.006095 -0.000026 -0.004211 -0.003024
# 3 0.001271 -0.006095 0.012824 -0.004154 0.006833 0.001243
# 4 -0.000145 -0.000026 -0.004154 0.024934 -0.003195 0.003514
# 5 0.009241 -0.004211 0.006833 -0.003195 0.038130 -0.004687
# 6 -0.001196 -0.003024 0.001243 0.003514 -0.004687 0.023591
#
#
# Mechanical properties :
#
#
# Convention : Reuss Voigt Hill
#
# Bulk Modulus (GPa) = 40.62473 71.21789 55.92131
# Shear Modulus (GPa) = 29.44716 38.13205 33.78960
#
# Velocity S-wave (km/s) = 3.51351 3.99820 3.76366
# Velocity P-wave (km/s) = 5.78707 7.15331 6.50615
#
# Compressibility (1/GPa) = 0.02461555
#
# Stress axis : x y z
#
# Youngs Moduli (GPa) = 39.44891 86.19082 77.97738
#
# Poissons Ratio (x) = 0.66848 -0.09909
# Poissons Ratio (y) = 0.30596 0.47527
# Poissons Ratio (z) = -0.05013 0.52533
#
# Static dielectric constant tensor:
#      x y z
#    x 1.949980 -0.292050 0.053830 
#    y -0.292050 0.454100 0.518620 
#    z 0.053830 0.518620 1.896140 
# 
# From -- ./inp_files/203730.got.cif
#   From: 2010.05.17/outbox.cif.g08.bks.cpg/sg2_102_cif.got.tgz:203730.got - 2010.06.03 11:33:40.
