data_PCOD9080653
_publ_section_title
;
Structure prediction by ZEFSAII (Michael W. Deem and Ramdas Pophale) SiO2 
 PCOD9080653
Probable space group: P -1
;
_chemical_formula_sum "Si O2"
_cell_formula_units_Z 14
_cell_length_a 7.125919
_cell_length_b 9.766826
_cell_length_c 14.138956
_cell_angle_alpha 132.187560
_cell_angle_beta 106.084546
_cell_angle_gamma 92.770241
_cell_volume 661.524350
_symmetry_space_group_name_H-M "P -1"
_symmetry_group_IT_number 2
_symmetry_cell_setting 'triclinic'
loop_
_space_group_symop_operation_xyz
x,y,z
-x,-y,-z
loop_
_atom_site_type_symbol
_atom_site_label
_atom_site_fract_x
_atom_site_fract_y
_atom_site_fract_z
Si Si1 0.663850 0.949466 0.431170
Si Si2 0.616249 0.870955 0.746669
Si Si3 0.810723 0.300051 0.465787
Si Si4 0.368325 0.825176 0.969734
Si Si5 0.781590 0.772787 0.529408
Si Si6 0.883509 0.653393 0.784754
Si Si7 0.526781 0.474989 0.776558
O O1 0.831513 0.926627 0.520299
O O2 0.262563 0.886791 0.560793
O O3 0.500000 0.000000 0.500000
O O4 0.551582 0.730368 0.273988
O O5 0.378266 0.730682 0.646152
O O6 0.703657 0.858487 0.648911
O O7 0.762902 0.799830 0.803702
O O8 0.614478 0.078693 0.879828
O O9 0.024961 0.295002 0.450530
O O10 0.126957 0.753282 0.875774
O O11 0.454398 0.644952 0.888769
O O12 0.500000 0.000000 0.000000
O O13 0.596582 0.598161 0.374260
O O14 0.844964 0.487495 0.622729
O O15 0.766647 0.552683 0.817395
#
# Coordination Sequence:
#
# PCOD9080653 Si02
#       7
#     2   2   2   2   2   2   2
#     4  10  18  40  68  97 125 161 214 263 316 365
#     4  12  26  38  63 100 129 161 217 266 308 369
#     4  12  22  40  70  97 129 162 215 269 308 368
#     4  12  27  44  61  91 133 177 205 252 325 389
#     4  10  23  38  66  98 123 165 211 265 308 367
#     4  12  23  41  65  92 128 173 208 256 315 386
#     4  10  22  41  66  95 122 172 213 248 320 383
#
# _framework density 21.163242
#
# number of rings (size 3 to 8) (size 9 to 14) (size 15 to 20)
#    0.857    0.000    7.143    1.286    2.000    0.571 
#    0.000    0.714    0.000    4.286    0.000    0.000 
#    0.000    0.000    0.000    0.000    0.000    0.000 
#
# Total GULP energy -78194.909049 kJ/mol
# GULP energy per Si atom -5585.350646 kJ/mol
# Density = 2.111507 g / cm^3
# Si number density = 21.163242 Si / 1000 Ang^3
#
#
#
# Elastic Constant Matrix: (Units=GPa)
#
#
# Indices 1 2 3 4 5 6 
#
# 1 140.7327 9.8100 54.8266 17.0950 -0.1547 -7.9311
# 2 9.8100 74.7496 8.9849 18.9773 -10.6491 2.6740
# 3 54.8266 8.9849 111.5961 34.2425 -15.9456 -5.7241
# 4 17.0950 18.9773 34.2425 29.1144 -10.4420 -1.7777
# 5 -0.1547 -10.6491 -15.9456 -10.4420 51.8501 7.4997
# 6 -7.9311 2.6740 -5.7241 -1.7777 7.4997 29.3367
#
#
#
# Elastic Compliance Matrix: (Units=1/GPa)
#
#
# Indices 1 2 3 4 5 6 
#
# 1 0.009058 -0.001034 -0.004590 0.000216 -0.001862 0.002137
# 2 -0.001034 0.017082 0.003678 -0.014242 0.002134 -0.002527
# 3 -0.004590 0.003678 0.017056 -0.018986 0.002156 0.000050
# 4 0.000216 -0.014242 -0.018986 0.067577 0.004770 0.000528
# 5 -0.001862 0.002134 0.002156 0.004770 0.022160 -0.005653
# 6 0.002137 -0.002527 0.000050 0.000528 -0.005653 0.036382
#
#
# Mechanical properties :
#
#
# Convention : Reuss Voigt Hill
#
# Bulk Modulus (GPa) = 25.44217 52.70237 39.07227
# Shear Modulus (GPa) = 26.83737 38.95736 32.89737
#
# Velocity S-wave (km/s) = 3.56492 4.29511 3.94694
# Velocity P-wave (km/s) = 5.38450 7.03947 6.26686
#
# Compressibility (1/GPa) = 0.03930483
#
# Stress axis : x y z
#
# Youngs Moduli (GPa) = 110.40118 58.54235 58.63013
#
# Poissons Ratio (x) = 0.06051 0.26909
# Poissons Ratio (y) = 0.11411 -0.21563
# Poissons Ratio (z) = 0.50669 -0.21530
#
# Static dielectric constant tensor:
#      x y z
#    x 1.783130 0.002390 0.015010 
#    y 0.002390 1.824650 -0.008980 
#    z 0.015010 -0.008980 1.755550 
# 
# From -- ./inp_files/483061.got.cif
#   From: 2010.05.17/outbox.cif.g08.bks.cpg/sg2_242_cif.got.tgz:483061.got - 2010.06.03 11:33:40.
