data_PCOD9080695
_publ_section_title
;
Structure prediction by ZEFSAII (Michael W. Deem and Ramdas Pophale) SiO2 
 PCOD9080695
Probable space group: P -1
;
_chemical_formula_sum "Si O2"
_cell_formula_units_Z 14
_cell_length_a 9.798256
_cell_length_b 9.454618
_cell_length_c 10.576042
_cell_angle_alpha 121.034321
_cell_angle_beta 129.443511
_cell_angle_gamma 54.285737
_cell_volume 597.744433
_symmetry_space_group_name_H-M "P -1"
_symmetry_group_IT_number 2
_symmetry_cell_setting 'triclinic'
loop_
_space_group_symop_operation_xyz
x,y,z
-x,-y,-z
loop_
_atom_site_type_symbol
_atom_site_label
_atom_site_fract_x
_atom_site_fract_y
_atom_site_fract_z
Si Si1 0.734196 0.569710 0.686473
Si Si2 0.490266 0.463460 0.829675
Si Si3 0.623442 0.875454 0.407989
Si Si4 0.663105 0.924105 0.169598
Si Si5 0.134119 0.507948 0.932209
Si Si6 0.936985 0.661097 0.634480
Si Si7 0.312433 0.727383 0.630509
O O1 0.756178 0.670177 0.619117
O O2 0.529289 0.663069 0.671591
O O3 0.777819 0.369352 0.566518
O O4 0.912740 0.569231 0.873749
O O5 0.431128 0.297149 0.707379
O O6 0.343613 0.627286 0.737663
O O7 0.500000 0.500000 0.000000
O O8 0.703300 0.432572 0.887077
O O9 0.583139 0.948351 0.276349
O O10 0.844196 0.827112 0.561360
O O11 0.500000 0.000000 0.500000
O O12 0.775120 0.709276 0.124184
O O13 0.772118 0.061124 0.297875
O O14 0.500000 0.000000 0.000000
O O15 0.094028 0.604106 0.812018
O O16 0.000000 0.500000 0.500000
#
# Coordination Sequence:
#
# PCOD9080695 Si02
#       7
#     2   2   2   2   2   2   2
#     4   9  22  39  61  96 120 174 214 267 328 388
#     4  12  21  42  67  97 124 184 221 257 340 401
#     4  12  24  41  71  98 129 169 227 279 321 391
#     4  12  23  41  63 102 132 170 218 278 329 382
#     4  10  22  40  66  92 132 170 221 269 322 394
#     4  10  18  41  64  91 127 171 219 266 321 391
#     4  11  22  39  67  89 133 169 214 267 333 398
#
# _framework density 23.421381
#
# number of rings (size 3 to 8) (size 9 to 14) (size 15 to 20)
#    0.857    0.286    5.714    0.857    2.000    1.143 
#    0.000    0.714    0.000    0.000    0.000    0.000 
#    0.000    0.000    0.000    0.000    0.000    0.000 
#
# Total GULP energy -77998.383201 kJ/mol
# GULP energy per Si atom -5571.313086 kJ/mol
# Density = 2.336807 g / cm^3
# Si number density = 23.421381 Si / 1000 Ang^3
#
#
#
# Elastic Constant Matrix: (Units=GPa)
#
#
# Indices 1 2 3 4 5 6 
#
# 1 63.9997 15.3594 7.5702 -6.6572 -5.0584 7.5848
# 2 15.3594 110.1649 44.0067 -4.5350 -5.3977 15.7462
# 3 7.5702 44.0067 103.1435 -21.1065 -2.5665 9.1162
# 4 -6.6572 -4.5350 -21.1065 42.4246 0.1394 4.2753
# 5 -5.0584 -5.3977 -2.5665 0.1394 46.9281 1.9044
# 6 7.5848 15.7462 9.1162 4.2753 1.9044 35.7474
#
#
#
# Elastic Compliance Matrix: (Units=1/GPa)
#
#
# Indices 1 2 3 4 5 6 
#
# 1 0.016863 -0.001870 0.000521 0.003037 0.001758 -0.003344
# 2 -0.001870 0.011744 -0.004755 -0.001055 0.001034 -0.003493
# 3 0.000521 -0.004755 0.013182 0.006348 0.000299 -0.002153
# 4 0.003037 -0.001055 0.006348 0.027608 0.000680 -0.005136
# 5 0.001758 0.001034 0.000299 0.000680 0.021719 -0.002143
# 6 -0.003344 -0.003493 -0.002153 -0.005136 -0.002143 0.031499
#
#
# Mechanical properties :
#
#
# Convention : Reuss Voigt Hill
#
# Bulk Modulus (GPa) = 33.80496 45.68676 39.74586
# Shear Modulus (GPa) = 34.55788 39.04480 36.80134
#
# Velocity S-wave (km/s) = 3.84537 4.08739 3.96823
# Velocity P-wave (km/s) = 5.84641 6.46718 6.16462
#
# Compressibility (1/GPa) = 0.02958146
#
# Stress axis : x y z
#
# Youngs Moduli (GPa) = 59.30016 85.15109 75.85917
#
# Poissons Ratio (x) = 0.15924 -0.03951
# Poissons Ratio (y) = 0.11090 0.36070
# Poissons Ratio (z) = -0.03089 0.40488
#
# Static dielectric constant tensor:
#      x y z
#    x 1.979340 0.036450 -0.095280 
#    y 0.036450 1.996430 -0.126820 
#    z -0.095280 -0.126820 1.839200 
# 
# From -- ./inp_files/418274.got.cif
#   From: 2010.05.17/outbox.cif.g08.bks.cpg/sg2_210_cif.got.tgz:418274.got - 2010.06.03 11:33:40.
