data_PCOD9080643
_publ_section_title
;
Structure prediction by ZEFSAII (Michael W. Deem and Ramdas Pophale) SiO2 
 PCOD9080643
Probable space group: P -1
;
_chemical_formula_sum "Si O2"
_cell_formula_units_Z 10
_cell_length_a 5.034362
_cell_length_b 5.118981
_cell_length_c 21.264198
_cell_angle_alpha 54.896986
_cell_angle_beta 72.131467
_cell_angle_gamma 90.137454
_cell_volume 415.292371
_symmetry_space_group_name_H-M "P -1"
_symmetry_group_IT_number 2
_symmetry_cell_setting 'triclinic'
loop_
_space_group_symop_operation_xyz
x,y,z
-x,-y,-z
loop_
_atom_site_type_symbol
_atom_site_label
_atom_site_fract_x
_atom_site_fract_y
_atom_site_fract_z
Si Si1 0.732129 0.123804 0.801583
Si Si2 0.673995 0.913914 0.058282
Si Si3 0.102381 0.082813 0.672902
Si Si4 0.313852 0.524891 0.773890
Si Si5 0.170617 0.859148 0.560356
O O1 0.484271 0.933809 0.893589
O O2 0.857323 0.944435 0.761706
O O3 0.569724 0.382481 0.746409
O O4 0.010634 0.313141 0.796184
O O5 0.667261 0.566045 0.141612
O O6 0.500000 0.000000 0.000000
O O7 0.000000 0.000000 0.000000
O O8 0.140700 0.469463 0.620085
O O9 0.346683 0.903437 0.704049
O O10 0.077003 0.981961 0.616606
O O11 0.500000 0.000000 0.500000
O O12 0.000000 0.000000 0.500000
#
# Coordination Sequence:
#
# PCOD9080643 Si02
#       5
#     2   2   2   2   2
#     4  10  23  41  71 106 140 201 247 288 373 415
#     4  10  18  40  68 104 154 184 248 310 354 422
#     4  12  26  52  78 106 156 190 254 300 354 476
#     4  10  23  41  71 106 140 201 247 288 373 415
#     4  12  30  50  78 114 146 192 236 312 384 430
#
# _framework density 24.079419999999999
#
# number of rings (size 3 to 8) (size 9 to 14) (size 15 to 20)
#    1.200    0.000    4.000    1.200    2.800    4.800 
#    0.000    2.000    0.000    0.000    0.000    0.000 
#    0.000    0.000    0.000    0.000    0.000    0.000 
#
# Total GULP energy -55741.676536 kJ/mol
# GULP energy per Si atom -5574.167654 kJ/mol
# Density = 2.402461 g / cm^3
# Si number density = 24.079420 Si / 1000 Ang^3
#
#
#
# Elastic Constant Matrix: (Units=GPa)
#
#
# Indices 1 2 3 4 5 6 
#
# 1 179.0069 46.8474 59.3395 10.2756 11.3152 -25.5482
# 2 46.8474 134.7742 69.2076 38.8987 17.2656 -3.6055
# 3 59.3395 69.2076 162.4907 32.5848 33.1522 5.1718
# 4 10.2756 38.8987 32.5848 57.8161 -17.2386 -3.0557
# 5 11.3152 17.2656 33.1522 -17.2386 55.7335 -9.9516
# 6 -25.5482 -3.6055 5.1718 -3.0557 -9.9516 36.1145
#
#
#
# Elastic Compliance Matrix: (Units=1/GPa)
#
#
# Indices 1 2 3 4 5 6 
#
# 1 0.007982 -0.002203 -0.003682 0.003617 0.003669 0.007271
# 2 -0.002203 0.012069 -0.001343 -0.008787 -0.005650 -0.002462
# 3 -0.003682 -0.001343 0.012174 -0.008779 -0.010230 -0.008044
# 4 0.003617 -0.008787 -0.008779 0.033991 0.019732 0.011252
# 5 0.003669 -0.005650 -0.010230 0.019732 0.033718 0.014457
# 6 0.007271 -0.002462 -0.008044 0.011252 0.014457 0.038675
#
#
# Mechanical properties :
#
#
# Convention : Reuss Voigt Hill
#
# Bulk Modulus (GPa) = 56.27632 91.89565 74.08598
# Shear Modulus (GPa) = 31.44917 49.99132 40.72025
#
# Velocity S-wave (km/s) = 3.61787 4.56137 4.11674
# Velocity P-wave (km/s) = 6.39326 8.12329 7.30964
#
# Compressibility (1/GPa) = 0.01776946
#
# Stress axis : x y z
#
# Youngs Moduli (GPa) = 125.28845 82.85608 82.14120
#
# Poissons Ratio (x) = 0.18256 0.30242
# Poissons Ratio (y) = 0.27605 0.11029
# Poissons Ratio (z) = 0.46127 0.11125
#
# Static dielectric constant tensor:
#      x y z
#    x 1.973530 0.074070 -0.037310 
#    y 0.074070 1.954200 -0.005520 
#    z -0.037310 -0.005520 1.947150 
# 
# From -- ./inp_files/12625.got.cif
#   From: 2010.05.17/outbox.cif.g08.bks.cpg/sg2_7_cif.got.tgz:12625.got - 2010.06.03 11:33:40.
