data_PCOD9080635
_publ_section_title
;
Structure prediction by ZEFSAII (Michael W. Deem and Ramdas Pophale) SiO2 
 PCOD9080635
Probable space group: P -1
;
_chemical_formula_sum "Si O2"
_cell_formula_units_Z 14
_cell_length_a 11.015974
_cell_length_b 9.068065
_cell_length_c 15.125013
_cell_angle_alpha 131.085724
_cell_angle_beta 72.379181
_cell_angle_gamma 67.072935
_cell_volume 622.429541
_symmetry_space_group_name_H-M "P -1"
_symmetry_group_IT_number 2
_symmetry_cell_setting 'triclinic'
loop_
_space_group_symop_operation_xyz
x,y,z
-x,-y,-z
loop_
_atom_site_type_symbol
_atom_site_label
_atom_site_fract_x
_atom_site_fract_y
_atom_site_fract_z
Si Si1 0.955418 0.771883 0.083141
Si Si2 0.316580 0.887622 0.216162
Si Si3 0.864427 0.263479 0.413192
Si Si4 0.812622 0.674836 0.442113
Si Si5 0.576440 0.299635 0.227079
Si Si6 0.309528 0.096379 0.114041
Si Si7 0.778518 0.419288 0.198070
O O1 0.895713 0.011610 0.262440
O O2 0.756252 0.013975 0.149852
O O3 0.000000 0.500000 0.000000
O O4 0.177267 0.569151 0.905908
O O5 0.338132 0.977803 0.338102
O O6 0.321767 0.032111 0.189503
O O7 0.500000 0.500000 0.000000
O O8 0.083192 0.066382 0.335499
O O9 0.827783 0.469513 0.424914
O O10 0.654463 0.506655 0.619140
O O11 0.764839 0.630507 0.343226
O O12 0.054508 0.471638 0.300681
O O13 0.577002 0.533509 0.314403
O O14 0.654682 0.137053 0.048504
O O15 0.500000 0.000000 0.000000
O O16 0.000000 0.000000 0.000000
#
# Coordination Sequence:
#
# PCOD9080635 Si02
#       7
#     2   2   2   2   2   2   2
#     4  11  23  40  65 101 141 169 211 281 332 372
#     4  11  26  46  65  98 134 169 220 288 332 374
#     4  11  22  42  69  97 129 181 227 256 327 407
#     4  11  20  41  71  91 129 179 220 257 325 403
#     4  11  21  41  69  98 131 176 226 262 310 411
#     4  11  21  40  68  97 126 177 224 260 320 404
#     4  10  18  40  67  95 131 174 217 261 316 404
#
# _framework density 22.492505999999999
#
# number of rings (size 3 to 8) (size 9 to 14) (size 15 to 20)
#    0.000    1.143    5.714    4.714    0.000    2.286 
#    2.571    2.143    0.000    0.000    0.000    0.000 
#    0.000    0.000    0.000    0.000    0.000    0.000 
#
# Total GULP energy -78238.790855 kJ/mol
# GULP energy per Si atom -5588.485061 kJ/mol
# Density = 2.244131 g / cm^3
# Si number density = 22.492506 Si / 1000 Ang^3
#
#
#
# Elastic Constant Matrix: (Units=GPa)
#
#
# Indices 1 2 3 4 5 6 
#
# 1 100.7933 24.6368 53.0504 3.5035 -15.7499 17.8505
# 2 24.6368 43.8970 19.8424 -1.6395 -10.2753 18.4976
# 3 53.0504 19.8424 137.2423 -15.1240 14.2454 -2.3827
# 4 3.5035 -1.6395 -15.1240 27.8045 8.7415 3.4829
# 5 -15.7499 -10.2753 14.2454 8.7415 61.8502 -11.9722
# 6 17.8505 18.4976 -2.3827 3.4829 -11.9722 33.1137
#
#
#
# Elastic Compliance Matrix: (Units=1/GPa)
#
#
# Indices 1 2 3 4 5 6 
#
# 1 0.016569 -0.002711 -0.007495 -0.007419 0.005543 -0.005172
# 2 -0.002711 0.034087 -0.004276 0.001408 0.002438 -0.017154
# 3 -0.007495 -0.004276 0.012458 0.008791 -0.005905 0.004266
# 4 -0.007419 0.001408 0.008791 0.045893 -0.011136 -0.005008
# 5 0.005543 0.002438 -0.005905 -0.011136 0.021743 0.004258
# 6 -0.005172 -0.017154 0.004266 -0.005008 0.004258 0.044943
#
#
# Mechanical properties :
#
#
# Convention : Reuss Voigt Hill
#
# Bulk Modulus (GPa) = 29.28407 52.99907 41.14157
# Shear Modulus (GPa) = 23.14391 36.84720 29.99556
#
# Velocity S-wave (km/s) = 3.21122 4.05186 3.65578
# Velocity P-wave (km/s) = 5.17658 6.74568 6.01254
#
# Compressibility (1/GPa) = 0.03414826
#
# Stress axis : x y z
#
# Youngs Moduli (GPa) = 60.35348 29.33688 80.27231
#
# Poissons Ratio (x) = 0.07954 0.60167
# Poissons Ratio (y) = 0.16364 0.34323
# Poissons Ratio (z) = 0.45237 0.12544
#
# Static dielectric constant tensor:
#      x y z
#    x 1.871430 -0.014140 0.002770 
#    y -0.014140 1.856230 0.050450 
#    z 0.002770 0.050450 1.848620 
# 
# From -- ./inp_files/237669.got.cif
#   From: 2010.05.17/outbox.cif.g08.bks.cpg/sg2_119_cif.got.tgz:237669.got - 2010.06.03 11:33:40.
