data_PCOD9080589
_publ_section_title
;
Structure prediction by ZEFSAII (Michael W. Deem and Ramdas Pophale) SiO2 
 PCOD9080589
Probable space group: P -1
;
_chemical_formula_sum "Si O2"
_cell_formula_units_Z 15
_cell_length_a 13.080899
_cell_length_b 8.000920
_cell_length_c 21.136293
_cell_angle_alpha 133.642801
_cell_angle_beta 22.000845
_cell_angle_gamma 132.753035
_cell_volume 593.476440
_symmetry_space_group_name_H-M "P -1"
_symmetry_group_IT_number 2
_symmetry_cell_setting 'triclinic'
loop_
_space_group_symop_operation_xyz
x,y,z
-x,-y,-z
loop_
_atom_site_type_symbol
_atom_site_label
_atom_site_fract_x
_atom_site_fract_y
_atom_site_fract_z
Si Si1 0.000000 0.000000 0.000000
Si Si2 0.963871 0.452305 0.216620
Si Si3 0.622405 0.927613 0.661763
Si Si4 0.242467 0.878115 0.973348
Si Si5 0.759551 0.389590 0.653054
Si Si6 0.296013 0.351751 0.810152
Si Si7 0.475151 0.582387 0.446027
Si Si8 0.470420 0.223386 0.030673
O O1 0.675449 0.057653 0.194941
O O2 0.085673 0.260679 0.054626
O O3 0.746362 0.578145 0.332572
O O4 0.763761 0.319399 0.351671
O O5 0.231860 0.644233 0.129189
O O6 0.821669 0.159659 0.592959
O O7 0.535081 0.912642 0.780684
O O8 0.685270 0.679668 0.539672
O O9 0.217818 0.608592 0.940394
O O10 0.970617 0.842980 0.075031
O O11 0.263061 0.096104 0.063845
O O12 0.530678 0.311678 0.711618
O O13 0.668689 0.582084 0.801945
O O14 0.000000 0.500000 0.500000
O O15 0.405429 0.340342 0.672085
O O16 0.500000 0.000000 0.000000
#
# Coordination Sequence:
#
# PCOD9080589 Si02
#       8
#     1   2   2   2   2   2   2   2
#     4  10  18  40  64  94 128 172 214 264 334 388
#     4  10  21  39  67 100 133 173 223 271 329 399
#     4  10  21  39  65  92 129 175 216 271 327 396
#     4  10  22  40  73  97 126 175 237 267 324 401
#     4  12  27  44  63  97 142 174 215 279 350 386
#     4  10  21  44  67  98 133 177 221 275 329 403
#     4   9  21  39  69 101 127 173 229 269 320 400
#     4  12  24  42  67  98 131 179 223 281 327 397
#
# _framework density 25.274801
#
# number of rings (size 3 to 8) (size 9 to 14) (size 15 to 20)
#    0.000    1.600    2.667    1.600    5.600    1.600 
#    4.800    3.333    0.000    0.000    0.000    0.000 
#    0.000    0.000    0.000    0.000    0.000    0.000 
#
# Total GULP energy -83654.276295 kJ/mol
# GULP energy per Si atom -5576.951753 kJ/mol
# Density = 2.521727 g / cm^3
# Si number density = 25.274801 Si / 1000 Ang^3
#
#
#
# Elastic Constant Matrix: (Units=GPa)
#
#
# Indices 1 2 3 4 5 6 
#
# 1 57.9418 31.5901 34.0769 -7.8083 8.4720 39.1338
# 2 31.5901 143.6404 44.5441 -37.2765 11.7716 11.3867
# 3 34.0769 44.5441 116.4657 -24.0345 22.8517 12.3541
# 4 -7.8083 -37.2765 -24.0345 40.2265 -0.3815 -2.2835
# 5 8.4720 11.7716 22.8517 -0.3815 37.7776 0.0027
# 6 39.1338 11.3867 12.3541 -2.2835 0.0027 35.5758
#
#
#
# Elastic Compliance Matrix: (Units=1/GPa)
#
#
# Indices 1 2 3 4 5 6 
#
# 1 0.104602 -0.010180 -0.013700 -0.003518 -0.012027 -0.107273
# 2 -0.010180 0.010856 -0.000121 0.008474 -0.000941 0.008309
# 3 -0.013700 -0.000121 0.013754 0.006006 -0.005150 0.010718
# 4 -0.003518 0.008474 0.006006 0.035646 -0.005124 0.001360
# 5 -0.012027 -0.000941 -0.005150 -0.005124 0.032523 0.014988
# 6 -0.107273 0.008309 0.010718 0.001360 0.014988 0.139815
#
#
# Mechanical properties :
#
#
# Convention : Reuss Voigt Hill
#
# Bulk Modulus (GPa) = 12.31366 59.83002 36.07184
# Shear Modulus (GPa) = 12.12803 36.57176 24.34990
#
# Velocity S-wave (km/s) = 2.19292 3.80803 3.10725
# Velocity P-wave (km/s) = 3.36070 6.56186 5.21307
#
# Compressibility (1/GPa) = 0.08121062
#
# Stress axis : x y z
#
# Youngs Moduli (GPa) = 9.56001 92.11668 72.70682
#
# Poissons Ratio (x) = 0.93772 0.99605
# Poissons Ratio (y) = 0.09732 0.00883
# Poissons Ratio (z) = 0.13097 0.01119
#
# Static dielectric constant tensor:
#      x y z
#    x 2.046680 -0.046730 0.057440 
#    y -0.046730 2.060610 -0.046390 
#    z 0.057440 -0.046390 2.013320 
# 
# From -- ./inp_files/611706.got.cif
#   From: 2010.05.17/outbox.cif.g08.bks.cpg/sg2_306_cif.got.tgz:611706.got - 2010.06.03 11:33:40.
