data_PCOD9080642
_publ_section_title
;
Structure prediction by ZEFSAII (Michael W. Deem and Ramdas Pophale) SiO2 
 PCOD9080642
Probable space group: P -1
;
_chemical_formula_sum "Si O2"
_cell_formula_units_Z 15
_cell_length_a 11.327019
_cell_length_b 8.271758
_cell_length_c 8.270810
_cell_angle_alpha 85.865272
_cell_angle_beta 78.074588
_cell_angle_gamma 129.249897
_cell_volume 565.715860
_symmetry_space_group_name_H-M "P -1"
_symmetry_group_IT_number 2
_symmetry_cell_setting 'triclinic'
loop_
_space_group_symop_operation_xyz
x,y,z
-x,-y,-z
loop_
_atom_site_type_symbol
_atom_site_label
_atom_site_fract_x
_atom_site_fract_y
_atom_site_fract_z
Si Si1 0.000000 0.000000 0.000000
Si Si2 0.794656 0.531427 0.840619
Si Si3 0.786581 0.074422 0.868168
Si Si4 0.343233 0.684511 0.754519
Si Si5 0.185454 0.143254 0.382602
Si Si6 0.960581 0.448369 0.327521
Si Si7 0.675919 0.679057 0.324663
Si Si8 0.487448 0.144774 0.787964
O O1 0.149600 0.175385 0.819844
O O2 0.111726 0.958530 0.051472
O O3 0.771426 0.699321 0.790920
O O4 0.673682 0.339054 0.761900
O O5 0.986960 0.681178 0.742172
O O6 0.739459 0.435912 0.041679
O O7 0.897380 0.330406 0.821630
O O8 0.781505 0.002945 0.692126
O O9 0.614359 0.946586 0.008432
O O10 0.206904 0.629624 0.674464
O O11 0.404705 0.565734 0.682917
O O12 0.455434 0.942475 0.729130
O O13 0.286996 0.280700 0.499394
O O14 0.000000 0.000000 0.500000
O O15 0.000000 0.500000 0.500000
O O16 0.584757 0.761946 0.289402
#
# Coordination Sequence:
#
# PCOD9080642 Si02
#       8
#     1   2   2   2   2   2   2   2
#     4  10  18  40  68 102 136 184 244 304 348 426
#     4  12  27  48  74 108 151 193 255 303 379 450
#     4  11  23  42  72 102 149 186 247 305 368 435
#     4  12  25  47  79 107 148 197 250 314 364 439
#     4  12  25  44  74 108 150 192 244 319 370 438
#     4  12  26  45  71 113 146 188 253 309 371 436
#     4  11  25  45  74 108 151 192 257 296 381 439
#     4  11  28  49  74 111 149 201 249 306 374 458
#
# _framework density 26.515079
#
# number of rings (size 3 to 8) (size 9 to 14) (size 15 to 20)
#    0.000    0.533    4.000    4.000    3.733    2.667 
#    0.000    4.000    0.000    0.000    0.000    0.000 
#    0.000    0.000    0.000    0.000    0.000    0.000 
#
# Total GULP energy -83832.996148 kJ/mol
# GULP energy per Si atom -5588.866410 kJ/mol
# Density = 2.645473 g / cm^3
# Si number density = 26.515079 Si / 1000 Ang^3
#
#
#
# Elastic Constant Matrix: (Units=GPa)
#
#
# Indices 1 2 3 4 5 6 
#
# 1 145.2828 48.2356 42.5590 5.0036 13.3482 -4.7722
# 2 48.2356 114.5006 30.9474 11.7216 -8.2370 -25.0181
# 3 42.5590 30.9474 89.8546 2.9125 -4.3857 5.5176
# 4 5.0036 11.7216 2.9125 37.2627 4.5987 -12.0134
# 5 13.3482 -8.2370 -4.3857 4.5987 44.8280 -6.8578
# 6 -4.7722 -25.0181 5.5176 -12.0134 -6.8578 31.0059
#
#
#
# Elastic Compliance Matrix: (Units=1/GPa)
#
#
# Indices 1 2 3 4 5 6 
#
# 1 0.009409 -0.003821 -0.003225 0.000072 -0.004124 -0.001946
# 2 -0.003821 0.014610 -0.003742 -0.000285 0.005469 0.012966
# 3 -0.003225 -0.003742 0.014447 -0.001744 0.000859 -0.006572
# 4 0.000072 -0.000285 -0.001744 0.031045 -0.001630 0.011760
# 5 -0.004124 0.005469 0.000859 -0.001630 0.026134 0.008774
# 6 -0.001946 0.012966 -0.006572 0.011760 0.008774 0.050081
#
#
# Mechanical properties :
#
#
# Convention : Reuss Voigt Hill
#
# Bulk Modulus (GPa) = 59.20430 65.90246 62.55338
# Shear Modulus (GPa) = 28.91288 37.81236 33.36262
#
# Velocity S-wave (km/s) = 3.30575 3.78043 3.55103
# Velocity P-wave (km/s) = 6.07846 6.63055 6.36050
#
# Compressibility (1/GPa) = 0.01689067
#
# Stress axis : x y z
#
# Youngs Moduli (GPa) = 106.28110 68.44395 69.21726
#
# Poissons Ratio (x) = 0.26155 0.22319
# Poissons Ratio (y) = 0.40615 0.25902
# Poissons Ratio (z) = 0.34271 0.25612
#
# Static dielectric constant tensor:
#      x y z
#    x 1.974500 -0.032960 0.063770 
#    y -0.032960 2.116910 0.001280 
#    z 0.063770 0.001280 2.021000 
# 
# From -- ./inp_files/239063.got.cif
#   From: 2010.05.17/outbox.cif.g08.bks.cpg/sg2_120_cif.got.tgz:239063.got - 2010.06.03 11:33:40.
