data_PCOD9080630
_publ_section_title
;
Structure prediction by ZEFSAII (Michael W. Deem and Ramdas Pophale) SiO2 
 PCOD9080630
Probable space group: P -1
;
_chemical_formula_sum "Si O2"
_cell_formula_units_Z 14
_cell_length_a 11.573243
_cell_length_b 12.175534
_cell_length_c 7.730874
_cell_angle_alpha 101.292525
_cell_angle_beta 72.695414
_cell_angle_gamma 46.281209
_cell_volume 611.422923
_symmetry_space_group_name_H-M "P -1"
_symmetry_group_IT_number 2
_symmetry_cell_setting 'triclinic'
loop_
_space_group_symop_operation_xyz
x,y,z
-x,-y,-z
loop_
_atom_site_type_symbol
_atom_site_label
_atom_site_fract_x
_atom_site_fract_y
_atom_site_fract_z
Si Si1 0.491293 0.838815 0.832812
Si Si2 0.002376 0.170809 0.494164
Si Si3 0.025542 0.110950 0.080469
Si Si4 0.458266 0.645754 0.666933
Si Si5 0.729755 0.381691 0.009380
Si Si6 0.381571 0.807061 0.393705
Si Si7 0.615773 0.979928 0.704781
O O1 0.599455 0.641969 0.673488
O O2 0.559040 0.893368 0.705635
O O3 0.500881 0.875282 0.036574
O O4 0.253763 0.983744 0.963922
O O5 0.174042 0.957024 0.423518
O O6 0.142931 0.178526 0.427687
O O7 0.933904 0.192841 0.338782
O O8 0.172053 0.695820 0.245826
O O9 0.907042 0.269813 0.038033
O O10 0.000000 0.000000 0.000000
O O11 0.500000 0.500000 0.500000
O O12 0.362163 0.666934 0.892567
O O13 0.355254 0.787157 0.594193
O O14 0.556628 0.602341 0.170845
O O15 0.435685 0.898817 0.391575
#
# Coordination Sequence:
#
# PCOD9080630 Si02
#       7
#     2   2   2   2   2   2   2
#     4  10  18  40  67  87 131 176 218 274 327 398
#     4   9  22  43  67  93 129 177 223 269 331 397
#     4  11  22  39  63 100 132 173 223 272 339 401
#     4  10  21  38  60  95 137 168 214 277 333 392
#     4  11  22  42  65  98 137 168 218 281 336 389
#     4   9  21  43  62  98 131 171 229 265 328 404
#     4   8  20  40  66  93 118 179 231 259 327 397
#
# _framework density 22.897407999999999
#
# number of rings (size 3 to 8) (size 9 to 14) (size 15 to 20)
#    0.857    1.429    1.429    0.857    0.000    1.143 
#    7.714    4.286    3.143    2.571    0.000    0.000 
#    0.000    0.000    0.000    0.000    0.000    0.000 
#
# Total GULP energy -78021.249740 kJ/mol
# GULP energy per Si atom -5572.946410 kJ/mol
# Density = 2.284529 g / cm^3
# Si number density = 22.897408 Si / 1000 Ang^3
#
#
#
# Elastic Constant Matrix: (Units=GPa)
#
#
# Indices 1 2 3 4 5 6 
#
# 1 97.3484 36.5577 57.8139 -15.0216 1.7300 38.3440
# 2 36.5577 80.5860 37.7146 -12.2438 -4.3303 24.4113
# 3 57.8139 37.7146 171.4445 -10.5552 9.5389 17.2803
# 4 -15.0216 -12.2438 -10.5552 38.9274 3.5107 -7.0686
# 5 1.7300 -4.3303 9.5389 3.5107 38.0021 -9.6403
# 6 38.3440 24.4113 17.2803 -7.0686 -9.6403 52.8515
#
#
#
# Elastic Compliance Matrix: (Units=1/GPa)
#
#
# Indices 1 2 3 4 5 6 
#
# 1 0.018796 -0.002851 -0.004198 0.003501 -0.003259 -0.011073
# 2 -0.002851 0.016456 -0.002136 0.002613 0.001218 -0.004262
# 3 -0.004198 -0.002136 0.007699 0.000171 -0.001689 0.001230
# 4 0.003501 0.002613 0.000171 0.028049 -0.002631 -0.000531
# 5 -0.003259 0.001218 -0.001689 -0.002631 0.029124 0.007314
# 6 -0.011073 -0.004262 0.001230 -0.000531 0.007314 0.029784
#
#
# Mechanical properties :
#
#
# Convention : Reuss Voigt Hill
#
# Bulk Modulus (GPa) = 40.68236 68.17236 54.42736
# Shear Modulus (GPa) = 31.95478 40.44238 36.19858
#
# Velocity S-wave (km/s) = 3.73978 4.20723 3.98037
# Velocity P-wave (km/s) = 6.03769 7.31017 6.70419
#
# Compressibility (1/GPa) = 0.02458068
#
# Stress axis : x y z
#
# Youngs Moduli (GPa) = 53.20264 60.76977 129.88920
#
# Poissons Ratio (x) = 0.17324 0.54530
# Poissons Ratio (y) = 0.15167 0.27743
# Poissons Ratio (z) = 0.22335 0.12980
#
# Static dielectric constant tensor:
#      x y z
#    x 1.913950 -0.056780 -0.012640 
#    y -0.056780 2.012680 0.096660 
#    z -0.012640 0.096660 1.959330 
# 
# From -- ./inp_files/254053.got.cif
#   From: 2010.05.17/outbox.cif.g08.bks.cpg/sg2_128_cif.got.tgz:254053.got - 2010.06.03 11:33:40.
