data_PCOD9080592
_publ_section_title
;
Structure prediction by ZEFSAII (Michael W. Deem and Ramdas Pophale) SiO2 
 PCOD9080592
Probable space group: P -1
;
_chemical_formula_sum "Si O2"
_cell_formula_units_Z 16
_cell_length_a 17.278698
_cell_length_b 11.353183
_cell_length_c 10.843447
_cell_angle_alpha 113.054989
_cell_angle_beta 140.212985
_cell_angle_gamma 38.201100
_cell_volume 710.503991
_symmetry_space_group_name_H-M "P -1"
_symmetry_group_IT_number 2
_symmetry_cell_setting 'triclinic'
loop_
_space_group_symop_operation_xyz
x,y,z
-x,-y,-z
loop_
_atom_site_type_symbol
_atom_site_label
_atom_site_fract_x
_atom_site_fract_y
_atom_site_fract_z
Si Si1 0.781741 0.245292 0.786493
Si Si2 0.153546 0.506568 0.048400
Si Si3 0.367798 0.239224 0.657531
Si Si4 0.617483 0.410952 0.397042
Si Si5 0.252480 0.184165 0.191900
Si Si6 0.476810 0.921955 0.829764
Si Si7 0.651402 0.156611 0.164610
Si Si8 0.963171 0.300145 0.676236
O O1 0.793121 0.389922 0.847580
O O2 0.727792 0.245736 0.582695
O O3 0.605791 0.359365 0.718816
O O4 0.000000 0.000000 0.000000
O O5 0.290517 0.326812 0.031685
O O6 0.897629 0.712223 0.831927
O O7 0.241979 0.341886 0.202583
O O8 0.145352 0.498500 0.459696
O O9 0.362182 0.105233 0.660217
O O10 0.492190 0.227913 0.899856
O O11 0.516251 0.080620 0.653633
O O12 0.592250 0.349341 0.217099
O O13 0.768747 0.395552 0.539734
O O14 0.116567 0.232713 0.935888
O O15 0.357152 0.911311 0.743877
O O16 0.500000 0.000000 0.000000
O O17 0.886484 0.931291 0.305665
#
# Coordination Sequence:
#
# PCOD9080592 Si02
#       8
#     2   2   2   2   2   2   2   2
#     4  11  25  42  64  89 121 162 205 249 299 360
#     4  10  18  40  65  84 119 164 195 247 315 346
#     4   9  21  37  61  92 118 160 199 249 303 358
#     4  11  24  42  60  87 126 159 203 254 296 356
#     4   9  20  38  62  87 123 153 192 257 305 356
#     4   9  18  38  61  84 123 155 196 249 300 352
#     4  10  21  39  60  84 124 167 195 251 304 349
#     4  11  22  38  61  92 123 155 207 248 297 365
#
# _framework density 22.519226
#
# number of rings (size 3 to 8) (size 9 to 14) (size 15 to 20)
#    0.000    2.000    2.500    1.125    1.750    2.000 
#    2.250    5.625    0.000    0.000    0.000    0.000 
#    0.000    0.000    0.000    0.000    0.000    0.000 
#
# Total GULP energy -89294.565469 kJ/mol
# GULP energy per Si atom -5580.910342 kJ/mol
# Density = 2.246797 g / cm^3
# Si number density = 22.519226 Si / 1000 Ang^3
#
#
#
# Elastic Constant Matrix: (Units=GPa)
#
#
# Indices 1 2 3 4 5 6 
#
# 1 94.1355 22.9174 16.4456 -0.3465 20.4149 -19.6441
# 2 22.9174 77.7433 18.7289 22.7878 -9.3216 -16.8650
# 3 16.4456 18.7289 59.2615 -9.0535 -5.6602 -1.3319
# 4 -0.3465 22.7878 -9.0535 30.6122 0.4580 1.4734
# 5 20.4149 -9.3216 -5.6602 0.4580 29.7537 6.5448
# 6 -19.6441 -16.8650 -1.3319 1.4734 6.5448 30.6223
#
#
#
# Elastic Compliance Matrix: (Units=1/GPa)
#
#
# Indices 1 2 3 4 5 6 
#
# 1 0.019590 -0.004010 -0.005471 0.001192 -0.018857 0.014093
# 2 -0.004010 0.026603 -0.009946 -0.023438 0.007077 0.011261
# 3 -0.005471 -0.009946 0.024278 0.014905 0.007271 -0.010203
# 4 0.001192 -0.023438 0.014905 0.055232 -0.003214 -0.013466
# 5 -0.018857 0.007077 0.007271 -0.003214 0.054457 -0.019367
# 6 0.014093 0.011261 -0.010203 -0.013466 -0.019367 0.052242
#
#
# Mechanical properties :
#
#
# Convention : Reuss Voigt Hill
#
# Bulk Modulus (GPa) = 31.62966 38.59157 35.11062
# Shear Modulus (GPa) = 17.74343 29.73420 23.73882
#
# Velocity S-wave (km/s) = 2.81004 3.63766 3.25030
# Velocity P-wave (km/s) = 4.96030 5.90066 5.45080
#
# Compressibility (1/GPa) = 0.03161589
#
# Stress axis : x y z
#
# Youngs Moduli (GPa) = 51.04727 37.59041 41.18910
#
# Poissons Ratio (x) = 0.15073 0.22535
# Poissons Ratio (y) = 0.20469 0.40968
# Poissons Ratio (z) = 0.27929 0.37388
#
# Static dielectric constant tensor:
#      x y z
#    x 1.879330 0.022960 0.006610 
#    y 0.022960 1.951340 0.035780 
#    z 0.006610 0.035780 1.882930 
# 
# From -- ./inp_files/426120.got.cif
#   From: 2010.05.17/outbox.cif.g08.bks.cpg/sg2_214_cif.got.tgz:426120.got - 2010.06.03 11:33:40.
