data_PCOD9080573
_publ_section_title
;
Structure prediction by ZEFSAII (Michael W. Deem and Ramdas Pophale) SiO2 
 PCOD9080573
Probable space group: P -1
;
_chemical_formula_sum "Si O2"
_cell_formula_units_Z 16
_cell_length_a 15.367895
_cell_length_b 16.031819
_cell_length_c 5.914645
_cell_angle_alpha 109.734337
_cell_angle_beta 86.888580
_cell_angle_gamma 144.491772
_cell_volume 728.946289
_symmetry_space_group_name_H-M "P -1"
_symmetry_group_IT_number 2
_symmetry_cell_setting 'triclinic'
loop_
_space_group_symop_operation_xyz
x,y,z
-x,-y,-z
loop_
_atom_site_type_symbol
_atom_site_label
_atom_site_fract_x
_atom_site_fract_y
_atom_site_fract_z
Si Si1 0.942154 0.160047 0.719795
Si Si2 0.580035 0.304545 0.548328
Si Si3 0.054114 0.011766 0.253448
Si Si4 0.129333 0.485257 0.986316
Si Si5 0.670719 0.022306 0.940578
Si Si6 0.133439 0.639013 0.801156
Si Si7 0.425859 0.337850 0.363415
Si Si8 0.327186 0.124168 0.814316
O O1 0.801401 0.092914 0.810581
O O2 0.005854 0.142082 0.868412
O O3 0.849511 0.029263 0.415051
O O4 0.073847 0.341793 0.775165
O O5 0.755572 0.433892 0.742009
O O6 0.549625 0.367095 0.461548
O O7 0.467713 0.227257 0.709918
O O8 0.504473 0.152073 0.301946
O O9 0.253806 0.187063 0.385827
O O10 0.000000 0.000000 0.500000
O O11 0.000000 0.000000 0.000000
O O12 0.970678 0.397893 0.028102
O O13 0.198127 0.606823 0.889822
O O14 0.727152 0.170837 0.117207
O O15 0.677930 0.964305 0.100414
O O16 0.000000 0.500000 0.500000
O O17 0.500000 0.500000 0.500000
O O18 0.369646 0.251541 0.050066
#
# Coordination Sequence:
#
# PCOD9080573 Si02
#       8
#     2   2   2   2   2   2   2   2
#     4  10  20  40  62  86 123 169 215 267 327 394
#     4  10  22  40  63  90 124 169 215 261 344 401
#     4  12  26  43  68 103 135 180 240 285 345 418
#     4  10  23  39  61  95 125 162 213 274 328 400
#     4   9  19  37  64  84 120 168 207 264 322 400
#     4  10  21  40  62  91 127 159 214 271 329 392
#     4  11  25  43  63  95 135 174 221 292 338 405
#     4  10  18  40  64  84 121 172 219 261 335 401
#
# _framework density 21.949491999999999
#
# number of rings (size 3 to 8) (size 9 to 14) (size 15 to 20)
#    0.000    1.750    3.750    1.500    1.750    5.000 
#    0.000    1.250    0.000    0.000    0.000    0.000 
#    0.000    0.000    0.000    0.000    0.000    0.000 
#
# Total GULP energy -89207.084349 kJ/mol
# GULP energy per Si atom -5575.442772 kJ/mol
# Density = 2.189953 g / cm^3
# Si number density = 21.949492 Si / 1000 Ang^3
#
#
#
# Elastic Constant Matrix: (Units=GPa)
#
#
# Indices 1 2 3 4 5 6 
#
# 1 83.6289 37.8814 37.7592 16.1925 6.3340 -30.3295
# 2 37.8814 79.2535 40.0145 22.4335 -17.9047 -39.8631
# 3 37.7592 40.0145 102.8634 7.4239 -1.8282 -36.4333
# 4 16.1925 22.4335 7.4239 30.1627 -1.9710 -17.9060
# 5 6.3340 -17.9047 -1.8282 -1.9710 34.5274 0.8896
# 6 -30.3295 -39.8631 -36.4333 -17.9060 0.8896 44.5962
#
#
#
# Elastic Compliance Matrix: (Units=1/GPa)
#
#
# Indices 1 2 3 4 5 6 
#
# 1 0.018575 -0.006452 -0.003035 -0.002896 -0.007166 0.003366
# 2 -0.006452 0.032832 -0.002700 -0.007702 0.017129 0.019319
# 3 -0.003035 -0.002700 0.015088 0.006020 0.000034 0.010265
# 4 -0.002896 -0.007702 0.006020 0.048022 -0.000799 0.015361
# 5 -0.007166 0.017129 0.000034 -0.000799 0.038874 0.009369
# 6 0.003366 0.019319 0.010265 0.015361 0.009369 0.056348
#
#
# Mechanical properties :
#
#
# Convention : Reuss Voigt Hill
#
# Bulk Modulus (GPa) = 23.74151 55.22846 39.48499
# Shear Modulus (GPa) = 20.14871 31.86331 26.00601
#
# Velocity S-wave (km/s) = 3.03307 3.81421 3.44584
# Velocity P-wave (km/s) = 4.80686 6.67936 5.81892
#
# Compressibility (1/GPa) = 0.04212032
#
# Stress axis : x y z
#
# Youngs Moduli (GPa) = 53.83685 30.45769 66.27790
#
# Poissons Ratio (x) = 0.19652 0.20112
# Poissons Ratio (y) = 0.34737 0.17898
# Poissons Ratio (z) = 0.16337 0.08225
#
# Static dielectric constant tensor:
#      x y z
#    x 1.869140 0.014780 -0.006360 
#    y 0.014780 1.777260 0.016340 
#    z -0.006360 0.016340 1.823740 
# 
# From -- ./inp_files/55630.got.cif
#   From: 2010.05.17/outbox.cif.g08.bks.cpg/sg2_28_cif.got.tgz:55630.got - 2010.06.03 11:33:40.
