data_PCOD9080458
_publ_section_title
;
Structure prediction by ZEFSAII (Michael W. Deem and Ramdas Pophale) SiO2 
 PCOD9080458
Probable space group: P -1
;
_chemical_formula_sum "Si O2"
_cell_formula_units_Z 14
_cell_length_a 11.408076
_cell_length_b 11.476066
_cell_length_c 11.415021
_cell_angle_alpha 144.295456
_cell_angle_beta 36.415348
_cell_angle_gamma 130.253231
_cell_volume 517.635556
_symmetry_space_group_name_H-M "P -1"
_symmetry_group_IT_number 2
_symmetry_cell_setting 'triclinic'
loop_
_space_group_symop_operation_xyz
x,y,z
-x,-y,-z
loop_
_atom_site_type_symbol
_atom_site_label
_atom_site_fract_x
_atom_site_fract_y
_atom_site_fract_z
Si Si1 0.544033 0.179439 0.305448
Si Si2 0.222249 0.929566 0.277166
Si Si3 0.943466 0.771777 0.956406
Si Si4 0.244221 0.244914 0.155633
Si Si5 0.822434 0.186066 0.517500
Si Si6 0.627497 0.336467 0.585372
Si Si7 0.862885 0.383770 0.105391
O O1 0.363931 0.119397 0.319379
O O2 0.476281 0.226492 0.532690
O O3 0.674543 0.970783 0.041117
O O4 0.661435 0.380863 0.343705
O O5 0.237704 0.840527 0.322238
O O6 0.234793 0.782267 0.038170
O O7 0.000000 0.000000 0.500000
O O8 0.797866 0.747040 0.943781
O O9 0.158839 0.750838 0.704063
O O10 0.977527 0.641849 0.938834
O O11 0.889159 0.981934 0.232211
O O12 0.382470 0.426721 0.224107
O O13 0.030879 0.298994 0.431287
O O14 0.645651 0.280388 0.660722
O O15 0.000000 0.500000 0.000000
#
# Coordination Sequence:
#
# PCOD9080458 Si02
#       7
#     2   2   2   2   2   2   2
#     4  11  24  48  69 101 144 180 234 294 346 408
#     4  12  26  45  69  98 138 194 235 282 350 413
#     4  10  18  39  67 101 141 177 225 282 352 409
#     4  11  20  40  74 103 134 182 225 295 354 406
#     4  11  19  38  68 101 140 181 226 278 351 416
#     4  10  21  37  71 106 134 176 230 288 351 413
#     4  11  25  44  71  99 139 188 234 280 337 419
#
# _framework density 27.046054999999999
#
# number of rings (size 3 to 8) (size 9 to 14) (size 15 to 20)
#    0.000    1.143    5.714    3.000    6.000    0.571 
#    2.571    1.429    0.000    0.000    0.000    0.000 
#    0.000    0.000    0.000    0.000    0.000    0.000 
#
# Total GULP energy -78098.039510 kJ/mol
# GULP energy per Si atom -5578.431394 kJ/mol
# Density = 2.698450 g / cm^3
# Si number density = 27.046055 Si / 1000 Ang^3
#
#
#
# Elastic Constant Matrix: (Units=GPa)
#
#
# Indices 1 2 3 4 5 6 
#
# 1 113.4658 62.2673 40.9428 -10.4706 17.9252 4.0999
# 2 62.2673 114.2949 17.2609 -11.4783 -6.1110 -3.0602
# 3 40.9428 17.2609 76.7648 0.2476 5.9693 3.6956
# 4 -10.4706 -11.4783 0.2476 33.3734 14.0873 11.3712
# 5 17.9252 -6.1110 5.9693 14.0873 48.8386 -10.6625
# 6 4.0999 -3.0602 3.6956 11.3712 -10.6625 63.5420
#
#
#
# Elastic Compliance Matrix: (Units=1/GPa)
#
#
# Indices 1 2 3 4 5 6 
#
# 1 0.019156 -0.009157 -0.007104 0.009171 -0.010990 -0.004749
# 2 -0.009157 0.013789 0.001213 -0.001454 0.005888 0.002433
# 3 -0.007104 0.001213 0.016411 -0.002721 0.001608 0.000319
# 4 0.009171 -0.001454 -0.002721 0.044051 -0.018428 -0.011479
# 5 -0.010990 0.005888 0.001608 -0.018428 0.032471 0.009646
# 6 -0.004749 0.002433 0.000319 -0.011479 0.009646 0.019815
#
#
# Mechanical properties :
#
#
# Convention : Reuss Voigt Hill
#
# Bulk Modulus (GPa) = 51.92102 60.60749 56.26426
# Shear Modulus (GPa) = 27.44088 41.42107 34.43098
#
# Velocity S-wave (km/s) = 3.18873 3.91769 3.57185
# Velocity P-wave (km/s) = 5.72680 6.55149 6.15298
#
# Compressibility (1/GPa) = 0.01926002
#
# Stress axis : x y z
#
# Youngs Moduli (GPa) = 52.20308 72.52305 60.93295
#
# Poissons Ratio (x) = 0.66409 0.43288
# Poissons Ratio (y) = 0.47802 -0.07392
# Poissons Ratio (z) = 0.37086 -0.08798
#
# Static dielectric constant tensor:
#      x y z
#    x 2.086010 -0.037830 0.021340 
#    y -0.037830 2.305800 -0.087140 
#    z 0.021340 -0.087140 2.195390 
# 
# From -- ./inp_files/426790.got.cif
#   From: 2010.05.17/outbox.cif.g08.bks.cpg/sg2_214_cif.got.tgz:426790.got - 2010.06.03 11:33:40.
