data_PCOD9080254
_publ_section_title
;
Structure prediction by ZEFSAII (Michael W. Deem and Ramdas Pophale) SiO2 
 PCOD9080254
Probable space group: P -1
;
_chemical_formula_sum "Si O2"
_cell_formula_units_Z 15
_cell_length_a 18.648221
_cell_length_b 10.099087
_cell_length_c 8.575163
_cell_angle_alpha 46.504719
_cell_angle_beta 43.495830
_cell_angle_gamma 35.117219
_cell_volume 620.793794
_symmetry_space_group_name_H-M "P -1"
_symmetry_group_IT_number 2
_symmetry_cell_setting 'triclinic'
loop_
_space_group_symop_operation_xyz
x,y,z
-x,-y,-z
loop_
_atom_site_type_symbol
_atom_site_label
_atom_site_fract_x
_atom_site_fract_y
_atom_site_fract_z
Si Si1 0.500000 0.500000 0.000000
Si Si2 0.431396 0.105330 0.739584
Si Si3 0.292969 0.111832 0.634979
Si Si4 0.746740 0.445629 0.140014
Si Si5 0.525088 0.302076 0.807617
Si Si6 0.823628 0.010040 0.551312
Si Si7 0.806269 0.125173 0.848084
Si Si8 0.101061 0.616924 0.360655
O O1 0.461827 0.554663 0.202279
O O2 0.344013 0.623170 0.109606
O O3 0.359866 0.117637 0.684110
O O4 0.311720 0.328381 0.844863
O O5 0.565588 0.077357 0.526480
O O6 0.491753 0.861172 0.928688
O O7 0.195197 0.365162 0.502077
O O8 0.207905 0.028957 0.885673
O O9 0.604947 0.524833 0.232289
O O10 0.824106 0.209051 0.310501
O O11 0.838180 0.409754 0.882611
O O12 0.674388 0.106176 0.662343
O O13 0.832429 0.018970 0.718883
O O14 0.941960 0.750905 0.507575
O O15 0.897155 0.191718 0.702669
#
# Coordination Sequence:
#
# PCOD9080254 Si02
#       8
#     1   2   2   2   2   2   2   2
#     4  10  18  38  68 102 130 164 230 290 334 398
#     4  11  23  43  68 108 140 174 238 300 344 410
#     4  11  24  43  76 103 139 184 232 297 346 416
#     4  12  25  43  71  98 144 186 231 292 352 415
#     4  11  22  43  70 102 136 178 236 289 346 416
#     4  11  26  45  68 101 142 184 233 289 350 422
#     4  11  23  43  73 103 136 183 236 290 351 410
#     4  12  26  48  67 106 142 186 237 285 354 423
#
# _framework density 24.162611999999999
#
# number of rings (size 3 to 8) (size 9 to 14) (size 15 to 20)
#    0.000    0.800    5.333    2.400    5.600    1.600 
#    2.400    0.667    0.000    0.000    0.000    0.000 
#    0.000    0.000    0.000    0.000    0.000    0.000 
#
# Total GULP energy -83662.209332 kJ/mol
# GULP energy per Si atom -5577.480622 kJ/mol
# Density = 2.410762 g / cm^3
# Si number density = 24.162612 Si / 1000 Ang^3
#
#
#
# Elastic Constant Matrix: (Units=GPa)
#
#
# Indices 1 2 3 4 5 6 
#
# 1 33.0851 0.2402 -2.2108 0.9914 -2.4337 -2.3310
# 2 0.2402 157.2135 68.4784 9.3553 5.4815 -23.6111
# 3 -2.2108 68.4784 146.3685 -16.6013 6.6652 -7.6221
# 4 0.9914 9.3553 -16.6013 56.4678 -3.2866 -2.7365
# 5 -2.4337 5.4815 6.6652 -3.2866 13.4898 5.2315
# 6 -2.3310 -23.6111 -7.6221 -2.7365 5.2315 30.9434
#
#
#
# Elastic Compliance Matrix: (Units=1/GPa)
#
#
# Indices 1 2 3 4 5 6 
#
# 1 0.030713 -0.000163 0.000391 -0.000045 0.004835 0.001464
# 2 -0.000163 0.009573 -0.004202 -0.002787 -0.005194 0.006889
# 3 0.000391 -0.004202 0.009247 0.003284 -0.001878 -0.000291
# 4 -0.000045 -0.002787 0.003284 0.019374 0.004355 -0.000344
# 5 0.004835 -0.005194 -0.001878 0.004355 0.086177 -0.018246
# 6 0.001464 0.006889 -0.000291 -0.000344 -0.018246 0.040666
#
#
# Mechanical properties :
#
#
# Convention : Reuss Voigt Hill
#
# Bulk Modulus (GPa) = 24.04778 52.18697 38.11737
# Shear Modulus (GPa) = 22.98221 38.19083 30.58652
#
# Velocity S-wave (km/s) = 3.08741 3.97996 3.56175
# Velocity P-wave (km/s) = 4.76273 6.53951 5.72052
#
# Compressibility (1/GPa) = 0.04158389
#
# Stress axis : x y z
#
# Youngs Moduli (GPa) = 32.55995 104.46259 108.14650
#
# Poissons Ratio (x) = 0.01708 -0.04232
# Poissons Ratio (y) = 0.00532 0.45443
# Poissons Ratio (z) = -0.01274 0.43895
#
# Static dielectric constant tensor:
#      x y z
#    x 1.945870 0.061190 -0.024930 
#    y 0.061190 1.879210 -0.016630 
#    z -0.024930 -0.016630 1.967140 
# 
# From -- ./inp_files/344928.got.cif
#   From: 2010.05.17/outbox.cif.g08.bks.cpg/sg2_173_cif.got.tgz:344928.got - 2010.06.03 11:33:40.
