data_PCOD9080942
_publ_section_title
;
Structure prediction by ZEFSAII (Michael W. Deem and Ramdas Pophale) SiO2 
 PCOD9080942
Probable space group: P -1
;
_chemical_formula_sum "Si O2"
_cell_formula_units_Z 16
_cell_length_a 6.651351
_cell_length_b 16.308867
_cell_length_c 8.131978
_cell_angle_alpha 44.487280
_cell_angle_beta 79.639611
_cell_angle_gamma 95.608366
_cell_volume 574.453482
_symmetry_space_group_name_H-M "P -1"
_symmetry_group_IT_number 2
_symmetry_cell_setting 'triclinic'
loop_
_space_group_symop_operation_xyz
x,y,z
-x,-y,-z
loop_
_atom_site_type_symbol
_atom_site_label
_atom_site_fract_x
_atom_site_fract_y
_atom_site_fract_z
Si Si1 0.076304 0.314336 0.476519
Si Si2 0.926001 0.937660 0.423893
Si Si3 0.513325 0.747911 0.164280
Si Si4 0.096773 0.316482 0.111688
Si Si5 0.590726 0.019402 0.776344
Si Si6 0.488178 0.257038 0.447333
Si Si7 0.034571 0.800602 0.023753
Si Si8 0.564605 0.426068 0.877548
O O1 0.996898 0.333535 0.277885
O O2 0.227369 0.226565 0.553993
O O3 0.920616 0.259634 0.728871
O O4 0.248984 0.443282 0.324663
O O5 0.149920 0.938019 0.308546
O O6 0.810462 0.798366 0.705527
O O7 0.000000 0.000000 0.500000
O O8 0.862855 0.050481 0.192531
O O9 0.439062 0.720845 0.404499
O O10 0.771934 0.766321 0.108899
O O11 0.410486 0.645003 0.189831
O O12 0.514815 0.882602 0.906541
O O13 0.317303 0.429289 0.890567
O O14 0.938114 0.268669 0.049682
O O15 0.532858 0.135111 0.548750
O O16 0.500000 0.000000 0.000000
O O17 0.565422 0.362410 0.147102
#
# Coordination Sequence:
#
# PCOD9080942 Si02
#       8
#     2   2   2   2   2   2   2   2
#     4  10  19  30  48  75 103 136 178 213 248 305
#     4   9  17  32  53  77 106 136 172 215 265 321
#     4   8  16  29  45  69  99 129 161 206 257 299
#     4   9  17  29  47  71 100 130 166 213 259 300
#     4   9  17  32  53  77 106 136 172 215 265 321
#     4   9  17  29  47  71 100 130 166 213 259 300
#     4   8  16  29  45  69  99 129 161 206 257 299
#     4  10  19  30  48  75 103 136 178 213 248 305
#
# _framework density 27.852558999999999
#
# number of rings (size 3 to 8) (size 9 to 14) (size 15 to 20)
#    0.000    3.000    0.000    3.000    0.000    6.500 
#    0.000    0.000    0.000    7.500    0.000    7.000 
#    0.000    0.000    0.000    0.000    0.000    0.000 
#
# Total GULP energy -89411.749416 kJ/mol
# GULP energy per Si atom -5588.234339 kJ/mol
# Density = 2.778917 g / cm^3
# Si number density = 27.852559 Si / 1000 Ang^3
#
#
#
# Elastic Constant Matrix: (Units=GPa)
#
#
# Indices 1 2 3 4 5 6 
#
# 1 91.9939 20.4526 22.9978 3.3365 7.6807 2.5710
# 2 20.4526 107.7403 19.2129 22.8276 -9.4188 9.2447
# 3 22.9978 19.2129 128.4671 10.9117 -10.0902 7.2709
# 4 3.3365 22.8276 10.9117 61.9055 9.5183 -5.5494
# 5 7.6807 -9.4188 -10.0902 9.5183 33.5769 2.0337
# 6 2.5710 9.2447 7.2709 -5.5494 2.0337 29.5320
#
#
#
# Elastic Compliance Matrix: (Units=1/GPa)
#
#
# Indices 1 2 3 4 5 6 
#
# 1 0.012402 -0.002783 -0.002380 0.001614 -0.004852 0.001015
# 2 -0.002783 0.011939 -0.000076 -0.005579 0.005843 -0.004927
# 3 -0.002380 -0.000076 0.008877 -0.002260 0.003992 -0.002654
# 4 0.001614 -0.005579 -0.002260 0.020471 -0.008817 0.006617
# 5 -0.004852 0.005843 0.003992 -0.008817 0.036629 -0.006569
# 6 0.001015 -0.004927 -0.002654 0.006617 -0.006569 0.037665
#
#
# Mechanical properties :
#
#
# Convention : Reuss Voigt Hill
#
# Bulk Modulus (GPa) = 43.97237 50.39199 47.18218
# Shear Modulus (GPa) = 34.23707 42.70542 38.47125
#
# Velocity S-wave (km/s) = 3.50983 3.91994 3.72054
# Velocity P-wave (km/s) = 5.67865 6.21447 5.95259
#
# Compressibility (1/GPa) = 0.02274155
#
# Stress axis : x y z
#
# Youngs Moduli (GPa) = 80.63133 83.75819 112.64830
#
# Poissons Ratio (x) = 0.23312 0.26806
# Poissons Ratio (y) = 0.22442 0.00852
# Poissons Ratio (z) = 0.19187 0.00633
#
# Static dielectric constant tensor:
#      x y z
#    x 2.270700 0.153650 -0.006680 
#    y 0.153650 2.744000 -0.263960 
#    z -0.006680 -0.263960 2.238120 
# 
# From -- ./inp_files/269546.got.cif
#   From: 2010.05.17/outbox.cif.g08.bks.cpg/sg2_135_cif.got.tgz:269546.got - 2010.06.03 11:33:40.
