data_PCOD9080675
_publ_section_title
;
Structure prediction by ZEFSAII (Michael W. Deem and Ramdas Pophale) SiO2 
 PCOD9080675
Probable space group: P -1
;
_chemical_formula_sum "Si O2"
_cell_formula_units_Z 13
_cell_length_a 14.783508
_cell_length_b 8.943258
_cell_length_c 9.438159
_cell_angle_alpha 44.726078
_cell_angle_beta 137.861625
_cell_angle_gamma 122.987987
_cell_volume 588.748049
_symmetry_space_group_name_H-M "P -1"
_symmetry_group_IT_number 2
_symmetry_cell_setting 'triclinic'
loop_
_space_group_symop_operation_xyz
x,y,z
-x,-y,-z
loop_
_atom_site_type_symbol
_atom_site_label
_atom_site_fract_x
_atom_site_fract_y
_atom_site_fract_z
Si Si1 0.711920 0.648800 0.733352
Si Si2 0.806789 0.989118 0.156025
Si Si3 0.500000 0.000000 0.000000
Si Si4 0.555666 0.165301 0.570880
Si Si5 0.050079 0.999019 0.216976
Si Si6 0.671818 0.602580 0.398292
Si Si7 0.222086 0.771870 0.763577
O O1 0.570410 0.753076 0.539157
O O2 0.708354 0.550224 0.638509
O O3 0.838162 0.812025 0.768584
O O4 0.737021 0.464766 0.998943
O O5 0.782175 0.745674 0.344680
O O6 0.920285 0.018135 0.151560
O O7 0.848746 0.136868 0.238746
O O8 0.662949 0.062176 0.872972
O O9 0.552161 0.764965 0.169890
O O10 0.649040 0.064938 0.195632
O O11 0.625104 0.373896 0.437275
O O12 0.500000 0.000000 0.500000
O O13 0.129648 0.798229 0.502525
O O14 0.000000 0.000000 0.000000
#
# Coordination Sequence:
#
# PCOD9080675 Si02
#       7
#     2   2   1   2   2   2   2
#     4  12  23  43  79 105 138 196 246 306 357 431
#     4  11  25  46  71 109 142 193 250 295 358 445
#     4  10  18  40  72 116 132 178 244 310 344 414
#     4  12  26  44  71 113 155 188 237 307 378 429
#     4  12  28  48  68 104 156 193 236 303 375 438
#     4  11  22  41  77 108 141 183 251 301 357 427
#     4  11  23  41  79 107 138 187 257 294 357 435
#
# _framework density 22.080750999999999
#
# number of rings (size 3 to 8) (size 9 to 14) (size 15 to 20)
#    0.000    0.615    6.154    3.692    0.000    3.077 
#    0.000    3.077    0.000    0.000    0.000    0.000 
#    0.000    0.000    0.000    0.000    0.000    0.000 
#
# Total GULP energy -72430.781754 kJ/mol
# GULP energy per Si atom -5571.598596 kJ/mol
# Density = 2.203049 g / cm^3
# Si number density = 22.080751 Si / 1000 Ang^3
#
#
#
# Elastic Constant Matrix: (Units=GPa)
#
#
# Indices 1 2 3 4 5 6 
#
# 1 82.6446 45.8509 73.4132 1.4315 -19.0524 14.4134
# 2 45.8509 -47.5339 -61.9214 7.8807 81.0848 86.6600
# 3 73.4132 -61.9214 83.9657 15.3101 54.1957 55.5558
# 4 1.4315 7.8807 15.3101 35.2860 -5.0889 -17.4309
# 5 -19.0524 81.0848 54.1957 -5.0889 -24.2982 -35.1255
# 6 14.4134 86.6600 55.5558 -17.4309 -35.1255 -9.6163
#
#
#
# Elastic Compliance Matrix: (Units=1/GPa)
#
#
# Indices 1 2 3 4 5 6 
#
# 1 0.031818 0.001792 -0.010034 -0.014335 0.019717 -0.040166
# 2 0.001792 0.007299 -0.004357 0.002533 0.010101 0.001800
# 3 -0.010034 -0.004357 0.010366 0.003009 -0.003652 0.013469
# 4 -0.014335 0.002533 0.003009 0.037532 -0.020983 0.027345
# 5 0.019717 0.010101 -0.003652 -0.020983 0.052673 -0.054877
# 6 -0.040166 0.001800 0.013469 0.027345 -0.054877 0.080722
#
#
# Mechanical properties :
#
#
# Convention : Reuss Voigt Hill
#
# Bulk Modulus (GPa) = 41.17854 25.97352 33.57603
# Shear Modulus (GPa) = 19.70810 4.38988 12.04899
#
# Velocity S-wave (km/s) = 2.99079 1.41153 2.33851
# Velocity P-wave (km/s) = 5.53317 3.80067 4.74663
#
# Compressibility (1/GPa) = 0.02428449
#
# Stress axis : x y z
#
# Youngs Moduli (GPa) = 31.42879 137.01104 96.46829
#
# Poissons Ratio (x) = -0.24551 0.96798
# Poissons Ratio (y) = -0.05632 0.42030
# Poissons Ratio (z) = 0.31536 0.59693
#
# Static dielectric constant tensor:
#      x y z
#    x 1.892210 0.009570 -0.051280 
#    y 0.009570 1.845890 0.019940 
#    z -0.051280 0.019940 1.860520 
# 
# From -- ./inp_files/294385.got.cif
#   From: 2010.05.17/outbox.cif.g08.bks.cpg/sg2_148_cif.got.tgz:294385.got - 2010.06.03 11:33:40.
