data_PCOD9080443
_publ_section_title
;
Structure prediction by ZEFSAII (Michael W. Deem and Ramdas Pophale) SiO2 
 PCOD9080443
Probable space group: P -1
;
_chemical_formula_sum "Si O2"
_cell_formula_units_Z 16
_cell_length_a 8.809690
_cell_length_b 18.885720
_cell_length_c 7.466917
_cell_angle_alpha 63.901506
_cell_angle_beta 141.347663
_cell_angle_gamma 118.158766
_cell_volume 678.339122
_symmetry_space_group_name_H-M "P -1"
_symmetry_group_IT_number 2
_symmetry_cell_setting 'triclinic'
loop_
_space_group_symop_operation_xyz
x,y,z
-x,-y,-z
loop_
_atom_site_type_symbol
_atom_site_label
_atom_site_fract_x
_atom_site_fract_y
_atom_site_fract_z
Si Si1 0.053496 0.183108 0.644434
Si Si2 0.233259 0.458400 0.218673
Si Si3 0.158253 0.689049 0.872740
Si Si4 0.659014 0.288753 0.600206
Si Si5 0.876970 0.572611 0.247039
Si Si6 0.556176 0.668227 0.998259
Si Si7 0.354241 0.881778 0.363624
Si Si8 0.236285 0.042192 0.051099
O O1 0.885838 0.222534 0.312810
O O2 0.889831 0.154915 0.701844
O O3 0.278822 0.255041 0.834004
O O4 0.155576 0.104818 0.770780
O O5 0.500000 0.500000 0.500000
O O6 0.112559 0.367475 0.274276
O O7 0.259070 0.454569 0.034085
O O8 0.000000 0.500000 0.000000
O O9 0.290946 0.655171 0.866914
O O10 0.329509 0.689086 0.205464
O O11 0.466756 0.310411 0.256260
O O12 0.622943 0.192400 0.656988
O O13 0.917675 0.344832 0.700411
O O14 0.305525 0.404580 0.799074
O O15 0.000000 0.500000 0.500000
O O16 0.568341 0.906567 0.684150
O O17 0.338393 0.965909 0.160986
O O18 0.000000 0.000000 0.000000
#
# Coordination Sequence:
#
# PCOD9080443 Si02
#       8
#     2   2   2   2   2   2   2   2
#     4  11  20  40  69 102 139 186 235 293 359 428
#     4  11  30  52  73 105 149 192 245 311 378 440
#     4  11  27  44  73 105 144 188 245 305 364 434
#     4  11  24  46  68 107 140 191 240 298 366 438
#     4  11  28  48  73 104 143 189 248 306 371 443
#     4  12  24  46  74 101 143 188 245 295 373 433
#     4  10  18  39  66 103 141 182 237 287 356 435
#     4   9  19  33  67 103 138 184 231 291 353 425
#
# _framework density 23.587022999999999
#
# number of rings (size 3 to 8) (size 9 to 14) (size 15 to 20)
#    0.000    1.250    3.750    0.000    8.750    1.500 
#    0.000    1.875    0.000   10.500    0.000    0.000 
#    0.000    0.000    0.000    0.000    0.000    0.000 
#
# Total GULP energy -89479.684762 kJ/mol
# GULP energy per Si atom -5592.480298 kJ/mol
# Density = 2.353334 g / cm^3
# Si number density = 23.587023 Si / 1000 Ang^3
#
#
#
# Elastic Constant Matrix: (Units=GPa)
#
#
# Indices 1 2 3 4 5 6 
#
# 1 63.4535 46.9721 37.1718 -13.0140 -2.7850 -4.2711
# 2 46.9721 152.2888 43.4295 -16.6511 8.6888 -15.3699
# 3 37.1718 43.4295 103.8250 -6.0638 -5.8240 -3.9548
# 4 -13.0140 -16.6511 -6.0638 52.5106 2.0872 8.9937
# 5 -2.7850 8.6888 -5.8240 2.0872 39.0107 1.7704
# 6 -4.2711 -15.3699 -3.9548 8.9937 1.7704 30.2339
#
#
#
# Elastic Compliance Matrix: (Units=1/GPa)
#
#
# Indices 1 2 3 4 5 6 
#
# 1 0.024185 -0.005584 -0.006053 0.003692 0.001934 -0.001425
# 2 -0.005584 0.009485 -0.001945 0.000887 -0.003017 0.003691
# 3 -0.006053 -0.001945 0.012676 -0.000715 0.001936 -0.000086
# 4 0.003692 0.000887 -0.000715 0.021110 -0.000928 -0.005347
# 5 0.001934 -0.003017 0.001936 -0.000928 0.026887 -0.002306
# 6 -0.001425 0.003691 -0.000086 -0.005347 -0.002306 0.036465
#
#
# Mechanical properties :
#
#
# Convention : Reuss Voigt Hill
#
# Bulk Modulus (GPa) = 52.13388 63.85712 57.99550
# Shear Modulus (GPa) = 30.41963 37.15064 33.78514
#
# Velocity S-wave (km/s) = 3.59510 3.97299 3.78876
# Velocity P-wave (km/s) = 6.27565 6.94103 6.61671
#
# Compressibility (1/GPa) = 0.01918138
#
# Stress axis : x y z
#
# Youngs Moduli (GPa) = 41.34727 105.42739 78.88911
#
# Poissons Ratio (x) = 0.58871 0.47755
# Poissons Ratio (y) = 0.23088 0.15346
# Poissons Ratio (z) = 0.25029 0.20508
#
# Static dielectric constant tensor:
#      x y z
#    x 1.862650 -0.010720 0.057890 
#    y -0.010720 1.950660 -0.050760 
#    z 0.057890 -0.050760 1.950820 
# 
# From -- ./inp_files/281814.got.cif
#   From: 2010.05.17/outbox.cif.g08.bks.cpg/sg2_141_cif.got.tgz:281814.got - 2010.06.03 11:33:40.
