data_PCOD9080233
_publ_section_title
;
Structure prediction by ZEFSAII (Michael W. Deem and Ramdas Pophale) SiO2 
 PCOD9080233
Probable space group: P -1
;
_chemical_formula_sum "Si O2"
_cell_formula_units_Z 15
_cell_length_a 9.906954
_cell_length_b 5.897890
_cell_length_c 11.410037
_cell_angle_alpha 91.185862
_cell_angle_beta 94.256733
_cell_angle_gamma 114.785430
_cell_volume 602.618265
_symmetry_space_group_name_H-M "P -1"
_symmetry_group_IT_number 2
_symmetry_cell_setting 'triclinic'
loop_
_space_group_symop_operation_xyz
x,y,z
-x,-y,-z
loop_
_atom_site_type_symbol
_atom_site_label
_atom_site_fract_x
_atom_site_fract_y
_atom_site_fract_z
Si Si1 0.996042 0.411881 0.781234
Si Si2 0.497364 0.138305 0.828926
Si Si3 0.000000 0.500000 0.000000
Si Si4 0.280360 0.027046 0.011250
Si Si5 0.543223 0.188797 0.397703
Si Si6 0.223026 0.378820 0.196068
Si Si7 0.788793 0.929749 0.611364
Si Si8 0.851105 0.312665 0.425628
O O1 0.894313 0.514680 0.856144
O O2 0.875443 0.184319 0.696337
O O3 0.063759 0.344214 0.897408
O O4 0.106592 0.618888 0.705483
O O5 0.600716 0.046180 0.911506
O O6 0.615296 0.393858 0.782367
O O7 0.432391 0.942774 0.717738
O O8 0.371940 0.162421 0.902115
O O9 0.860136 0.225962 0.028417
O O10 0.238516 0.191632 0.102520
O O11 0.710756 0.383942 0.441339
O O12 0.500000 0.000000 0.500000
O O13 0.388960 0.213377 0.376172
O O14 0.158968 0.257555 0.317896
O O15 0.815435 0.041763 0.481837
O O16 0.000000 0.500000 0.500000
#
# Coordination Sequence:
#
# PCOD9080233 Si02
#       8
#     2   2   1   2   2   2   2   2
#     4  11  22  39  62  89 128 169 201 254 311 369
#     4  11  22  42  62  92 121 165 208 259 306 363
#     4  12  20  42  60  90 124 168 202 248 314 366
#     4  11  24  39  65  88 128 162 210 256 306 369
#     4  10  18  38  67  86 116 159 205 254 306 360
#     4  12  20  40  66  91 125 164 210 255 315 362
#     4  10  20  41  64  89 121 163 212 256 305 364
#     4   9  21  38  65  89 122 166 203 250 314 369
#
# _framework density 24.891379000000001
#
# number of rings (size 3 to 8) (size 9 to 14) (size 15 to 20)
#    0.000    1.333    5.333    1.200    0.000    1.067 
#    0.000    2.667    8.800    0.000    0.000    0.000 
#    0.000    0.000    0.000    0.000    0.000    0.000 
#
# Total GULP energy -83512.456028 kJ/mol
# GULP energy per Si atom -5567.497069 kJ/mol
# Density = 2.483473 g / cm^3
# Si number density = 24.891379 Si / 1000 Ang^3
#
#
#
# Elastic Constant Matrix: (Units=GPa)
#
#
# Indices 1 2 3 4 5 6 
#
# 1 81.0177 43.5060 10.7826 -8.3169 -9.4917 35.9466
# 2 43.5060 63.4382 9.6586 -18.6659 2.1232 25.1996
# 3 10.7826 9.6586 134.0175 -33.9155 -15.6385 22.1014
# 4 -8.3169 -18.6659 -33.9155 51.3457 13.2556 1.2511
# 5 -9.4917 2.1232 -15.6385 13.2556 39.3688 -0.4755
# 6 35.9466 25.1996 22.1014 1.2511 -0.4755 36.3864
#
#
#
# Elastic Compliance Matrix: (Units=1/GPa)
#
#
# Indices 1 2 3 4 5 6 
#
# 1 0.029456 -0.011278 0.003670 0.001504 0.008378 -0.023461
# 2 -0.011278 0.033916 0.003994 0.015694 -0.008432 -0.015423
# 3 0.003670 0.003994 0.011856 0.009716 0.001940 -0.013902
# 4 0.001504 0.015694 0.009716 0.034508 -0.008479 -0.019554
# 5 0.008378 -0.008432 0.001940 -0.008479 0.031466 -0.002913
# 6 -0.023461 -0.015423 -0.013902 -0.019554 -0.002913 0.070420
#
#
# Mechanical properties :
#
#
# Convention : Reuss Voigt Hill
#
# Bulk Modulus (GPa) = 14.70573 45.15198 29.92886
# Shear Modulus (GPa) = 20.70246 39.72194 30.21220
#
# Velocity S-wave (km/s) = 2.88707 3.99909 3.48769
# Velocity P-wave (km/s) = 4.12727 6.28511 5.31681
#
# Compressibility (1/GPa) = 0.06800070
#
# Stress axis : x y z
#
# Youngs Moduli (GPa) = 33.94881 29.48435 84.34244
#
# Poissons Ratio (x) = 0.33254 -0.30955
# Poissons Ratio (y) = 0.38289 -0.33688
# Poissons Ratio (z) = -0.12460 -0.11776
#
# Static dielectric constant tensor:
#      x y z
#    x 2.044180 -0.053460 0.068410 
#    y -0.053460 1.976890 -0.013710 
#    z 0.068410 -0.013710 2.094170 
# 
# From -- ./inp_files/119355.got.cif
#   From: 2010.05.17/outbox.cif.g08.bks.cpg/sg2_60_cif.got.tgz:119355.got - 2010.06.03 11:33:40.
