data_PCOD9080745
_publ_section_title
;
Structure prediction by ZEFSAII (Michael W. Deem and Ramdas Pophale) SiO2 
 PCOD9080745
Probable space group: P -1
;
_chemical_formula_sum "Si O2"
_cell_formula_units_Z 11
_cell_length_a 5.046772
_cell_length_b 12.262852
_cell_length_c 9.843251
_cell_angle_alpha 49.252687
_cell_angle_beta 85.797823
_cell_angle_gamma 106.859727
_cell_volume 411.688892
_symmetry_space_group_name_H-M "P -1"
_symmetry_group_IT_number 2
_symmetry_cell_setting 'triclinic'
loop_
_space_group_symop_operation_xyz
x,y,z
-x,-y,-z
loop_
_atom_site_type_symbol
_atom_site_label
_atom_site_fract_x
_atom_site_fract_y
_atom_site_fract_z
Si Si1 0.141769 0.957708 0.727734
Si Si2 0.414114 0.725089 0.287680
Si Si3 0.000000 0.000000 0.000000
Si Si4 0.196851 0.839963 0.444071
Si Si5 0.186807 0.414646 0.004285
Si Si6 0.636571 0.556303 0.644677
O O1 0.474061 0.088399 0.566242
O O2 0.909307 0.024205 0.643091
O O3 0.150341 0.965343 0.884757
O O4 0.019810 0.776637 0.829842
O O5 0.673132 0.859225 0.083144
O O6 0.221809 0.796983 0.317227
O O7 0.572613 0.664649 0.447069
O O8 0.263951 0.569195 0.325767
O O9 0.912782 0.676102 0.627979
O O10 0.322658 0.461728 0.808318
O O11 0.500000 0.500000 0.000000
O O12 0.000000 0.500000 0.000000
#
# Coordination Sequence:
#
# PCOD9080745 Si02
#       6
#     2   2   1   2   2   2
#     4  11  24  45  70 104 140 187 231 290 351 426
#     4  10  22  40  73 109 149 179 225 299 370 418
#     4  10  18  42  68 108 140 174 222 294 362 420
#     4  11  22  43  69 105 142 174 230 290 372 409
#     4  12  29  52  73  99 142 200 245 283 342 425
#     4  11  23  45  70 109 144 185 238 295 354 420
#
# _framework density 26.719207000000001
#
# number of rings (size 3 to 8) (size 9 to 14) (size 15 to 20)
#    0.000    1.091    5.455    1.636    2.545    2.909 
#    3.273    5.455    0.000    0.000    0.000    0.000 
#    0.000    0.000    0.000    0.000    0.000    0.000 
#
# Total GULP energy -61368.930133 kJ/mol
# GULP energy per Si atom -5578.993648 kJ/mol
# Density = 2.665839 g / cm^3
# Si number density = 26.719207 Si / 1000 Ang^3
#
#
#
# Elastic Constant Matrix: (Units=GPa)
#
#
# Indices 1 2 3 4 5 6 
#
# 1 139.3795 51.1701 39.5857 -16.5070 -26.3010 -16.5722
# 2 51.1701 183.4248 36.7542 -40.2994 -6.4142 -23.2115
# 3 39.5857 36.7542 88.4243 -28.1505 -30.1453 -7.6567
# 4 -16.5070 -40.2994 -28.1505 53.2884 3.6464 0.1808
# 5 -26.3010 -6.4142 -30.1453 3.6464 40.6158 -0.2906
# 6 -16.5722 -23.2115 -7.6567 0.1808 -0.2906 54.2354
#
#
#
# Elastic Compliance Matrix: (Units=1/GPa)
#
#
# Indices 1 2 3 4 5 6 
#
# 1 0.009444 -0.001829 -0.001615 0.000367 0.004608 0.001898
# 2 -0.001829 0.007445 -0.000978 0.004616 -0.001131 0.002468
# 3 -0.001615 -0.000978 0.019482 0.008187 0.012538 0.001878
# 4 0.000367 0.004616 0.008187 0.026363 0.004699 0.003181
# 5 0.004608 -0.001131 0.012538 0.004699 0.036331 0.002873
# 6 0.001898 0.002468 0.001878 0.003181 0.002873 0.020344
#
#
# Mechanical properties :
#
#
# Convention : Reuss Voigt Hill
#
# Bulk Modulus (GPa) = 36.32897 74.02763 55.17830
# Shear Modulus (GPa) = 36.38240 48.54251 42.46245
#
# Velocity S-wave (km/s) = 3.69407 4.26698 3.99082
# Velocity P-wave (km/s) = 5.64100 7.21402 6.47545
#
# Compressibility (1/GPa) = 0.02752624
#
# Stress axis : x y z
#
# Youngs Moduli (GPa) = 105.89209 134.31996 51.32844
#
# Poissons Ratio (x) = 0.24564 0.08291
# Poissons Ratio (y) = 0.19365 0.05022
# Poissons Ratio (z) = 0.17104 0.13141
#
# Static dielectric constant tensor:
#      x y z
#    x 2.049110 0.020720 0.151330 
#    y 0.020720 2.070980 0.097330 
#    z 0.151330 0.097330 2.379140 
# 
# From -- ./inp_files/228651.got.cif
#   From: 2010.05.17/outbox.cif.g08.bks.cpg/sg2_115_cif.got.tgz:228651.got - 2010.06.03 11:33:40.
