data_PCOD9080212
_publ_section_title
;
Structure prediction by ZEFSAII (Michael W. Deem and Ramdas Pophale) SiO2 
 PCOD9080212
Probable space group: P -1
;
_chemical_formula_sum "Si O2"
_cell_formula_units_Z 16
_cell_length_a 10.428979
_cell_length_b 10.613033
_cell_length_c 10.726906
_cell_angle_alpha 71.868180
_cell_angle_beta 43.953635
_cell_angle_gamma 92.889984
_cell_volume 712.135157
_symmetry_space_group_name_H-M "P -1"
_symmetry_group_IT_number 2
_symmetry_cell_setting 'triclinic'
loop_
_space_group_symop_operation_xyz
x,y,z
-x,-y,-z
loop_
_atom_site_type_symbol
_atom_site_label
_atom_site_fract_x
_atom_site_fract_y
_atom_site_fract_z
Si Si1 0.780244 0.824166 0.652756
Si Si2 0.796629 0.060412 0.376486
Si Si3 0.431693 0.584624 0.803410
Si Si4 0.850228 0.885138 0.044113
Si Si5 0.496875 0.802092 0.484512
Si Si6 0.701996 0.421274 0.639368
Si Si7 0.391542 0.098747 0.003480
Si Si8 0.896187 0.576714 0.713949
O O1 0.846191 0.966331 0.475943
O O2 0.582283 0.703962 0.758877
O O3 0.923461 0.739210 0.603826
O O4 0.717037 0.866148 0.814784
O O5 0.648925 0.938049 0.420681
O O6 0.663693 0.146932 0.483319
O O7 0.003398 0.162112 0.128269
O O8 0.383409 0.671650 0.699776
O O9 0.566291 0.507078 0.675113
O O10 0.245773 0.475130 0.049468
O O11 0.654418 0.775534 0.290156
O O12 0.760222 0.965644 0.985668
O O13 0.000000 0.000000 0.000000
O O14 0.559596 0.252754 0.795770
O O15 0.780939 0.475567 0.707951
O O16 0.896251 0.443047 0.413884
O O17 0.500000 0.000000 0.000000
#
# Coordination Sequence:
#
# PCOD9080212 Si02
#       8
#     2   2   2   2   2   2   2   2
#     4  10  19  37  61  93 131 162 204 275 329 372
#     4   9  19  36  59  88 122 162 214 259 317 384
#     4  10  18  38  66  90 128 164 214 269 317 382
#     4  10  23  43  59  85 130 178 216 254 317 392
#     4   9  19  37  60  87 118 169 217 258 306 378
#     4  10  21  38  59 100 127 164 212 263 333 379
#     4  12  24  39  64  98 138 166 211 280 327 378
#     4  10  19  37  65  92 131 164 209 260 327 398
#
# _framework density 22.467645999999998
#
# number of rings (size 3 to 8) (size 9 to 14) (size 15 to 20)
#    0.000    2.000    2.500    1.500    1.750    2.500 
#    4.500    0.625    0.000    1.500    0.000    0.000 
#    0.000    0.000    0.000    0.000    0.000    0.000 
#
# Total GULP energy -89372.335762 kJ/mol
# GULP energy per Si atom -5585.770985 kJ/mol
# Density = 2.241651 g / cm^3
# Si number density = 22.467646 Si / 1000 Ang^3
#
#
#
# Elastic Constant Matrix: (Units=GPa)
#
#
# Indices 1 2 3 4 5 6 
#
# 1 87.4897 53.5627 42.2025 0.8274 0.6943 -14.2666
# 2 53.5627 91.3851 36.0468 3.5417 -6.1425 -10.9438
# 3 42.2025 36.0468 133.1251 22.0617 -2.9016 -26.8181
# 4 0.8274 3.5417 22.0617 24.7522 -8.6540 -3.3948
# 5 0.6943 -6.1425 -2.9016 -8.6540 24.9810 4.2613
# 6 -14.2666 -10.9438 -26.8181 -3.3948 4.2613 35.7061
#
#
#
# Elastic Compliance Matrix: (Units=1/GPa)
#
#
# Indices 1 2 3 4 5 6 
#
# 1 0.019854 -0.010204 -0.003603 0.003419 -0.002765 0.002754
# 2 -0.010204 0.017850 -0.001736 0.000986 0.004881 -0.000399
# 3 -0.003603 -0.001736 0.012178 -0.010916 -0.003818 0.006593
# 4 0.003419 0.000986 -0.010916 0.055997 0.018868 -0.003459
# 5 -0.002765 0.004881 -0.003818 0.018868 0.048504 -0.006472
# 6 0.002754 -0.000399 0.006593 -0.003459 -0.006472 0.034380
#
#
# Mechanical properties :
#
#
# Convention : Reuss Voigt Hill
#
# Bulk Modulus (GPa) = 53.20208 63.95820 58.58014
# Shear Modulus (GPa) = 22.11273 29.10038 25.60656
#
# Velocity S-wave (km/s) = 3.14061 3.60281 3.37962
# Velocity P-wave (km/s) = 6.07306 6.77020 6.43108
#
# Compressibility (1/GPa) = 0.01879626
#
# Stress axis : x y z
#
# Youngs Moduli (GPa) = 50.36875 56.02153 82.11602
#
# Poissons Ratio (x) = 0.57164 0.29586
# Poissons Ratio (y) = 0.51396 0.14255
# Poissons Ratio (z) = 0.18147 0.09725
#
# Static dielectric constant tensor:
#      x y z
#    x 1.865820 0.073100 -0.118170 
#    y 0.073100 1.653530 0.187960 
#    z -0.118170 0.187960 1.690840 
# 
# From -- ./inp_files/423407.got.cif
#   From: 2010.05.17/outbox.cif.g08.bks.cpg/sg2_212_cif.got.tgz:423407.got - 2010.06.03 11:33:40.
