data_PCOD9080336
_publ_section_title
;
Structure prediction by ZEFSAII (Michael W. Deem and Ramdas Pophale) SiO2 
 PCOD9080336
Probable space group: P -1
;
_chemical_formula_sum "Si O2"
_cell_formula_units_Z 14
_cell_length_a 9.172313
_cell_length_b 13.609113
_cell_length_c 21.850740
_cell_angle_alpha 19.126212
_cell_angle_beta 42.245873
_cell_angle_gamma 36.495803
_cell_volume 528.930729
_symmetry_space_group_name_H-M "P -1"
_symmetry_group_IT_number 2
_symmetry_cell_setting 'triclinic'
loop_
_space_group_symop_operation_xyz
x,y,z
-x,-y,-z
loop_
_atom_site_type_symbol
_atom_site_label
_atom_site_fract_x
_atom_site_fract_y
_atom_site_fract_z
Si Si1 0.512407 0.062112 0.790467
Si Si2 0.795837 0.245993 0.674028
Si Si3 0.283280 0.145660 0.585173
Si Si4 0.926538 0.966637 0.625975
Si Si5 0.734275 0.154898 0.104987
Si Si6 0.664361 0.731298 0.056307
Si Si7 0.172382 0.329756 0.290124
O O1 0.328924 0.057434 0.799835
O O2 0.763437 0.935997 0.748051
O O3 0.551361 0.348869 0.647627
O O4 0.523124 0.805080 0.992211
O O5 0.711297 0.509727 0.601359
O O6 0.039424 0.214991 0.582925
O O7 0.858759 0.867193 0.898765
O O8 0.201465 0.055470 0.729068
O O9 0.554434 0.850362 0.658930
O O10 0.197409 0.647181 0.740007
O O11 0.817611 0.895861 0.639336
O O12 0.969720 0.294704 0.414232
O O13 0.500000 0.500000 0.000000
O O14 0.892836 0.303036 0.933405
O O15 0.500000 0.000000 0.000000
#
# Coordination Sequence:
#
# PCOD9080336 Si02
#       7
#     2   2   2   2   2   2   2
#     4  10  22  39  64  96 118 165 211 250 304 372
#     4   9  22  34  62  88 123 160 209 246 313 362
#     4  10  18  39  58  89 121 168 201 253 307 362
#     4  11  20  39  60  94 122 158 213 249 307 361
#     4  10  19  36  60  90 122 160 203 253 307 355
#     4  10  22  39  61  88 124 164 201 256 306 365
#     4  10  22  34  63  89 125 163 203 252 309 362
#
# _framework density 26.468494
#
# number of rings (size 3 to 8) (size 9 to 14) (size 15 to 20)
#    0.857    1.143    2.857    2.143    2.000    0.571 
#    0.000    5.714    0.000    2.571    0.000    0.000 
#    0.000    0.000    0.000    0.000    0.000    0.000 
#
# Total GULP energy -78099.553404 kJ/mol
# GULP energy per Si atom -5578.539529 kJ/mol
# Density = 2.640825 g / cm^3
# Si number density = 26.468494 Si / 1000 Ang^3
#
#
#
# Elastic Constant Matrix: (Units=GPa)
#
#
# Indices 1 2 3 4 5 6 
#
# 1 102.9352 19.1024 22.3591 12.7385 -16.2248 1.7642
# 2 19.1024 66.7037 12.8174 16.5239 1.2039 -3.1839
# 3 22.3591 12.8174 117.6482 12.7389 -17.8892 0.3340
# 4 12.7385 16.5239 12.7389 30.7384 1.9434 -3.1067
# 5 -16.2248 1.2039 -17.8892 1.9434 47.3992 4.8760
# 6 1.7642 -3.1839 0.3340 -3.1067 4.8760 36.6172
#
#
#
# Elastic Compliance Matrix: (Units=1/GPa)
#
#
# Indices 1 2 3 4 5 6 
#
# 1 0.011436 -0.002379 -0.000936 -0.003479 0.003925 -0.001567
# 2 -0.002379 0.017920 -0.000836 -0.008095 -0.001374 0.001177
# 3 -0.000936 -0.000836 0.009697 -0.003499 0.003596 -0.000892
# 4 -0.003479 -0.008095 -0.003499 0.040403 -0.004322 0.003499
# 5 0.003925 -0.001374 0.003596 -0.004322 0.024418 -0.003960
# 6 -0.001567 0.001177 -0.000892 0.003499 -0.003960 0.028320
#
#
# Mechanical properties :
#
#
# Convention : Reuss Voigt Hill
#
# Bulk Modulus (GPa) = 32.51965 43.98276 38.25121
# Shear Modulus (GPa) = 33.16859 38.48486 35.82672
#
# Velocity S-wave (km/s) = 3.54380 3.81726 3.68307
# Velocity P-wave (km/s) = 5.39051 6.00680 5.70698
#
# Compressibility (1/GPa) = 0.03075064
#
# Stress axis : x y z
#
# Youngs Moduli (GPa) = 87.44475 55.80409 103.12407
#
# Poissons Ratio (x) = 0.13275 0.09654
# Poissons Ratio (y) = 0.20802 0.08621
# Poissons Ratio (z) = 0.08186 0.04665
#
# Static dielectric constant tensor:
#      x y z
#    x 2.253340 -0.010360 -0.021940 
#    y -0.010360 2.060910 0.014680 
#    z -0.021940 0.014680 2.151040 
# 
# From -- ./inp_files/607895.got.cif
#   From: 2010.05.17/outbox.cif.g08.bks.cpg/sg2_304_cif.got.tgz:607895.got - 2010.06.03 11:33:40.
