data_PCOD9080091
_publ_section_title
;
Structure prediction by ZEFSAII (Michael W. Deem and Ramdas Pophale) SiO2 
 PCOD9080091
Probable space group: P -1
;
_chemical_formula_sum "Si O2"
_cell_formula_units_Z 16
_cell_length_a 13.291817
_cell_length_b 10.010061
_cell_length_c 8.089809
_cell_angle_alpha 133.030561
_cell_angle_beta 69.810636
_cell_angle_gamma 114.419427
_cell_volume 713.208062
_symmetry_space_group_name_H-M "P -1"
_symmetry_group_IT_number 2
_symmetry_cell_setting 'triclinic'
loop_
_space_group_symop_operation_xyz
x,y,z
-x,-y,-z
loop_
_atom_site_type_symbol
_atom_site_label
_atom_site_fract_x
_atom_site_fract_y
_atom_site_fract_z
Si Si1 0.295884 0.189381 0.707702
Si Si2 0.316219 0.868384 0.646880
Si Si3 0.629087 0.830657 0.701131
Si Si4 0.952465 0.033718 0.376875
Si Si5 0.686642 0.434477 0.849441
Si Si6 0.525253 0.151629 0.930412
Si Si7 0.160941 0.951580 0.076532
Si Si8 0.106492 0.645944 0.143842
O O1 0.356987 0.256104 0.557173
O O2 0.324936 0.000093 0.591606
O O3 0.163690 0.120461 0.704569
O O4 0.324093 0.353200 0.964662
O O5 0.306618 0.659373 0.410821
O O6 0.210226 0.882733 0.826081
O O7 0.425614 0.977303 0.775151
O O8 0.612656 0.041645 0.854304
O O9 0.526803 0.747129 0.809278
O O10 0.745287 0.865651 0.759795
O O11 0.955530 0.995448 0.827045
O O12 0.930304 0.238906 0.585622
O O13 0.000000 0.000000 0.500000
O O14 0.580780 0.299200 0.885473
O O15 0.793994 0.431633 0.901618
O O16 0.148331 0.794732 0.096259
O O17 0.000000 0.500000 0.000000
#
# Coordination Sequence:
#
# PCOD9080091 Si02
#       8
#     2   2   2   2   2   2   2   2
#     4  12  23  40  64  91 127 162 206 249 312 367
#     4  11  24  43  60  90 131 169 197 249 311 373
#     4  10  19  39  66  91 117 160 211 259 299 360
#     4  10  18  38  63  87 119 160 199 255 304 351
#     4  12  23  41  63  92 126 164 205 252 307 369
#     4  10  21  40  67  87 122 166 205 256 311 346
#     4  10  20  39  65  89 123 162 206 251 310 359
#     4  11  21  39  65  95 118 160 212 257 304 358
#
# _framework density 22.433847
#
# number of rings (size 3 to 8) (size 9 to 14) (size 15 to 20)
#    0.000    1.250    6.250    1.875    0.000    1.500 
#    2.250    1.250    0.000    0.000    0.000    0.000 
#    0.000    0.000    0.000    0.000    0.000    0.000 
#
# Total GULP energy -89363.125941 kJ/mol
# GULP energy per Si atom -5585.195371 kJ/mol
# Density = 2.238279 g / cm^3
# Si number density = 22.433847 Si / 1000 Ang^3
#
#
#
# Elastic Constant Matrix: (Units=GPa)
#
#
# Indices 1 2 3 4 5 6 
#
# 1 82.9650 15.5811 31.3029 -2.4592 -4.9936 23.3476
# 2 15.5811 27.1695 20.4461 -9.7724 -5.7904 19.4402
# 3 31.3029 20.4461 140.1609 -9.0183 -9.0542 32.2736
# 4 -2.4592 -9.7724 -9.0183 36.9949 5.2198 -3.4314
# 5 -4.9936 -5.7904 -9.0542 5.2198 29.6897 -9.2096
# 6 23.3476 19.4402 32.2736 -3.4314 -9.2096 26.4848
#
#
#
# Elastic Compliance Matrix: (Units=1/GPa)
#
#
# Indices 1 2 3 4 5 6 
#
# 1 0.016199 0.002234 -0.000325 0.000373 -0.002023 -0.016179
# 2 0.002234 0.090012 0.003894 0.019091 -0.006780 -0.072668
# 3 -0.000325 0.003894 0.010188 0.002267 -0.001283 -0.015139
# 4 0.000373 0.019091 0.002267 0.032082 -0.005806 -0.014967
# 5 -0.002023 -0.006780 -0.001283 -0.005806 0.039228 0.021212
# 6 -0.016179 -0.072668 -0.015139 -0.014967 0.021212 0.129245
#
#
# Mechanical properties :
#
#
# Convention : Reuss Voigt Hill
#
# Bulk Modulus (GPa) = 7.81224 42.77285 25.29254
# Shear Modulus (GPa) = 14.36714 30.83157 22.59935
#
# Velocity S-wave (km/s) = 2.53340 3.71122 3.17736
# Velocity P-wave (km/s) = 3.47094 6.12142 4.97590
#
# Compressibility (1/GPa) = 0.12800432
#
# Stress axis : x y z
#
# Youngs Moduli (GPa) = 61.73379 11.10963 98.15321
#
# Poissons Ratio (x) = -0.02482 0.03190
# Poissons Ratio (y) = -0.13792 -0.38217
# Poissons Ratio (z) = 0.02006 -0.04326
#
# Static dielectric constant tensor:
#      x y z
#    x 1.905090 -0.023140 -0.017990 
#    y -0.023140 1.814740 -0.024940 
#    z -0.017990 -0.024940 1.850640 
# 
# From -- ./inp_files/305983.got.cif
#   From: 2010.05.17/outbox.cif.g08.bks.cpg/sg2_153_cif.got.tgz:305983.got - 2010.06.03 11:33:40.
