data_PCOD9080720
_publ_section_title
;
Structure prediction by ZEFSAII (Michael W. Deem and Ramdas Pophale) SiO2 
 PCOD9080720
Probable space group: P -1
;
_chemical_formula_sum "Si O2"
_cell_formula_units_Z 14
_cell_length_a 14.132474
_cell_length_b 6.821210
_cell_length_c 11.085251
_cell_angle_alpha 102.231791
_cell_angle_beta 131.628615
_cell_angle_gamma 52.933107
_cell_volume 604.674874
_symmetry_space_group_name_H-M "P -1"
_symmetry_group_IT_number 2
_symmetry_cell_setting 'triclinic'
loop_
_space_group_symop_operation_xyz
x,y,z
-x,-y,-z
loop_
_atom_site_type_symbol
_atom_site_label
_atom_site_fract_x
_atom_site_fract_y
_atom_site_fract_z
Si Si1 0.842672 0.553789 0.258959
Si Si2 0.591220 0.493611 0.960996
Si Si3 0.155389 0.441128 0.458398
Si Si4 0.993136 0.736350 0.992108
Si Si5 0.671960 0.070250 0.622795
Si Si6 0.069175 0.890663 0.843922
Si Si7 0.619517 0.455308 0.428463
O O1 0.186815 0.364903 0.616618
O O2 0.910017 0.281898 0.045011
O O3 0.961584 0.235311 0.305662
O O4 0.191103 0.031535 0.173725
O O5 0.326586 0.367258 0.928918
O O6 0.482658 0.566596 0.761060
O O7 0.500000 0.500000 0.000000
O O8 0.755172 0.197182 0.049669
O O9 0.958739 0.603783 0.301183
O O10 0.255931 0.191266 0.423622
O O11 0.230249 0.583418 0.513149
O O12 0.000000 0.500000 0.000000
O O13 0.037982 0.824668 0.156808
O O14 0.668225 0.250865 0.545800
O O15 0.499443 0.260757 0.570319
#
# Coordination Sequence:
#
# PCOD9080720 Si02
#       7
#     2   2   2   2   2   2   2
#     4   9  20  39  68  92 136 170 227 277 313 406
#     4  10  18  41  71  91 129 177 221 268 329 394
#     4  11  21  41  65  98 135 174 224 271 331 397
#     4  11  22  41  69  95 129 176 223 278 327 393
#     4  11  23  43  63 100 136 170 225 274 337 403
#     4   9  20  41  63  97 129 164 225 273 323 392
#     4  11  23  41  70  95 137 180 211 281 342 387
#
# _framework density 23.152937000000001
#
# number of rings (size 3 to 8) (size 9 to 14) (size 15 to 20)
#    0.857    0.857    4.286    0.429    0.000    2.286 
#    2.571    6.429    0.000    0.000    0.000    0.000 
#    0.000    0.000    0.000    0.000    0.000    0.000 
#
# Total GULP energy -77975.839123 kJ/mol
# GULP energy per Si atom -5569.702795 kJ/mol
# Density = 2.310024 g / cm^3
# Si number density = 23.152937 Si / 1000 Ang^3
#
#
#
# Elastic Constant Matrix: (Units=GPa)
#
#
# Indices 1 2 3 4 5 6 
#
# 1 150.3044 24.4718 43.4179 -11.7344 32.3657 -24.1327
# 2 24.4718 30.7854 28.5895 10.4007 -4.3881 -9.7111
# 3 43.4179 28.5895 125.6832 18.0595 17.9630 -0.3930
# 4 -11.7344 10.4007 18.0595 36.7757 -3.6683 -9.0021
# 5 32.3657 -4.3881 17.9630 -3.6683 36.7110 1.1739
# 6 -24.1327 -9.7111 -0.3930 -9.0021 1.1739 28.6750
#
#
#
# Elastic Compliance Matrix: (Units=1/GPa)
#
#
# Indices 1 2 3 4 5 6 
#
# 1 0.014575 -0.010934 -0.002271 0.010655 -0.012376 0.012383
# 2 -0.010934 0.060757 -0.011422 -0.011287 0.021146 0.006809
# 3 -0.002271 -0.011422 0.013111 -0.006345 -0.006178 -0.007339
# 4 0.010655 -0.011287 -0.006345 0.040911 -0.004128 0.018070
# 5 -0.012376 0.021146 -0.006178 -0.004128 0.043494 -0.006416
# 6 0.012383 0.006809 -0.007339 0.018070 -0.006416 0.053436
#
#
# Mechanical properties :
#
#
# Convention : Reuss Voigt Hill
#
# Bulk Modulus (GPa) = 25.51813 55.52570 40.52192
# Shear Modulus (GPa) = 17.32490 34.45194 25.88842
#
# Velocity S-wave (km/s) = 2.73844 3.86167 3.34750
# Velocity P-wave (km/s) = 4.58740 6.62703 5.69920
#
# Compressibility (1/GPa) = 0.03918782
#
# Stress axis : x y z
#
# Youngs Moduli (GPa) = 68.61267 16.45900 76.27084
#
# Poissons Ratio (x) = 0.17996 0.17322
# Poissons Ratio (y) = 0.75020 0.87120
# Poissons Ratio (z) = 0.15583 0.18800
#
# Static dielectric constant tensor:
#      x y z
#    x 1.891390 -0.041140 0.060360 
#    y -0.041140 1.949740 -0.012370 
#    z 0.060360 -0.012370 1.918100 
# 
# From -- ./inp_files/445055.got.cif
#   From: 2010.05.17/outbox.cif.g08.bks.cpg/sg2_223_cif.got.tgz:445055.got - 2010.06.03 11:33:40.
