data_PCOD9080165
_publ_section_title
;
Structure prediction by ZEFSAII (Michael W. Deem and Ramdas Pophale) SiO2 
 PCOD9080165
Probable space group: P -1
;
_chemical_formula_sum "Si O2"
_cell_formula_units_Z 16
_cell_length_a 14.087775
_cell_length_b 9.390768
_cell_length_c 17.074247
_cell_angle_alpha 89.414443
_cell_angle_beta 21.914097
_cell_angle_gamma 91.171963
_cell_volume 840.274373
_symmetry_space_group_name_H-M "P -1"
_symmetry_group_IT_number 2
_symmetry_cell_setting 'triclinic'
loop_
_space_group_symop_operation_xyz
x,y,z
-x,-y,-z
loop_
_atom_site_type_symbol
_atom_site_label
_atom_site_fract_x
_atom_site_fract_y
_atom_site_fract_z
Si Si1 0.781420 0.063992 0.460603
Si Si2 0.161788 0.853351 0.105605
Si Si3 0.256819 0.537411 0.073298
Si Si4 0.734701 0.202725 0.666739
Si Si5 0.808305 0.622055 0.711099
Si Si6 0.662970 0.940097 0.807523
Si Si7 0.828861 0.744054 0.937318
Si Si8 0.802087 0.979479 0.081577
O O1 0.762871 0.135552 0.559438
O O2 0.488643 0.012031 0.666597
O O3 0.920929 0.184672 0.297444
O O4 0.970172 0.937420 0.306091
O O5 0.140112 0.686626 0.144067
O O6 0.458258 0.903831 0.895482
O O7 0.126430 0.905641 0.043291
O O8 0.177320 0.464751 0.218465
O O9 0.180997 0.425377 0.063207
O O10 0.562578 0.566770 0.849456
O O11 0.911621 0.348906 0.541005
O O12 0.826431 0.084976 0.656493
O O13 0.435148 0.222679 0.905053
O O14 0.754706 0.789662 0.764835
O O15 0.500000 0.000000 0.000000
O O16 0.815171 0.824760 0.029979
O O17 0.000000 0.000000 0.000000
#
# Coordination Sequence:
#
# PCOD9080165 Si02
#       8
#     2   2   2   2   2   2   2   2
#     4  10  18  38  65  83 115 147 191 242 302 335
#     4  10  21  38  58  86 120 156 186 248 288 345
#     4  10  21  39  51  83 126 162 199 229 291 340
#     4  11  19  35  56  87 112 159 209 243 284 325
#     4  10  21  32  53  78 121 165 202 240 267 338
#     4  11  19  33  55  84 119 155 206 247 281 326
#     4  10  20  37  62  83 118 155 189 246 294 345
#     4  10  22  41  68  95 108 138 197 245 301 358
#
# _framework density 19.041399999999999
#
# number of rings (size 3 to 8) (size 9 to 14) (size 15 to 20)
#    0.000    1.750    5.000    1.875    0.000    2.500 
#    2.250    0.625    0.000    1.500    0.000    0.000 
#    0.000    0.000    0.000    0.000    0.000    0.000 
#
# Total GULP energy -89152.682026 kJ/mol
# GULP energy per Si atom -5572.042627 kJ/mol
# Density = 1.899806 g / cm^3
# Si number density = 19.041400 Si / 1000 Ang^3
#
#
#
# Elastic Constant Matrix: (Units=GPa)
#
#
# Indices 1 2 3 4 5 6 
#
# 1 85.2867 22.5973 15.0987 -12.2786 -10.2446 -3.7507
# 2 22.5973 128.7024 20.0681 -12.0650 -1.6484 -0.3942
# 3 15.0987 20.0681 91.1736 -14.9146 -3.2006 -2.6239
# 4 -12.2786 -12.0650 -14.9146 29.0765 1.5162 0.5204
# 5 -10.2446 -1.6484 -3.2006 1.5162 22.8568 -2.9986
# 6 -3.7507 -0.3942 -2.6239 0.5204 -2.9986 21.3034
#
#
#
# Elastic Compliance Matrix: (Units=1/GPa)
#
#
# Indices 1 2 3 4 5 6 
#
# 1 0.013838 -0.001803 -0.000897 0.004265 0.006063 0.003042
# 2 -0.001803 0.008474 -0.001247 0.002153 -0.000573 -0.000448
# 3 -0.000897 -0.001247 0.012344 0.005356 0.001059 0.001358
# 4 0.004265 0.002153 0.005356 0.039812 0.000243 0.000512
# 5 0.006063 -0.000573 0.001059 0.000243 0.047593 0.007880
# 6 0.003042 -0.000448 0.001358 0.000512 0.007880 0.048732
#
#
# Mechanical properties :
#
#
# Convention : Reuss Voigt Hill
#
# Bulk Modulus (GPa) = 37.36793 46.74343 42.05568
# Shear Modulus (GPa) = 26.65156 31.14058 28.89607
#
# Velocity S-wave (km/s) = 3.74527 4.04841 3.89979
# Velocity P-wave (km/s) = 6.19434 6.81575 6.51246
#
# Compressibility (1/GPa) = 0.02676091
#
# Stress axis : x y z
#
# Youngs Moduli (GPa) = 72.26668 118.00738 81.01411
#
# Poissons Ratio (x) = 0.21277 0.07264
# Poissons Ratio (y) = 0.13030 0.10106
# Poissons Ratio (z) = 0.06480 0.14721
#
# Static dielectric constant tensor:
#      x y z
#    x 1.657910 0.009460 -0.003270 
#    y 0.009460 1.724070 0.006580 
#    z -0.003270 0.006580 1.798090 
# 
# From -- ./inp_files/44684.got.cif
#   From: 2010.05.17/outbox.cif.g08.bks.cpg/sg2_23_cif.got.tgz:44684.got - 2010.06.03 11:33:40.
