data_PCOD9080950
_publ_section_title
;
Structure prediction by ZEFSAII (Michael W. Deem and Ramdas Pophale) SiO2 
 PCOD9080950
Probable space group: P -1
;
_chemical_formula_sum "Si O2"
_cell_formula_units_Z 15
_cell_length_a 15.304281
_cell_length_b 8.645687
_cell_length_c 11.779609
_cell_angle_alpha 125.009284
_cell_angle_beta 146.380799
_cell_angle_gamma 76.222188
_cell_volume 600.120553
_symmetry_space_group_name_H-M "P -1"
_symmetry_group_IT_number 2
_symmetry_cell_setting 'triclinic'
loop_
_space_group_symop_operation_xyz
x,y,z
-x,-y,-z
loop_
_atom_site_type_symbol
_atom_site_label
_atom_site_fract_x
_atom_site_fract_y
_atom_site_fract_z
Si Si1 0.447030 0.157158 0.356219
Si Si2 0.053069 0.981545 0.779463
Si Si3 0.849642 0.459302 0.913912
Si Si4 0.825443 0.512214 0.468504
Si Si5 0.013027 0.207430 0.038949
Si Si6 0.500000 0.500000 0.000000
Si Si7 0.490987 0.746030 0.277832
Si Si8 0.914864 0.679714 0.308500
O O1 0.641995 0.355553 0.602696
O O2 0.434072 0.225997 0.501129
O O3 0.451853 0.935661 0.284837
O O4 0.273967 0.097866 0.067045
O O5 0.963611 0.746271 0.652099
O O6 0.961058 0.895098 0.520895
O O7 0.027666 0.149684 0.900908
O O8 0.844116 0.250255 0.887454
O O9 0.900255 0.642269 0.141753
O O10 0.000000 0.500000 0.000000
O O11 0.622786 0.403405 0.149481
O O12 0.927121 0.374197 0.509710
O O13 0.828938 0.575363 0.631705
O O14 0.000000 0.000000 0.000000
O O15 0.607927 0.716144 0.294852
O O16 0.294917 0.507325 0.957955
#
# Coordination Sequence:
#
# PCOD9080950 Si02
#       8
#     2   2   2   2   2   1   2   2
#     4  10  21  33  57  79 112 151 198 226 284 344
#     4  11  18  33  53  86 115 147 186 240 291 330
#     4  10  23  43  61  80 114 159 196 231 285 351
#     4  10  19  30  48  81 123 153 177 228 291 338
#     4   9  21  35  58  87 118 145 188 239 287 330
#     4  12  20  26  48  84 130 140 180 228 298 328
#     4  10  20  31  49  84 115 148 185 234 281 343
#     4  10  19  37  55  80 118 154 185 232 290 344
#
# _framework density 24.994978
#
# number of rings (size 3 to 8) (size 9 to 14) (size 15 to 20)
#    0.000    1.867    2.667    2.000    9.333    0.000 
#    0.000    2.000    0.000    0.000    0.000    0.000 
#    0.000    0.000    0.000    0.000    0.000    0.000 
#
# Total GULP energy -83573.336401 kJ/mol
# GULP energy per Si atom -5571.555760 kJ/mol
# Density = 2.493809 g / cm^3
# Si number density = 24.994978 Si / 1000 Ang^3
#
#
#
# Elastic Constant Matrix: (Units=GPa)
#
#
# Indices 1 2 3 4 5 6 
#
# 1 94.9787 5.5045 54.8960 22.1313 -36.5865 4.8653
# 2 5.5045 34.5432 10.0879 9.4358 -2.8875 -8.6954
# 3 54.8960 10.0879 177.6727 -0.5002 -9.2698 -3.7907
# 4 22.1313 9.4358 -0.5002 33.8616 -14.6855 -12.3296
# 5 -36.5865 -2.8875 -9.2698 -14.6855 55.5219 -1.2200
# 6 4.8653 -8.6954 -3.7907 -12.3296 -1.2200 32.3742
#
#
#
# Elastic Compliance Matrix: (Units=1/GPa)
#
#
# Indices 1 2 3 4 5 6 
#
# 1 0.021239 0.000733 -0.006336 -0.013213 0.009296 -0.008419
# 2 0.000733 0.032911 -0.002000 -0.007670 -0.000046 0.005572
# 3 -0.006336 -0.002000 0.007707 0.005364 -0.001501 0.003304
# 4 -0.013213 -0.007670 0.005364 0.049943 0.005434 0.019779
# 5 0.009296 -0.000046 -0.001501 0.005434 0.025353 0.001440
# 6 -0.008419 0.005572 0.003304 0.019779 0.001440 0.041625
#
#
# Mechanical properties :
#
#
# Convention : Reuss Voigt Hill
#
# Bulk Modulus (GPa) = 21.43592 49.79682 35.61637
# Shear Modulus (GPa) = 23.86256 40.13197 31.99726
#
# Velocity S-wave (km/s) = 3.09316 4.01134 3.58180
# Velocity P-wave (km/s) = 4.62078 6.43587 5.60232
#
# Compressibility (1/GPa) = 0.04665068
#
# Stress axis : x y z
#
# Youngs Moduli (GPa) = 47.08283 30.38528 129.75645
#
# Poissons Ratio (x) = -0.02227 0.82210
# Poissons Ratio (y) = -0.03451 0.25953
# Poissons Ratio (z) = 0.29830 0.06078
#
# Static dielectric constant tensor:
#      x y z
#    x 2.341580 0.135790 0.061050 
#    y 0.135790 2.117790 -0.006070 
#    z 0.061050 -0.006070 1.982680 
# 
# From -- ./inp_files/295986.got.cif
#   From: 2010.05.17/outbox.cif.g08.bks.cpg/sg2_148_cif.got.tgz:295986.got - 2010.06.03 11:33:40.
