data_PCOD9080078
_publ_section_title
;
Structure prediction by ZEFSAII (Michael W. Deem and Ramdas Pophale) SiO2 
 PCOD9080078
Probable space group: P -1
;
_chemical_formula_sum "Si O2"
_cell_formula_units_Z 16
_cell_length_a 15.943351
_cell_length_b 10.080797
_cell_length_c 9.674998
_cell_angle_alpha 137.495768
_cell_angle_beta 69.003723
_cell_angle_gamma 86.030971
_cell_volume 832.681686
_symmetry_space_group_name_H-M "P -1"
_symmetry_group_IT_number 2
_symmetry_cell_setting 'triclinic'
loop_
_space_group_symop_operation_xyz
x,y,z
-x,-y,-z
loop_
_atom_site_type_symbol
_atom_site_label
_atom_site_fract_x
_atom_site_fract_y
_atom_site_fract_z
Si Si1 0.962324 0.238747 0.286737
Si Si2 0.499239 0.840215 0.499464
Si Si3 0.734309 0.626769 0.219426
Si Si4 0.296443 0.916531 0.550333
Si Si5 0.208480 0.615910 0.272899
Si Si6 0.655397 0.813089 0.934640
Si Si7 0.805487 0.980129 0.015349
Si Si8 0.226046 0.522221 0.613929
O O1 0.899101 0.260459 0.480163
O O2 0.873715 0.429158 0.383574
O O3 0.072795 0.217546 0.233686
O O4 0.000000 0.000000 0.000000
O O5 0.620746 0.646004 0.299143
O O6 0.413091 0.783076 0.450612
O O7 0.500000 0.000000 0.500000
O O8 0.453803 0.991180 0.782471
O O9 0.777062 0.565001 0.300590
O O10 0.715994 0.872007 0.369352
O O11 0.804550 0.440437 0.918505
O O12 0.266764 0.757162 0.361274
O O13 0.217195 0.012977 0.801955
O O14 0.285254 0.371654 0.117903
O O15 0.722938 0.930474 0.955024
O O16 0.669641 0.660496 0.675256
O O17 0.782689 0.231804 0.183185
#
# Coordination Sequence:
#
# PCOD9080078 Si02
#       8
#     2   2   2   2   2   2   2   2
#     4   9  18  36  62  82 105 145 193 224 271 331
#     4   9  18  36  57  82 113 144 186 233 262 329
#     4  11  23  39  51  86 122 140 181 237 277 321
#     4  10  19  36  61  82 108 148 190 230 260 336
#     4  11  19  34  62  82 109 150 187 222 278 329
#     4  10  19  36  61  83 106 148 195 221 269 331
#     4  10  18  38  63  80 108 143 193 232 263 332
#     4  10  22  36  57  83 118 143 179 236 278 322
#
# _framework density 19.215025000000001
#
# number of rings (size 3 to 8) (size 9 to 14) (size 15 to 20)
#    0.000    2.000    7.500    0.000    0.000    4.000 
#    0.000    5.625    0.000    0.000    0.000    0.000 
#    0.000    0.000    0.000    0.000    0.000    0.000 
#
# Total GULP energy -89167.928444 kJ/mol
# GULP energy per Si atom -5572.995528 kJ/mol
# Density = 1.917129 g / cm^3
# Si number density = 19.215025 Si / 1000 Ang^3
#
#
#
# Elastic Constant Matrix: (Units=GPa)
#
#
# Indices 1 2 3 4 5 6 
#
# 1 53.9400 17.2078 15.6873 -1.9738 -10.1539 13.2885
# 2 17.2078 74.5959 18.9270 -7.3232 3.3415 -1.2048
# 3 15.6873 18.9270 83.4570 -17.9413 -8.0525 -7.2149
# 4 -1.9738 -7.3232 -17.9413 27.1628 8.2206 10.3102
# 5 -10.1539 3.3415 -8.0525 8.2206 29.5390 -4.9086
# 6 13.2885 -1.2048 -7.2149 10.3102 -4.9086 23.2719
#
#
#
# Elastic Compliance Matrix: (Units=1/GPa)
#
#
# Indices 1 2 3 4 5 6 
#
# 1 0.026682 -0.005332 -0.004219 0.002581 0.005100 -0.016888
# 2 -0.005332 0.015821 -0.002232 0.003855 -0.005245 0.000358
# 3 -0.004219 -0.002232 0.015339 0.007078 0.001725 0.004277
# 4 0.002581 0.003855 0.007078 0.059750 -0.019165 -0.029594
# 5 0.005100 -0.005245 0.001725 -0.019165 0.044536 0.015235
# 6 -0.016888 0.000358 0.004277 -0.029594 0.015235 0.070282
#
#
# Mechanical properties :
#
#
# Convention : Reuss Voigt Hill
#
# Bulk Modulus (GPa) = 29.17535 35.07079 32.12307
# Shear Modulus (GPa) = 18.69839 26.67279 22.68559
#
# Velocity S-wave (km/s) = 3.12286 3.72979 3.43974
# Velocity P-wave (km/s) = 5.31221 6.06958 5.70348
#
# Compressibility (1/GPa) = 0.03427551
#
# Stress axis : x y z
#
# Youngs Moduli (GPa) = 37.47817 63.20654 65.19239
#
# Poissons Ratio (x) = 0.33704 0.27505
# Poissons Ratio (y) = 0.19985 0.14551
# Poissons Ratio (z) = 0.15812 0.14108
#
# Static dielectric constant tensor:
#      x y z
#    x 1.724110 0.025040 0.001120 
#    y 0.025040 1.656580 0.016100 
#    z 0.001120 0.016100 1.717720 
# 
# From -- ./inp_files/294017.got.cif
#   From: 2010.05.17/outbox.cif.g08.bks.cpg/sg2_148_cif.got.tgz:294017.got - 2010.06.03 11:33:40.
