data_PCOD9080806
_publ_section_title
;
Structure prediction by ZEFSAII (Michael W. Deem and Ramdas Pophale) SiO2 
 PCOD9080806
Probable space group: P -1
;
_chemical_formula_sum "Si O2"
_cell_formula_units_Z 14
_cell_length_a 5.415317
_cell_length_b 25.137221
_cell_length_c 14.482521
_cell_angle_alpha 161.411031
_cell_angle_beta 92.075642
_cell_angle_gamma 82.205276
_cell_volume 595.444786
_symmetry_space_group_name_H-M "P -1"
_symmetry_group_IT_number 2
_symmetry_cell_setting 'triclinic'
loop_
_space_group_symop_operation_xyz
x,y,z
-x,-y,-z
loop_
_atom_site_type_symbol
_atom_site_label
_atom_site_fract_x
_atom_site_fract_y
_atom_site_fract_z
Si Si1 0.394223 0.149857 0.324634
Si Si2 0.140186 0.789760 0.646026
Si Si3 0.441938 0.809467 0.859174
Si Si4 0.938153 0.503253 0.351399
Si Si5 0.744819 0.008106 0.392373
Si Si6 0.161438 0.684275 0.796619
Si Si7 0.829509 0.821544 0.288848
O O1 0.614564 0.244390 0.476404
O O2 0.099312 0.266267 0.488922
O O3 0.500000 0.000000 0.000000
O O4 0.399291 0.016453 0.188842
O O5 0.256022 0.748401 0.682922
O O6 0.000000 0.000000 0.000000
O O7 0.727396 0.689501 0.634756
O O8 0.369093 0.761580 0.880884
O O9 0.785806 0.391379 0.224077
O O10 0.135540 0.533923 0.480389
O O11 0.082240 0.383640 0.073434
O O12 0.441253 0.112922 0.552748
O O13 0.928720 0.130252 0.585969
O O14 0.778706 0.924773 0.359221
O O15 0.886485 0.841541 0.055784
#
# Coordination Sequence:
#
# PCOD9080806 Si02
#       7
#     2   2   2   2   2   2   2
#     4   8  16  29  46  68  98 129 164 204 255 314
#     4   8  16  29  46  68  98 129 164 204 255 314
#     4  10  19  28  50  70 108 136 163 210 274 304
#     4  10  22  33  48  76 110 142 174 213 258 307
#     4   9  19  36  53  66  92 140 185 214 245 293
#     4  10  22  33  48  76 110 142 174 213 258 307
#     4   9  19  36  53  66  92 140 185 214 245 293
#
# _framework density 23.511837
#
# number of rings (size 3 to 8) (size 9 to 14) (size 15 to 20)
#    0.000    3.143    0.000    0.429   12.000    0.000 
#    0.000    0.000    0.000    0.000    0.000    0.000 
#    0.000   61.714    0.000    0.000    0.000    0.000 
#
# Total GULP energy -78086.973940 kJ/mol
# GULP energy per Si atom -5577.640996 kJ/mol
# Density = 2.345832 g / cm^3
# Si number density = 23.511837 Si / 1000 Ang^3
#
#
#
# Elastic Constant Matrix: (Units=GPa)
#
#
# Indices 1 2 3 4 5 6 
#
# 1 172.3038 16.0501 48.1402 -7.7965 -32.7941 3.5436
# 2 16.0501 56.0037 10.1305 10.5214 -3.6257 7.6063
# 3 48.1402 10.1305 97.5741 -15.9878 -12.8344 -10.2589
# 4 -7.7965 10.5214 -15.9878 14.4420 -3.2193 -2.7012
# 5 -32.7941 -3.6257 -12.8344 -3.2193 26.1516 4.4969
# 6 3.5436 7.6063 -10.2589 -2.7012 4.4969 29.7209
#
#
#
# Elastic Compliance Matrix: (Units=1/GPa)
#
#
# Indices 1 2 3 4 5 6 
#
# 1 0.009057 -0.002522 -0.001826 0.006826 0.011323 -0.002157
# 2 -0.002522 0.028750 -0.010070 -0.037322 -0.006487 -0.012944
# 3 -0.001826 -0.010070 0.019678 0.032024 0.007973 0.011292
# 4 0.006826 -0.037322 0.032024 0.148107 0.032461 0.028341
# 5 0.011323 -0.006487 0.007973 0.032461 0.059974 -0.003062
# 6 -0.002157 -0.012944 0.011292 0.028341 -0.003062 0.044153
#
#
# Mechanical properties :
#
#
# Convention : Reuss Voigt Hill
#
# Bulk Modulus (GPa) = 34.90429 52.72479 43.81454
# Shear Modulus (GPa) = 14.36354 30.83363 22.59859
#
# Velocity S-wave (km/s) = 2.47433 3.62527 3.10362
# Velocity P-wave (km/s) = 4.80008 6.32431 5.61416
#
# Compressibility (1/GPa) = 0.02864978
#
# Stress axis : x y z
#
# Youngs Moduli (GPa) = 110.41154 34.78270 50.81814
#
# Poissons Ratio (x) = 0.08771 0.09277
# Poissons Ratio (y) = 0.27843 0.51175
# Poissons Ratio (z) = 0.20157 0.35027
#
# Static dielectric constant tensor:
#      x y z
#    x 2.070710 0.028800 0.079460 
#    y 0.028800 1.977820 0.034500 
#    z 0.079460 0.034500 1.896630 
# 
# From -- ./inp_files/269907.got.cif
#   From: 2010.05.17/outbox.cif.g08.bks.cpg/sg2_135_cif.got.tgz:269907.got - 2010.06.03 11:33:40.
