data_PCOD9080794
_publ_section_title
;
Structure prediction by ZEFSAII (Michael W. Deem and Ramdas Pophale) SiO2 
 PCOD9080794
Probable space group: P -1
;
_chemical_formula_sum "Si O2"
_cell_formula_units_Z 16
_cell_length_a 21.379571
_cell_length_b 11.535569
_cell_length_c 5.619304
_cell_angle_alpha 71.107951
_cell_angle_beta 111.829772
_cell_angle_gamma 137.834464
_cell_volume 861.002720
_symmetry_space_group_name_H-M "P -1"
_symmetry_group_IT_number 2
_symmetry_cell_setting 'triclinic'
loop_
_space_group_symop_operation_xyz
x,y,z
-x,-y,-z
loop_
_atom_site_type_symbol
_atom_site_label
_atom_site_fract_x
_atom_site_fract_y
_atom_site_fract_z
Si Si1 0.873269 0.448499 0.638822
Si Si2 0.490564 0.786671 0.641772
Si Si3 0.620654 0.758851 0.571325
Si Si4 0.832490 0.106868 0.773449
Si Si5 0.800246 0.357865 0.098028
Si Si6 0.481056 0.580660 0.110187
Si Si7 0.096648 0.772662 0.704732
Si Si8 0.415068 0.885063 0.146719
O O1 0.836141 0.260048 0.699682
O O2 0.841103 0.464515 0.331011
O O3 0.987509 0.594204 0.709424
O O4 0.834103 0.454234 0.826059
O O5 0.554396 0.767939 0.615489
O O6 0.421150 0.764309 0.375066
O O7 0.560631 0.979563 0.716119
O O8 0.443029 0.653379 0.882518
O O9 0.584387 0.739359 0.266756
O O10 0.589327 0.578133 0.700733
O O11 0.727647 0.924240 0.683814
O O12 0.893691 0.154064 0.591641
O O13 0.868198 0.112556 0.083028
O O14 0.839889 0.269255 0.201077
O O15 0.686693 0.219003 0.039624
O O16 0.500000 0.500000 0.000000
O O17 0.500000 0.000000 0.000000
#
# Coordination Sequence:
#
# PCOD9080794 Si02
#       8
#     2   2   2   2   2   2   2   2
#     4  10  19  33  51  74 108 141 180 226 282 332
#     4  10  21  35  52  69 109 148 188 231 268 316
#     4  10  20  34  53  80 101 152 185 236 276 327
#     4  10  19  27  51  74 106 133 178 211 276 335
#     4  10  20  31  49  70 103 146 180 217 262 327
#     4   9  20  35  54  72 106 141 191 236 281 318
#     4  10  19  32  50  77 107 141 175 230 281 336
#     4  11  24  33  50  77 113 151 196 224 262 327
#
# _framework density 18.582985000000001
#
# number of rings (size 3 to 8) (size 9 to 14) (size 15 to 20)
#    0.000    2.000    0.000    6.000   14.000    0.000 
#    0.000    0.000    0.000    0.000    0.000    0.000 
#    0.000   11.000    0.000    0.000    0.000    0.000 
#
# Total GULP energy -89116.437878 kJ/mol
# GULP energy per Si atom -5569.777367 kJ/mol
# Density = 1.854069 g / cm^3
# Si number density = 18.582985 Si / 1000 Ang^3
#
#
#
# Elastic Constant Matrix: (Units=GPa)
#
#
# Indices 1 2 3 4 5 6 
#
# 1 46.9113 19.8714 36.9808 1.6056 -1.4278 18.5917
# 2 19.8714 69.4418 28.6920 16.3417 15.1200 10.0343
# 3 36.9808 28.6920 126.3952 14.6637 -18.3922 4.4306
# 4 1.6056 16.3417 14.6637 33.2601 0.3962 8.2104
# 5 -1.4278 15.1200 -18.3922 0.3962 34.3906 5.7881
# 6 18.5917 10.0343 4.4306 8.2104 5.7881 23.9445
#
#
#
# Elastic Compliance Matrix: (Units=1/GPa)
#
#
# Indices 1 2 3 4 5 6 
#
# 1 0.050671 -0.008811 -0.012556 0.017401 0.005916 -0.040725
# 2 -0.008811 0.022948 -0.003484 -0.010277 -0.012962 0.004526
# 3 -0.012556 -0.003484 0.013769 -0.006075 0.006918 0.009072
# 4 0.017401 -0.010277 -0.006075 0.042840 0.005557 -0.024113
# 5 0.005916 -0.012962 0.006918 0.005557 0.040709 -0.012188
# 6 -0.040725 0.004526 0.009072 -0.024113 -0.012188 0.081023
#
#
# Mechanical properties :
#
#
# Convention : Reuss Voigt Hill
#
# Bulk Modulus (GPa) = 26.53364 45.98188 36.25776
# Shear Modulus (GPa) = 15.91222 28.79931 22.35576
#
# Velocity S-wave (km/s) = 2.92940 3.94098 3.47223
# Velocity P-wave (km/s) = 5.07457 6.74583 5.96898
#
# Compressibility (1/GPa) = 0.03768801
#
# Stress axis : x y z
#
# Youngs Moduli (GPa) = 19.73499 43.57701 72.62471
#
# Poissons Ratio (x) = 0.38395 0.91185
# Poissons Ratio (y) = 0.17388 0.25301
# Poissons Ratio (z) = 0.24779 0.15182
#
# Static dielectric constant tensor:
#      x y z
#    x 1.601710 0.025700 -0.081470 
#    y 0.025700 1.643840 -0.035280 
#    z -0.081470 -0.035280 1.778310 
# 
# From -- ./inp_files/66217.got.cif
#   From: 2010.05.17/outbox.cif.g08.bks.cpg/sg2_34_cif.got.tgz:66217.got - 2010.06.03 11:33:40.
