data_PCOD9080021
_publ_section_title
;
Structure prediction by ZEFSAII (Michael W. Deem and Ramdas Pophale) SiO2 
 PCOD9080021
Probable space group: P -1
;
_chemical_formula_sum "Si O2"
_cell_formula_units_Z 16
_cell_length_a 8.654799
_cell_length_b 21.429998
_cell_length_c 7.387717
_cell_angle_alpha 57.711274
_cell_angle_beta 120.488659
_cell_angle_gamma 142.085841
_cell_volume 701.968236
_symmetry_space_group_name_H-M "P -1"
_symmetry_group_IT_number 2
_symmetry_cell_setting 'triclinic'
loop_
_space_group_symop_operation_xyz
x,y,z
-x,-y,-z
loop_
_atom_site_type_symbol
_atom_site_label
_atom_site_fract_x
_atom_site_fract_y
_atom_site_fract_z
Si Si1 0.200635 0.921948 0.443216
Si Si2 0.415917 0.174174 0.931235
Si Si3 0.577632 0.367827 0.900760
Si Si4 0.885257 0.668882 0.180192
Si Si5 0.970955 0.400509 0.324490
Si Si6 0.029289 0.718983 0.801886
Si Si7 0.789366 0.091539 0.958810
Si Si8 0.987699 0.985953 0.753375
O O1 0.044733 0.807206 0.605751
O O2 0.142965 0.976949 0.443618
O O3 0.500000 0.000000 0.500000
O O4 0.837110 0.084082 0.787586
O O5 0.456223 0.272405 0.839617
O O6 0.272044 0.101599 0.782552
O O7 0.686247 0.216452 0.059331
O O8 0.216862 0.089020 0.093974
O O9 0.369388 0.367793 0.833337
O O10 0.812941 0.475325 0.772895
O O11 0.703879 0.359853 0.160028
O O12 0.986681 0.626646 0.414339
O O13 0.102355 0.795315 0.130495
O O14 0.851797 0.649078 0.975509
O O15 0.020555 0.349193 0.289911
O O16 0.500000 0.000000 0.000000
O O17 0.964276 0.082463 0.177971
#
# Coordination Sequence:
#
# PCOD9080021 Si02
#       8
#     2   2   2   2   2   2   2   2
#     4  12  20  37  60  90 128 173 213 261 322 386
#     4  10  18  38  61  88 127 167 207 264 318 386
#     4  10  22  44  69  98 128 169 228 269 324 399
#     4  12  23  44  67  97 133 170 217 274 326 385
#     4  10  24  46  70  94 131 174 216 278 331 380
#     4  11  24  41  64  96 130 168 218 267 324 395
#     4  12  23  39  61  95 132 167 220 266 320 396
#     4  11  19  36  60  88 129 171 211 259 325 389
#
# _framework density 22.793056
#
# number of rings (size 3 to 8) (size 9 to 14) (size 15 to 20)
#    0.000    1.000    6.250    1.875    0.000    0.500 
#    4.500    6.875    0.000    0.000    0.000    0.000 
#    0.000    0.000    0.000    0.000    0.000    0.000 
#
# Total GULP energy -89192.941849 kJ/mol
# GULP energy per Si atom -5574.558866 kJ/mol
# Density = 2.274118 g / cm^3
# Si number density = 22.793056 Si / 1000 Ang^3
#
#
#
# Elastic Constant Matrix: (Units=GPa)
#
#
# Indices 1 2 3 4 5 6 
#
# 1 28.9893 -32.5692 51.9088 -4.4498 12.4712 32.3298
# 2 -32.5692 47.1390 15.4396 -27.6752 1.4603 22.5108
# 3 51.9088 15.4396 114.1653 -1.5397 0.8833 -20.8459
# 4 -4.4498 -27.6752 -1.5397 16.0526 -5.4320 10.8329
# 5 12.4712 1.4603 0.8833 -5.4320 36.5120 1.3250
# 6 32.3298 22.5108 -20.8459 10.8329 1.3250 5.7413
#
#
#
# Elastic Compliance Matrix: (Units=1/GPa)
#
#
# Indices 1 2 3 4 5 6 
#
# 1 0.013087 -0.011013 -0.002591 -0.026414 -0.008326 0.011839
# 2 -0.011013 0.012193 0.005802 0.011415 0.004370 0.012727
# 3 -0.002591 0.005802 0.008488 0.014097 0.002711 -0.004565
# 4 -0.026414 0.011415 0.014097 0.071853 0.018357 0.015358
# 5 -0.008326 0.004370 0.002711 0.018357 0.032818 -0.002617
# 6 0.011839 0.012727 -0.004565 0.015358 -0.002617 0.012659
#
#
# Mechanical properties :
#
#
# Convention : Reuss Voigt Hill
#
# Bulk Modulus (GPa) = 55.05020 28.87242 41.96131
# Shear Modulus (GPa) = 28.94264 22.02880 25.48572
#
# Velocity S-wave (km/s) = 3.56729 3.11218 3.34748
# Velocity P-wave (km/s) = 6.41654 5.06053 5.77845
#
# Compressibility (1/GPa) = 0.01816524
#
# Stress axis : x y z
#
# Youngs Moduli (GPa) = 76.41322 82.01406 117.81084
#
# Poissons Ratio (x) = 0.90319 0.30525
# Poissons Ratio (y) = 0.84151 -0.68358
# Poissons Ratio (z) = 0.19799 -0.47587
#
# Static dielectric constant tensor:
#      x y z
#    x 1.528690 0.463730 1.097020 
#    y 0.463730 1.101320 -1.578670 
#    z 1.097020 -1.578670 -1.550250 
# 
# From -- ./inp_files/223257.got.cif
#   From: 2010.05.17/outbox.cif.g08.bks.cpg/sg2_112_cif.got.tgz:223257.got - 2010.06.03 11:33:40.
