data_PCOD9080845
_publ_section_title
;
Structure prediction by ZEFSAII (Michael W. Deem and Ramdas Pophale) SiO2 
 PCOD9080845
Probable space group: P -1
;
_chemical_formula_sum "Si O2"
_cell_formula_units_Z 16
_cell_length_a 9.106445
_cell_length_b 5.270024
_cell_length_c 19.243416
_cell_angle_alpha 100.880560
_cell_angle_beta 123.700981
_cell_angle_gamma 66.109897
_cell_volume 701.701917
_symmetry_space_group_name_H-M "P -1"
_symmetry_group_IT_number 2
_symmetry_cell_setting 'triclinic'
loop_
_space_group_symop_operation_xyz
x,y,z
-x,-y,-z
loop_
_atom_site_type_symbol
_atom_site_label
_atom_site_fract_x
_atom_site_fract_y
_atom_site_fract_z
Si Si1 0.235199 0.474744 0.334195
Si Si2 0.785976 0.056922 0.752890
Si Si3 0.162083 0.665375 0.470099
Si Si4 0.764087 0.747440 0.010246
Si Si5 0.906668 0.293868 0.399866
Si Si6 0.859877 0.377672 0.237044
Si Si7 0.141689 0.770455 0.076154
Si Si8 0.460964 0.288400 0.926358
O O1 0.270526 0.680457 0.299186
O O2 0.288414 0.513054 0.429639
O O3 0.006295 0.542969 0.283603
O O4 0.308202 0.159185 0.309525
O O5 0.759670 0.127603 0.830814
O O6 0.012460 0.883113 0.790071
O O7 0.003979 0.524004 0.430760
O O8 0.234185 0.645428 0.567756
O O9 0.065850 0.989889 0.441462
O O10 0.679223 0.809685 0.067838
O O11 0.988263 0.668418 0.070105
O O12 0.735013 0.491407 0.950465
O O13 0.648053 0.020720 0.949739
O O14 0.832572 0.286238 0.302636
O O15 0.661088 0.555719 0.161796
O O16 0.000000 0.000000 0.000000
O O17 0.500000 0.500000 0.000000
#
# Coordination Sequence:
#
# PCOD9080845 Si02
#       8
#     2   2   2   2   2   2   2   2
#     4   9  17  29  44  73  97 136 164 213 255 317
#     4  10  19  29  48  71  98 130 169 210 259 310
#     4   9  14  27  40  65 101 130 168 198 265 312
#     4  10  23  36  56  74 100 140 180 228 272 316
#     4   9  16  24  43  65  96 138 162 210 249 321
#     4   9  18  28  47  70 101 135 177 208 262 308
#     4  11  22  37  54  75 100 136 182 229 275 315
#     4  11  21  38  52  76 105 143 181 221 264 320
#
# _framework density 22.801704000000001
#
# number of rings (size 3 to 8) (size 9 to 14) (size 15 to 20)
#    0.750    1.500    1.250    3.000    3.500    1.000 
#    0.000    0.000    0.000    0.000    0.000    0.000 
#    0.000    2.000    0.000    0.375    0.000    0.000 
#
# Total GULP energy -89191.288121 kJ/mol
# GULP energy per Si atom -5574.455508 kJ/mol
# Density = 2.274981 g / cm^3
# Si number density = 22.801704 Si / 1000 Ang^3
#
#
#
# Elastic Constant Matrix: (Units=GPa)
#
#
# Indices 1 2 3 4 5 6 
#
# 1 41.0356 11.6967 15.9673 -4.5598 -5.3005 -4.8077
# 2 11.6967 122.1065 31.4888 6.1003 -10.7664 14.0129
# 3 15.9673 31.4888 111.0305 -0.1174 -34.2151 -10.8418
# 4 -4.5598 6.1003 -0.1174 37.7062 -0.5636 -9.3603
# 5 -5.3005 -10.7664 -34.2151 -0.5636 30.9205 -0.1766
# 6 -4.8077 14.0129 -10.8418 -9.3603 -0.1766 28.5884
#
#
#
# Elastic Compliance Matrix: (Units=1/GPa)
#
#
# Indices 1 2 3 4 5 6 
#
# 1 0.027711 -0.003168 -0.001802 0.005726 0.001800 0.007416
# 2 -0.003168 0.010537 -0.003706 -0.004224 -0.001100 -0.008493
# 3 -0.001802 -0.003706 0.016249 0.002840 0.016483 0.008707
# 4 0.005726 -0.004224 0.002840 0.031544 0.003311 0.014459
# 5 0.001800 -0.001100 0.016483 0.003311 0.050615 0.008490
# 6 0.007416 -0.008493 0.008707 0.014459 0.008490 0.048478
#
#
# Mechanical properties :
#
#
# Convention : Reuss Voigt Hill
#
# Bulk Modulus (GPa) = 26.92048 43.60872 35.26460
# Shear Modulus (GPa) = 23.27019 33.77767 28.52393
#
# Velocity S-wave (km/s) = 3.19806 3.85303 3.54072
# Velocity P-wave (km/s) = 5.04666 6.24189 5.67582
#
# Compressibility (1/GPa) = 0.03714644
#
# Stress axis : x y z
#
# Youngs Moduli (GPa) = 36.08708 94.90067 61.54160
#
# Poissons Ratio (x) = 0.30066 0.11088
# Poissons Ratio (y) = 0.11433 0.22805
# Poissons Ratio (z) = 0.06502 0.35166
#
# Static dielectric constant tensor:
#      x y z
#    x 2.045900 0.022590 -0.042080 
#    y 0.022590 1.863920 0.043430 
#    z -0.042080 0.043430 1.863580 
# 
# From -- ./inp_files/563902.got.cif
#   From: 2010.05.17/outbox.cif.g08.bks.cpg/sg2_282_cif.got.tgz:563902.got - 2010.06.03 11:33:40.
