data_PCOD9080874
_publ_section_title
;
Structure prediction by ZEFSAII (Michael W. Deem and Ramdas Pophale) SiO2 
 PCOD9080874
Probable space group: P -1
;
_chemical_formula_sum "Si O2"
_cell_formula_units_Z 12
_cell_length_a 5.134820
_cell_length_b 21.786907
_cell_length_c 15.141049
_cell_angle_alpha 29.682780
_cell_angle_beta 44.679807
_cell_angle_gamma 39.332843
_cell_volume 527.513915
_symmetry_space_group_name_H-M "P -1"
_symmetry_group_IT_number 2
_symmetry_cell_setting 'triclinic'
loop_
_space_group_symop_operation_xyz
x,y,z
-x,-y,-z
loop_
_atom_site_type_symbol
_atom_site_label
_atom_site_fract_x
_atom_site_fract_y
_atom_site_fract_z
Si Si1 0.958755 0.074734 0.510593
Si Si2 0.608729 0.977821 0.865228
Si Si3 0.635830 0.731588 0.799520
Si Si4 0.947106 0.658184 0.626572
Si Si5 0.094576 0.600727 0.026143
Si Si6 0.711884 0.159998 0.768592
O O1 0.514190 0.215726 0.436986
O O2 0.279829 0.133476 0.387782
O O3 0.917486 0.974700 0.719160
O O4 0.000000 0.000000 0.500000
O O5 0.670117 0.069267 0.812665
O O6 0.614519 0.840257 0.079061
O O7 0.157070 0.068423 0.819678
O O8 0.953699 0.649448 0.743618
O O9 0.237038 0.705997 0.906015
O O10 0.758269 0.677282 0.937085
O O11 0.005982 0.510909 0.758771
O O12 0.266307 0.707176 0.444888
O O13 0.500000 0.500000 0.000000
#
# Coordination Sequence:
#
# PCOD9080874 Si02
#       6
#     2   2   2   2   2   2
#     4  11  22  33  49  73 108 141 162 188 239 307
#     4   9  18  32  45  69  95 130 163 198 237 288
#     4  11  19  33  46  73 100 128 159 204 244 295
#     4  10  19  32  51  75 100 126 161 206 251 290
#     4  10  19  29  51  69  99 121 161 209 253 282
#     4   9  17  30  51  67  95 123 161 209 247 275
#
# _framework density 22.748213
#
# number of rings (size 3 to 8) (size 9 to 14) (size 15 to 20)
#    0.000    2.000    5.000    2.000    0.000    0.667 
#    0.000    0.000    0.000    0.000    0.000    2.333 
#    0.000    1.833    0.000    0.000    0.000    0.000 
#
# Total GULP energy -66884.019063 kJ/mol
# GULP energy per Si atom -5573.668255 kJ/mol
# Density = 2.269644 g / cm^3
# Si number density = 22.748213 Si / 1000 Ang^3
#
#
#
# Elastic Constant Matrix: (Units=GPa)
#
#
# Indices 1 2 3 4 5 6 
#
# 1 148.4300 28.1735 55.0862 -1.0234 -19.1489 36.5276
# 2 28.1735 49.4971 58.7343 0.6864 -14.3614 18.6087
# 3 55.0862 58.7343 262.6313 6.9295 -47.8236 25.0093
# 4 -1.0234 0.6864 6.9295 50.3431 2.7185 -4.1047
# 5 -19.1489 -14.3614 -47.8236 2.7185 32.4947 -3.3399
# 6 36.5276 18.6087 25.0093 -4.1047 -3.3399 24.6586
#
#
#
# Elastic Compliance Matrix: (Units=1/GPa)
#
#
# Indices 1 2 3 4 5 6 
#
# 1 0.011572 0.001983 -0.000029 -0.001581 0.005929 -0.018070
# 2 0.001983 0.036312 -0.004644 -0.002280 0.008011 -0.024924
# 3 -0.000029 -0.004644 0.006425 -0.001395 0.007275 -0.002216
# 4 -0.001581 -0.002280 -0.001395 0.020997 -0.004895 0.008310
# 5 0.005929 0.008011 0.007275 -0.004895 0.047216 -0.016626
# 6 -0.018070 -0.024924 -0.002216 0.008310 -0.016626 0.087509
#
#
# Mechanical properties :
#
#
# Convention : Reuss Voigt Hill
#
# Bulk Modulus (GPa) = 20.43800 82.72739 51.58269
# Shear Modulus (GPa) = 21.57768 42.73692 32.15730
#
# Velocity S-wave (km/s) = 3.08319 4.33909 3.76389
# Velocity P-wave (km/s) = 4.65603 7.84532 6.45088
#
# Compressibility (1/GPa) = 0.04892846
#
# Stress axis : x y z
#
# Youngs Moduli (GPa) = 86.41344 27.53909 155.64583
#
# Poissons Ratio (x) = -0.05460 0.00446
# Poissons Ratio (y) = -0.17132 0.72287
# Poissons Ratio (z) = 0.00248 0.12790
#
# Static dielectric constant tensor:
#      x y z
#    x 1.907390 -0.074650 0.041490 
#    y -0.074650 1.916170 -0.019340 
#    z 0.041490 -0.019340 1.973830 
# 
# From -- ./inp_files/96643.got.cif
#   From: 2010.05.17/outbox.cif.g08.bks.cpg/sg2_49_cif.got.tgz:96643.got - 2010.06.03 11:33:40.
