data_PCOD9080747
_publ_section_title
;
Structure prediction by ZEFSAII (Michael W. Deem and Ramdas Pophale) SiO2 
 PCOD9080747
Probable space group: P -1
;
_chemical_formula_sum "Si O2"
_cell_formula_units_Z 13
_cell_length_a 11.435044
_cell_length_b 12.370300
_cell_length_c 8.986793
_cell_angle_alpha 127.245083
_cell_angle_beta 74.873985
_cell_angle_gamma 145.152425
_cell_volume 494.506117
_symmetry_space_group_name_H-M "P -1"
_symmetry_group_IT_number 2
_symmetry_cell_setting 'triclinic'
loop_
_space_group_symop_operation_xyz
x,y,z
-x,-y,-z
loop_
_atom_site_type_symbol
_atom_site_label
_atom_site_fract_x
_atom_site_fract_y
_atom_site_fract_z
Si Si1 0.105843 0.241609 0.599420
Si Si2 0.539842 0.588022 0.896599
Si Si3 0.545839 0.362370 0.459089
Si Si4 0.967654 0.392976 0.767094
Si Si5 0.500000 0.000000 0.000000
Si Si6 0.199105 0.963828 0.988435
Si Si7 0.800116 0.389616 0.568449
O O1 0.322838 0.478301 0.837369
O O2 0.239747 0.382232 0.511100
O O3 0.924736 0.191223 0.624730
O O4 0.000000 0.000000 0.500000
O O5 0.527099 0.452160 0.671190
O O6 0.770866 0.899173 0.039118
O O7 0.500000 0.500000 0.000000
O O8 0.305232 0.127684 0.243019
O O9 0.595214 0.257118 0.420398
O O10 0.768928 0.265048 0.618282
O O11 0.000000 0.500000 0.000000
O O12 0.231605 0.674898 0.848551
O O13 0.372303 0.001613 0.949799
O O14 0.932561 0.650562 0.810089
O O15 0.000000 0.500000 0.500000
#
# Coordination Sequence:
#
# PCOD9080747 Si02
#       7
#     2   2   2   2   1   2   2
#     4  11  24  46  69 100 147 184 240 302 363 444
#     4  11  26  43  67 102 142 187 239 293 366 439
#     4  11  23  46  70 102 140 190 240 292 368 441
#     4  11  24  41  72 106 140 191 244 300 371 432
#     4  10  18  42  68  92 136 182 232 290 352 420
#     4  10  21  42  69  96 140 190 226 293 370 416
#     4  11  23  42  74 104 137 181 243 297 361 432
#
# _framework density 26.288857
#
# number of rings (size 3 to 8) (size 9 to 14) (size 15 to 20)
#    0.000    1.231    4.615    2.769    4.308    5.538 
#    0.000    0.000    0.000    8.308    0.000    0.000 
#    0.000    0.000    0.000    0.000    0.000    0.000 
#
# Total GULP energy -72481.378373 kJ/mol
# GULP energy per Si atom -5575.490644 kJ/mol
# Density = 2.622902 g / cm^3
# Si number density = 26.288857 Si / 1000 Ang^3
#
#
#
# Elastic Constant Matrix: (Units=GPa)
#
#
# Indices 1 2 3 4 5 6 
#
# 1 117.6407 61.2062 28.7069 -14.5323 7.0070 -43.1467
# 2 61.2062 108.3114 50.0919 -8.2251 -7.9879 -35.3909
# 3 28.7069 50.0919 87.8013 -27.9442 1.2122 -9.3559
# 4 -14.5323 -8.2251 -27.9442 53.1952 -8.8602 8.0459
# 5 7.0070 -7.9879 1.2122 -8.8602 52.5083 10.1688
# 6 -43.1467 -35.3909 -9.3559 8.0459 10.1688 56.3117
#
#
#
# Elastic Compliance Matrix: (Units=1/GPa)
#
#
# Indices 1 2 3 4 5 6 
#
# 1 0.015141 -0.005892 -0.000286 0.001063 -0.004375 0.008489
# 2 -0.005892 0.018716 -0.009509 -0.004276 0.001985 0.005921
# 3 -0.000286 -0.009509 0.019428 0.009424 0.000589 -0.004420
# 4 0.001063 -0.004276 0.009424 0.024745 0.004052 -0.004575
# 5 -0.004375 0.001985 0.000589 0.004052 0.021866 -0.006534
# 6 0.008489 0.005921 -0.004420 -0.004575 -0.006534 0.029083
#
#
# Mechanical properties :
#
#
# Convention : Reuss Voigt Hill
#
# Bulk Modulus (GPa) = 45.63729 65.97371 55.80550
# Shear Modulus (GPa) = 29.82294 43.98627 36.90460
#
# Velocity S-wave (km/s) = 3.37179 4.09490 3.75081
# Velocity P-wave (km/s) = 5.70581 6.89259 6.32709
#
# Compressibility (1/GPa) = 0.02191191
#
# Stress axis : x y z
#
# Youngs Moduli (GPa) = 66.04564 53.42957 51.47244
#
# Poissons Ratio (x) = 0.31482 0.01470
# Poissons Ratio (y) = 0.38916 0.48944
# Poissons Ratio (z) = 0.01887 0.50805
#
# Static dielectric constant tensor:
#      x y z
#    x 2.158950 0.025680 -0.115740 
#    y 0.025680 2.194470 -0.059560 
#    z -0.115740 -0.059560 2.242860 
# 
# From -- ./inp_files/254959.got.cif
#   From: 2010.05.17/outbox.cif.g08.bks.cpg/sg2_128_cif.got.tgz:254959.got - 2010.06.03 11:33:40.
