data_PCOD9080731
_publ_section_title
;
Structure prediction by ZEFSAII (Michael W. Deem and Ramdas Pophale) SiO2 
 PCOD9080731
Probable space group: P -1
;
_chemical_formula_sum "Si O2"
_cell_formula_units_Z 15
_cell_length_a 9.378335
_cell_length_b 11.164744
_cell_length_c 8.004399
_cell_angle_alpha 86.472289
_cell_angle_beta 50.426387
_cell_angle_gamma 80.367081
_cell_volume 635.793956
_symmetry_space_group_name_H-M "P -1"
_symmetry_group_IT_number 2
_symmetry_cell_setting 'triclinic'
loop_
_space_group_symop_operation_xyz
x,y,z
-x,-y,-z
loop_
_atom_site_type_symbol
_atom_site_label
_atom_site_fract_x
_atom_site_fract_y
_atom_site_fract_z
Si Si1 0.303657 0.442178 0.457329
Si Si2 0.401983 0.300236 0.883793
Si Si3 0.973910 0.795563 0.771019
Si Si4 0.090870 0.237230 0.547025
Si Si5 0.500000 0.500000 0.000000
Si Si6 0.891065 0.056300 0.914997
Si Si7 0.512384 0.884164 0.877794
Si Si8 0.348917 0.669119 0.614663
O O1 0.145927 0.358346 0.575566
O O2 0.295497 0.540608 0.601436
O O3 0.507142 0.354614 0.338160
O O4 0.322746 0.503809 0.260756
O O5 0.384885 0.437986 0.943880
O O6 0.528528 0.282353 0.627750
O O7 0.207085 0.251848 0.014727
O O8 0.500556 0.228304 0.977749
O O9 0.003842 0.740330 0.567125
O O10 0.152516 0.757458 0.758358
O O11 0.927097 0.940541 0.772709
O O12 0.971459 0.167051 0.763096
O O13 0.291415 0.151084 0.361370
O O14 0.668988 0.089655 0.104639
O O15 0.000000 0.000000 0.000000
O O16 0.500000 0.000000 0.000000
#
# Coordination Sequence:
#
# PCOD9080731 Si02
#       8
#     2   2   2   2   1   2   2   2
#     4  10  22  44  65  94 127 166 210 256 321 377
#     4  10  21  40  68  88 127 165 212 256 315 377
#     4  11  23  43  65  95 123 169 215 258 313 377
#     4  11  24  44  68  91 129 171 214 258 315 383
#     4  10  18  42  64  92 120 162 212 254 302 382
#     4  12  28  41  62 100 131 164 218 265 311 378
#     4  11  22  42  67  91 126 175 210 259 320 371
#     4  10  24  41  66  93 129 163 203 268 317 368
#
# _framework density 23.592549000000002
#
# number of rings (size 3 to 8) (size 9 to 14) (size 15 to 20)
#    0.000    1.333    5.333    1.200    5.600    1.067 
#    2.400    6.000    0.000    0.000    0.000    0.000 
#    0.000    0.000    0.000    0.000    0.000    0.000 
#
# Total GULP energy -83642.999865 kJ/mol
# GULP energy per Si atom -5576.199991 kJ/mol
# Density = 2.353885 g / cm^3
# Si number density = 23.592549 Si / 1000 Ang^3
#
#
#
# Elastic Constant Matrix: (Units=GPa)
#
#
# Indices 1 2 3 4 5 6 
#
# 1 89.3803 3.5605 6.6909 -0.3125 -11.7153 -4.4754
# 2 3.5605 40.4512 19.0522 -10.5912 -5.5604 19.4332
# 3 6.6909 19.0522 55.1813 -9.2424 -10.2209 12.3089
# 4 -0.3125 -10.5912 -9.2424 34.2085 4.1671 -16.8667
# 5 -11.7153 -5.5604 -10.2209 4.1671 20.1206 4.2275
# 6 -4.4754 19.4332 12.3089 -16.8667 4.2275 38.1001
#
#
#
# Elastic Compliance Matrix: (Units=1/GPa)
#
#
# Indices 1 2 3 4 5 6 
#
# 1 0.012152 -0.000531 -0.000321 -0.000558 0.006710 0.000811
# 2 -0.000531 0.038518 -0.007124 -0.000635 0.010816 -0.018888
# 3 -0.000321 -0.007124 0.023869 0.000348 0.010986 -0.005180
# 4 -0.000558 -0.000635 0.000348 0.040222 -0.012722 0.019363
# 5 0.006710 0.010816 0.010986 -0.012722 0.069351 -0.021605
# 6 0.000811 -0.018888 -0.005180 0.019363 -0.021605 0.048619
#
#
# Mechanical properties :
#
#
# Convention : Reuss Voigt Hill
#
# Bulk Modulus (GPa) = 17.06908 27.06890 22.06899
# Shear Modulus (GPa) = 18.64191 28.86647 23.75419
#
# Velocity S-wave (km/s) = 2.81403 3.50171 3.17653
# Velocity P-wave (km/s) = 4.22007 5.27709 4.77790
#
# Compressibility (1/GPa) = 0.05858546
#
# Stress axis : x y z
#
# Youngs Moduli (GPa) = 82.29394 25.96187 41.89472
#
# Poissons Ratio (x) = 0.01380 0.01346
# Poissons Ratio (y) = 0.04373 0.29846
# Poissons Ratio (z) = 0.02644 0.18495
#
# Static dielectric constant tensor:
#      x y z
#    x 1.888340 0.016100 0.011660 
#    y 0.016100 2.019590 0.054940 
#    z 0.011660 0.054940 1.882180 
# 
# From -- ./inp_files/187301.got.cif
#   From: 2010.05.17/outbox.cif.g08.bks.cpg/sg2_94_cif.got.tgz:187301.got - 2010.06.03 11:33:40.
