data_PCOD9080697
_publ_section_title
;
Structure prediction by ZEFSAII (Michael W. Deem and Ramdas Pophale) SiO2 
 PCOD9080697
Probable space group: P -1
;
_chemical_formula_sum "Si O2"
_cell_formula_units_Z 14
_cell_length_a 11.313476
_cell_length_b 9.283760
_cell_length_c 11.912844
_cell_angle_alpha 36.108528
_cell_angle_beta 59.742981
_cell_angle_gamma 76.673066
_cell_volume 597.370474
_symmetry_space_group_name_H-M "P -1"
_symmetry_group_IT_number 2
_symmetry_cell_setting 'triclinic'
loop_
_space_group_symop_operation_xyz
x,y,z
-x,-y,-z
loop_
_atom_site_type_symbol
_atom_site_label
_atom_site_fract_x
_atom_site_fract_y
_atom_site_fract_z
Si Si1 0.995963 0.220908 0.276906
Si Si2 0.233615 0.107667 0.566992
Si Si3 0.317629 0.619311 0.821936
Si Si4 0.249629 0.079528 0.834147
Si Si5 0.225192 0.502572 0.704590
Si Si6 0.534304 0.099812 0.793722
Si Si7 0.366451 0.632543 0.035917
O O1 0.894133 0.375190 0.275004
O O2 0.923002 0.066734 0.296802
O O3 0.000000 0.000000 0.500000
O O4 0.154574 0.424777 0.050482
O O5 0.237667 0.167430 0.658487
O O6 0.297581 0.365975 0.301700
O O7 0.326316 0.917843 0.625042
O O8 0.335325 0.539727 0.735921
O O9 0.398305 0.603207 0.908761
O O10 0.160352 0.205563 0.878334
O O11 0.408676 0.196724 0.742639
O O12 0.245103 0.781095 0.011497
O O13 0.313097 0.684418 0.445856
O O14 0.500000 0.000000 0.000000
O O15 0.506966 0.838358 0.898467
#
# Coordination Sequence:
#
# PCOD9080697 Si02
#       7
#     2   2   2   2   2   2   2
#     4  11  23  43  69  92 131 172 218 269 315 377
#     4  10  18  41  65  89 131 170 208 263 325 369
#     4  10  22  42  63  92 128 170 216 268 311 378
#     4   9  22  39  64  93 133 162 213 263 317 386
#     4  11  22  40  68  97 125 179 217 256 329 380
#     4  10  22  41  67  96 134 168 210 267 324 384
#     4   9  20  38  64  91 132 167 205 268 323 368
#
# _framework density 23.436043999999999
#
# number of rings (size 3 to 8) (size 9 to 14) (size 15 to 20)
#    0.857    1.143    1.429    3.000    0.000    1.714 
#    0.000   10.000    0.000    0.000    0.000    0.000 
#    0.000    0.000    0.000    0.000    0.000    0.000 
#
# Total GULP energy -78147.868669 kJ/mol
# GULP energy per Si atom -5581.990619 kJ/mol
# Density = 2.338270 g / cm^3
# Si number density = 23.436044 Si / 1000 Ang^3
#
#
#
# Elastic Constant Matrix: (Units=GPa)
#
#
# Indices 1 2 3 4 5 6 
#
# 1 67.1918 39.1129 34.3230 11.0707 9.9933 22.4170
# 2 39.1129 175.9610 49.8485 -0.8929 23.9259 18.4290
# 3 34.3230 49.8485 151.4937 -1.6711 25.0496 0.5493
# 4 11.0707 -0.8929 -1.6711 40.8878 2.4574 11.8130
# 5 9.9933 23.9259 25.0496 2.4574 41.2312 8.5426
# 6 22.4170 18.4290 0.5493 11.8130 8.5426 36.1095
#
#
#
# Elastic Compliance Matrix: (Units=1/GPa)
#
#
# Indices 1 2 3 4 5 6 
#
# 1 0.023231 -0.002801 -0.004579 -0.003084 0.001503 -0.012269
# 2 -0.002801 0.007208 -0.001314 0.001543 -0.002413 -0.001853
# 3 -0.004579 -0.001314 0.008786 0.000616 -0.004375 0.004214
# 4 -0.003084 0.001543 0.000616 0.027636 -0.000555 -0.007792
# 5 0.001503 -0.002413 -0.004375 -0.000555 0.029304 -0.006386
# 6 -0.012269 -0.001853 0.004214 -0.007792 -0.006386 0.040252
#
#
# Mechanical properties :
#
#
# Convention : Reuss Voigt Hill
#
# Bulk Modulus (GPa) = 45.79999 71.24614 58.52306
# Shear Modulus (GPa) = 31.03961 41.73650 36.38805
#
# Velocity S-wave (km/s) = 3.64323 4.22461 3.94465
# Velocity P-wave (km/s) = 6.10594 7.36632 6.76554
#
# Compressibility (1/GPa) = 0.02183407
#
# Stress axis : x y z
#
# Youngs Moduli (GPa) = 43.04658 138.73046 113.81917
#
# Poissons Ratio (x) = 0.38865 0.52123
# Poissons Ratio (y) = 0.12059 0.14960
# Poissons Ratio (z) = 0.19713 0.18234
#
# Static dielectric constant tensor:
#      x y z
#    x 1.999340 -0.018810 0.004110 
#    y -0.018810 1.934100 -0.013840 
#    z 0.004110 -0.013840 1.854290 
# 
# From -- ./inp_files/445451.got.cif
#   From: 2010.05.17/outbox.cif.g08.bks.cpg/sg2_223_cif.got.tgz:445451.got - 2010.06.03 11:33:40.
