data_PCOD9080187
_publ_section_title
;
Structure prediction by ZEFSAII (Michael W. Deem and Ramdas Pophale) SiO2 
 PCOD9080187
Probable space group: P -1
;
_chemical_formula_sum "Si O2"
_cell_formula_units_Z 12
_cell_length_a 14.041735
_cell_length_b 9.186715
_cell_length_c 11.869610
_cell_angle_alpha 41.191723
_cell_angle_beta 57.835821
_cell_angle_gamma 33.797961
_cell_volume 542.558454
_symmetry_space_group_name_H-M "P -1"
_symmetry_group_IT_number 2
_symmetry_cell_setting 'triclinic'
loop_
_space_group_symop_operation_xyz
x,y,z
-x,-y,-z
loop_
_atom_site_type_symbol
_atom_site_label
_atom_site_fract_x
_atom_site_fract_y
_atom_site_fract_z
Si Si1 0.309138 0.404945 0.870540
Si Si2 0.783155 0.475900 0.385155
Si Si3 0.701251 0.179860 0.517261
Si Si4 0.193331 0.748068 0.976931
Si Si5 0.170499 0.274281 0.602024
Si Si6 0.617570 0.875779 0.648420
O O1 0.222045 0.435251 0.793714
O O2 0.312872 0.656565 0.683518
O O3 0.217978 0.562781 0.956436
O O4 0.500000 0.000000 0.000000
O O5 0.818734 0.157788 0.537565
O O6 0.883392 0.470881 0.414893
O O7 0.582252 0.793164 0.376082
O O8 0.500000 0.500000 0.500000
O O9 0.733044 0.877717 0.648396
O O10 0.220604 0.963740 0.805461
O O11 0.324748 0.455224 0.159556
O O12 0.000000 0.000000 0.000000
O O13 0.325748 0.141728 0.502919
O O14 0.000000 0.500000 0.500000
#
# Coordination Sequence:
#
# PCOD9080187 Si02
#       6
#     2   2   2   2   2   2
#     4  10  18  38  65  95 127 163 216 269 313 380
#     4   9  21  38  69 102 120 168 229 263 324 382
#     4   8  16  34  63  92 123 156 208 273 319 366
#     4  12  24  40  66  93 133 176 213 259 340 386
#     4  12  24  42  64  90 140 178 207 272 329 384
#     4  11  20  41  67  95 128 169 215 273 321 389
#
# _framework density 22.117431
#
# number of rings (size 3 to 8) (size 9 to 14) (size 15 to 20)
#    1.000    0.667    5.000    0.500    0.000    0.667 
#    0.000    5.833    0.000    0.000    0.000    0.000 
#    0.000    0.000    0.000    0.000    0.000    0.000 
#
# Total GULP energy -66854.686303 kJ/mol
# GULP energy per Si atom -5571.223859 kJ/mol
# Density = 2.206709 g / cm^3
# Si number density = 22.117431 Si / 1000 Ang^3
#
#
#
# Elastic Constant Matrix: (Units=GPa)
#
#
# Indices 1 2 3 4 5 6 
#
# 1 110.5485 16.3669 15.0882 -0.3893 1.8162 31.8961
# 2 16.3669 146.1634 33.1613 22.4114 1.0452 16.7076
# 3 15.0882 33.1613 146.6889 5.6959 -14.1730 6.2066
# 4 -0.3893 22.4114 5.6959 40.9838 4.3963 0.1010
# 5 1.8162 1.0452 -14.1730 4.3963 18.4643 0.8254
# 6 31.8961 16.7076 6.2066 0.1010 0.8254 40.0040
#
#
#
# Elastic Compliance Matrix: (Units=1/GPa)
#
#
# Indices 1 2 3 4 5 6 
#
# 1 0.011895 -0.000119 -0.000982 0.000511 -0.001626 -0.009250
# 2 -0.000119 0.008219 -0.001606 -0.004206 -0.000547 -0.003067
# 3 -0.000982 -0.001606 0.007942 -0.000933 0.006502 0.000090
# 4 0.000511 -0.004206 -0.000933 0.027600 -0.007170 0.001572
# 5 -0.001626 -0.000547 0.006502 -0.007170 0.061079 -0.000726
# 6 -0.009250 -0.003067 0.000090 0.001572 -0.000726 0.033651
#
#
# Mechanical properties :
#
#
# Convention : Reuss Voigt Hill
#
# Bulk Modulus (GPa) = 44.16498 59.18151 51.67325
# Shear Modulus (GPa) = 30.61011 42.47604 36.54308
#
# Velocity S-wave (km/s) = 3.72423 4.38708 4.06917
# Velocity P-wave (km/s) = 6.20523 7.24416 6.74473
#
# Compressibility (1/GPa) = 0.02264237
#
# Stress axis : x y z
#
# Youngs Moduli (GPa) = 84.07087 121.67530 125.91715
#
# Poissons Ratio (x) = 0.01443 0.12368
# Poissons Ratio (y) = 0.00997 0.20217
# Poissons Ratio (z) = 0.08258 0.19536
#
# Static dielectric constant tensor:
#      x y z
#    x 1.903850 0.016430 0.005020 
#    y 0.016430 1.884510 0.004690 
#    z 0.005020 0.004690 1.805000 
# 
# From -- ./inp_files/377312.got.cif
#   From: 2010.05.17/outbox.cif.g08.bks.cpg/sg2_189_cif.got.tgz:377312.got - 2010.06.03 11:33:40.
