data_PCOD9080387
_publ_section_title
;
Structure prediction by ZEFSAII (Michael W. Deem and Ramdas Pophale) SiO2 
 PCOD9080387
Probable space group: P -1
;
_chemical_formula_sum "Si O2"
_cell_formula_units_Z 14
_cell_length_a 14.935525
_cell_length_b 9.400588
_cell_length_c 20.618335
_cell_angle_alpha 49.665722
_cell_angle_beta 159.457258
_cell_angle_gamma 128.901558
_cell_volume 771.747471
_symmetry_space_group_name_H-M "P -1"
_symmetry_group_IT_number 2
_symmetry_cell_setting 'triclinic'
loop_
_space_group_symop_operation_xyz
x,y,z
-x,-y,-z
loop_
_atom_site_type_symbol
_atom_site_label
_atom_site_fract_x
_atom_site_fract_y
_atom_site_fract_z
Si Si1 0.617674 0.860779 0.742649
Si Si2 0.513853 0.628333 0.408333
Si Si3 0.531684 0.534030 0.304222
Si Si4 0.314405 0.897415 0.015742
Si Si5 0.137263 0.040406 0.405592
Si Si6 0.879083 0.871791 0.398189
Si Si7 0.830644 0.041237 0.957964
O O1 0.519209 0.656011 0.712657
O O2 0.377261 0.985112 0.542662
O O3 0.724388 0.881902 0.882578
O O4 0.863106 0.934267 0.845048
O O5 0.500000 0.500000 0.500000
O O6 0.524082 0.513003 0.382810
O O7 0.765418 0.771688 0.545363
O O8 0.285365 0.767492 0.203453
O O9 0.316510 0.675038 0.097631
O O10 0.791754 0.660967 0.424239
O O11 0.603456 0.950445 0.172241
O O12 0.268858 0.988031 0.028093
O O13 0.100653 0.936348 0.808505
O O14 0.058319 0.888774 0.452272
O O15 0.000000 0.000000 0.500000
#
# Coordination Sequence:
#
# PCOD9080387 Si02
#       7
#     2   2   2   2   2   2   2
#     4  10  21  37  56  84 117 152 185 226 298 334
#     4  10  21  35  58  87 113 149 194 237 272 334
#     4   9  21  37  59  86 106 155 187 235 278 332
#     4   9  21  36  60  84 105 154 193 232 274 330
#     4  11  21  37  57  87 116 149 187 236 284 335
#     4  10  18  39  63  79 113 148 199 228 278 333
#     4   9  20  40  55  79 122 156 181 227 293 343
#
# _framework density 18.140650000000001
#
# number of rings (size 3 to 8) (size 9 to 14) (size 15 to 20)
#    0.857    1.429    1.429    1.286    4.000    2.286 
#    5.143    0.000    0.000    1.714    0.000    0.000 
#    0.000    0.000    0.000    0.000    0.000    0.000 
#
# Total GULP energy -77958.475166 kJ/mol
# GULP energy per Si atom -5568.462512 kJ/mol
# Density = 1.809936 g / cm^3
# Si number density = 18.140650 Si / 1000 Ang^3
#
#
#
# Elastic Constant Matrix: (Units=GPa)
#
#
# Indices 1 2 3 4 5 6 
#
# 1 65.1263 21.3126 8.2225 -3.6811 -2.2651 5.9253
# 2 21.3126 87.3999 10.9567 22.9592 -9.2281 -18.5584
# 3 8.2225 10.9567 87.4546 15.8262 0.9405 3.1010
# 4 -3.6811 22.9592 15.8262 14.0307 3.8910 -2.4719
# 5 -2.2651 -9.2281 0.9405 3.8910 25.5913 1.6383
# 6 5.9253 -18.5584 3.1010 -2.4719 1.6383 27.2891
#
#
#
# Elastic Compliance Matrix: (Units=1/GPa)
#
#
# Indices 1 2 3 4 5 6 
#
# 1 0.034627 -0.035611 -0.013015 0.084006 -0.020700 -0.021405
# 2 -0.035611 0.069308 0.020192 -0.150671 0.041676 0.036421
# 3 -0.013015 0.020192 0.021088 -0.062905 0.014432 0.007597
# 4 0.084006 -0.150671 -0.062905 0.427947 -0.105268 -0.068473
# 5 -0.020700 0.041676 0.014432 -0.105268 0.066616 0.017662
# 6 -0.021405 0.036421 0.007597 -0.068473 0.017662 0.057935
#
#
# Mechanical properties :
#
#
# Convention : Reuss Voigt Hill
#
# Bulk Modulus (GPa) = 14.67248 35.66272 25.16760
# Shear Modulus (GPa) = 6.60408 26.68150 16.64279
#
# Velocity S-wave (km/s) = 1.91008 3.83928 3.03220
# Velocity P-wave (km/s) = 3.60142 6.27336 5.11495
#
# Compressibility (1/GPa) = 0.06815481
#
# Stress axis : x y z
#
# Youngs Moduli (GPa) = 28.87897 14.42832 47.42145
#
# Poissons Ratio (x) = 0.51380 0.61718
# Poissons Ratio (y) = 1.02840 -0.95751
# Poissons Ratio (z) = 0.37585 -0.29133
#
# Static dielectric constant tensor:
#      x y z
#    x 1.623130 -0.002120 0.017510 
#    y -0.002120 1.615950 0.000220 
#    z 0.017510 0.000220 1.633540 
# 
# From -- ./inp_files/237224.got.cif
#   From: 2010.05.17/outbox.cif.g08.bks.cpg/sg2_119_cif.got.tgz:237224.got - 2010.06.03 11:33:40.
