data_PCOD9080934
_publ_section_title
;
Structure prediction by ZEFSAII (Michael W. Deem and Ramdas Pophale) SiO2 
 PCOD9080934
Probable space group: P -1
;
_chemical_formula_sum "Si O2"
_cell_formula_units_Z 16
_cell_length_a 10.995527
_cell_length_b 16.243926
_cell_length_c 14.069412
_cell_angle_alpha 154.749288
_cell_angle_beta 84.761889
_cell_angle_gamma 80.009315
_cell_volume 851.763001
_symmetry_space_group_name_H-M "P -1"
_symmetry_group_IT_number 2
_symmetry_cell_setting 'triclinic'
loop_
_space_group_symop_operation_xyz
x,y,z
-x,-y,-z
loop_
_atom_site_type_symbol
_atom_site_label
_atom_site_fract_x
_atom_site_fract_y
_atom_site_fract_z
Si Si1 0.961101 0.708738 0.504227
Si Si2 0.834276 0.612670 0.577386
Si Si3 0.866461 0.698450 0.289331
Si Si4 0.650594 0.632671 0.141448
Si Si5 0.329640 0.046704 0.671563
Si Si6 0.163177 0.930037 0.447401
Si Si7 0.232191 0.185933 0.020479
Si Si8 0.008450 0.911124 0.014275
O O1 0.832720 0.750418 0.630031
O O2 0.927408 0.681822 0.371524
O O3 0.975857 0.922253 0.743670
O O4 0.114435 0.451675 0.258445
O O5 0.000000 0.500000 0.500000
O O6 0.719757 0.772377 0.837545
O O7 0.852048 0.375562 0.295758
O O8 0.737950 0.658931 0.248168
O O9 0.795757 0.963421 0.529574
O O10 0.000000 0.500000 0.000000
O O11 0.679962 0.738008 0.156332
O O12 0.472671 0.806242 0.360092
O O13 0.726920 0.353156 0.836475
O O14 0.351275 0.039848 0.775235
O O15 0.179983 0.058963 0.670808
O O16 0.000000 0.000000 0.500000
O O17 0.139637 0.076340 0.934721
O O18 0.000000 0.000000 0.000000
#
# Coordination Sequence:
#
# PCOD9080934 Si02
#       8
#     2   2   2   2   2   2   2   2
#     4  10  18  30  50  77 112 140 174 228 287 318
#     4   8  16  29  45  74 108 135 178 222 272 335
#     4  11  22  35  54  82 110 145 190 232 277 337
#     4  10  22  42  55  74 118 152 189 233 276 336
#     4  10  23  38  57  80 111 156 188 226 284 335
#     4  11  22  35  57  84 112 144 190 235 275 334
#     4  10  19  28  51  81 106 137 187 220 273 344
#     4  10  15  29  46  73 111 140 165 228 285 318
#
# _framework density 18.784568
#
# number of rings (size 3 to 8) (size 9 to 14) (size 15 to 20)
#    0.000    2.250    5.000    1.875    1.750    1.000 
#    0.000    0.000    0.000    0.750    0.000    1.750 
#    0.000    0.000    0.000    0.000    0.000    0.000 
#
# Total GULP energy -89106.406965 kJ/mol
# GULP energy per Si atom -5569.150435 kJ/mol
# Density = 1.874181 g / cm^3
# Si number density = 18.784568 Si / 1000 Ang^3
#
#
#
# Elastic Constant Matrix: (Units=GPa)
#
#
# Indices 1 2 3 4 5 6 
#
# 1 51.2057 13.6207 33.7312 -3.0512 14.4381 3.0708
# 2 13.6207 87.1909 58.0617 -14.3490 4.0324 9.1242
# 3 33.7312 58.0617 95.8185 7.7370 23.3726 16.1921
# 4 -3.0512 -14.3490 7.7370 39.0569 2.5466 4.7801
# 5 14.4381 4.0324 23.3726 2.5466 30.4365 0.0439
# 6 3.0708 9.1242 16.1921 4.7801 0.0439 21.0129
#
#
#
# Elastic Compliance Matrix: (Units=1/GPa)
#
#
# Indices 1 2 3 4 5 6 
#
# 1 0.028217 0.005262 -0.012825 0.006753 -0.004802 0.001948
# 2 0.005262 0.026839 -0.021743 0.013817 0.009487 0.001169
# 3 -0.012825 -0.021743 0.035619 -0.013322 -0.017254 -0.013065
# 4 0.006753 0.013817 -0.013322 0.034247 0.002337 -0.004516
# 5 -0.004802 0.009487 -0.017254 0.002337 0.046917 0.009248
# 6 0.001948 0.001169 -0.013065 -0.004516 0.009248 0.057874
#
#
# Mechanical properties :
#
#
# Convention : Reuss Voigt Hill
#
# Bulk Modulus (GPa) = 31.18875 49.44917 40.31896
# Shear Modulus (GPa) = 16.72178 26.68800 21.70489
#
# Velocity S-wave (km/s) = 2.98684 3.77336 3.40290
# Velocity P-wave (km/s) = 5.34176 6.73542 6.07866
#
# Compressibility (1/GPa) = 0.03206284
#
# Stress axis : x y z
#
# Youngs Moduli (GPa) = 35.43927 37.25971 28.07519
#
# Poissons Ratio (x) = -0.19606 0.36007
# Poissons Ratio (y) = -0.18648 0.61043
# Poissons Ratio (z) = 0.45451 0.81013
#
# Static dielectric constant tensor:
#      x y z
#    x 1.693400 0.009670 -0.021380 
#    y 0.009670 1.682730 -0.026590 
#    z -0.021380 -0.026590 1.719050 
# 
# From -- ./inp_files/523366.got.cif
#   From: 2010.05.17/outbox.cif.g08.bks.cpg/sg2_262_cif.got.tgz:523366.got - 2010.06.03 11:33:40.
