data_PCOD9080241
_publ_section_title
;
Structure prediction by ZEFSAII (Michael W. Deem and Ramdas Pophale) SiO2 
 PCOD9080241
Probable space group: P -1
;
_chemical_formula_sum "Si O2"
_cell_formula_units_Z 16
_cell_length_a 14.792922
_cell_length_b 17.832086
_cell_length_c 11.857490
_cell_angle_alpha 30.211377
_cell_angle_beta 47.567512
_cell_angle_gamma 27.530350
_cell_volume 668.698646
_symmetry_space_group_name_H-M "P -1"
_symmetry_group_IT_number 2
_symmetry_cell_setting 'triclinic'
loop_
_space_group_symop_operation_xyz
x,y,z
-x,-y,-z
loop_
_atom_site_type_symbol
_atom_site_label
_atom_site_fract_x
_atom_site_fract_y
_atom_site_fract_z
Si Si1 0.660100 0.446227 0.000749
Si Si2 0.831879 0.079289 0.797087
Si Si3 0.190197 0.577090 0.591572
Si Si4 0.988830 0.495863 0.303491
Si Si5 0.410485 0.967672 0.942807
Si Si6 0.592535 0.854771 0.493306
Si Si7 0.762436 0.170014 0.481422
Si Si8 0.021437 0.320528 0.147851
O O1 0.586711 0.684418 0.723595
O O2 0.500000 0.500000 0.000000
O O3 0.640600 0.408125 0.195798
O O4 0.911843 0.187375 0.090261
O O5 0.789992 0.270625 0.653429
O O6 0.720327 0.202906 0.606717
O O7 0.718901 0.044136 0.983870
O O8 0.030690 0.643472 0.560473
O O9 0.107720 0.655021 0.689213
O O10 0.407962 0.269806 0.817524
O O11 0.163080 0.335351 0.461391
O O12 0.761253 0.764346 0.195177
O O13 0.046854 0.562080 0.072962
O O14 0.511251 0.965349 0.761080
O O15 0.500000 0.000000 0.500000
O O16 0.000000 0.000000 0.500000
O O17 0.776397 0.989596 0.648080
O O18 0.000000 0.500000 0.000000
#
# Coordination Sequence:
#
# PCOD9080241 Si02
#       8
#     2   2   2   2   2   2   2   2
#     4  11  25  43  71 103 140 183 232 282 348 414
#     4  11  23  44  70  99 142 182 227 290 351 406
#     4  11  24  40  69 105 135 177 241 281 335 419
#     4  11  23  44  66 100 142 181 224 289 349 400
#     4  12  25  46  69 100 142 186 225 285 356 411
#     4  12  28  47  72  99 139 186 237 277 350 429
#     4  10  18  38  67  93 135 176 221 277 349 387
#     4  10  19  35  67  99 133 173 229 281 329 395
#
# _framework density 23.927071999999999
#
# number of rings (size 3 to 8) (size 9 to 14) (size 15 to 20)
#    0.000    1.000    5.000    2.625    3.500    2.000 
#    2.250    0.625    0.000    0.000    0.000    0.000 
#    0.000    0.000    0.000    0.000    0.000    0.000 
#
# Total GULP energy -89390.732372 kJ/mol
# GULP energy per Si atom -5586.920773 kJ/mol
# Density = 2.387261 g / cm^3
# Si number density = 23.927072 Si / 1000 Ang^3
#
#
#
# Elastic Constant Matrix: (Units=GPa)
#
#
# Indices 1 2 3 4 5 6 
#
# 1 120.1937 9.8586 54.6260 3.1020 -30.4393 -10.9403
# 2 9.8586 47.3270 0.7692 0.2403 -9.6384 0.0947
# 3 54.6260 0.7692 116.4186 19.7490 -36.4955 -6.8014
# 4 3.1020 0.2403 19.7490 29.9340 3.5326 -1.3526
# 5 -30.4393 -9.6384 -36.4955 3.5326 36.5660 -4.8441
# 6 -10.9403 0.0947 -6.8014 -1.3526 -4.8441 23.2489
#
#
#
# Elastic Compliance Matrix: (Units=1/GPa)
#
#
# Indices 1 2 3 4 5 6 
#
# 1 0.012344 -0.000895 -0.002862 -0.000035 0.008068 0.006654
# 2 -0.000895 0.023435 0.004488 -0.004192 0.010684 0.002779
# 3 -0.002862 0.004488 0.019182 -0.014451 0.020355 0.007647
# 4 -0.000035 -0.004192 -0.014451 0.045155 -0.020704 -0.005914
# 5 0.008068 0.010684 0.020355 -0.020704 0.062035 0.021429
# 6 0.006654 0.002779 0.007647 -0.005914 0.021429 0.052490
#
#
# Mechanical properties :
#
#
# Convention : Reuss Voigt Hill
#
# Bulk Modulus (GPa) = 17.72344 46.04965 31.88655
# Shear Modulus (GPa) = 21.55297 32.52882 27.04090
#
# Velocity S-wave (km/s) = 3.00455 3.69114 3.36540
# Velocity P-wave (km/s) = 4.41133 6.11994 5.33448
#
# Compressibility (1/GPa) = 0.05642245
#
# Stress axis : x y z
#
# Youngs Moduli (GPa) = 81.01134 42.67167 52.13169
#
# Poissons Ratio (x) = 0.03819 0.14921
# Poissons Ratio (y) = 0.07249 -0.23396
# Poissons Ratio (z) = 0.23187 -0.19150
#
# Static dielectric constant tensor:
#      x y z
#    x 2.003280 -0.031570 -0.022570 
#    y -0.031570 1.956380 -0.004610 
#    z -0.022570 -0.004610 1.972080 
# 
# From -- ./inp_files/456902.got.cif
#   From: 2010.05.17/outbox.cif.g08.bks.cpg/sg2_229_cif.got.tgz:456902.got - 2010.06.03 11:33:40.
