data_PCOD9080231
_publ_section_title
;
Structure prediction by ZEFSAII (Michael W. Deem and Ramdas Pophale) SiO2 
 PCOD9080231
Probable space group: P -1
;
_chemical_formula_sum "Si O2"
_cell_formula_units_Z 12
_cell_length_a 8.799008
_cell_length_b 16.189710
_cell_length_c 9.171208
_cell_angle_alpha 132.513255
_cell_angle_beta 127.289083
_cell_angle_gamma 38.287757
_cell_volume 588.508869
_symmetry_space_group_name_H-M "P -1"
_symmetry_group_IT_number 2
_symmetry_cell_setting 'triclinic'
loop_
_space_group_symop_operation_xyz
x,y,z
-x,-y,-z
loop_
_atom_site_type_symbol
_atom_site_label
_atom_site_fract_x
_atom_site_fract_y
_atom_site_fract_z
Si Si1 0.794736 0.500558 0.968204
Si Si2 0.908607 0.332486 0.572885
Si Si3 0.535800 0.813881 0.192268
Si Si4 0.123004 0.430922 0.335028
Si Si5 0.542786 0.109784 0.106537
Si Si6 0.995973 0.949162 0.775610
O O1 0.780782 0.398072 0.735228
O O2 0.557399 0.670111 0.038973
O O3 0.000000 0.500000 0.000000
O O4 0.919546 0.443656 0.129819
O O5 0.206058 0.238431 0.654867
O O6 0.819821 0.469424 0.585592
O O7 0.881908 0.219359 0.358924
O O8 0.297216 0.943996 0.298638
O O9 0.518825 0.854068 0.059703
O O10 0.363873 0.262258 0.269884
O O11 0.000000 0.500000 0.500000
O O12 0.829359 0.038371 0.205206
O O13 0.500000 0.000000 0.000000
O O14 0.000000 0.000000 0.000000
#
# Coordination Sequence:
#
# PCOD9080231 Si02
#       6
#     2   2   2   2   2   2
#     4   8  15  35  62  83 108 155 195 235 277 345
#     4  10  18  38  67  81 113 157 199 243 273 344
#     4   9  17  39  63  86 111 152 203 231 283 355
#     4  10  20  35  61  91 113 152 195 236 301 339
#     4  11  22  39  56  83 129 153 182 247 300 340
#     4  10  23  35  56  94 113 153 201 235 286 347
#
# _framework density 20.390516999999999
#
# number of rings (size 3 to 8) (size 9 to 14) (size 15 to 20)
#    0.000    2.667    5.000    0.500    4.667    0.667 
#    0.000    0.833    0.000    5.000    0.000    0.000 
#    0.000    0.000    0.000    0.000    0.000    0.000 
#
# Total GULP energy -66887.741285 kJ/mol
# GULP energy per Si atom -5573.978440 kJ/mol
# Density = 2.034411 g / cm^3
# Si number density = 20.390517 Si / 1000 Ang^3
#
#
#
# Elastic Constant Matrix: (Units=GPa)
#
#
# Indices 1 2 3 4 5 6 
#
# 1 74.9200 34.8035 35.9135 20.2684 -10.3906 -8.4902
# 2 34.8035 72.6424 26.6512 30.6971 -6.5676 -13.3796
# 3 35.9135 26.6512 123.0299 34.9521 -12.0285 7.1814
# 4 20.2684 30.6971 34.9521 44.4700 3.1226 -1.8485
# 5 -10.3906 -6.5676 -12.0285 3.1226 32.4155 4.9440
# 6 -8.4902 -13.3796 7.1814 -1.8485 4.9440 10.2692
#
#
#
# Elastic Compliance Matrix: (Units=1/GPa)
#
#
# Indices 1 2 3 4 5 6 
#
# 1 0.019993 -0.004484 -0.004952 -0.001717 0.001853 0.012949
# 2 -0.004484 0.029391 -0.003005 -0.014426 -0.000440 0.034302
# 3 -0.004952 -0.003005 0.014919 -0.008936 0.007834 -0.023822
# 4 -0.001717 -0.014426 -0.008936 0.040924 -0.010495 -0.001547
# 5 0.001853 -0.000440 0.007834 -0.010495 0.039123 -0.025244
# 6 0.012949 0.034302 -0.023822 -0.001547 -0.025244 0.181311
#
#
# Mechanical properties :
#
#
# Convention : Reuss Voigt Hill
#
# Bulk Modulus (GPa) = 25.36580 51.70319 38.53449
# Shear Modulus (GPa) = 13.74823 28.97921 21.36372
#
# Velocity S-wave (km/s) = 2.59944 3.77398 3.24037
# Velocity P-wave (km/s) = 4.63427 6.66349 5.73928
#
# Compressibility (1/GPa) = 0.03942316
#
# Stress axis : x y z
#
# Youngs Moduli (GPa) = 50.01708 34.02377 67.02638
#
# Poissons Ratio (x) = 0.15256 0.33189
# Poissons Ratio (y) = 0.22428 0.20140
# Poissons Ratio (z) = 0.24767 0.10223
#
# Static dielectric constant tensor:
#      x y z
#    x 1.788940 -0.040370 0.060140 
#    y -0.040370 1.781680 -0.010710 
#    z 0.060140 -0.010710 1.823960 
# 
# From -- ./inp_files/204002.got.cif
#   From: 2010.05.17/outbox.cif.g08.bks.cpg/sg2_103_cif.got.tgz:204002.got - 2010.06.03 11:33:40.
