data_PCOD9080040
_publ_section_title
;
Structure prediction by ZEFSAII (Michael W. Deem and Ramdas Pophale) SiO2 
 PCOD9080040
Probable space group: P -1
;
_chemical_formula_sum "Si O2"
_cell_formula_units_Z 14
_cell_length_a 12.073214
_cell_length_b 15.573242
_cell_length_c 12.120279
_cell_angle_alpha 125.030364
_cell_angle_beta 46.210312
_cell_angle_gamma 153.604963
_cell_volume 723.819185
_symmetry_space_group_name_H-M "P -1"
_symmetry_group_IT_number 2
_symmetry_cell_setting 'triclinic'
loop_
_space_group_symop_operation_xyz
x,y,z
-x,-y,-z
loop_
_atom_site_type_symbol
_atom_site_label
_atom_site_fract_x
_atom_site_fract_y
_atom_site_fract_z
Si Si1 0.352012 0.413045 0.155452
Si Si2 0.657013 0.793666 0.611955
Si Si3 0.891357 0.866734 0.718650
Si Si4 0.670804 0.065044 0.595053
Si Si5 0.239255 0.269180 0.704488
Si Si6 0.317533 0.955982 0.183279
Si Si7 0.130080 0.689689 0.560822
O O1 0.213061 0.224332 0.155201
O O2 0.576315 0.568318 0.211441
O O3 0.113439 0.365749 0.287027
O O4 0.500000 0.500000 0.000000
O O5 0.646048 0.736375 0.697906
O O6 0.561811 0.668153 0.482422
O O7 0.556157 0.854887 0.736209
O O8 0.000000 0.000000 0.500000
O O9 0.090836 0.886317 0.555290
O O10 0.069686 0.076558 0.740366
O O11 0.684349 0.102613 0.741210
O O12 0.728330 0.193243 0.566319
O O13 0.372502 0.841321 0.598470
O O14 0.998601 0.202553 0.763549
O O15 0.500000 0.000000 0.000000
O O16 0.000000 0.500000 0.500000
#
# Coordination Sequence:
#
# PCOD9080040 Si02
#       7
#     2   2   2   2   2   2   2
#     4  11  25  38  54  87 117 147 191 234 281 329
#     4   8  15  33  58  83 104 138 187 223 272 341
#     4   9  17  38  61  83 108 148 193 227 277 335
#     4  10  18  38  62  81 112 148 194 226 273 340
#     4  10  19  38  61  81 113 147 185 234 278 338
#     4  10  19  33  60  89 112 143 181 238 291 323
#     4  10  23  39  58  82 111 156 192 228 269 336
#
# _framework density 19.341846
#
# number of rings (size 3 to 8) (size 9 to 14) (size 15 to 20)
#    0.000    2.571    4.286    0.857    2.000    1.143 
#    5.143    0.000    0.000    4.286    0.000    0.000 
#    0.000    0.000    0.000    0.000    0.000    0.000 
#
# Total GULP energy -78062.078772 kJ/mol
# GULP energy per Si atom -5575.862769 kJ/mol
# Density = 1.929782 g / cm^3
# Si number density = 19.341846 Si / 1000 Ang^3
#
#
#
# Elastic Constant Matrix: (Units=GPa)
#
#
# Indices 1 2 3 4 5 6 
#
# 1 82.2978 19.2822 33.2291 -1.1667 15.3699 -7.2226
# 2 19.2822 52.1029 8.4030 1.5813 2.4306 -8.1344
# 3 33.2291 8.4030 103.8451 -5.5152 11.3493 -1.0884
# 4 -1.1667 1.5813 -5.5152 17.8054 -6.7528 7.3893
# 5 15.3699 2.4306 11.3493 -6.7528 25.0357 -1.3538
# 6 -7.2226 -8.1344 -1.0884 7.3893 -1.3538 27.5727
#
#
#
# Elastic Compliance Matrix: (Units=1/GPa)
#
#
# Indices 1 2 3 4 5 6 
#
# 1 0.016866 -0.004387 -0.004266 -0.004859 -0.009099 0.003811
# 2 -0.004387 0.022142 -0.000571 -0.005348 -0.000274 0.006781
# 3 -0.004266 -0.000571 0.011385 0.003430 -0.001661 -0.001837
# 4 -0.004859 -0.005348 0.003430 0.074230 0.020802 -0.021587
# 5 -0.009099 -0.000274 -0.001661 0.020802 0.051618 -0.005570
# 6 0.003811 0.006781 -0.001837 -0.021587 -0.005570 0.044706
#
#
# Mechanical properties :
#
#
# Convention : Reuss Voigt Hill
#
# Bulk Modulus (GPa) = 31.30246 40.00826 35.65536
# Shear Modulus (GPa) = 19.99656 25.90486 22.95071
#
# Velocity S-wave (km/s) = 3.21884 3.66364 3.44842
# Velocity P-wave (km/s) = 5.48029 6.21499 5.85916
#
# Compressibility (1/GPa) = 0.03194637
#
# Stress axis : x y z
#
# Youngs Moduli (GPa) = 59.29062 45.16292 87.83213
#
# Poissons Ratio (x) = 0.19813 0.37466
# Poissons Ratio (y) = 0.26010 0.05015
# Poissons Ratio (z) = 0.25291 0.02579
#
# Static dielectric constant tensor:
#      x y z
#    x 1.705200 -0.005780 0.026830 
#    y -0.005780 1.742070 -0.002740 
#    z 0.026830 -0.002740 1.672670 
# 
# From -- ./inp_files/402171.got.cif
#   From: 2010.05.17/outbox.cif.g08.bks.cpg/sg2_202_cif.got.tgz:402171.got - 2010.06.03 11:33:40.
