data_PCOD9080596
_publ_section_title
;
Structure prediction by ZEFSAII (Michael W. Deem and Ramdas Pophale) SiO2 
 PCOD9080596
Probable space group: P -1
;
_chemical_formula_sum "Si O2"
_cell_formula_units_Z 16
_cell_length_a 14.143348
_cell_length_b 16.747422
_cell_length_c 11.013903
_cell_angle_alpha 131.846376
_cell_angle_beta 114.992804
_cell_angle_gamma 26.557866
_cell_volume 740.513117
_symmetry_space_group_name_H-M "P -1"
_symmetry_group_IT_number 2
_symmetry_cell_setting 'triclinic'
loop_
_space_group_symop_operation_xyz
x,y,z
-x,-y,-z
loop_
_atom_site_type_symbol
_atom_site_label
_atom_site_fract_x
_atom_site_fract_y
_atom_site_fract_z
Si Si1 0.617173 0.567033 0.477388
Si Si2 0.599316 0.130679 0.816881
Si Si3 0.000934 0.749165 0.445664
Si Si4 0.364171 0.234001 0.008961
Si Si5 0.092210 0.051770 0.645410
Si Si6 0.289266 0.618443 0.058289
Si Si7 0.006812 0.110749 0.058042
Si Si8 0.678569 0.964960 0.142486
O O1 0.790372 0.382221 0.497863
O O2 0.769486 0.395721 0.268917
O O3 0.351054 0.759805 0.531301
O O4 0.551167 0.755257 0.637571
O O5 0.422722 0.380474 0.908407
O O6 0.451371 0.182007 0.868186
O O7 0.795214 0.908233 0.595585
O O8 0.754078 0.052772 0.924661
O O9 0.146617 0.516128 0.223147
O O10 0.894047 0.925907 0.463870
O O11 0.595368 0.033133 0.026150
O O12 0.285249 0.184810 0.933594
O O13 0.101514 0.158772 0.831230
O O14 0.839709 0.231791 0.731474
O O15 0.052462 0.842356 0.067370
O O16 0.500000 0.500000 0.000000
O O17 0.000000 0.000000 0.000000
#
# Coordination Sequence:
#
# PCOD9080596 Si02
#       8
#     2   2   2   2   2   2   2   2
#     4   8  20  40  61  86 121 160 206 252 303 369
#     4  11  23  41  64  93 129 164 206 263 307 364
#     4  10  20  37  63  89 126 164 203 253 305 365
#     4  10  18  40  65  92 128 164 209 252 308 370
#     4  10  20  40  64  84 125 165 198 261 311 361
#     4  12  24  40  62  93 122 162 213 257 315 369
#     4  11  22  41  64  85 123 164 204 262 308 367
#     4   8  19  37  66  91 124 165 207 250 309 374
#
# _framework density 21.606639999999999
#
# number of rings (size 3 to 8) (size 9 to 14) (size 15 to 20)
#    0.750    1.250    2.500    1.500    0.000    0.500 
#    0.000   16.250    0.000    0.000    0.000    0.000 
#    0.000    0.000    0.000    0.000    0.000    0.000 
#
# Total GULP energy -89223.012855 kJ/mol
# GULP energy per Si atom -5576.438303 kJ/mol
# Density = 2.155746 g / cm^3
# Si number density = 21.606640 Si / 1000 Ang^3
#
#
#
# Elastic Constant Matrix: (Units=GPa)
#
#
# Indices 1 2 3 4 5 6 
#
# 1 74.3109 26.4402 6.4603 -11.2916 -11.7666 23.3825
# 2 26.4402 82.2293 23.8825 1.2203 -12.0911 10.5216
# 3 6.4603 23.8825 58.0399 -3.4145 -15.4342 20.9801
# 4 -11.2916 1.2203 -3.4145 28.2734 1.3160 -0.4028
# 5 -11.7666 -12.0911 -15.4342 1.3160 23.2386 -11.9823
# 6 23.3825 10.5216 20.9801 -0.4028 -11.9823 28.7824
#
#
#
# Elastic Compliance Matrix: (Units=1/GPa)
#
#
# Indices 1 2 3 4 5 6 
#
# 1 0.024833 -0.007736 0.010293 0.011038 0.002581 -0.023620
# 2 -0.007736 0.016613 -0.008018 -0.004832 0.003518 0.007453
# 3 0.010293 -0.008018 0.030878 0.007439 0.008627 -0.024243
# 4 0.011038 -0.004832 0.007439 0.040738 -0.000645 -0.012321
# 5 0.002581 0.003518 0.008627 -0.000645 0.059775 0.015205
# 6 -0.023620 0.007453 -0.024243 -0.012321 0.015205 0.075036
#
#
# Mechanical properties :
#
#
# Convention : Reuss Voigt Hill
#
# Bulk Modulus (GPa) = 16.28627 36.46067 26.37347
# Shear Modulus (GPa) = 17.90433 26.57868 22.24150
#
# Velocity S-wave (km/s) = 2.88175 3.51111 3.21188
# Velocity P-wave (km/s) = 4.31586 5.77482 5.09780
#
# Compressibility (1/GPa) = 0.06140143
#
# Stress axis : x y z
#
# Youngs Moduli (GPa) = 40.26944 60.19513 32.38547
#
# Poissons Ratio (x) = 0.46569 -0.33334
# Poissons Ratio (y) = 0.31154 0.25966
# Poissons Ratio (z) = -0.41449 0.48262
#
# Static dielectric constant tensor:
#      x y z
#    x 1.764450 -0.044180 0.005610 
#    y -0.044180 1.829920 -0.038870 
#    z 0.005610 -0.038870 1.839170 
# 
# From -- ./inp_files/434219.got.cif
#   From: 2010.05.17/outbox.cif.g08.bks.cpg/sg2_218_cif.got.tgz:434219.got - 2010.06.03 11:33:40.
