data_PCOD9080150
_publ_section_title
;
Structure prediction by ZEFSAII (Michael W. Deem and Ramdas Pophale) SiO2 
 PCOD9080150
Probable space group: P -1
;
_chemical_formula_sum "Si O2"
_cell_formula_units_Z 15
_cell_length_a 7.922317
_cell_length_b 12.165719
_cell_length_c 11.953296
_cell_angle_alpha 78.198884
_cell_angle_beta 37.271784
_cell_angle_gamma 62.508093
_cell_volume 589.786951
_symmetry_space_group_name_H-M "P -1"
_symmetry_group_IT_number 2
_symmetry_cell_setting 'triclinic'
loop_
_space_group_symop_operation_xyz
x,y,z
-x,-y,-z
loop_
_atom_site_type_symbol
_atom_site_label
_atom_site_fract_x
_atom_site_fract_y
_atom_site_fract_z
Si Si1 0.190221 0.801151 0.604369
Si Si2 0.498407 0.149094 0.027087
Si Si3 0.582990 0.136306 0.312786
Si Si4 0.647000 0.200500 0.713967
Si Si5 0.500000 0.500000 0.500000
Si Si6 0.553951 0.475430 0.696897
Si Si7 0.770114 0.913271 0.108259
Si Si8 0.248572 0.359988 0.292648
O O1 0.353003 0.851912 0.595151
O O2 0.110267 0.853904 0.507662
O O3 0.439937 0.648948 0.487463
O O4 0.852120 0.826603 0.826209
O O5 0.424714 0.276580 0.109226
O O6 0.636095 0.028618 0.063170
O O7 0.722418 0.126241 0.807375
O O8 0.267711 0.260758 0.401902
O O9 0.648298 0.996394 0.269505
O O10 0.850791 0.153193 0.097398
O O11 0.564190 0.345641 0.755324
O O12 0.355217 0.185466 0.821594
O O13 0.291881 0.546275 0.725068
O O14 0.617344 0.552331 0.744428
O O15 0.861059 0.442807 0.453804
#
# Coordination Sequence:
#
# PCOD9080150 Si02
#       8
#     2   2   2   2   1   2   2   2
#     4  11  22  40  66  94 124 170 200 264 320 363
#     4  11  22  42  65  88 131 171 199 269 314 358
#     4  10  21  41  65  89 126 172 203 253 328 360
#     4  11  23  39  64 100 118 160 229 247 307 386
#     4  10  18  38  64  94 124 154 208 256 306 378
#     4  10  21  38  66  96 123 163 213 259 305 392
#     4  10  23  42  64  91 128 167 212 263 303 377
#     4  10  20  40  66  90 128 172 197 257 335 355
#
# _framework density 25.432912000000002
#
# number of rings (size 3 to 8) (size 9 to 14) (size 15 to 20)
#    0.000    1.600    5.333    0.400    0.000    1.600 
#    0.000   10.000    0.000    0.000    0.000    0.000 
#    0.000    0.000    0.000    0.000    0.000    0.000 
#
# Total GULP energy -83612.917497 kJ/mol
# GULP energy per Si atom -5574.194500 kJ/mol
# Density = 2.537503 g / cm^3
# Si number density = 25.432912 Si / 1000 Ang^3
#
#
#
# Elastic Constant Matrix: (Units=GPa)
#
#
# Indices 1 2 3 4 5 6 
#
# 1 101.9264 46.9875 37.8707 -2.4627 29.1543 38.2258
# 2 46.9875 108.9188 39.2783 -4.8603 6.3431 36.5537
# 3 37.8707 39.2783 77.3462 0.0563 31.3904 10.7166
# 4 -2.4627 -4.8603 0.0563 32.5571 4.8295 2.9406
# 5 29.1543 6.3431 31.3904 4.8295 47.7126 9.9289
# 6 38.2258 36.5537 10.7166 2.9406 9.9289 65.7429
#
#
#
# Elastic Compliance Matrix: (Units=1/GPa)
#
#
# Indices 1 2 3 4 5 6 
#
# 1 0.016991 -0.003674 -0.002721 0.002362 -0.007002 -0.006441
# 2 -0.003674 0.015322 -0.007732 0.001628 0.006413 -0.006164
# 3 -0.002721 -0.007732 0.023029 0.000206 -0.013341 0.004133
# 4 0.002362 0.001628 0.000206 0.032068 -0.004400 -0.003082
# 5 -0.007002 0.006413 -0.013341 -0.004400 0.034080 -0.002269
# 6 -0.006441 -0.006164 0.004133 -0.003082 -0.002269 0.022190
#
#
# Mechanical properties :
#
#
# Convention : Reuss Voigt Hill
#
# Bulk Modulus (GPa) = 36.91474 59.60716 48.26095
# Shear Modulus (GPa) = 27.62975 40.13951 33.88463
#
# Velocity S-wave (km/s) = 3.29960 3.97703 3.65405
# Velocity P-wave (km/s) = 5.39097 6.67660 6.06793
#
# Compressibility (1/GPa) = 0.02708945
#
# Stress axis : x y z
#
# Youngs Moduli (GPa) = 58.85345 65.26481 43.42275
#
# Poissons Ratio (x) = 0.23977 0.11816
# Poissons Ratio (y) = 0.21622 0.33574
# Poissons Ratio (z) = 0.16015 0.50462
#
# Static dielectric constant tensor:
#      x y z
#    x 1.460360 0.208900 0.028420 
#    y 0.208900 1.954150 0.018960 
#    z 0.028420 0.018960 2.080550 
# 
# From -- ./inp_files/389647.got.cif
#   From: 2010.05.17/outbox.cif.g08.bks.cpg/sg2_195_cif.got.tgz:389647.got - 2010.06.03 11:33:40.
