data_PCOD9080974
_publ_section_title
;
Structure prediction by ZEFSAII (Michael W. Deem and Ramdas Pophale) SiO2 
 PCOD9080974
Probable space group: P -1
;
_chemical_formula_sum "Si O2"
_cell_formula_units_Z 16
_cell_length_a 21.971052
_cell_length_b 8.342554
_cell_length_c 23.558210
_cell_angle_alpha 37.808977
_cell_angle_beta 13.313291
_cell_angle_gamma 37.312693
_cell_volume 598.720754
_symmetry_space_group_name_H-M "P -1"
_symmetry_group_IT_number 2
_symmetry_cell_setting 'triclinic'
loop_
_space_group_symop_operation_xyz
x,y,z
-x,-y,-z
loop_
_atom_site_type_symbol
_atom_site_label
_atom_site_fract_x
_atom_site_fract_y
_atom_site_fract_z
Si Si1 0.802791 0.124524 0.566260
Si Si2 0.509072 0.227315 0.693087
Si Si3 0.095221 0.573427 0.801184
Si Si4 0.653102 0.856492 0.955192
Si Si5 0.693382 0.995302 0.175819
Si Si6 0.864400 0.876288 0.326262
Si Si7 0.989827 0.480564 0.428341
Si Si8 0.344555 0.573229 0.165392
O O1 0.926841 0.841909 0.562388
O O2 0.046480 0.276992 0.294721
O O3 0.676095 0.062789 0.638253
O O4 0.558425 0.275455 0.782551
O O5 0.711795 0.403680 0.433695
O O6 0.430185 0.059574 0.758585
O O7 0.223960 0.375740 0.934926
O O8 0.185965 0.294504 0.827582
O O9 0.137131 0.818435 0.735515
O O10 0.699711 0.105706 0.882944
O O11 0.500000 0.000000 0.000000
O O12 0.446211 0.127915 0.402123
O O13 0.930539 0.152531 0.903863
O O14 0.958765 0.684071 0.347339
O O15 0.674618 0.514807 0.727582
O O16 0.318817 0.513799 0.135048
O O17 0.000000 0.500000 0.500000
#
# Coordination Sequence:
#
# PCOD9080974 Si02
#       8
#     2   2   2   2   2   2   2   2
#     4  11  23  38  56  82 112 148 199 231 267 336
#     4  10  19  30  50  71  96 140 189 218 271 319
#     4  10  19  32  45  68 104 147 182 218 277 339
#     4  11  24  40  56  75 111 160 196 233 279 320
#     4  10  20  31  45  67 104 149 183 215 276 343
#     4  10  20  28  47  67  99 145 187 207 270 324
#     4  10  23  32  50  83 114 145 190 229 268 330
#     4  10  21  34  55  75 114 144 193 227 275 322
#
# _framework density 26.723642000000002
#
# number of rings (size 3 to 8) (size 9 to 14) (size 15 to 20)
#    0.000    1.750    1.250    4.875   15.750    0.000 
#    0.000    0.000    0.000    0.000    0.000    0.000 
#    0.000    0.000    0.000  299.250    0.000    0.000 
#
# Total GULP energy -89343.625032 kJ/mol
# GULP energy per Si atom -5583.976564 kJ/mol
# Density = 2.666282 g / cm^3
# Si number density = 26.723642 Si / 1000 Ang^3
#
#
#
# Elastic Constant Matrix: (Units=GPa)
#
#
# Indices 1 2 3 4 5 6 
#
# 1 48.4415 23.1470 42.3434 -1.5903 13.5323 4.2684
# 2 23.1470 146.5226 63.0131 -12.3171 0.8158 -27.2964
# 3 42.3434 63.0131 220.8751 16.3546 57.4881 6.6276
# 4 -1.5903 -12.3171 16.3546 42.6442 -10.5046 -2.0374
# 5 13.5323 0.8158 57.4881 -10.5046 49.8848 -6.2816
# 6 4.2684 -27.2964 6.6276 -2.0374 -6.2816 26.1567
#
#
#
# Elastic Compliance Matrix: (Units=1/GPa)
#
#
# Indices 1 2 3 4 5 6 
#
# 1 0.028571 -0.008678 0.001166 -0.005766 -0.012361 -0.017432
# 2 -0.008678 0.023686 -0.015430 0.021463 0.029143 0.038714
# 3 0.001166 -0.015430 0.018903 -0.020459 -0.029916 -0.029860
# 4 -0.005766 0.021463 -0.020459 0.049258 0.040461 0.042077
# 5 -0.012361 0.029143 -0.029916 0.040461 0.073579 0.060832
# 6 -0.017432 0.038714 -0.029860 0.042077 0.060832 0.106928
#
#
# Mechanical properties :
#
#
# Convention : Reuss Voigt Hill
#
# Bulk Modulus (GPa) = 39.56343 74.76069 57.16206
# Shear Modulus (GPa) = 14.07522 42.89285 28.48404
#
# Velocity S-wave (km/s) = 2.29747 4.01066 3.26831
# Velocity P-wave (km/s) = 4.67703 7.03444 5.97319
#
# Compressibility (1/GPa) = 0.02527587
#
# Stress axis : x y z
#
# Youngs Moduli (GPa) = 35.00050 42.21965 52.90145
#
# Poissons Ratio (x) = 0.36640 -0.06168
# Poissons Ratio (y) = 0.30375 0.81625
# Poissons Ratio (z) = -0.04081 0.65143
#
# Static dielectric constant tensor:
#      x y z
#    x 1.457900 0.045150 0.039230 
#    y 0.045150 2.006590 0.007140 
#    z 0.039230 0.007140 2.386560 
# 
# From -- ./inp_files/80862.got.cif
#   From: 2010.05.17/outbox.cif.g08.bks.cpg/sg2_41_cif.got.tgz:80862.got - 2010.06.03 11:33:40.
