data_PCOD9080469
_publ_section_title
;
Structure prediction by ZEFSAII (Michael W. Deem and Ramdas Pophale) SiO2 
 PCOD9080469
Probable space group: P -1
;
_chemical_formula_sum "Si O2"
_cell_formula_units_Z 14
_cell_length_a 8.121622
_cell_length_b 13.324236
_cell_length_c 8.549393
_cell_angle_alpha 41.083914
_cell_angle_beta 76.486996
_cell_angle_gamma 70.769444
_cell_volume 573.902481
_symmetry_space_group_name_H-M "P -1"
_symmetry_group_IT_number 2
_symmetry_cell_setting 'triclinic'
loop_
_space_group_symop_operation_xyz
x,y,z
-x,-y,-z
loop_
_atom_site_type_symbol
_atom_site_label
_atom_site_fract_x
_atom_site_fract_y
_atom_site_fract_z
Si Si1 0.874548 0.343089 0.261446
Si Si2 0.210530 0.928887 0.533079
Si Si3 0.947461 0.752428 0.356516
Si Si4 0.488382 0.610022 0.227377
Si Si5 0.186974 0.880307 0.947173
Si Si6 0.281380 0.241229 0.190775
Si Si7 0.687528 0.582370 0.747938
O O1 0.765942 0.209669 0.431890
O O2 0.911126 0.345228 0.436608
O O3 0.075740 0.287921 0.221647
O O4 0.790862 0.466757 0.998671
O O5 0.240231 0.861652 0.778165
O O6 0.311455 0.063970 0.332908
O O7 0.000000 0.000000 0.500000
O O8 0.802794 0.651830 0.514408
O O9 0.872404 0.933326 0.223462
O O10 0.037123 0.790212 0.132665
O O11 0.500000 0.500000 0.500000
O O12 0.423259 0.515851 0.208309
O O13 0.358508 0.775400 0.111024
O O14 0.662620 0.652424 0.077707
O O15 0.381651 0.266887 0.298696
#
# Coordination Sequence:
#
# PCOD9080469 Si02
#       7
#     2   2   2   2   2   2   2
#     4  10  20  39  70 100 116 159 217 267 304 368
#     4  10  18  39  67  96 117 157 218 256 309 367
#     4  10  22  40  70  97 124 157 218 266 313 364
#     4  12  29  43  57  94 137 170 207 254 323 381
#     4  11  22  42  62  91 132 163 206 263 315 366
#     4  10  22  42  64  91 130 162 207 258 313 381
#     4  11  22  42  68  92 123 170 216 257 310 369
#
# _framework density 24.394385
#
# number of rings (size 3 to 8) (size 9 to 14) (size 15 to 20)
#    0.000    1.429    5.714    2.143    4.000    3.429 
#    0.000    0.714    0.000    0.000    0.000    0.000 
#    0.000    0.000    0.000    0.000    0.000    0.000 
#
# Total GULP energy -78064.750232 kJ/mol
# GULP energy per Si atom -5576.053588 kJ/mol
# Density = 2.433886 g / cm^3
# Si number density = 24.394385 Si / 1000 Ang^3
#
#
#
# Elastic Constant Matrix: (Units=GPa)
#
#
# Indices 1 2 3 4 5 6 
#
# 1 57.1924 26.7199 55.9393 -9.7808 -19.1244 6.9648
# 2 26.7199 54.2927 23.1755 -23.0085 -11.0728 21.2364
# 3 55.9393 23.1755 177.2871 -14.7065 -24.7743 10.7050
# 4 -9.7808 -23.0085 -14.7065 36.0800 -0.7172 -12.6591
# 5 -19.1244 -11.0728 -24.7743 -0.7172 52.7463 -9.9478
# 6 6.9648 21.2364 10.7050 -12.6591 -9.9478 36.1815
#
#
#
# Elastic Compliance Matrix: (Units=1/GPa)
#
#
# Indices 1 2 3 4 5 6 
#
# 1 0.033516 -0.014534 -0.008261 -0.001404 0.006288 0.005761
# 2 -0.014534 0.036907 0.002035 0.015638 0.001062 -0.013703
# 3 -0.008261 0.002035 0.008390 0.002151 0.001213 -0.001000
# 4 -0.001404 0.015638 0.002151 0.040439 0.005487 0.006112
# 5 0.006288 0.001062 0.001213 0.005487 0.023261 0.006122
# 6 0.005761 -0.013703 -0.001000 0.006112 0.006122 0.038690
#
#
# Mechanical properties :
#
#
# Convention : Reuss Voigt Hill
#
# Bulk Modulus (GPa) = 26.81615 55.60464 41.21039
# Shear Modulus (GPa) = 21.26265 37.19740 29.23003
#
# Velocity S-wave (km/s) = 2.95553 3.90915 3.46530
# Velocity P-wave (km/s) = 4.76062 6.57410 5.73944
#
# Compressibility (1/GPa) = 0.03729096
#
# Stress axis : x y z
#
# Youngs Moduli (GPa) = 29.83626 27.09510 119.19658
#
# Poissons Ratio (x) = 0.39381 0.98468
# Poissons Ratio (y) = 0.43365 -0.24251
# Poissons Ratio (z) = 0.24648 -0.05513
#
# Static dielectric constant tensor:
#      x y z
#    x 1.957270 -0.144080 -0.005980 
#    y -0.144080 2.108520 -0.100460 
#    z -0.005980 -0.100460 1.889040 
# 
# From -- ./inp_files/191320.got.cif
#   From: 2010.05.17/outbox.cif.g08.bks.cpg/sg2_96_cif.got.tgz:191320.got - 2010.06.03 11:33:40.
