data_PCOD9080809
_publ_section_title
;
Structure prediction by ZEFSAII (Michael W. Deem and Ramdas Pophale) SiO2 
 PCOD9080809
Probable space group: P -1
;
_chemical_formula_sum "Si O2"
_cell_formula_units_Z 15
_cell_length_a 14.287423
_cell_length_b 16.213862
_cell_length_c 8.929153
_cell_angle_alpha 134.649979
_cell_angle_beta 58.606748
_cell_angle_gamma 154.904385
_cell_volume 576.568465
_symmetry_space_group_name_H-M "P -1"
_symmetry_group_IT_number 2
_symmetry_cell_setting 'triclinic'
loop_
_space_group_symop_operation_xyz
x,y,z
-x,-y,-z
loop_
_atom_site_type_symbol
_atom_site_label
_atom_site_fract_x
_atom_site_fract_y
_atom_site_fract_z
Si Si1 0.190217 0.090677 0.289887
Si Si2 0.834621 0.390320 0.360760
Si Si3 0.384869 0.035022 0.141337
Si Si4 0.237866 0.588487 0.973433
Si Si5 0.500000 0.000000 0.500000
Si Si6 0.579696 0.483668 0.198303
Si Si7 0.831333 0.864338 0.111403
Si Si8 0.142888 0.839889 0.483720
O O1 0.250370 0.029592 0.246870
O O2 0.379203 0.275023 0.229872
O O3 0.250667 0.257229 0.552443
O O4 0.930404 0.864486 0.146955
O O5 0.556667 0.171623 0.314846
O O6 0.000000 0.500000 0.500000
O O7 0.969878 0.628925 0.490572
O O8 0.791552 0.235740 0.097959
O O9 0.569686 0.214903 0.073643
O O10 0.290454 0.516501 0.917579
O O11 0.982585 0.333826 0.779621
O O12 0.295805 0.745972 0.239729
O O13 0.393513 0.027047 0.573064
O O14 0.432252 0.387687 0.056542
O O15 0.868412 0.031679 0.350015
O O16 0.000000 0.000000 0.000000
#
# Coordination Sequence:
#
# PCOD9080809 Si02
#       8
#     2   2   2   2   1   2   2   2
#     4   9  17  28  49  73 106 136 161 209 272 326
#     4  10  21  33  52  74 109 146 176 214 259 318
#     4   9  20  35  51  80 111 138 174 216 267 320
#     4  10  19  34  52  73 111 138 179 219 261 313
#     4  12  22  34  52  74 106 154 182 216 256 312
#     4   9  16  27  45  73 103 133 160 205 268 313
#     4  10  19  28  50  78 106 137 165 212 274 323
#     4  11  22  36  51  80 113 142 178 218 261 319
#
# _framework density 26.015993000000002
#
# number of rings (size 3 to 8) (size 9 to 14) (size 15 to 20)
#    0.000    2.133    2.667    1.200    9.333    0.000 
#    0.000    0.000    0.000    0.000    0.000    1.867 
#    0.000    1.200    0.000    0.000    0.000    0.000 
#
# Total GULP energy -83688.041301 kJ/mol
# GULP energy per Si atom -5579.202753 kJ/mol
# Density = 2.595678 g / cm^3
# Si number density = 26.015993 Si / 1000 Ang^3
#
#
#
# Elastic Constant Matrix: (Units=GPa)
#
#
# Indices 1 2 3 4 5 6 
#
# 1 182.9573 40.1312 56.7789 16.7409 4.9314 64.4463
# 2 40.1312 86.0319 19.5871 15.9707 24.1529 8.9642
# 3 56.7789 19.5871 118.2204 12.4636 17.5314 40.1102
# 4 16.7409 15.9707 12.4636 25.6203 21.7752 12.2873
# 5 4.9314 24.1529 17.5314 21.7752 52.1784 10.3173
# 6 64.4463 8.9642 40.1102 12.2873 10.3173 54.0031
#
#
#
# Elastic Compliance Matrix: (Units=1/GPa)
#
#
# Indices 1 2 3 4 5 6 
#
# 1 0.011163 -0.004659 -0.000890 -0.002029 0.004683 -0.012321
# 2 -0.004659 0.015864 -0.001026 -0.003969 -0.006038 0.005746
# 3 -0.000890 -0.001026 0.011775 0.001009 -0.002377 -0.007289
# 4 -0.002029 -0.003969 0.001009 0.067376 -0.024794 -0.008263
# 5 0.004683 -0.006038 -0.002377 -0.024794 0.033366 -0.003555
# 6 -0.012321 0.005746 -0.007289 -0.008263 -0.003555 0.040240
#
#
# Mechanical properties :
#
#
# Convention : Reuss Voigt Hill
#
# Bulk Modulus (GPa) = 38.98371 68.91155 53.94763
# Shear Modulus (GPa) = 24.81566 44.40786 34.61176
#
# Velocity S-wave (km/s) = 3.09182 4.13600 3.65143
# Velocity P-wave (km/s) = 5.26904 7.02526 6.20955
#
# Compressibility (1/GPa) = 0.02565174
#
# Stress axis : x y z
#
# Youngs Moduli (GPa) = 89.57896 63.03649 84.92253
#
# Poissons Ratio (x) = 0.29370 0.07558
# Poissons Ratio (y) = 0.41737 0.08715
# Poissons Ratio (z) = 0.07972 0.06469
#
# Static dielectric constant tensor:
#      x y z
#    x 2.034100 -0.090250 0.072310 
#    y -0.090250 2.248080 -0.060710 
#    z 0.072310 -0.060710 1.954310 
# 
# From -- ./inp_files/448799.got.cif
#   From: 2010.05.17/outbox.cif.g08.bks.cpg/sg2_225_cif.got.tgz:448799.got - 2010.06.03 11:33:40.
