data_PCOD9080013
_publ_section_title
;
Structure prediction by ZEFSAII (Michael W. Deem and Ramdas Pophale) SiO2 
 PCOD9080013
Probable space group: P -1
;
_chemical_formula_sum "Si O2"
_cell_formula_units_Z 12
_cell_length_a 13.676049
_cell_length_b 16.418606
_cell_length_c 7.506028
_cell_angle_alpha 72.277639
_cell_angle_beta 57.411956
_cell_angle_gamma 22.673704
_cell_volume 440.825553
_symmetry_space_group_name_H-M "P -1"
_symmetry_group_IT_number 2
_symmetry_cell_setting 'triclinic'
loop_
_space_group_symop_operation_xyz
x,y,z
-x,-y,-z
loop_
_atom_site_type_symbol
_atom_site_label
_atom_site_fract_x
_atom_site_fract_y
_atom_site_fract_z
Si Si1 0.032249 0.186175 0.704205
Si Si2 0.195863 0.000102 0.028850
Si Si3 0.887320 0.540398 0.889047
Si Si4 0.726256 0.479902 0.237424
Si Si5 0.235065 0.789203 0.223164
Si Si6 0.128922 0.266231 0.299793
O O1 0.005702 0.125340 0.633975
O O2 0.260211 0.996777 0.774691
O O3 0.178341 0.169098 0.480845
O O4 0.631338 0.486292 0.962929
O O5 0.491460 0.806582 0.018569
O O6 0.870196 0.284141 0.222871
O O7 0.132659 0.943985 0.108644
O O8 0.975954 0.563347 0.669328
O O9 0.954789 0.391355 0.955073
O O10 0.000000 0.500000 0.000000
O O11 0.340984 0.743007 0.351369
O O12 0.800270 0.459312 0.377108
O O13 0.500000 0.000000 0.000000
#
# Coordination Sequence:
#
# PCOD9080013 Si02
#       6
#     2   2   2   2   2   2
#     4  10  22  38  61  86 118 152 194 244 286 343
#     4  10  18  38  61  86 115 152 193 242 291 343
#     4   9  19  35  58  83 117 154 191 235 285 347
#     4   9  19  37  63  81 116 154 192 242 286 341
#     4   9  20  41  60  86 114 151 199 238 291 342
#     4  11  21  39  59  86 119 156 193 237 290 346
#
# _framework density 27.221654000000001
#
# number of rings (size 3 to 8) (size 9 to 14) (size 15 to 20)
#    0.000    2.333    1.667    0.500    0.000    1.333 
#    9.000    5.000    0.000    0.000    0.000    0.000 
#    0.000    0.000    0.000    0.000    0.000    0.000 
#
# Total GULP energy -66982.713443 kJ/mol
# GULP energy per Si atom -5581.892787 kJ/mol
# Density = 2.715970 g / cm^3
# Si number density = 27.221654 Si / 1000 Ang^3
#
#
#
# Elastic Constant Matrix: (Units=GPa)
#
#
# Indices 1 2 3 4 5 6 
#
# 1 128.5029 54.9549 24.1953 -15.9447 -13.7285 -3.3309
# 2 54.9549 168.4296 60.0124 -33.5991 -19.1466 5.3841
# 3 24.1953 60.0124 105.0843 -27.3506 -5.4052 -4.9780
# 4 -15.9447 -33.5991 -27.3506 54.1478 3.5438 -12.8633
# 5 -13.7285 -19.1466 -5.4052 3.5438 23.8074 -13.3533
# 6 -3.3309 5.3841 -4.9780 -12.8633 -13.3533 55.9792
#
#
#
# Elastic Compliance Matrix: (Units=1/GPa)
#
#
# Indices 1 2 3 4 5 6 
#
# 1 0.009536 -0.002299 -0.000137 0.001540 0.004645 0.002238
# 2 -0.002299 0.009126 -0.003628 0.002953 0.005058 0.000548
# 3 -0.000137 -0.003628 0.013081 0.004935 0.000829 0.002836
# 4 0.001540 0.002953 0.004935 0.024607 0.004653 0.007011
# 5 0.004645 0.005058 0.000829 0.004653 0.056302 0.014363
# 6 0.002238 0.000548 0.002836 0.007011 0.014363 0.023234
#
#
# Mechanical properties :
#
#
# Convention : Reuss Voigt Hill
#
# Bulk Modulus (GPa) = 50.97891 75.59357 63.28624
# Shear Modulus (GPa) = 32.35116 44.31048 38.33082
#
# Velocity S-wave (km/s) = 3.45111 4.03894 3.75654
# Velocity P-wave (km/s) = 5.88627 7.04135 6.48956
#
# Compressibility (1/GPa) = 0.01961596
#
# Stress axis : x y z
#
# Youngs Moduli (GPa) = 104.86281 109.57130 76.44572
#
# Poissons Ratio (x) = 0.25190 0.01047
# Poissons Ratio (y) = 0.24107 0.27735
# Poissons Ratio (z) = 0.01436 0.39754
#
# Static dielectric constant tensor:
#      x y z
#    x 2.125180 0.040250 0.075760 
#    y 0.040250 2.097160 0.020920 
#    z 0.075760 0.020920 2.298870 
# 
# From -- ./inp_files/317536.got.cif
#   From: 2010.05.17/outbox.cif.g08.bks.cpg/sg2_159_cif.got.tgz:317536.got - 2010.06.03 11:33:40.
