data_PCOD9080042
_publ_section_title
;
Structure prediction by ZEFSAII (Michael W. Deem and Ramdas Pophale) SiO2 
 PCOD9080042
Probable space group: P -1
;
_chemical_formula_sum "Si O2"
_cell_formula_units_Z 16
_cell_length_a 18.147013
_cell_length_b 24.566204
_cell_length_c 12.368545
_cell_angle_alpha 19.587171
_cell_angle_beta 151.526150
_cell_angle_gamma 153.509937
_cell_volume 800.508543
_symmetry_space_group_name_H-M "P -1"
_symmetry_group_IT_number 2
_symmetry_cell_setting 'triclinic'
loop_
_space_group_symop_operation_xyz
x,y,z
-x,-y,-z
loop_
_atom_site_type_symbol
_atom_site_label
_atom_site_fract_x
_atom_site_fract_y
_atom_site_fract_z
Si Si1 0.404622 0.587339 0.134928
Si Si2 0.017339 0.841501 0.383320
Si Si3 0.671918 0.612290 0.074462
Si Si4 0.995140 0.662666 0.894369
Si Si5 0.487899 0.767960 0.677616
Si Si6 0.147740 0.565437 0.480752
Si Si7 0.628035 0.154244 0.229209
Si Si8 0.230761 0.523103 0.339820
O O1 0.500000 0.500000 0.500000
O O2 0.204755 0.451572 0.129783
O O3 0.466551 0.637701 0.996926
O O4 0.420779 0.775593 0.855435
O O5 0.030881 0.838384 0.537964
O O6 0.847670 0.662549 0.476664
O O7 0.180462 0.831494 0.555066
O O8 0.000000 0.000000 0.000000
O O9 0.824297 0.606006 0.210269
O O10 0.678502 0.494627 0.403351
O O11 0.500000 0.500000 0.000000
O O12 0.645776 0.775736 0.791500
O O13 0.095533 0.666897 0.126957
O O14 0.069143 0.558688 0.102898
O O15 0.321247 0.688773 0.535465
O O16 0.516398 0.959267 0.404100
O O17 0.000000 0.500000 0.500000
O O18 0.641112 0.310380 0.872017
#
# Coordination Sequence:
#
# PCOD9080042 Si02
#       8
#     2   2   2   2   2   2   2   2
#     4  12  23  37  63  90 134 169 212 262 326 386
#     4  11  21  35  64  91 123 160 210 267 319 382
#     4   9  20  37  60  94 121 163 223 256 311 380
#     4  10  20  39  60  93 120 168 215 256 320 378
#     4  11  23  39  61  99 129 169 215 260 324 382
#     4  10  20  40  70  90 126 176 216 263 313 380
#     4  11  22  39  58  93 128 163 209 265 319 388
#     4  10  18  38  62  82 122 165 207 257 327 368
#
# _framework density 19.987295
#
# number of rings (size 3 to 8) (size 9 to 14) (size 15 to 20)
#    0.000    1.500    3.750    2.625    1.750    0.000 
#    0.000   11.250    2.750    0.750    0.000    0.000 
#    0.000    0.000    0.000    0.000    0.000    0.000 
#
# Total GULP energy -89129.793994 kJ/mol
# GULP energy per Si atom -5570.612125 kJ/mol
# Density = 1.994180 g / cm^3
# Si number density = 19.987295 Si / 1000 Ang^3
#
#
#
# Elastic Constant Matrix: (Units=GPa)
#
#
# Indices 1 2 3 4 5 6 
#
# 1 131.5041 39.0512 46.8437 2.3216 5.2092 -5.7071
# 2 39.0512 85.9419 58.3369 11.9601 -11.9740 -7.3804
# 3 46.8437 58.3369 111.3208 11.2620 -14.7763 -10.0353
# 4 2.3216 11.9601 11.2620 38.7750 -4.1989 -4.3493
# 5 5.2092 -11.9740 -14.7763 -4.1989 36.1522 6.8802
# 6 -5.7071 -7.3804 -10.0353 -4.3493 6.8802 23.2993
#
#
#
# Elastic Compliance Matrix: (Units=1/GPa)
#
#
# Indices 1 2 3 4 5 6 
#
# 1 0.009746 -0.002889 -0.003053 0.000948 -0.003775 0.001449
# 2 -0.002889 0.019401 -0.008198 -0.003051 0.003054 0.000436
# 3 -0.003053 -0.008198 0.015321 -0.001136 0.003471 0.002017
# 4 0.000948 -0.003051 -0.001136 0.027510 0.000889 0.003649
# 5 -0.003775 0.003054 0.003471 0.000889 0.032225 -0.007812
# 6 0.001449 0.000436 0.002017 0.003649 -0.007812 0.047270
#
#
# Mechanical properties :
#
#
# Convention : Reuss Voigt Hill
#
# Bulk Modulus (GPa) = 61.77711 68.58115 65.17913
# Shear Modulus (GPa) = 27.00547 31.94765 29.47656
#
# Velocity S-wave (km/s) = 3.67976 4.00233 3.84443
# Velocity P-wave (km/s) = 7.00211 7.46626 7.23791
#
# Compressibility (1/GPa) = 0.01618723
#
# Stress axis : x y z
#
# Youngs Moduli (GPa) = 102.61087 51.54473 65.26850
#
# Poissons Ratio (x) = 0.14893 0.19928
# Poissons Ratio (y) = 0.29647 0.53505
# Poissons Ratio (z) = 0.31329 0.42255
#
# Static dielectric constant tensor:
#      x y z
#    x 1.774990 -0.040950 0.029670 
#    y -0.040950 1.749510 0.018490 
#    z 0.029670 0.018490 1.760750 
# 
# From -- ./inp_files/428952.got.cif
#   From: 2010.05.17/outbox.cif.g08.bks.cpg/sg2_215_cif.got.tgz:428952.got - 2010.06.03 11:33:40.
