data_PCOD9080362
_publ_section_title
;
Structure prediction by ZEFSAII (Michael W. Deem and Ramdas Pophale) SiO2 
 PCOD9080362
Probable space group: P -1
;
_chemical_formula_sum "Si O2"
_cell_formula_units_Z 12
_cell_length_a 7.386536
_cell_length_b 18.636666
_cell_length_c 11.598799
_cell_angle_alpha 146.998228
_cell_angle_beta 37.036586
_cell_angle_gamma 127.651103
_cell_volume 515.394634
_symmetry_space_group_name_H-M "P -1"
_symmetry_group_IT_number 2
_symmetry_cell_setting 'triclinic'
loop_
_space_group_symop_operation_xyz
x,y,z
-x,-y,-z
loop_
_atom_site_type_symbol
_atom_site_label
_atom_site_fract_x
_atom_site_fract_y
_atom_site_fract_z
Si Si1 0.026232 0.793025 0.509264
Si Si2 0.396931 0.744296 0.655351
Si Si3 0.638093 0.086081 0.316955
Si Si4 0.243037 0.887455 0.289462
Si Si5 0.772186 0.505230 0.013955
Si Si6 0.027138 0.292244 0.973846
O O1 0.080683 0.876125 0.705389
O O2 0.133028 0.871347 0.452278
O O3 0.687280 0.765344 0.615455
O O4 0.245960 0.647420 0.206261
O O5 0.347432 0.870758 0.765111
O O6 0.490006 0.614308 0.350273
O O7 0.119632 0.722788 0.848247
O O8 0.341328 0.188157 0.656369
O O9 0.554013 0.942750 0.195987
O O10 0.000000 0.000000 0.500000
O O11 0.787111 0.247854 0.944158
O O12 0.908297 0.566593 0.914783
O O13 0.000000 0.500000 0.000000
#
# Coordination Sequence:
#
# PCOD9080362 Si02
#       6
#     2   2   2   2   2   2
#     4  11  20  39  63  83 116 155 189 237 287 340
#     4  10  21  39  59  88 117 151 190 235 287 337
#     4  10  22  40  58  85 119 153 190 234 286 339
#     4  10  18  39  62  81 114 157 188 234 292 335
#     4   9  18  37  59  86 117 149 190 232 288 340
#     4  10  20  38  62  85 118 153 186 239 286 335
#
# _framework density 23.283131999999998
#
# number of rings (size 3 to 8) (size 9 to 14) (size 15 to 20)
#    0.000    2.000    6.667    0.500    0.000    6.000 
#    3.000    2.500    0.000    0.000    0.000    0.000 
#    0.000    0.000    0.000    0.000    0.000    0.000 
#
# Total GULP energy -67059.342128 kJ/mol
# GULP energy per Si atom -5588.278511 kJ/mol
# Density = 2.323014 g / cm^3
# Si number density = 23.283132 Si / 1000 Ang^3
#
#
#
# Elastic Constant Matrix: (Units=GPa)
#
#
# Indices 1 2 3 4 5 6 
#
# 1 69.4567 33.2405 21.2642 -2.3013 10.6594 12.9204
# 2 33.2405 135.5379 31.4175 -38.8739 -15.5109 -14.3928
# 3 21.2642 31.4175 33.4008 -35.9966 -21.2985 6.7057
# 4 -2.3013 -38.8739 -35.9966 50.5965 -4.4921 12.4917
# 5 10.6594 -15.5109 -21.2985 -4.4921 20.6695 5.6848
# 6 12.9204 -14.3928 6.7057 12.4917 5.6848 24.2753
#
#
#
# Elastic Compliance Matrix: (Units=1/GPa)
#
#
# Indices 1 2 3 4 5 6 
#
# 1 0.018083 -0.006076 0.009360 0.008245 0.003278 -0.020823
# 2 -0.006076 0.012413 -0.007376 0.001359 0.001990 0.011465
# 3 0.009360 -0.007376 -0.012749 -0.019961 -0.031058 0.011712
# 4 0.008245 0.001359 -0.019961 0.003298 -0.024741 0.006028
# 5 0.003278 0.001990 -0.031058 -0.024741 0.005448 0.019470
# 6 -0.020823 0.011465 0.011712 0.006028 0.019470 0.048178
#
#
# Mechanical properties :
#
#
# Convention : Reuss Voigt Hill
#
# Bulk Modulus (GPa) = 104.56706 45.58219 75.07463
# Shear Modulus (GPa) = 58.11135 29.27314 43.69224
#
# Velocity S-wave (km/s) = 5.00127 3.54964 4.33663
# Velocity P-wave (km/s) = 8.85206 6.03488 7.57558
#
# Compressibility (1/GPa) = 0.00956324
#
# Stress axis : x y z
#
# Youngs Moduli (GPa) = 55.29979 80.56216 -78.43481
#
# Poissons Ratio (x) = 0.48946 0.73411
# Poissons Ratio (y) = 0.33598 -0.57851
# Poissons Ratio (z) = -0.51758 0.59420
#
# Static dielectric constant tensor:
#      x y z
#    x 1.925780 0.044730 -0.045690 
#    y 0.044730 1.852200 0.022180 
#    z -0.045690 0.022180 1.984690 
# 
# From -- ./inp_files/401396.got.cif
#   From: 2010.05.17/outbox.cif.g08.bks.cpg/sg2_201_cif.got.tgz:401396.got - 2010.06.03 11:33:40.
