data_PCOD9080927
_publ_section_title
;
Structure prediction by ZEFSAII (Michael W. Deem and Ramdas Pophale) SiO2 
 PCOD9080927
Probable space group: P -1
;
_chemical_formula_sum "Si O2"
_cell_formula_units_Z 14
_cell_length_a 5.355434
_cell_length_b 13.071752
_cell_length_c 23.231486
_cell_angle_alpha 145.038172
_cell_angle_beta 74.894416
_cell_angle_gamma 92.405922
_cell_volume 855.358220
_symmetry_space_group_name_H-M "P -1"
_symmetry_group_IT_number 2
_symmetry_cell_setting 'triclinic'
loop_
_space_group_symop_operation_xyz
x,y,z
-x,-y,-z
loop_
_atom_site_type_symbol
_atom_site_label
_atom_site_fract_x
_atom_site_fract_y
_atom_site_fract_z
Si Si1 0.140698 0.793850 0.372660
Si Si2 0.550053 0.669288 0.195705
Si Si3 0.875219 0.724687 0.103394
Si Si4 0.598889 0.969116 0.913556
Si Si5 0.553394 0.277689 0.967997
Si Si6 0.864687 0.172539 0.131340
Si Si7 0.270928 0.428519 0.737060
O O1 0.280343 0.793891 0.301664
O O2 0.407545 0.680872 0.341609
O O3 0.924178 0.681382 0.327355
O O4 0.000000 0.000000 0.500000
O O5 0.694659 0.781059 0.197686
O O6 0.747652 0.570920 0.191697
O O7 0.487108 0.499845 0.087040
O O8 0.668504 0.758681 0.078022
O O9 0.139301 0.789847 0.107189
O O10 0.000000 0.500000 0.000000
O O11 0.412483 0.858210 0.845285
O O12 0.913904 0.851010 0.843192
O O13 0.553773 0.165769 0.975291
O O14 0.500000 0.000000 0.000000
O O15 0.809271 0.364873 0.188861
O O16 0.000000 0.000000 0.000000
#
# Coordination Sequence:
#
# PCOD9080927 Si02
#       7
#     2   2   2   2   2   2   2
#     4  10  22  35  52  75 105 135 177 217 257 301
#     4   9  21  30  54  68 104 138 172 205 256 295
#     4  10  21  32  46  71 102 138 182 200 238 307
#     4  10  20  30  46  67 103 134 170 199 242 295
#     4  11  21  32  47  72 107 142 170 203 243 304
#     4  10  19  30  47  73 101 132 170 196 244 318
#     4  10  21  32  54  73 106 138 168 206 267 297
#
# _framework density 16.367411000000001
#
# number of rings (size 3 to 8) (size 9 to 14) (size 15 to 20)
#    0.857    1.143    0.000    5.571   10.000    0.000 
#    0.000    0.000    0.000    0.000    0.000    0.000 
#    0.000   22.857    0.000    0.000    0.000    0.000 
#
# Total GULP energy -77947.862533 kJ/mol
# GULP energy per Si atom -5567.704467 kJ/mol
# Density = 1.633016 g / cm^3
# Si number density = 16.367411 Si / 1000 Ang^3
#
#
#
# Elastic Constant Matrix: (Units=GPa)
#
#
# Indices 1 2 3 4 5 6 
#
# 1 141.3817 17.8679 25.1263 5.5901 3.4309 -4.3220
# 2 17.8679 63.8222 11.6464 2.9680 -5.9316 -1.4635
# 3 25.1263 11.6464 63.0331 8.9205 -10.0665 4.6970
# 4 5.5901 2.9680 8.9205 14.1842 1.7175 -1.2431
# 5 3.4309 -5.9316 -10.0665 1.7175 14.5074 5.0076
# 6 -4.3220 -1.4635 4.6970 -1.2431 5.0076 24.1560
#
#
#
# Elastic Compliance Matrix: (Units=1/GPa)
#
#
# Indices 1 2 3 4 5 6 
#
# 1 0.008431 -0.002192 -0.004657 0.001335 -0.007637 0.003933
# 2 -0.002192 0.017252 -0.000440 -0.003545 0.008072 -0.001117
# 3 -0.004657 -0.000440 0.025124 -0.017873 0.024527 -0.011749
# 4 0.001335 -0.003545 -0.017873 0.086732 -0.029279 0.014032
# 5 -0.007637 0.008072 0.024527 -0.029279 0.104466 -0.028809
# 6 0.003933 -0.001117 -0.011749 0.014032 -0.028809 0.051013
#
#
# Mechanical properties :
#
#
# Convention : Reuss Voigt Hill
#
# Bulk Modulus (GPa) = 27.60222 41.94645 34.77434
# Shear Modulus (GPa) = 15.64103 24.80927 20.22515
#
# Velocity S-wave (km/s) = 3.09466 3.89752 3.51906
# Velocity P-wave (km/s) = 5.44702 6.77775 6.14849
#
# Compressibility (1/GPa) = 0.03622897
#
# Stress axis : x y z
#
# Youngs Moduli (GPa) = 118.61614 57.96451 39.80215
#
# Poissons Ratio (x) = 0.12706 0.18537
# Poissons Ratio (y) = 0.26001 0.01750
# Poissons Ratio (z) = 0.55242 0.02548
#
# Static dielectric constant tensor:
#      x y z
#    x 1.532490 0.006880 -0.012850 
#    y 0.006880 1.564860 -0.027260 
#    z -0.012850 -0.027260 1.518370 
# 
# From -- ./inp_files/75476.got.cif
#   From: 2010.05.17/outbox.cif.g08.bks.cpg/sg2_38_cif.got.tgz:75476.got - 2010.06.03 11:33:40.
