data_PCOD9080831
_publ_section_title
;
Structure prediction by ZEFSAII (Michael W. Deem and Ramdas Pophale) SiO2 
 PCOD9080831
Probable space group: P -1
;
_chemical_formula_sum "Si O2"
_cell_formula_units_Z 16
_cell_length_a 17.193240
_cell_length_b 5.213025
_cell_length_c 28.413258
_cell_angle_alpha 68.181733
_cell_angle_beta 21.810021
_cell_angle_gamma 70.418082
_cell_volume 878.017949
_symmetry_space_group_name_H-M "P -1"
_symmetry_group_IT_number 2
_symmetry_cell_setting 'triclinic'
loop_
_space_group_symop_operation_xyz
x,y,z
-x,-y,-z
loop_
_atom_site_type_symbol
_atom_site_label
_atom_site_fract_x
_atom_site_fract_y
_atom_site_fract_z
Si Si1 0.295121 0.676706 0.609730
Si Si2 0.117921 0.153340 0.613408
Si Si3 0.647023 0.999269 0.194179
Si Si4 0.930733 0.345427 0.794512
Si Si5 0.185847 0.757107 0.769195
Si Si6 0.270536 0.112193 0.116815
Si Si7 0.537878 0.594735 0.658878
Si Si8 0.998211 0.163502 0.917646
O O1 0.500000 0.500000 0.500000
O O2 0.280769 0.807398 0.660801
O O3 0.103039 0.455718 0.726649
O O4 0.257738 0.919625 0.576269
O O5 0.239714 0.291788 0.492764
O O6 0.061009 0.378396 0.669858
O O7 0.890118 0.005342 0.744704
O O8 0.494447 0.732013 0.294368
O O9 0.828862 0.921853 0.134718
O O10 0.530559 0.251571 0.265985
O O11 0.772647 0.075994 0.071076
O O12 0.746683 0.559735 0.891854
O O13 0.836288 0.035300 0.859815
O O14 0.374437 0.680612 0.703691
O O15 0.031746 0.489397 0.871388
O O16 0.060981 0.998812 0.847256
O O17 0.500000 0.000000 0.000000
#
# Coordination Sequence:
#
# PCOD9080831 Si02
#       8
#     2   2   2   2   2   2   2   2
#     4  11  23  33  47  67 105 141 169 204 227 272
#     4   9  22  32  47  71 102 124 172 192 238 288
#     4   9  18  30  47  59  86 112 159 211 247 271
#     4   9  20  33  47  70  95 126 166 197 235 280
#     4  10  21  29  47  60  88 128 169 196 238 264
#     4   9  18  34  53  68  91 129 164 201 246 286
#     4  10  19  29  45  67  87 126 154 198 244 285
#     4   9  18  33  43  63  78 116 170 208 236 283
#
# _framework density 18.222861999999999
#
# number of rings (size 3 to 8) (size 9 to 14) (size 15 to 20)
#    0.750    1.750    0.000    1.875   10.500    4.000 
#    0.000    0.000    0.000    0.000    0.000    0.000 
#    0.000    0.000    0.000   51.750    0.000    0.000 
#
# Total GULP energy -89083.510190 kJ/mol
# GULP energy per Si atom -5567.719387 kJ/mol
# Density = 1.818139 g / cm^3
# Si number density = 18.222862 Si / 1000 Ang^3
#
#
#
# Elastic Constant Matrix: (Units=GPa)
#
#
# Indices 1 2 3 4 5 6 
#
# 1 20.8767 14.8895 15.1105 8.7596 1.0524 9.3884
# 2 14.8895 100.5920 27.9495 11.5179 5.4618 20.7199
# 3 15.1105 27.9495 93.6968 6.6194 3.5820 -3.7597
# 4 8.7596 11.5179 6.6194 34.9794 0.6227 2.1432
# 5 1.0524 5.4618 3.5820 0.6227 24.8716 7.0289
# 6 9.3884 20.7199 -3.7597 2.1432 7.0289 21.5838
#
#
#
# Elastic Compliance Matrix: (Units=1/GPa)
#
#
# Indices 1 2 3 4 5 6 
#
# 1 0.082389 0.001832 -0.014787 -0.016051 0.010513 -0.042001
# 2 0.001832 0.014709 -0.005174 -0.003370 0.002090 -0.016165
# 3 -0.014787 -0.005174 0.015291 0.001651 -0.004856 0.015479
# 4 -0.016051 -0.003370 0.001651 0.032958 -0.001858 0.007837
# 5 0.010513 0.002090 -0.004856 -0.001858 0.046362 -0.022339
# 6 -0.042001 -0.016165 0.015479 0.007837 -0.022339 0.089311
#
#
# Mechanical properties :
#
#
# Convention : Reuss Voigt Hill
#
# Bulk Modulus (GPa) = 13.13502 36.78496 24.95999
# Shear Modulus (GPa) = 14.59195 26.76805 20.68000
#
# Velocity S-wave (km/s) = 2.83282 3.83682 3.37239
# Velocity P-wave (km/s) = 4.23361 6.31333 5.37502
#
# Compressibility (1/GPa) = 0.07613234
#
# Stress axis : x y z
#
# Youngs Moduli (GPa) = 12.13749 67.98334 65.39870
#
# Poissons Ratio (x) = -0.12452 0.96703
# Poissons Ratio (y) = -0.02223 0.33835
# Poissons Ratio (z) = 0.17947 0.35172
#
# Static dielectric constant tensor:
#      x y z
#    x 1.647740 0.001330 -0.000720 
#    y 0.001330 1.642260 -0.019970 
#    z -0.000720 -0.019970 1.633360 
# 
# From -- ./inp_files/620041.got.cif
#   From: 2010.05.17/outbox.cif.g08.bks.cpg/sg2_311_cif.got.tgz:620041.got - 2010.06.03 11:33:40.
