data_PCOD9080293
_publ_section_title
;
Structure prediction by ZEFSAII (Michael W. Deem and Ramdas Pophale) SiO2 
 PCOD9080293
Probable space group: P -1
;
_chemical_formula_sum "Si O2"
_cell_formula_units_Z 16
_cell_length_a 24.990883
_cell_length_b 8.357537
_cell_length_c 12.371057
_cell_angle_alpha 146.093074
_cell_angle_beta 26.254871
_cell_angle_gamma 140.049786
_cell_volume 635.015195
_symmetry_space_group_name_H-M "P -1"
_symmetry_group_IT_number 2
_symmetry_cell_setting 'triclinic'
loop_
_space_group_symop_operation_xyz
x,y,z
-x,-y,-z
loop_
_atom_site_type_symbol
_atom_site_label
_atom_site_fract_x
_atom_site_fract_y
_atom_site_fract_z
Si Si1 0.204644 0.930635 0.852557
Si Si2 0.405734 0.543426 0.292904
Si Si3 0.650738 0.377390 0.181518
Si Si4 0.078360 0.743758 0.179082
Si Si5 0.848769 0.347522 0.425469
Si Si6 0.714118 0.873425 0.868574
Si Si7 0.522159 0.682680 0.741627
Si Si8 0.860810 0.439187 0.684800
O O1 0.337343 0.830954 0.578067
O O2 0.177939 0.881927 0.747993
O O3 0.108643 0.742635 0.996874
O O4 0.184445 0.255907 0.096456
O O5 0.296821 0.292663 0.321546
O O6 0.469703 0.497128 0.264328
O O7 0.500000 0.500000 0.000000
O O8 0.640870 0.636197 0.428087
O O9 0.576947 0.414803 0.224999
O O10 0.782370 0.333471 0.869650
O O11 0.603956 0.079033 0.159714
O O12 0.989880 0.473232 0.225465
O O13 0.204225 0.866029 0.073534
O O14 0.000000 0.000000 0.500000
O O15 0.756990 0.597429 0.703683
O O16 0.836943 0.247975 0.514305
O O17 0.500000 0.000000 0.000000
O O18 0.000000 0.500000 0.500000
#
# Coordination Sequence:
#
# PCOD9080293 Si02
#       8
#     2   2   2   2   2   2   2   2
#     4  11  24  43  69 104 134 182 237 279 355 403
#     4  11  26  43  75 103 137 179 237 298 341 407
#     4  11  26  43  73  98 145 190 226 287 360 412
#     4  10  18  38  69  94 137 172 226 284 328 415
#     4  10  23  41  71  99 135 181 233 283 336 416
#     4  10  20  42  67  99 129 180 229 274 349 409
#     4  11  25  47  68 105 139 184 238 285 355 415
#     4  12  27  45  67 105 146 183 228 291 353 420
#
# _framework density 25.196245999999999
#
# number of rings (size 3 to 8) (size 9 to 14) (size 15 to 20)
#    0.000    1.250    3.750    1.875    7.000    0.500 
#    0.000    1.875    0.000    0.000    0.000    0.000 
#    0.000    0.000    0.000    0.000    0.000    0.000 
#
# Total GULP energy -89115.708346 kJ/mol
# GULP energy per Si atom -5569.731772 kJ/mol
# Density = 2.513890 g / cm^3
# Si number density = 25.196246 Si / 1000 Ang^3
#
#
#
# Elastic Constant Matrix: (Units=GPa)
#
#
# Indices 1 2 3 4 5 6 
#
# 1 146.3038 -0.7941 45.6344 -1.6384 29.5058 -3.1501
# 2 -0.7941 33.7864 25.2619 -13.0468 5.9966 4.7039
# 3 45.6344 25.2619 130.4318 -11.3069 22.4279 -5.8079
# 4 -1.6384 -13.0468 -11.3069 36.6010 -8.4226 6.1146
# 5 29.5058 5.9966 22.4279 -8.4226 49.8257 -6.9837
# 6 -3.1501 4.7039 -5.8079 6.1146 -6.9837 20.5850
#
#
#
# Elastic Compliance Matrix: (Units=1/GPa)
#
#
# Indices 1 2 3 4 5 6 
#
# 1 0.008654 0.003504 -0.003025 -0.000015 -0.004444 -0.001833
# 2 0.003504 0.045662 -0.008913 0.015951 -0.003429 -0.018314
# 3 -0.003025 -0.008913 0.010826 -0.001067 -0.001571 0.004412
# 4 -0.000015 0.015951 -0.001067 0.035565 0.002674 -0.013605
# 5 -0.004444 -0.003429 -0.001571 0.002674 0.025319 0.007456
# 6 -0.001833 -0.018314 0.004412 -0.013605 0.007456 0.060299
#
#
# Mechanical properties :
#
#
# Convention : Reuss Voigt Hill
#
# Bulk Modulus (GPa) = 20.71532 50.08068 35.39800
# Shear Modulus (GPa) = 22.80142 37.43035 30.11588
#
# Velocity S-wave (km/s) = 3.01151 3.85847 3.46099
# Velocity P-wave (km/s) = 4.50907 6.30633 5.48185
#
# Compressibility (1/GPa) = 0.04827345
#
# Stress axis : x y z
#
# Youngs Moduli (GPa) = 115.54818 21.90007 92.37404
#
# Poissons Ratio (x) = -0.07673 0.27945
# Poissons Ratio (y) = -0.40485 0.82331
# Poissons Ratio (z) = 0.34956 0.19519
#
# Static dielectric constant tensor:
#      x y z
#    x 2.059970 -0.033150 -0.087960 
#    y -0.033150 2.473460 -0.167370 
#    z -0.087960 -0.167370 2.066440 
# 
# From -- ./inp_files/474337.got.cif
#   From: 2010.05.17/outbox.cif.g08.bks.cpg/sg2_238_cif.got.tgz:474337.got - 2010.06.03 11:33:40.
