data_PCOD9080973
_publ_section_title
;
Structure prediction by ZEFSAII (Michael W. Deem and Ramdas Pophale) SiO2 
 PCOD9080973
Probable space group: P -1
;
_chemical_formula_sum "Si O2"
_cell_formula_units_Z 14
_cell_length_a 8.422459
_cell_length_b 19.714112
_cell_length_c 9.604809
_cell_angle_alpha 160.234896
_cell_angle_beta 97.124525
_cell_angle_gamma 85.663527
_cell_volume 531.109032
_symmetry_space_group_name_H-M "P -1"
_symmetry_group_IT_number 2
_symmetry_cell_setting 'triclinic'
loop_
_space_group_symop_operation_xyz
x,y,z
-x,-y,-z
loop_
_atom_site_type_symbol
_atom_site_label
_atom_site_fract_x
_atom_site_fract_y
_atom_site_fract_z
Si Si1 0.836890 0.962570 0.103071
Si Si2 0.185273 0.942881 0.205937
Si Si3 0.143997 0.454221 0.289510
Si Si4 0.190366 0.484147 0.679398
Si Si5 0.536921 0.479691 0.690422
Si Si6 0.642449 0.123080 0.169465
Si Si7 0.626746 0.902951 0.228931
O O1 0.704629 0.988207 0.257491
O O2 0.020245 0.001799 0.243314
O O3 0.798229 0.096960 0.228177
O O4 0.814365 0.714756 0.607843
O O5 0.219581 0.051462 0.565038
O O6 0.165606 0.700674 0.759073
O O7 0.322489 0.974269 0.163383
O O8 0.159386 0.413090 0.376510
O O9 0.299587 0.399718 0.116414
O O10 0.966171 0.399279 0.096803
O O11 0.376289 0.584024 0.903436
O O12 0.594680 0.345095 0.562517
O O13 0.467749 0.313603 0.244778
O O14 0.500000 0.000000 0.000000
O O15 0.500000 0.000000 0.500000
#
# Coordination Sequence:
#
# PCOD9080973 Si02
#       7
#     2   2   2   2   2   2   2
#     4  10  20  31  48  72  98 126 159 194 240 286
#     4  10  20  31  48  72  98 126 159 194 240 286
#     4   9  17  29  45  68  96 124 157 196 234 278
#     4   9  17  29  45  68  96 124 157 196 234 278
#     4  10  19  30  50  70  99 124 158 192 246 276
#     4  11  17  31  46  69  99 127 154 196 239 283
#     4  11  17  31  46  69  99 127 154 196 239 283
#
# _framework density 26.359935
#
# number of rings (size 3 to 8) (size 9 to 14) (size 15 to 20)
#    0.000    2.000    5.714    1.286    0.000    0.000 
#    0.000    0.000    0.000    0.000    0.000   17.000 
#    0.000   59.429    0.000    0.000    0.000    0.000 
#
# Total GULP energy -78236.846634 kJ/mol
# GULP energy per Si atom -5588.346188 kJ/mol
# Density = 2.629994 g / cm^3
# Si number density = 26.359935 Si / 1000 Ang^3
#
#
#
# Elastic Constant Matrix: (Units=GPa)
#
#
# Indices 1 2 3 4 5 6 
#
# 1 193.8861 19.3966 2.8105 0.9725 -10.5903 -13.6241
# 2 19.3966 103.9975 4.0334 -4.3320 0.1066 -13.0514
# 3 2.8105 4.0334 67.4031 5.5534 -16.3449 4.7984
# 4 0.9725 -4.3320 5.5534 25.1359 -5.4051 -1.1491
# 5 -10.5903 0.1066 -16.3449 -5.4051 12.4750 -0.6424
# 6 -13.6241 -13.0514 4.7984 -1.1491 -0.6424 66.3537
#
#
#
# Elastic Compliance Matrix: (Units=1/GPa)
#
#
# Indices 1 2 3 4 5 6 
#
# 1 0.005685 -0.000965 0.001402 0.000874 0.007099 0.000960
# 2 -0.000965 0.010160 -0.001259 0.001792 -0.001680 0.001906
# 3 0.001402 -0.001259 0.022351 0.001406 0.031030 -0.001251
# 4 0.000874 0.001792 0.001406 0.044530 0.021936 0.001414
# 5 0.007099 -0.001680 0.031030 0.021936 0.136391 0.000584
# 6 0.000960 0.001906 -0.001251 0.001414 0.000584 0.015763
#
#
# Mechanical properties :
#
#
# Convention : Reuss Voigt Hill
#
# Bulk Modulus (GPa) = 27.35831 46.41864 36.88847
# Shear Modulus (GPa) = 20.10397 43.39601 31.74999
#
# Velocity S-wave (km/s) = 2.76465 4.06185 3.47433
# Velocity P-wave (km/s) = 4.53787 6.29650 5.48809
#
# Compressibility (1/GPa) = 0.03655196
#
# Stress axis : x y z
#
# Youngs Moduli (GPa) = 175.91032 98.42525 44.74121
#
# Poissons Ratio (x) = 0.09498 -0.06272
# Poissons Ratio (y) = 0.16976 0.05631
# Poissons Ratio (z) = -0.24660 0.12387
#
# Static dielectric constant tensor:
#      x y z
#    x 2.193030 -0.082660 -0.059920 
#    y -0.082660 2.091410 0.075530 
#    z -0.059920 0.075530 2.120800 
# 
# From -- ./inp_files/179018.got.cif
#   From: 2010.05.17/outbox.cif.g08.bks.cpg/sg2_90_cif.got.tgz:179018.got - 2010.06.03 11:33:40.
