data_PCOD9080971
_publ_section_title
;
Structure prediction by ZEFSAII (Michael W. Deem and Ramdas Pophale) SiO2 
 PCOD9080971
Probable space group: P -1
;
_chemical_formula_sum "Si O2"
_cell_formula_units_Z 15
_cell_length_a 5.233731
_cell_length_b 10.558677
_cell_length_c 24.049227
_cell_angle_alpha 148.027810
_cell_angle_beta 116.805063
_cell_angle_gamma 66.056665
_cell_volume 627.331480
_symmetry_space_group_name_H-M "P -1"
_symmetry_group_IT_number 2
_symmetry_cell_setting 'triclinic'
loop_
_space_group_symop_operation_xyz
x,y,z
-x,-y,-z
loop_
_atom_site_type_symbol
_atom_site_label
_atom_site_fract_x
_atom_site_fract_y
_atom_site_fract_z
Si Si1 0.583036 0.478126 0.934943
Si Si2 0.530335 0.391979 0.650562
Si Si3 0.883429 0.897361 0.141607
Si Si4 0.257127 0.050028 0.725261
Si Si5 0.861178 0.805982 0.373765
Si Si6 0.500000 0.500000 0.500000
Si Si7 0.300451 0.300695 0.316749
Si Si8 0.657347 0.868820 0.570821
O O1 0.861162 0.298312 0.891334
O O2 0.349551 0.320329 0.824128
O O3 0.500000 0.500000 0.000000
O O4 0.667398 0.745680 0.026972
O O5 0.316035 0.382788 0.677781
O O6 0.567064 0.620038 0.698657
O O7 0.415572 0.196858 0.523557
O O8 0.858973 0.323331 0.673993
O O9 0.744680 0.960058 0.210526
O O10 0.051234 0.118462 0.216904
O O11 0.477503 0.811611 0.653569
O O12 0.945700 0.002113 0.656646
O O13 0.614721 0.956345 0.371132
O O14 0.000000 0.000000 0.500000
O O15 0.219611 0.524885 0.431710
O O16 0.695087 0.628203 0.519770
#
# Coordination Sequence:
#
# PCOD9080971 Si02
#       8
#     2   2   2   2   2   1   2   2
#     4   8  16  30  50  71 107 138 172 210 268 348
#     4  10  23  37  55  75 106 153 198 225 259 314
#     4   9  16  32  48  74 110 137 171 217 272 339
#     4  10  19  30  49  83 106 138 174 223 289 330
#     4  10  21  39  55  72 100 152 200 232 258 306
#     4  10  20  32  44  78 108 142 166 218 278 326
#     4  10  21  31  51  77 112 145 181 223 274 330
#     4  10  20  33  52  75 110 141 181 228 273 322
#
# _framework density 23.910800999999999
#
# number of rings (size 3 to 8) (size 9 to 14) (size 15 to 20)
#    0.000    2.400    1.333    1.600    1.867    7.467 
#    0.000    0.000    0.000    0.000    0.000    1.867 
#    0.000    0.000    0.000    0.000    0.000    0.000 
#
# Total GULP energy -83523.851112 kJ/mol
# GULP energy per Si atom -5568.256741 kJ/mol
# Density = 2.385638 g / cm^3
# Si number density = 23.910801 Si / 1000 Ang^3
#
#
#
# Elastic Constant Matrix: (Units=GPa)
#
#
# Indices 1 2 3 4 5 6 
#
# 1 88.5524 27.7866 37.9583 7.1857 33.1864 -5.3464
# 2 27.7866 110.9285 27.0364 14.9306 23.6203 8.3483
# 3 37.9583 27.0364 148.4199 18.5240 54.6569 3.8723
# 4 7.1857 14.9306 18.5240 20.0227 9.7083 14.9088
# 5 33.1864 23.6203 54.6569 9.7083 61.2645 7.1333
# 6 -5.3464 8.3483 3.8723 14.9088 7.1333 47.6328
#
#
#
# Elastic Compliance Matrix: (Units=1/GPa)
#
#
# Indices 1 2 3 4 5 6 
#
# 1 0.015324 -0.002111 -0.000761 -0.002972 -0.006815 0.004103
# 2 -0.002111 0.010835 0.000190 -0.006625 -0.002183 0.000249
# 3 -0.000761 0.000190 0.010939 -0.007915 -0.008485 0.002740
# 4 -0.002972 -0.006625 -0.007915 0.080459 0.001258 -0.023901
# 5 -0.006815 -0.002183 -0.008485 0.001258 0.028737 -0.004390
# 6 0.004103 0.000249 0.002740 -0.023901 -0.004390 0.029326
#
#
# Mechanical properties :
#
#
# Convention : Reuss Voigt Hill
#
# Bulk Modulus (GPa) = 31.51116 59.27370 45.39243
# Shear Modulus (GPa) = 26.10134 42.79196 34.44665
#
# Velocity S-wave (km/s) = 3.30754 4.23501 3.79968
# Velocity P-wave (km/s) = 5.27197 6.98263 6.18671
#
# Compressibility (1/GPa) = 0.03173479
#
# Stress axis : x y z
#
# Youngs Moduli (GPa) = 65.25641 92.29409 91.42006
#
# Poissons Ratio (x) = 0.19480 0.06958
# Poissons Ratio (y) = 0.13774 -0.01741
# Poissons Ratio (z) = 0.04967 -0.01757
#
# Static dielectric constant tensor:
#      x y z
#    x -8.655590 9.768050 12.661950 
#    y 9.768050 -6.750150 -11.447050 
#    z 12.661950 -11.447050 -12.746680 
# 
# From -- ./inp_files/80393.got.cif
#   From: 2010.05.17/outbox.cif.g08.bks.cpg/sg2_41_cif.got.tgz:80393.got - 2010.06.03 11:33:40.
