data_PCOD9080070
_publ_section_title
;
Structure prediction by ZEFSAII (Michael W. Deem and Ramdas Pophale) SiO2 
 PCOD9080070
Probable space group: P -1
;
_chemical_formula_sum "Si O2"
_cell_formula_units_Z 15
_cell_length_a 11.662060
_cell_length_b 8.414878
_cell_length_c 8.252176
_cell_angle_alpha 105.279372
_cell_angle_beta 125.913052
_cell_angle_gamma 65.945313
_cell_volume 598.598177
_symmetry_space_group_name_H-M "P -1"
_symmetry_group_IT_number 2
_symmetry_cell_setting 'triclinic'
loop_
_space_group_symop_operation_xyz
x,y,z
-x,-y,-z
loop_
_atom_site_type_symbol
_atom_site_label
_atom_site_fract_x
_atom_site_fract_y
_atom_site_fract_z
Si Si1 0.345690 0.716643 0.025339
Si Si2 0.178831 0.846872 0.438274
Si Si3 0.000000 0.500000 0.500000
Si Si4 0.197580 0.050447 0.186438
Si Si5 0.860336 0.844082 0.285782
Si Si6 0.443719 0.584960 0.715985
Si Si7 0.925425 0.375741 0.088965
Si Si8 0.713230 0.687202 0.840974
O O1 0.475558 0.617841 0.233496
O O2 0.262430 0.913384 0.059191
O O3 0.415286 0.671978 0.894475
O O4 0.214133 0.629747 0.914213
O O5 0.288527 0.653299 0.512421
O O6 0.008654 0.854020 0.320388
O O7 0.211971 0.931193 0.323475
O O8 0.209748 0.969312 0.638080
O O9 0.914975 0.707086 0.441364
O O10 0.014541 0.459042 0.305856
O O11 0.285771 0.189387 0.275393
O O12 0.027402 0.183355 0.073729
O O13 0.754853 0.781383 0.060709
O O14 0.559510 0.652669 0.731951
O O15 0.847021 0.502496 0.912471
#
# Coordination Sequence:
#
# PCOD9080070 Si02
#       8
#     2   2   1   2   2   2   2   2
#     4  10  23  41  71  90 126 172 222 259 319 385
#     4  11  24  39  65  94 135 164 217 262 322 380
#     4  10  18  38  62  92 130 156 210 258 324 364
#     4  12  24  39  65 101 130 165 210 280 321 375
#     4  10  22  40  63  99 122 175 211 265 311 387
#     4  10  23  47  63  92 127 178 216 256 314 404
#     4  10  21  40  65  99 127 167 214 272 318 381
#     4  10  24  41  67  92 132 170 216 258 327 379
#
# _framework density 25.058547000000001
#
# number of rings (size 3 to 8) (size 9 to 14) (size 15 to 20)
#    0.000    1.600    1.333    2.400    5.600    4.267 
#    2.400    0.000    2.933    0.000    0.000    0.000 
#    0.000    0.000    0.000    0.000    0.000    0.000 
#
# Total GULP energy -83694.202656 kJ/mol
# GULP energy per Si atom -5579.613510 kJ/mol
# Density = 2.500151 g / cm^3
# Si number density = 25.058547 Si / 1000 Ang^3
#
#
#
# Elastic Constant Matrix: (Units=GPa)
#
#
# Indices 1 2 3 4 5 6 
#
# 1 87.3856 23.4393 11.4373 -15.3746 -16.6168 -6.2867
# 2 23.4393 111.2943 27.5868 -12.6841 -2.4642 -14.6808
# 3 11.4373 27.5868 83.0659 -2.9649 -14.1083 -5.4435
# 4 -15.3746 -12.6841 -2.9649 32.0635 8.0620 -17.3067
# 5 -16.6168 -2.4642 -14.1083 8.0620 25.3606 -5.4460
# 6 -6.2867 -14.6808 -5.4435 -17.3067 -5.4460 40.8028
#
#
#
# Elastic Compliance Matrix: (Units=1/GPa)
#
#
# Indices 1 2 3 4 5 6 
#
# 1 0.015384 -0.001383 0.000616 0.008179 0.009114 0.006641
# 2 -0.001383 0.011863 -0.003513 0.007973 -0.002827 0.006591
# 3 0.000616 -0.003513 0.014692 -0.001181 0.008929 0.001482
# 4 0.008179 0.007973 -0.001181 0.053664 -0.006014 0.025931
# 5 0.009114 -0.002827 0.008929 -0.006014 0.053327 0.006145
# 6 0.006641 0.006591 0.001482 0.025931 0.006145 0.039919
#
#
# Mechanical properties :
#
#
# Convention : Reuss Voigt Hill
#
# Bulk Modulus (GPa) = 29.95849 45.18586 37.57218
# Shear Modulus (GPa) = 23.97690 34.26421 29.12055
#
# Velocity S-wave (km/s) = 3.09663 3.70180 3.41266
# Velocity P-wave (km/s) = 4.97663 6.02846 5.52762
#
# Compressibility (1/GPa) = 0.03337951
#
# Stress axis : x y z
#
# Youngs Moduli (GPa) = 65.00401 84.29778 68.06407
#
# Poissons Ratio (x) = 0.11655 -0.04193
# Poissons Ratio (y) = 0.08988 0.23910
# Poissons Ratio (z) = -0.04005 0.29613
#
# Static dielectric constant tensor:
#      x y z
#    x 1.964030 0.017430 0.005760 
#    y 0.017430 2.025100 0.023020 
#    z 0.005760 0.023020 2.010280 
# 
# From -- ./inp_files/213060.got.cif
#   From: 2010.05.17/outbox.cif.g08.bks.cpg/sg2_107_cif.got.tgz:213060.got - 2010.06.03 11:33:40.
