data_PCOD9080442
_publ_section_title
;
Structure prediction by ZEFSAII (Michael W. Deem and Ramdas Pophale) SiO2 
 PCOD9080442
Probable space group: P -1
;
_chemical_formula_sum "Si O2"
_cell_formula_units_Z 14
_cell_length_a 11.858299
_cell_length_b 14.235511
_cell_length_c 11.257649
_cell_angle_alpha 140.717000
_cell_angle_beta 52.447582
_cell_angle_gamma 149.350775
_cell_volume 603.944932
_symmetry_space_group_name_H-M "P -1"
_symmetry_group_IT_number 2
_symmetry_cell_setting 'triclinic'
loop_
_space_group_symop_operation_xyz
x,y,z
-x,-y,-z
loop_
_atom_site_type_symbol
_atom_site_label
_atom_site_fract_x
_atom_site_fract_y
_atom_site_fract_z
Si Si1 0.454099 0.791310 0.834341
Si Si2 0.896486 0.180492 0.276326
Si Si3 0.416355 0.792241 0.125047
Si Si4 0.757882 0.822431 0.544652
Si Si5 0.393677 0.117884 0.503843
Si Si6 0.808795 0.425033 0.703953
Si Si7 0.108892 0.308214 0.488451
O O1 0.685412 0.899656 0.751768
O O2 0.246474 0.571872 0.670502
O O3 0.381608 0.700046 0.927112
O O4 0.500000 0.000000 0.000000
O O5 0.859332 0.302707 0.496912
O O6 0.008324 0.317409 0.215059
O O7 0.063677 0.227041 0.301440
O O8 0.651453 0.922039 0.153164
O O9 0.227508 0.608489 0.165028
O O10 0.440265 0.991576 0.295602
O O11 0.601868 0.740418 0.451524
O O12 0.745964 0.678466 0.504309
O O13 0.000000 0.000000 0.500000
O O14 0.573195 0.279305 0.650625
O O15 0.140775 0.898827 0.499613
#
# Coordination Sequence:
#
# PCOD9080442 Si02
#       7
#     2   2   2   2   2   2   2
#     4  12  26  41  64 102 136 165 219 283 330 375
#     4  10  20  36  65  94 123 181 223 259 320 404
#     4  11  21  39  61  97 142 156 215 287 334 360
#     4  10  23  44  67  91 132 181 220 260 325 410
#     4  10  18  39  65  97 124 175 222 270 309 400
#     4  10  19  34  63  93 132 166 225 267 321 386
#     4  11  22  41  69  93 129 178 225 256 330 399
#
# _framework density 23.180921999999999
#
# number of rings (size 3 to 8) (size 9 to 14) (size 15 to 20)
#    0.000    1.429    4.286    2.143    4.000    0.571 
#    5.143    0.714    0.000    1.714    0.000    0.000 
#    0.000    0.000    0.000    0.000    0.000    0.000 
#
# Total GULP energy -78099.499790 kJ/mol
# GULP energy per Si atom -5578.535699 kJ/mol
# Density = 2.312816 g / cm^3
# Si number density = 23.180922 Si / 1000 Ang^3
#
#
#
# Elastic Constant Matrix: (Units=GPa)
#
#
# Indices 1 2 3 4 5 6 
#
# 1 113.0428 19.1649 3.4967 -5.6843 6.1062 -12.8208
# 2 19.1649 116.4844 17.6665 -27.4702 5.7598 -0.3500
# 3 3.4967 17.6665 31.5611 -21.1394 4.2282 4.4784
# 4 -5.6843 -27.4702 -21.1394 35.8259 -9.3581 4.9935
# 5 6.1062 5.7598 4.2282 -9.3581 30.5927 -7.0893
# 6 -12.8208 -0.3500 4.4784 4.9935 -7.0893 39.3098
#
#
#
# Elastic Compliance Matrix: (Units=1/GPa)
#
#
# Indices 1 2 3 4 5 6 
#
# 1 0.009514 -0.001589 -0.001263 -0.001172 -0.001044 0.003193
# 2 -0.001589 0.010787 -0.000255 0.008190 0.000516 -0.001340
# 3 -0.001263 -0.000255 0.056818 0.034824 0.000500 -0.011221
# 4 -0.001172 0.008190 0.034824 0.058412 0.009430 -0.009996
# 5 -0.001044 0.000516 0.000500 0.009430 0.036783 0.005043
# 6 0.003193 -0.001340 -0.011221 -0.009996 0.005043 0.029926
#
#
# Mechanical properties :
#
#
# Convention : Reuss Voigt Hill
#
# Bulk Modulus (GPa) = 14.10341 37.97160 26.03750
# Shear Modulus (GPa) = 21.54353 35.86301 28.70327
#
# Velocity S-wave (km/s) = 3.05186 3.93758 3.52266
# Velocity P-wave (km/s) = 4.30299 6.09006 5.27278
#
# Compressibility (1/GPa) = 0.07090485
#
# Stress axis : x y z
#
# Youngs Moduli (GPa) = 105.10502 92.70549 17.60015
#
# Poissons Ratio (x) = 0.14730 0.02222
# Poissons Ratio (y) = 0.16701 0.00449
# Poissons Ratio (z) = 0.13271 0.02367
#
# Static dielectric constant tensor:
#      x y z
#    x 1.977160 -0.032360 -0.015310 
#    y -0.032360 1.889880 -0.031160 
#    z -0.015310 -0.031160 1.831230 
# 
# From -- ./inp_files/433302.got.cif
#   From: 2010.05.17/outbox.cif.g08.bks.cpg/sg2_217_cif.got.tgz:433302.got - 2010.06.03 11:33:40.
