data_PCOD9080272
_publ_section_title
;
Structure prediction by ZEFSAII (Michael W. Deem and Ramdas Pophale) SiO2 
 PCOD9080272
Probable space group: P -1
;
_chemical_formula_sum "Si O2"
_cell_formula_units_Z 12
_cell_length_a 10.335798
_cell_length_b 8.303626
_cell_length_c 10.797544
_cell_angle_alpha 55.406741
_cell_angle_beta 142.157092
_cell_angle_gamma 134.532322
_cell_volume 405.071130
_symmetry_space_group_name_H-M "P -1"
_symmetry_group_IT_number 2
_symmetry_cell_setting 'triclinic'
loop_
_space_group_symop_operation_xyz
x,y,z
-x,-y,-z
loop_
_atom_site_type_symbol
_atom_site_label
_atom_site_fract_x
_atom_site_fract_y
_atom_site_fract_z
Si Si1 0.209941 0.834031 0.586180
Si Si2 0.500000 0.500000 0.000000
Si Si3 0.571355 0.625577 0.708602
Si Si4 0.381546 0.767480 0.149232
Si Si5 0.903041 0.381557 0.674976
Si Si6 0.797628 0.937517 0.179465
Si Si7 0.000000 0.000000 0.000000
O O1 0.175954 0.726353 0.473853
O O2 0.149008 0.623973 0.725575
O O3 0.467979 0.048620 0.712285
O O4 0.011873 0.912713 0.412440
O O5 0.492260 0.537755 0.829767
O O6 0.290370 0.220412 0.942537
O O7 0.664864 0.481653 0.767565
O O8 0.324410 0.590095 0.474094
O O9 0.784305 0.879363 0.781640
O O10 0.582707 0.852911 0.153833
O O11 0.168224 0.817542 0.930717
O O12 0.966741 0.228632 0.874037
#
# Coordination Sequence:
#
# PCOD9080272 Si02
#       7
#     2   1   2   2   2   2   1
#     4  11  22  39  68 101 124 167 219 278 323 378
#     4  10  18  38  68  94 130 158 220 268 302 378
#     4  11  24  44  65 100 132 175 215 276 323 391
#     4  10  22  34  62 100 135 160 213 279 328 375
#     4  11  25  41  67  95 131 172 224 265 325 390
#     4  10  20  33  57 102 132 159 203 277 327 369
#     4  12  28  42  66  92 138 180 214 264 338 394
#
# _framework density 29.624428000000002
#
# number of rings (size 3 to 8) (size 9 to 14) (size 15 to 20)
#    0.000    1.333    3.333    3.000   11.667    0.000 
#    0.000    0.833    0.000    8.000    0.000    0.000 
#    0.000    0.000    0.000    0.000    0.000    0.000 
#
# Total GULP energy -66925.403500 kJ/mol
# GULP energy per Si atom -5577.116958 kJ/mol
# Density = 2.955700 g / cm^3
# Si number density = 29.624428 Si / 1000 Ang^3
#
#
#
# Elastic Constant Matrix: (Units=GPa)
#
#
# Indices 1 2 3 4 5 6 
#
# 1 102.6369 32.1030 32.5003 -7.8016 -12.0974 -3.4153
# 2 32.1030 131.5205 41.3702 -7.9119 3.7441 16.8581
# 3 32.5003 41.3702 142.2328 -36.6906 5.1591 16.8095
# 4 -7.8016 -7.9119 -36.6906 63.1210 -10.1654 -5.1201
# 5 -12.0974 3.7441 5.1591 -10.1654 37.9117 10.5437
# 6 -3.4153 16.8581 16.8095 -5.1201 10.5437 34.7703
#
#
#
# Elastic Compliance Matrix: (Units=1/GPa)
#
#
# Indices 1 2 3 4 5 6 
#
# 1 0.011830 -0.002571 -0.002206 0.000671 0.003839 0.002410
# 2 -0.002571 0.009261 -0.001793 -0.000603 -0.000601 -0.003782
# 3 -0.002206 -0.001793 0.009724 0.004945 0.000436 -0.003453
# 4 0.000671 -0.000603 0.004945 0.019476 0.005013 -0.000685
# 5 0.003839 -0.000601 0.000436 0.005013 0.031249 -0.008280
# 6 0.002410 -0.003782 -0.003453 -0.000685 -0.008280 0.034910
#
#
# Mechanical properties :
#
#
# Convention : Reuss Voigt Hill
#
# Bulk Modulus (GPa) = 56.58005 65.37081 60.97543
# Shear Modulus (GPa) = 36.90552 45.18839 41.04696
#
# Velocity S-wave (km/s) = 3.53339 3.90984 3.72637
# Velocity P-wave (km/s) = 5.98223 6.51897 6.25636
#
# Compressibility (1/GPa) = 0.01767407
#
# Stress axis : x y z
#
# Youngs Moduli (GPa) = 84.53387 107.98456 102.83713
#
# Poissons Ratio (x) = 0.27767 0.22687
# Poissons Ratio (y) = 0.21737 0.18435
# Poissons Ratio (z) = 0.18649 0.19358
#
# Static dielectric constant tensor:
#      x y z
#    x 6.116560 2.871490 -1.170360 
#    y 2.871490 4.844940 -1.286250 
#    z -1.170360 -1.286250 2.887670 
# 
# From -- ./inp_files/526209.got.cif
#   From: 2010.05.17/outbox.cif.g08.bks.cpg/sg2_264_cif.got.tgz:526209.got - 2010.06.03 11:33:40.
