data_PCOD9080003
_publ_section_title
;
Structure prediction by ZEFSAII (Michael W. Deem and Ramdas Pophale) SiO2 
 PCOD9080003
Probable space group: P -1
;
_chemical_formula_sum "Si O2"
_cell_formula_units_Z 16
_cell_length_a 12.901138
_cell_length_b 8.303033
_cell_length_c 8.244211
_cell_angle_alpha 87.697101
_cell_angle_beta 84.864982
_cell_angle_gamma 131.153148
_cell_volume 656.464700
_symmetry_space_group_name_H-M "P -1"
_symmetry_group_IT_number 2
_symmetry_cell_setting 'triclinic'
loop_
_space_group_symop_operation_xyz
x,y,z
-x,-y,-z
loop_
_atom_site_type_symbol
_atom_site_label
_atom_site_fract_x
_atom_site_fract_y
_atom_site_fract_z
Si Si1 0.194558 0.818271 0.020465
Si Si2 0.361217 0.746383 0.199191
Si Si3 0.456564 0.279056 0.065824
Si Si4 0.003104 0.159736 0.099133
Si Si5 0.502999 0.177977 0.376650
Si Si6 0.721882 0.166021 0.358108
Si Si7 0.897159 0.098556 0.460821
Si Si8 0.191525 0.307510 0.354515
O O1 0.041409 0.735283 0.011807
O O2 0.244446 0.818011 0.834962
O O3 0.228312 0.706273 0.141929
O O4 0.296826 0.066635 0.058007
O O5 0.437463 0.964027 0.282916
O O6 0.323537 0.556664 0.326705
O O7 0.454854 0.765800 0.042653
O O8 0.491492 0.310302 0.250154
O O9 0.500000 0.500000 0.000000
O O10 0.145417 0.290261 0.174405
O O11 0.895350 0.045294 0.272007
O O12 0.000000 0.000000 0.000000
O O13 0.401959 0.078422 0.548535
O O14 0.658525 0.277302 0.381118
O O15 0.845779 0.229098 0.452974
O O16 0.810251 0.880773 0.586319
O O17 0.059504 0.244086 0.475994
#
# Coordination Sequence:
#
# PCOD9080003 Si02
#       8
#     2   2   2   2   2   2   2   2
#     4  10  20  40  60  80 120 153 184 239 284 333
#     4  11  21  38  58  85 116 150 193 229 286 345
#     4  11  23  36  58  89 116 150 189 234 283 344
#     4   9  19  35  60  82 110 147 190 236 282 327
#     4  10  21  38  60  82 116 154 187 233 282 344
#     4  10  18  38  61  79 112 157 187 228 293 327
#     4   8  19  38  58  76 114 150 183 236 284 325
#     4   9  20  36  57  79 111 152 184 232 284 331
#
# _framework density 24.372976000000001
#
# number of rings (size 3 to 8) (size 9 to 14) (size 15 to 20)
#    0.750    1.500    2.500    0.750    3.500    1.500 
#    0.000    8.125    0.000    0.000    0.000    0.000 
#    0.000    0.000    0.000    0.000    0.000    0.000 
#
# Total GULP energy -89167.908488 kJ/mol
# GULP energy per Si atom -5572.994280 kJ/mol
# Density = 2.431750 g / cm^3
# Si number density = 24.372976 Si / 1000 Ang^3
#
#
#
# Elastic Constant Matrix: (Units=GPa)
#
#
# Indices 1 2 3 4 5 6 
#
# 1 66.9395 -15.8091 4.5174 12.0472 9.6063 -1.5124
# 2 -15.8091 55.1713 14.1906 -8.2521 1.7749 -4.9501
# 3 4.5174 14.1906 70.7682 -10.8602 7.9080 -9.3097
# 4 12.0472 -8.2521 -10.8602 38.5834 -8.2099 3.5915
# 5 9.6063 1.7749 7.9080 -8.2099 41.5863 -0.3826
# 6 -1.5124 -4.9501 -9.3097 3.5915 -0.3826 16.0317
#
#
#
# Elastic Compliance Matrix: (Units=1/GPa)
#
#
# Indices 1 2 3 4 5 6 
#
# 1 0.018394 0.005323 -0.002215 -0.006688 -0.005343 0.003463
# 2 0.005323 0.021224 -0.003678 0.001163 -0.001164 0.004631
# 3 -0.002215 -0.003678 0.016740 0.003544 -0.001746 0.007541
# 4 -0.006688 0.001163 0.003544 0.031197 0.006934 -0.005037
# 5 -0.005343 -0.001164 -0.001746 0.006934 0.027006 -0.002786
# 6 0.003463 0.004631 0.007541 -0.005037 -0.002786 0.069574
#
#
# Mechanical properties :
#
#
# Convention : Reuss Voigt Hill
#
# Bulk Modulus (GPa) = 18.11005 22.07520 20.09262
# Shear Modulus (GPa) = 24.54821 31.90560 28.22691
#
# Velocity S-wave (km/s) = 3.17707 3.62201 3.40681
# Velocity P-wave (km/s) = 4.57218 5.15450 4.87205
#
# Compressibility (1/GPa) = 0.05521797
#
# Stress axis : x y z
#
# Youngs Moduli (GPa) = 54.36519 47.11753 59.73547
#
# Poissons Ratio (x) = -0.25080 0.13232
# Poissons Ratio (y) = -0.28938 0.21969
# Poissons Ratio (z) = 0.12043 0.17329
#
# Static dielectric constant tensor:
#      x y z
#    x 2.064160 0.065160 0.033400 
#    y 0.065160 1.993800 0.028000 
#    z 0.033400 0.028000 1.969200 
# 
# From -- ./inp_files/294871.got.cif
#   From: 2010.05.17/outbox.cif.g08.bks.cpg/sg2_148_cif.got.tgz:294871.got - 2010.06.03 11:33:40.
