data_PCOD9080734
_publ_section_title
;
Structure prediction by ZEFSAII (Michael W. Deem and Ramdas Pophale) SiO2 
 PCOD9080734
Probable space group: P -1
;
_chemical_formula_sum "Si O2"
_cell_formula_units_Z 15
_cell_length_a 16.088191
_cell_length_b 13.355752
_cell_length_c 5.271973
_cell_angle_alpha 65.091946
_cell_angle_beta 77.591427
_cell_angle_gamma 35.117299
_cell_volume 572.497046
_symmetry_space_group_name_H-M "P -1"
_symmetry_group_IT_number 2
_symmetry_cell_setting 'triclinic'
loop_
_space_group_symop_operation_xyz
x,y,z
-x,-y,-z
loop_
_atom_site_type_symbol
_atom_site_label
_atom_site_fract_x
_atom_site_fract_y
_atom_site_fract_z
Si Si1 0.557670 0.597571 0.788786
Si Si2 0.153551 0.679524 0.878957
Si Si3 0.037929 0.291698 0.267645
Si Si4 0.000000 0.000000 0.000000
Si Si5 0.689748 0.243452 0.888396
Si Si6 0.409138 0.062322 0.742207
Si Si7 0.638100 0.094817 0.758377
Si Si8 0.892759 0.490404 0.648029
O O1 0.668054 0.496573 0.064466
O O2 0.645162 0.419688 0.735449
O O3 0.502438 0.761185 0.492061
O O4 0.406481 0.703418 0.876628
O O5 0.148766 0.594216 0.199459
O O6 0.055075 0.726142 0.677572
O O7 0.083601 0.865294 0.829337
O O8 0.952437 0.451449 0.932750
O O9 0.016837 0.359935 0.488871
O O10 0.207973 0.099971 0.274269
O O11 0.133487 0.948554 0.005445
O O12 0.648123 0.210624 0.717268
O O13 0.249383 0.290882 0.580842
O O14 0.500000 0.000000 0.500000
O O15 0.500000 0.000000 0.000000
O O16 0.382091 0.961429 0.923866
#
# Coordination Sequence:
#
# PCOD9080734 Si02
#       8
#     2   2   2   1   2   2   2   2
#     4  10  23  40  70 104 150 189 245 307 375 447
#     4   9  21  40  68 101 144 188 238 304 363 436
#     4  10  24  43  74 102 145 193 240 303 369 439
#     4  10  18  42  66 104 146 190 250 296 368 448
#     4  10  22  43  68 105 148 196 243 309 376 442
#     4  12  29  48  76 112 149 196 249 313 379 443
#     4  12  26  42  75 106 146 194 257 309 371 452
#     4  10  23  46  68 103 145 189 244 298 376 427
#
# _framework density 26.20101
#
# number of rings (size 3 to 8) (size 9 to 14) (size 15 to 20)
#    0.800    0.800    1.333    2.000    7.467    2.133 
#    0.000    5.333    0.000    0.000    0.000    0.000 
#    0.000    0.000    0.000    0.000    0.000    0.000 
#
# Total GULP energy -83680.807255 kJ/mol
# GULP energy per Si atom -5578.720484 kJ/mol
# Density = 2.614138 g / cm^3
# Si number density = 26.201010 Si / 1000 Ang^3
#
#
#
# Elastic Constant Matrix: (Units=GPa)
#
#
# Indices 1 2 3 4 5 6 
#
# 1 98.5817 19.1897 24.5454 6.1562 14.4100 -13.6059
# 2 19.1897 115.1971 54.2519 6.3692 14.5445 -21.8466
# 3 24.5454 54.2519 120.3027 0.8636 22.9077 -5.4449
# 4 6.1562 6.3692 0.8636 45.3502 -1.0463 2.0993
# 5 14.4100 14.5445 22.9077 -1.0463 30.2761 2.0155
# 6 -13.6059 -21.8466 -5.4449 2.0993 2.0155 36.8562
#
#
#
# Elastic Compliance Matrix: (Units=1/GPa)
#
#
# Indices 1 2 3 4 5 6 
#
# 1 0.011970 0.000330 -0.001367 -0.001988 -0.005210 0.004810
# 2 0.000330 0.012844 -0.004909 -0.002167 -0.003174 0.007307
# 3 -0.001367 -0.004909 0.011852 0.000578 -0.005847 -0.001376
# 4 -0.001988 -0.002167 0.000578 0.022829 0.002563 -0.003373
# 5 -0.005210 -0.003174 -0.005847 0.002563 0.042020 -0.007113
# 6 0.004810 0.007307 -0.001376 -0.003373 -0.007113 0.033617
#
#
# Mechanical properties :
#
#
# Convention : Reuss Voigt Hill
#
# Bulk Modulus (GPa) = 40.36494 58.89506 49.63000
# Shear Modulus (GPa) = 32.19965 38.23612 35.21789
#
# Velocity S-wave (km/s) = 3.50944 3.82427 3.67023
# Velocity P-wave (km/s) = 5.64454 6.48283 6.07815
#
# Compressibility (1/GPa) = 0.02477398
#
# Stress axis : x y z
#
# Youngs Moduli (GPa) = 83.54467 77.85829 84.37536
#
# Poissons Ratio (x) = -0.02568 0.11532
# Poissons Ratio (y) = -0.02755 0.41417
# Poissons Ratio (z) = 0.11419 0.38218
#
# Static dielectric constant tensor:
#      x y z
#    x 2.237120 0.038170 -0.048840 
#    y 0.038170 1.998550 -0.062130 
#    z -0.048840 -0.062130 2.096470 
# 
# From -- ./inp_files/110643.got.cif
#   From: 2010.05.17/outbox.cif.g08.bks.cpg/sg2_56_cif.got.tgz:110643.got - 2010.06.03 11:33:40.
