data_PCOD9080447
_publ_section_title
;
Structure prediction by ZEFSAII (Michael W. Deem and Ramdas Pophale) SiO2 
 PCOD9080447
Probable space group: P -1
;
_chemical_formula_sum "Si O2"
_cell_formula_units_Z 12
_cell_length_a 9.207844
_cell_length_b 8.503327
_cell_length_c 14.847225
_cell_angle_alpha 117.095350
_cell_angle_beta 150.782229
_cell_angle_gamma 64.545579
_cell_volume 503.777877
_symmetry_space_group_name_H-M "P -1"
_symmetry_group_IT_number 2
_symmetry_cell_setting 'triclinic'
loop_
_space_group_symop_operation_xyz
x,y,z
-x,-y,-z
loop_
_atom_site_type_symbol
_atom_site_label
_atom_site_fract_x
_atom_site_fract_y
_atom_site_fract_z
Si Si1 0.856340 0.848715 0.182068
Si Si2 0.860975 0.845931 0.667002
Si Si3 0.620009 0.101348 0.268308
Si Si4 0.578073 0.435115 0.126056
Si Si5 0.704487 0.799841 0.375609
Si Si6 0.532114 0.298592 0.432431
O O1 0.128840 0.778511 0.378026
O O2 0.629362 0.981014 0.152080
O O3 0.681177 0.684766 0.012075
O O4 0.002474 0.964385 0.215391
O O5 0.657442 0.836520 0.465038
O O6 0.692445 0.802214 0.653806
O O7 0.122081 0.692096 0.751471
O O8 0.464374 0.268559 0.282204
O O9 0.946971 0.175379 0.449971
O O10 0.561138 0.950061 0.271134
O O11 0.622017 0.606201 0.253801
O O12 0.500000 0.500000 0.000000
O O13 0.500000 0.500000 0.500000
#
# Coordination Sequence:
#
# PCOD9080447 Si02
#       6
#     2   2   2   2   2   2
#     4  11  22  42  65  91 131 166 209 256 316 374
#     4  11  24  38  66  94 125 167 211 261 309 370
#     4  10  18  39  66  89 124 169 208 247 309 379
#     4  12  22  39  64  98 126 165 211 262 311 371
#     4  10  19  38  65  91 124 163 217 244 306 376
#     4  12  22  39  66  97 123 165 215 261 308 373
#
# _framework density 23.820024
#
# number of rings (size 3 to 8) (size 9 to 14) (size 15 to 20)
#    0.000    1.000    6.667    3.500    0.000    1.333 
#    0.000    1.667    0.000    2.000    0.000    0.000 
#    0.000    0.000    0.000    0.000    0.000    0.000 
#
# Total GULP energy -67026.733607 kJ/mol
# GULP energy per Si atom -5585.561134 kJ/mol
# Density = 2.376581 g / cm^3
# Si number density = 23.820024 Si / 1000 Ang^3
#
#
#
# Elastic Constant Matrix: (Units=GPa)
#
#
# Indices 1 2 3 4 5 6 
#
# 1 123.0873 36.6009 17.6681 17.1816 1.2006 -0.3795
# 2 36.6009 137.1348 46.1597 40.1873 5.0005 3.3487
# 3 17.6681 46.1597 76.6066 30.4572 9.7518 1.0227
# 4 17.1816 40.1873 30.4572 58.0898 9.3184 1.6313
# 5 1.2006 5.0005 9.7518 9.3184 16.7534 -1.7580
# 6 -0.3795 3.3487 1.0227 1.6313 -1.7580 27.5264
#
#
#
# Elastic Compliance Matrix: (Units=1/GPa)
#
#
# Indices 1 2 3 4 5 6 
#
# 1 0.008928 -0.001883 -0.000576 -0.001208 0.000983 0.000508
# 2 -0.001883 0.010597 -0.004280 -0.004843 0.002080 -0.000736
# 3 -0.000576 -0.004280 0.018868 -0.005708 -0.006517 -0.000266
# 4 -0.001208 -0.004843 -0.005708 0.025468 -0.009450 -0.001328
# 5 0.000983 0.002080 -0.006517 -0.009450 0.068566 0.004942
# 6 0.000508 -0.000736 -0.000266 -0.001328 0.004942 0.036830
#
#
# Mechanical properties :
#
#
# Convention : Reuss Voigt Hill
#
# Bulk Modulus (GPa) = 40.13882 59.74291 49.94086
# Shear Modulus (GPa) = 26.17241 36.23391 31.20316
#
# Velocity S-wave (km/s) = 3.31835 3.90443 3.62326
# Velocity P-wave (km/s) = 5.61866 6.74251 6.20608
#
# Compressibility (1/GPa) = 0.02491354
#
# Stress axis : x y z
#
# Youngs Moduli (GPa) = 112.01307 94.36822 52.99858
#
# Poissons Ratio (x) = 0.17771 0.03053
# Poissons Ratio (y) = 0.21094 0.22686
# Poissons Ratio (z) = 0.06452 0.40393
#
# Static dielectric constant tensor:
#      x y z
#    x 1.891440 0.021290 -0.073110 
#    y 0.021290 1.947970 -0.081620 
#    z -0.073110 -0.081620 2.043810 
# 
# From -- ./inp_files/491762.got.cif
#   From: 2010.05.17/outbox.cif.g08.bks.cpg/sg2_246_cif.got.tgz:491762.got - 2010.06.03 11:33:40.
