data_PCOD9080917
_publ_section_title
;
Structure prediction by ZEFSAII (Michael W. Deem and Ramdas Pophale) SiO2 
 PCOD9080917
Probable space group: P -1
;
_chemical_formula_sum "Si O2"
_cell_formula_units_Z 14
_cell_length_a 4.960555
_cell_length_b 16.560138
_cell_length_c 13.341385
_cell_angle_alpha 130.001765
_cell_angle_beta 116.102374
_cell_angle_gamma 90.080736
_cell_volume 686.543744
_symmetry_space_group_name_H-M "P -1"
_symmetry_group_IT_number 2
_symmetry_cell_setting 'triclinic'
loop_
_space_group_symop_operation_xyz
x,y,z
-x,-y,-z
loop_
_atom_site_type_symbol
_atom_site_label
_atom_site_fract_x
_atom_site_fract_y
_atom_site_fract_z
Si Si1 0.305044 0.086111 0.196137
Si Si2 0.978081 0.118437 0.627303
Si Si3 0.079748 0.044621 0.795394
Si Si4 0.343449 0.663056 0.449939
Si Si5 0.374064 0.187036 0.562541
Si Si6 0.929793 0.602262 0.522583
Si Si7 0.704919 0.147946 0.118142
O O1 0.501096 0.204632 0.381094
O O2 0.532293 0.083764 0.141081
O O3 0.005598 0.111251 0.120172
O O4 0.821192 0.013380 0.820190
O O5 0.628328 0.125672 0.563684
O O6 0.047717 0.120074 0.758165
O O7 0.242082 0.207741 0.665097
O O8 0.000000 0.000000 0.500000
O O9 0.433987 0.116276 0.961605
O O10 0.956981 0.911713 0.624047
O O11 0.418852 0.694634 0.369928
O O12 0.563076 0.595204 0.463774
O O13 0.022517 0.611982 0.426734
O O14 0.000000 0.500000 0.500000
O O15 0.147053 0.718666 0.714234
#
# Coordination Sequence:
#
# PCOD9080917 Si02
#       7
#     2   2   2   2   2   2   2
#     4   9  19  30  44  67  97 125 154 182 222 284
#     4  10  20  31  45  68  96 130 164 194 223 261
#     4  10  19  30  47  67  97 129 155 191 225 264
#     4   9  18  32  51  70  93 124 153 189 237 279
#     4  10  20  33  47  69  97 127 162 191 225 275
#     4  10  19  33  51  74  96 117 152 196 236 284
#     4  10  20  31  45  69  95 126 155 183 232 285
#
# _framework density 20.391998999999998
#
# number of rings (size 3 to 8) (size 9 to 14) (size 15 to 20)
#    0.000    2.286    0.000    3.857    0.000   11.429 
#    0.000    0.000    0.000    0.000    0.000    6.000 
#    0.000    0.000    0.000    0.000    0.000    0.000 
#
# Total GULP energy -77953.890800 kJ/mol
# GULP energy per Si atom -5568.135057 kJ/mol
# Density = 2.034559 g / cm^3
# Si number density = 20.391999 Si / 1000 Ang^3
#
#
#
# Elastic Constant Matrix: (Units=GPa)
#
#
# Indices 1 2 3 4 5 6 
#
# 1 126.2932 25.4368 24.0476 -14.3536 -9.4701 -4.9416
# 2 25.4368 72.9499 29.0525 -25.9442 -9.9077 -9.1832
# 3 24.0476 29.0525 48.3042 -24.3590 -0.7938 -6.1633
# 4 -14.3536 -25.9442 -24.3590 34.9566 0.4813 -8.5689
# 5 -9.4701 -9.9077 -0.7938 0.4813 23.4479 -7.7370
# 6 -4.9416 -9.1832 -6.1633 -8.5689 -7.7370 31.3356
#
#
#
# Elastic Compliance Matrix: (Units=1/GPa)
#
#
# Indices 1 2 3 4 5 6 
#
# 1 0.009192 -0.000569 -0.003028 0.001715 0.004046 0.002155
# 2 -0.000569 0.027346 -0.002181 0.022679 0.016663 0.017811
# 3 -0.003028 -0.002181 0.040140 0.028883 0.003772 0.015608
# 4 0.001715 0.022679 0.028883 0.075469 0.022504 0.038791
# 5 0.004046 0.016663 0.003772 0.022504 0.059971 0.027224
# 6 0.002155 0.017811 0.015608 0.038791 0.027224 0.057871
#
#
# Mechanical properties :
#
#
# Convention : Reuss Voigt Hill
#
# Bulk Modulus (GPa) = 15.35557 44.95790 30.15673
# Shear Modulus (GPa) = 16.48803 29.21539 22.85171
#
# Velocity S-wave (km/s) = 2.84659 3.78919 3.35120
# Velocity P-wave (km/s) = 4.28377 6.42174 5.45845
#
# Compressibility (1/GPa) = 0.06512296
#
# Stress axis : x y z
#
# Youngs Moduli (GPa) = 108.79374 36.56900 24.91288
#
# Poissons Ratio (x) = 0.02079 0.07543
# Poissons Ratio (y) = 0.06185 0.05433
# Poissons Ratio (z) = 0.32938 0.07975
#
# Static dielectric constant tensor:
#      x y z
#    x 1.789410 0.035360 -0.016170 
#    y 0.035360 1.813770 -0.067350 
#    z -0.016170 -0.067350 1.882140 
# 
# From -- ./inp_files/367025.got.cif
#   From: 2010.05.17/outbox.cif.g08.bks.cpg/sg2_184_cif.got.tgz:367025.got - 2010.06.03 11:33:40.
