data_PCOD9080678
_publ_section_title
;
Structure prediction by ZEFSAII (Michael W. Deem and Ramdas Pophale) SiO2 
 PCOD9080678
Probable space group: P -1
;
_chemical_formula_sum "Si O2"
_cell_formula_units_Z 15
_cell_length_a 19.784263
_cell_length_b 8.987225
_cell_length_c 12.060840
_cell_angle_alpha 37.094813
_cell_angle_beta 31.319867
_cell_angle_gamma 49.501430
_cell_volume 668.831266
_symmetry_space_group_name_H-M "P -1"
_symmetry_group_IT_number 2
_symmetry_cell_setting 'triclinic'
loop_
_space_group_symop_operation_xyz
x,y,z
-x,-y,-z
loop_
_atom_site_type_symbol
_atom_site_label
_atom_site_fract_x
_atom_site_fract_y
_atom_site_fract_z
Si Si1 0.335084 0.718812 0.588502
Si Si2 0.500000 0.000000 0.000000
Si Si3 0.718408 0.525790 0.725497
Si Si4 0.985096 0.210560 0.227314
Si Si5 0.417207 0.213250 0.674806
Si Si6 0.181368 0.900445 0.261962
Si Si7 0.898363 0.018753 0.229760
Si Si8 0.541176 0.542896 0.745922
O O1 0.389954 0.898488 0.306127
O O2 0.365980 0.446255 0.672097
O O3 0.430023 0.790810 0.515304
O O4 0.185880 0.746943 0.804905
O O5 0.476523 0.722696 0.133866
O O6 0.830392 0.348093 0.646038
O O7 0.792013 0.781154 0.513007
O O8 0.639177 0.557561 0.703524
O O9 0.604564 0.416390 0.033227
O O10 0.865395 0.153996 0.515289
O O11 0.963524 0.054904 0.237377
O O12 0.104306 0.111323 0.187764
O O13 0.000000 0.500000 0.000000
O O14 0.399351 0.255192 0.546140
O O15 0.334430 0.987936 0.984258
O O16 0.000000 0.000000 0.000000
#
# Coordination Sequence:
#
# PCOD9080678 Si02
#       8
#     2   1   2   2   2   2   2   2
#     4  10  22  40  67 105 137 179 246 297 364 429
#     4  10  18  40  72  94 132 190 236 302 350 428
#     4  11  25  43  66 106 145 193 232 297 377 438
#     4  11  27  51  75 101 140 200 254 301 354 442
#     4  10  23  39  71 106 136 183 243 317 356 429
#     4  11  26  45  74 107 140 189 251 304 365 434
#     4  12  27  44  71 103 149 199 241 298 369 451
#     4  10  23  41  68 104 149 185 235 301 373 429
#
# _framework density 22.427181000000001
#
# number of rings (size 3 to 8) (size 9 to 14) (size 15 to 20)
#    0.000    1.333    1.333    2.400   11.200    4.267 
#    0.000    0.000    0.000    0.000    0.000    0.000 
#    0.000    0.000    0.000    0.000    0.000    0.000 
#
# Total GULP energy -83588.854589 kJ/mol
# GULP energy per Si atom -5572.590306 kJ/mol
# Density = 2.237614 g / cm^3
# Si number density = 22.427181 Si / 1000 Ang^3
#
#
#
# Elastic Constant Matrix: (Units=GPa)
#
#
# Indices 1 2 3 4 5 6 
#
# 1 75.9426 29.0091 53.3552 9.5151 16.8887 6.0232
# 2 29.0091 79.7989 30.0883 10.9602 18.1307 11.6056
# 3 53.3552 30.0883 104.1139 5.7329 21.5414 14.7774
# 4 9.5151 10.9602 5.7329 26.6915 6.0113 -0.2045
# 5 16.8887 18.1307 21.5414 6.0113 29.1608 2.4883
# 6 6.0232 11.6056 14.7774 -0.2045 2.4883 33.4946
#
#
#
# Elastic Compliance Matrix: (Units=1/GPa)
#
#
# Indices 1 2 3 4 5 6 
#
# 1 0.022466 -0.003503 -0.009951 -0.003777 -0.002853 0.001753
# 2 -0.003503 0.016811 -0.000862 -0.004019 -0.006587 -0.004350
# 3 -0.009951 -0.000862 0.016804 0.001613 -0.006031 -0.004868
# 4 -0.003777 -0.004019 0.001613 0.041299 -0.005189 0.001998
# 5 -0.002853 -0.006587 -0.006031 -0.005189 0.045391 0.002053
# 6 0.001753 -0.004350 -0.004868 0.001998 0.002053 0.033055
#
#
# Mechanical properties :
#
#
# Convention : Reuss Voigt Hill
#
# Bulk Modulus (GPa) = 36.43082 53.86231 45.14656
# Shear Modulus (GPa) = 23.40745 27.69622 25.55184
#
# Velocity S-wave (km/s) = 3.23415 3.51798 3.37905
# Velocity P-wave (km/s) = 5.49779 6.36948 5.94962
#
# Compressibility (1/GPa) = 0.02744928
#
# Stress axis : x y z
#
# Youngs Moduli (GPa) = 44.51119 59.48470 59.51113
#
# Poissons Ratio (x) = 0.20836 0.59222
# Poissons Ratio (y) = 0.15591 0.05127
# Poissons Ratio (z) = 0.44295 0.05125
#
# Static dielectric constant tensor:
#      x y z
#    x 1.837800 -0.007950 -0.022430 
#    y -0.007950 1.900280 -0.023050 
#    z -0.022430 -0.023050 1.807490 
# 
# From -- ./inp_files/469749.got.cif
#   From: 2010.05.17/outbox.cif.g08.bks.cpg/sg2_235_cif.got.tgz:469749.got - 2010.06.03 11:33:40.
