data_PCOD9080681
_publ_section_title
;
Structure prediction by ZEFSAII (Michael W. Deem and Ramdas Pophale) SiO2 
 PCOD9080681
Probable space group: P -1
;
_chemical_formula_sum "Si O2"
_cell_formula_units_Z 15
_cell_length_a 13.662867
_cell_length_b 13.281547
_cell_length_c 4.992000
_cell_angle_alpha 60.486688
_cell_angle_beta 70.034348
_cell_angle_gamma 45.230371
_cell_volume 559.644007
_symmetry_space_group_name_H-M "P -1"
_symmetry_group_IT_number 2
_symmetry_cell_setting 'triclinic'
loop_
_space_group_symop_operation_xyz
x,y,z
-x,-y,-z
loop_
_atom_site_type_symbol
_atom_site_label
_atom_site_fract_x
_atom_site_fract_y
_atom_site_fract_z
Si Si1 0.736093 0.949200 0.724830
Si Si2 0.243598 0.521174 0.779271
Si Si3 0.776054 0.228256 0.785576
Si Si4 0.500000 0.500000 0.000000
Si Si5 0.075832 0.097181 0.826865
Si Si6 0.344935 0.132577 0.568240
Si Si7 0.064609 0.579412 0.360773
Si Si8 0.553445 0.714325 0.479675
O O1 0.864276 0.926134 0.499056
O O2 0.737712 0.836675 0.665202
O O3 0.601900 0.127319 0.565196
O O4 0.693539 0.925994 0.080069
O O5 0.251178 0.656534 0.574044
O O6 0.138116 0.554283 0.604411
O O7 0.389445 0.357773 0.776991
O O8 0.172128 0.530735 0.096004
O O9 0.920128 0.161211 0.877624
O O10 0.640208 0.339288 0.942771
O O11 0.817084 0.065033 0.906015
O O12 0.436453 0.417456 0.220246
O O13 0.051552 0.237777 0.804328
O O14 0.351227 0.253920 0.533596
O O15 0.500000 0.000000 0.500000
O O16 0.000000 0.500000 0.500000
#
# Coordination Sequence:
#
# PCOD9080681 Si02
#       8
#     2   2   2   1   2   2   2   2
#     4  11  23  42  69 104 136 181 226 290 350 416
#     4  10  24  41  67  95 133 180 220 288 335 409
#     4   9  20  43  70 103 137 184 235 292 342 417
#     4  10  18  40  74 100 144 182 236 284 352 406
#     4  10  22  41  73 101 141 181 236 286 353 416
#     4  10  23  40  66  99 141 178 233 285 346 411
#     4  11  25  43  66  98 137 178 228 275 349 413
#     4  10  21  39  70  98 140 177 235 282 352 406
#
# _framework density 26.802752000000002
#
# number of rings (size 3 to 8) (size 9 to 14) (size 15 to 20)
#    0.000    1.867    1.333    2.000    3.733    4.800 
#    0.000    2.667    0.000   15.200    0.000    0.000 
#    0.000    0.000    0.000    0.000    0.000    0.000 
#
# Total GULP energy -83688.329172 kJ/mol
# GULP energy per Si atom -5579.221945 kJ/mol
# Density = 2.674175 g / cm^3
# Si number density = 26.802752 Si / 1000 Ang^3
#
#
#
# Elastic Constant Matrix: (Units=GPa)
#
#
# Indices 1 2 3 4 5 6 
#
# 1 51.6979 17.6964 49.2954 14.1727 -31.3958 5.0029
# 2 17.6964 213.2317 73.3443 -4.3021 -31.7738 5.7267
# 3 49.2954 73.3443 158.9489 17.8209 -30.7507 9.2985
# 4 14.1727 -4.3021 17.8209 54.7948 5.0945 -26.2834
# 5 -31.3958 -31.7738 -30.7507 5.0945 43.5949 2.2276
# 6 5.0029 5.7267 9.2985 -26.2834 2.2276 42.9511
#
#
#
# Elastic Compliance Matrix: (Units=1/GPa)
#
#
# Indices 1 2 3 4 5 6 
#
# 1 0.073019 0.005305 -0.008020 -0.037005 0.056810 -0.033067
# 2 0.005305 0.006279 -0.002977 -0.001523 0.006582 -0.002084
# 3 -0.008020 -0.002977 0.010663 -0.002978 0.000068 -0.002804
# 4 -0.037005 -0.001523 -0.002978 0.050371 -0.037685 0.037937
# 5 0.056810 0.006582 0.000068 -0.037685 0.074861 -0.034453
# 6 -0.033067 -0.002084 -0.002804 0.037937 -0.034453 0.053020
#
#
# Mechanical properties :
#
#
# Convention : Reuss Voigt Hill
#
# Bulk Modulus (GPa) = 12.72604 78.28342 45.50473
# Shear Modulus (GPa) = 16.35111 47.17101 31.76106
#
# Velocity S-wave (km/s) = 2.47261 4.19970 3.44611
# Velocity P-wave (km/s) = 3.59306 7.26549 5.73138
#
# Compressibility (1/GPa) = 0.07857902
#
# Stress axis : x y z
#
# Youngs Moduli (GPa) = 13.69503 159.25013 93.78040
#
# Poissons Ratio (x) = -0.84488 0.75210
# Poissons Ratio (y) = -0.07266 0.27918
# Poissons Ratio (z) = 0.10983 0.47408
#
# Static dielectric constant tensor:
#      x y z
#    x 2.277450 0.020240 0.112770 
#    y 0.020240 2.086520 -0.066650 
#    z 0.112770 -0.066650 2.094110 
# 
# From -- ./inp_files/110636.got.cif
#   From: 2010.05.17/outbox.cif.g08.bks.cpg/sg2_56_cif.got.tgz:110636.got - 2010.06.03 11:33:40.
