data_PCOD9080216
_publ_section_title
;
Structure prediction by ZEFSAII (Michael W. Deem and Ramdas Pophale) SiO2 
 PCOD9080216
Probable space group: P -1
;
_chemical_formula_sum "Si O2"
_cell_formula_units_Z 16
_cell_length_a 16.172550
_cell_length_b 6.670277
_cell_length_c 15.218260
_cell_angle_alpha 70.831832
_cell_angle_beta 135.602541
_cell_angle_gamma 135.265154
_cell_volume 752.949125
_symmetry_space_group_name_H-M "P -1"
_symmetry_group_IT_number 2
_symmetry_cell_setting 'triclinic'
loop_
_space_group_symop_operation_xyz
x,y,z
-x,-y,-z
loop_
_atom_site_type_symbol
_atom_site_label
_atom_site_fract_x
_atom_site_fract_y
_atom_site_fract_z
Si Si1 0.530763 0.573133 0.723384
Si Si2 0.344004 0.188804 0.472927
Si Si3 0.865738 0.688191 0.385879
Si Si4 0.139454 0.790968 0.946989
Si Si5 0.909620 0.111041 0.906230
Si Si6 0.503846 0.598777 0.890666
Si Si7 0.704509 0.337911 0.473241
Si Si8 0.041787 0.054444 0.305289
O O1 0.395020 0.272944 0.603542
O O2 0.544478 0.515329 0.843985
O O3 0.458248 0.720359 0.653738
O O4 0.711732 0.811463 0.777751
O O5 0.500000 0.500000 0.500000
O O6 0.166913 0.079431 0.336547
O O7 0.339124 0.940030 0.478280
O O8 0.688939 0.578555 0.247932
O O9 0.803431 0.427319 0.443135
O O10 0.000000 0.000000 0.500000
O O11 0.950095 0.773442 0.342849
O O12 0.023677 0.432193 0.893851
O O13 0.081614 0.932885 0.833679
O O14 0.112987 0.814278 0.025219
O O15 0.341163 0.029398 0.046560
O O16 0.000000 0.000000 0.000000
O O17 0.500000 0.500000 0.000000
O O18 0.831153 0.633400 0.587462
#
# Coordination Sequence:
#
# PCOD9080216 Si02
#       8
#     2   2   2   2   2   2   2   2
#     4   9  22  39  60  87 124 158 208 251 307 368
#     4  11  25  37  60  92 124 165 206 255 303 369
#     4   9  18  37  64  88 118 158 199 258 307 362
#     4  10  22  37  61  89 117 163 201 251 308 368
#     4  10  23  38  59  84 121 161 202 252 306 366
#     4  10  18  38  66  92 119 163 203 248 313 370
#     4   9  21  39  60  87 121 161 199 256 317 357
#     4  10  21  37  60  90 118 154 213 250 305 369
#
# _framework density 21.249776000000001
#
# number of rings (size 3 to 8) (size 9 to 14) (size 15 to 20)
#    0.000    2.250    1.250    0.750    5.250    4.500 
#    0.000    0.000    2.750    4.500    0.000    0.000 
#    0.000    0.000    0.000    0.000    0.000    0.000 
#
# Total GULP energy -89093.022886 kJ/mol
# GULP energy per Si atom -5568.313930 kJ/mol
# Density = 2.120141 g / cm^3
# Si number density = 21.249776 Si / 1000 Ang^3
#
#
#
# Elastic Constant Matrix: (Units=GPa)
#
#
# Indices 1 2 3 4 5 6 
#
# 1 76.8451 30.8224 11.4004 5.9192 15.8947 21.8655
# 2 30.8224 79.5696 10.3289 8.0563 15.2612 10.2337
# 3 11.4004 10.3289 96.3279 10.5590 14.8288 6.1991
# 4 5.9192 8.0563 10.5590 24.1232 8.2776 2.7797
# 5 15.8947 15.2612 14.8288 8.2776 40.0108 0.8197
# 6 21.8655 10.2337 6.1991 2.7797 0.8197 32.8599
#
#
#
# Elastic Compliance Matrix: (Units=1/GPa)
#
#
# Indices 1 2 3 4 5 6 
#
# 1 0.019348 -0.004994 -0.000208 0.000190 -0.005515 -0.011159
# 2 -0.004994 0.015583 -0.000206 -0.002613 -0.003318 -0.001187
# 3 -0.000208 -0.000206 0.011429 -0.003568 -0.003304 -0.001569
# 4 0.000190 -0.002613 -0.003568 0.046643 -0.007357 -0.002401
# 5 -0.005515 -0.003318 -0.003304 -0.007357 0.031090 0.005173
# 6 -0.011159 -0.001187 -0.001569 -0.002401 0.005173 0.038597
#
#
# Mechanical properties :
#
#
# Convention : Reuss Voigt Hill
#
# Bulk Modulus (GPa) = 28.13501 39.76064 33.94783
# Shear Modulus (GPa) = 26.97532 32.74483 29.86007
#
# Velocity S-wave (km/s) = 3.56679 3.92975 3.75266
# Velocity P-wave (km/s) = 5.49832 6.27234 5.89804
#
# Compressibility (1/GPa) = 0.03554290
#
# Stress axis : x y z
#
# Youngs Moduli (GPa) = 51.68383 64.17408 87.49928
#
# Poissons Ratio (x) = 0.32050 0.01821
# Poissons Ratio (y) = 0.25812 0.01804
# Poissons Ratio (z) = 0.01075 0.01323
#
# Static dielectric constant tensor:
#      x y z
#    x 1.863170 0.020140 -0.018240 
#    y 0.020140 1.766160 -0.019940 
#    z -0.018240 -0.019940 1.863520 
# 
# From -- ./inp_files/525697.got.cif
#   From: 2010.05.17/outbox.cif.g08.bks.cpg/sg2_263_cif.got.tgz:525697.got - 2010.06.03 11:33:40.
