data_PCOD9080448
_publ_section_title
;
Structure prediction by ZEFSAII (Michael W. Deem and Ramdas Pophale) SiO2 
 PCOD9080448
Probable space group: P -1
;
_chemical_formula_sum "Si O2"
_cell_formula_units_Z 16
_cell_length_a 16.707727
_cell_length_b 12.086302
_cell_length_c 23.983399
_cell_angle_alpha 34.351921
_cell_angle_beta 18.589015
_cell_angle_gamma 44.487711
_cell_volume 804.289322
_symmetry_space_group_name_H-M "P -1"
_symmetry_group_IT_number 2
_symmetry_cell_setting 'triclinic'
loop_
_space_group_symop_operation_xyz
x,y,z
-x,-y,-z
loop_
_atom_site_type_symbol
_atom_site_label
_atom_site_fract_x
_atom_site_fract_y
_atom_site_fract_z
Si Si1 0.996190 0.620845 0.851853
Si Si2 0.345359 0.630984 0.908576
Si Si3 0.856546 0.133758 0.973824
Si Si4 0.217431 0.000106 0.161993
Si Si5 0.461740 0.789532 0.647487
Si Si6 0.959508 0.221507 0.746836
Si Si7 0.860173 0.569466 0.615276
Si Si8 0.413264 0.298389 0.599509
O O1 0.930030 0.530707 0.869698
O O2 0.857663 0.792758 0.876768
O O3 0.318176 0.696401 0.612624
O O4 0.819429 0.413923 0.091741
O O5 0.455163 0.805154 0.713296
O O6 0.548173 0.511860 0.831611
O O7 0.274411 0.091888 0.815780
O O8 0.305908 0.732250 0.949252
O O9 0.845069 0.104137 0.928164
O O10 0.169644 0.265236 0.730587
O O11 0.181722 0.913188 0.158323
O O12 0.993646 0.822904 0.421738
O O13 0.500000 0.000000 0.000000
O O14 0.722047 0.733105 0.486896
O O15 0.500000 0.000000 0.500000
O O16 0.913724 0.441404 0.683881
O O17 0.000000 0.500000 0.500000
O O18 0.500000 0.500000 0.500000
#
# Coordination Sequence:
#
# PCOD9080448 Si02
#       8
#     2   2   2   2   2   2   2   2
#     4  10  21  39  68  99 125 179 232 276 326 404
#     4  10  20  42  67  92 129 181 222 263 350 397
#     4  11  26  42  68  96 140 184 216 280 345 398
#     4  11  20  39  66  97 131 170 225 286 337 394
#     4  10  22  39  65  96 130 170 225 276 330 393
#     4  11  24  41  64 101 133 173 225 278 342 399
#     4  10  18  39  66  89 125 174 218 274 338 396
#     4  11  23  45  67  92 136 190 226 263 335 417
#
# _framework density 19.893339999999998
#
# number of rings (size 3 to 8) (size 9 to 14) (size 15 to 20)
#    0.750    0.750    3.750    3.000    5.250    0.500 
#    4.500    1.250    0.000    3.000    0.000    0.000 
#    0.000    0.000    0.000    0.000    0.000    0.000 
#
# Total GULP energy -89162.346796 kJ/mol
# GULP energy per Si atom -5572.646675 kJ/mol
# Density = 1.984806 g / cm^3
# Si number density = 19.893340 Si / 1000 Ang^3
#
#
#
# Elastic Constant Matrix: (Units=GPa)
#
#
# Indices 1 2 3 4 5 6 
#
# 1 70.8552 36.1286 33.8455 9.3973 8.8796 -6.7758
# 2 36.1286 100.0780 46.4928 1.0039 -5.7767 -12.1499
# 3 33.8455 46.4928 95.9077 5.7329 1.1253 -16.1669
# 4 9.3973 1.0039 5.7329 37.3897 -3.2588 -2.6444
# 5 8.8796 -5.7767 1.1253 -3.2588 26.0601 3.9585
# 6 -6.7758 -12.1499 -16.1669 -2.6444 3.9585 37.4667
#
#
#
# Elastic Compliance Matrix: (Units=1/GPa)
#
#
# Indices 1 2 3 4 5 6 
#
# 1 0.021029 -0.006174 -0.003885 -0.005269 -0.009134 0.000718
# 2 -0.006174 0.015060 -0.005154 0.002523 0.005812 0.001107
# 3 -0.003885 -0.005154 0.015077 -0.001008 -0.001232 0.004191
# 4 -0.005269 0.002523 -0.001008 0.028727 0.005863 0.000838
# 5 -0.009134 0.005812 -0.001232 0.005863 0.044253 -0.004561
# 6 0.000718 0.001107 0.004191 0.000838 -0.004561 0.029529
#
#
# Mechanical properties :
#
#
# Convention : Reuss Voigt Hill
#
# Bulk Modulus (GPa) = 48.21533 55.53053 51.87293
# Shear Modulus (GPa) = 26.17594 30.20823 28.19208
#
# Velocity S-wave (km/s) = 3.63135 3.90103 3.76860
# Velocity P-wave (km/s) = 6.47084 6.94734 6.71332
#
# Compressibility (1/GPa) = 0.02074029
#
# Stress axis : x y z
#
# Youngs Moduli (GPa) = 47.55255 66.40054 66.32414
#
# Poissons Ratio (x) = 0.40996 0.25767
# Poissons Ratio (y) = 0.29359 0.34185
# Poissons Ratio (z) = 0.18475 0.34224
#
# Static dielectric constant tensor:
#      x y z
#    x 1.733660 -0.012770 -0.031600 
#    y -0.012770 1.751290 -0.027740 
#    z -0.031600 -0.027740 1.741400 
# 
# From -- ./inp_files/613082.got.cif
#   From: 2010.05.17/outbox.cif.g08.bks.cpg/sg2_307_cif.got.tgz:613082.got - 2010.06.03 11:33:40.
