data_PCOD9080572
_publ_section_title
;
Structure prediction by ZEFSAII (Michael W. Deem and Ramdas Pophale) SiO2 
 PCOD9080572
Probable space group: P -1
;
_chemical_formula_sum "Si O2"
_cell_formula_units_Z 16
_cell_length_a 7.643889
_cell_length_b 13.789852
_cell_length_c 12.851164
_cell_angle_alpha 94.449705
_cell_angle_beta 28.813232
_cell_angle_gamma 95.646006
_cell_volume 649.593603
_symmetry_space_group_name_H-M "P -1"
_symmetry_group_IT_number 2
_symmetry_cell_setting 'triclinic'
loop_
_space_group_symop_operation_xyz
x,y,z
-x,-y,-z
loop_
_atom_site_type_symbol
_atom_site_label
_atom_site_fract_x
_atom_site_fract_y
_atom_site_fract_z
Si Si1 0.943145 0.950596 0.272280
Si Si2 0.917381 0.411222 0.193480
Si Si3 0.650719 0.904855 0.791305
Si Si4 0.053322 0.390993 0.343853
Si Si5 0.379005 0.926260 0.722078
Si Si6 0.230172 0.618299 0.291134
Si Si7 0.085361 0.636120 0.145376
Si Si8 0.260275 0.742862 0.879839
O O1 0.805986 0.990256 0.237602
O O2 0.019556 0.047103 0.312817
O O3 0.681305 0.094458 0.953570
O O4 0.663604 0.889514 0.485557
O O5 0.851222 0.366737 0.338687
O O6 0.683490 0.352967 0.223938
O O7 0.335688 0.390275 0.946200
O O8 0.896328 0.527968 0.216349
O O9 0.563064 0.965027 0.737346
O O10 0.617012 0.798243 0.750371
O O11 0.054607 0.508302 0.361092
O O12 0.481811 0.375789 0.103422
O O13 0.869217 0.348734 0.539966
O O14 0.135892 0.830473 0.878584
O O15 0.083492 0.669344 0.268536
O O16 0.990599 0.710894 0.111477
#
# Coordination Sequence:
#
# PCOD9080572 Si02
#       8
#     2   2   2   2   2   2   2   2
#     4  10  18  40  64  82 108 152 174 224 296 330
#     4   9  17  32  51  71 107 148 181 223 275 317
#     4   9  21  36  61  85 112 141 184 228 274 346
#     4   8  15  30  52  71  90 134 193 233 268 320
#     4   9  21  36  61  85 112 141 184 228 274 346
#     4   8  15  30  52  71  90 134 193 233 268 320
#     4   9  17  32  51  71 107 148 181 223 275 317
#     4  10  21  34  48  80 118 138 184 232 263 330
#
# _framework density 24.630782
#
# number of rings (size 3 to 8) (size 9 to 14) (size 15 to 20)
#    0.750    2.250    0.000    2.625    0.000    2.000 
#    4.500    0.000    0.000    6.000    0.000    0.000 
#    0.000    0.000    0.000    0.000    0.000    0.000 
#
# Total GULP energy -89202.508611 kJ/mol
# GULP energy per Si atom -5575.156788 kJ/mol
# Density = 2.457472 g / cm^3
# Si number density = 24.630782 Si / 1000 Ang^3
#
#
#
# Elastic Constant Matrix: (Units=GPa)
#
#
# Indices 1 2 3 4 5 6 
#
# 1 83.4787 31.6391 41.4187 -8.7912 24.7216 24.6556
# 2 31.6391 48.4123 23.4932 -11.9707 5.3732 12.9758
# 3 41.4187 23.4932 150.0808 2.9039 42.0560 -7.7888
# 4 -8.7912 -11.9707 2.9039 22.7479 -5.7758 -2.6882
# 5 24.7216 5.3732 42.0560 -5.7758 41.1818 5.4802
# 6 24.6556 12.9758 -7.7888 -2.6882 5.4802 24.7241
#
#
#
# Elastic Compliance Matrix: (Units=1/GPa)
#
#
# Indices 1 2 3 4 5 6 
#
# 1 0.026113 -0.006620 -0.005969 0.003341 -0.005196 -0.022932
# 2 -0.006620 0.037054 -0.008881 0.019465 0.013126 -0.016436
# 3 -0.005969 -0.008881 0.014736 -0.010394 -0.014059 0.017242
# 4 0.003341 0.019465 -0.010394 0.059294 0.016245 -0.013975
# 5 -0.005196 0.013126 -0.014059 0.016245 0.044211 -0.014169
# 6 -0.022932 -0.016436 0.017242 -0.013975 -0.014169 0.078993
#
#
# Mechanical properties :
#
#
# Convention : Reuss Voigt Hill
#
# Bulk Modulus (GPa) = 28.60208 52.78599 40.69403
# Shear Modulus (GPa) = 15.87321 30.09215 22.98268
#
# Velocity S-wave (km/s) = 2.54135 3.49912 3.05796
# Velocity P-wave (km/s) = 4.49987 6.14838 5.38755
#
# Compressibility (1/GPa) = 0.03496250
#
# Stress axis : x y z
#
# Youngs Moduli (GPa) = 38.29442 26.98798 67.86007
#
# Poissons Ratio (x) = 0.17867 0.40505
# Poissons Ratio (y) = 0.25352 0.60267
# Poissons Ratio (z) = 0.22858 0.23968
#
# Static dielectric constant tensor:
#      x y z
#    x 2.058050 -0.059900 -0.008100 
#    y -0.059900 1.983220 -0.003250 
#    z -0.008100 -0.003250 2.031600 
# 
# From -- ./inp_files/401202.got.cif
#   From: 2010.05.17/outbox.cif.g08.bks.cpg/sg2_201_cif.got.tgz:401202.got - 2010.06.03 11:33:40.
