data_PCOD9080355
_publ_section_title
;
Structure prediction by ZEFSAII (Michael W. Deem and Ramdas Pophale) SiO2 
 PCOD9080355
Probable space group: P -1
;
_chemical_formula_sum "Si O2"
_cell_formula_units_Z 16
_cell_length_a 20.326022
_cell_length_b 7.460344
_cell_length_c 7.689849
_cell_angle_alpha 38.114287
_cell_angle_beta 120.597082
_cell_angle_gamma 108.650167
_cell_volume 612.346810
_symmetry_space_group_name_H-M "P -1"
_symmetry_group_IT_number 2
_symmetry_cell_setting 'triclinic'
loop_
_space_group_symop_operation_xyz
x,y,z
-x,-y,-z
loop_
_atom_site_type_symbol
_atom_site_label
_atom_site_fract_x
_atom_site_fract_y
_atom_site_fract_z
Si Si1 0.452933 0.320837 0.706389
Si Si2 0.577304 0.129031 0.541172
Si Si3 0.045976 0.501654 0.882261
Si Si4 0.204353 0.583243 0.491289
Si Si5 0.919356 0.166966 0.634715
Si Si6 0.688619 0.888087 0.200124
Si Si7 0.275342 0.142671 0.203569
Si Si8 0.794664 0.369503 0.038061
O O1 0.500000 0.500000 0.500000
O O2 0.446034 0.527164 0.711291
O O3 0.366116 0.245277 0.634345
O O4 0.500000 0.000000 0.000000
O O5 0.500000 0.000000 0.500000
O O6 0.638241 0.030080 0.545310
O O7 0.627345 0.992107 0.880418
O O8 0.126780 0.600959 0.981948
O O9 0.025057 0.715696 0.523946
O O10 0.055790 0.179913 0.048657
O O11 0.000000 0.500000 0.000000
O O12 0.240253 0.370219 0.548472
O O13 0.114930 0.636297 0.394923
O O14 0.224253 0.907657 0.241231
O O15 0.261675 0.417559 0.843352
O O16 0.839021 0.205171 0.390041
O O17 0.729037 0.174887 0.059823
O O18 0.239761 0.300357 0.206075
#
# Coordination Sequence:
#
# PCOD9080355 Si02
#       8
#     2   2   2   2   2   2   2   2
#     4  12  26  48  62  90 125 166 206 272 336 390
#     4  11  26  45  65  92 122 170 217 268 333 387
#     4  10  19  35  62  97 131 162 204 255 309 376
#     4  10  18  39  61  88 119 160 211 261 303 371
#     4   9  18  36  59  91 124 164 211 250 304 372
#     4  11  24  45  66  94 127 167 217 275 326 377
#     4  10  20  40  60  86 118 161 212 261 304 382
#     4   9  22  37  65  95 122 166 213 261 315 370
#
# _framework density 26.128985
#
# number of rings (size 3 to 8) (size 9 to 14) (size 15 to 20)
#    0.750    1.000    3.750    0.375    1.750    1.500 
#    4.500    0.000    0.000    1.500    0.000    0.000 
#    0.000    0.000    0.000    0.000    0.000    0.000 
#
# Total GULP energy -89196.734377 kJ/mol
# GULP energy per Si atom -5574.795899 kJ/mol
# Density = 2.606951 g / cm^3
# Si number density = 26.128985 Si / 1000 Ang^3
#
#
#
# Elastic Constant Matrix: (Units=GPa)
#
#
# Indices 1 2 3 4 5 6 
#
# 1 198.5364 44.4415 37.4010 -31.0611 14.3820 13.9586
# 2 44.4415 68.8754 32.8325 -21.9740 4.4198 16.2971
# 3 37.4010 32.8325 116.5437 -37.7206 6.4022 4.7282
# 4 -31.0611 -21.9740 -37.7206 54.3237 -1.3060 -2.4199
# 5 14.3820 4.4198 6.4022 -1.3060 46.8136 -11.5197
# 6 13.9586 16.2971 4.7282 -2.4199 -11.5197 40.7842
#
#
#
# Elastic Compliance Matrix: (Units=1/GPa)
#
#
# Indices 1 2 3 4 5 6 
#
# 1 0.006293 -0.002736 -0.000406 0.002100 -0.001913 -0.001429
# 2 -0.002736 0.021168 -0.003232 0.004356 -0.002460 -0.007584
# 3 -0.000406 -0.003232 0.011820 0.006653 -0.000955 0.000185
# 4 0.002100 0.004356 0.006653 0.025849 -0.001787 -0.002202
# 5 -0.001913 -0.002460 -0.000955 -0.001787 0.024359 0.008523
# 6 -0.001429 -0.007584 0.000185 -0.002202 0.008523 0.030294
#
#
# Mechanical properties :
#
#
# Convention : Reuss Voigt Hill
#
# Bulk Modulus (GPa) = 37.69170 68.14505 52.91838
# Shear Modulus (GPa) = 35.36651 46.33633 40.85142
#
# Velocity S-wave (km/s) = 3.68303 4.21571 3.95834
# Velocity P-wave (km/s) = 5.70464 7.05926 6.41779
#
# Compressibility (1/GPa) = 0.02653104
#
# Stress axis : x y z
#
# Youngs Moduli (GPa) = 158.89518 47.24202 84.60526
#
# Poissons Ratio (x) = 0.12927 0.03436
# Poissons Ratio (y) = 0.43480 0.27347
# Poissons Ratio (z) = 0.06452 0.15270
#
# Static dielectric constant tensor:
#      x y z
#    x 2.205740 -0.157760 -0.055460 
#    y -0.157760 2.186730 0.125940 
#    z -0.055460 0.125940 2.071010 
# 
# From -- ./inp_files/469098.got.cif
#   From: 2010.05.17/outbox.cif.g08.bks.cpg/sg2_235_cif.got.tgz:469098.got - 2010.06.03 11:33:40.
