data_PCOD9080832
_publ_section_title
;
Structure prediction by ZEFSAII (Michael W. Deem and Ramdas Pophale) SiO2 
 PCOD9080832
Probable space group: P -1
;
_chemical_formula_sum "Si O2"
_cell_formula_units_Z 16
_cell_length_a 9.231938
_cell_length_b 20.984914
_cell_length_c 15.673015
_cell_angle_alpha 23.555567
_cell_angle_beta 43.599891
_cell_angle_gamma 32.413184
_cell_volume 632.693247
_symmetry_space_group_name_H-M "P -1"
_symmetry_group_IT_number 2
_symmetry_cell_setting 'triclinic'
loop_
_space_group_symop_operation_xyz
x,y,z
-x,-y,-z
loop_
_atom_site_type_symbol
_atom_site_label
_atom_site_fract_x
_atom_site_fract_y
_atom_site_fract_z
Si Si1 0.541603 0.713392 0.784629
Si Si2 0.283174 0.420738 0.307176
Si Si3 0.442232 0.725888 0.115039
Si Si4 0.000348 0.782786 0.345427
Si Si5 0.882525 0.876075 0.461647
Si Si6 0.684223 0.791570 0.082328
Si Si7 0.331668 0.290935 0.621050
Si Si8 0.803996 0.441266 0.153039
O O1 0.523690 0.678016 0.737306
O O2 0.701430 0.805821 0.606747
O O3 0.290423 0.878741 0.752598
O O4 0.698788 0.496440 0.034537
O O5 0.426836 0.349417 0.426575
O O6 0.132218 0.321934 0.487959
O O7 0.012331 0.670186 0.104912
O O8 0.251211 0.695644 0.282931
O O9 0.655414 0.695404 0.129527
O O10 0.584581 0.584181 0.145731
O O11 0.239150 0.968713 0.874849
O O12 0.079119 0.775770 0.419024
O O13 0.011568 0.790586 0.604532
O O14 0.602550 0.738294 0.269726
O O15 0.470441 0.045490 0.847601
O O16 0.000000 0.500000 0.500000
O O17 0.000000 0.500000 0.000000
#
# Coordination Sequence:
#
# PCOD9080832 Si02
#       8
#     2   2   2   2   2   2   2   2
#     4   9  17  28  43  68  98 128 166 199 244 292
#     4  10  19  32  52  74 103 136 165 209 251 301
#     4  11  20  32  50  73 110 139 169 203 244 308
#     4  10  20  32  48  74 108 144 166 197 251 300
#     4   9  17  29  44  63  98 137 162 199 238 294
#     4  10  19  32  51  72  97 134 169 210 253 299
#     4   9  19  34  50  71  99 127 170 215 260 297
#     4  10  19  29  45  68  98 134 171 202 240 293
#
# _framework density 25.288715
#
# number of rings (size 3 to 8) (size 9 to 14) (size 15 to 20)
#    0.000    2.250    2.500    2.250    1.750    3.000 
#    0.000    0.000    0.000    0.000    0.000    0.875 
#    0.000   52.250    0.000    7.250    0.000    0.000 
#
# Total GULP energy -89290.287288 kJ/mol
# GULP energy per Si atom -5580.642956 kJ/mol
# Density = 2.523116 g / cm^3
# Si number density = 25.288715 Si / 1000 Ang^3
#
#
#
# Elastic Constant Matrix: (Units=GPa)
#
#
# Indices 1 2 3 4 5 6 
#
# 1 95.3003 27.6463 40.3751 1.2472 -3.2647 17.3226
# 2 27.6463 98.1545 21.8522 17.0724 -3.4075 30.1334
# 3 40.3751 21.8522 125.6840 0.9665 24.3630 18.1119
# 4 1.2472 17.0724 0.9665 42.3156 9.8064 14.9797
# 5 -3.2647 -3.4075 24.3630 9.8064 31.0793 11.7915
# 6 17.3226 30.1334 18.1119 14.9797 11.7915 25.9625
#
#
#
# Elastic Compliance Matrix: (Units=1/GPa)
#
#
# Indices 1 2 3 4 5 6 
#
# 1 0.015106 0.001049 -0.005120 0.001577 0.010262 -0.013294
# 2 0.001049 0.019973 -0.002792 -0.001726 0.015678 -0.028058
# 3 -0.005120 -0.002792 0.012130 0.003134 -0.012046 0.001857
# 4 0.001577 -0.001726 0.003134 0.031519 -0.006110 -0.016646
# 5 0.010262 0.015678 -0.012046 -0.006110 0.062004 -0.041275
# 6 -0.013294 -0.028058 0.001857 -0.016646 -0.041275 0.107007
#
#
# Mechanical properties :
#
#
# Convention : Reuss Voigt Hill
#
# Bulk Modulus (GPa) = 29.86795 55.43177 42.64986
# Shear Modulus (GPa) = 18.34018 35.15583 26.74800
#
# Velocity S-wave (km/s) = 2.69593 3.73255 3.25577
# Velocity P-wave (km/s) = 4.63974 6.36735 5.57092
#
# Compressibility (1/GPa) = 0.03348071
#
# Stress axis : x y z
#
# Youngs Moduli (GPa) = 66.20048 50.06878 82.43920
#
# Poissons Ratio (x) = -0.05250 0.42213
# Poissons Ratio (y) = -0.06942 0.23016
# Poissons Ratio (z) = 0.33898 0.13979
#
# Static dielectric constant tensor:
#      x y z
#    x 2.091700 -0.122830 0.015300 
#    y -0.122830 2.033120 0.005260 
#    z 0.015300 0.005260 2.024290 
# 
# From -- ./inp_files/465672.got.cif
#   From: 2010.05.17/outbox.cif.g08.bks.cpg/sg2_233_cif.got.tgz:465672.got - 2010.06.03 11:33:40.
