data_PCOD9080474
_publ_section_title
;
Structure prediction by ZEFSAII (Michael W. Deem and Ramdas Pophale) SiO2 
 PCOD9080474
Probable space group: P -1
;
_chemical_formula_sum "Si O2"
_cell_formula_units_Z 14
_cell_length_a 13.800214
_cell_length_b 5.166883
_cell_length_c 15.045477
_cell_angle_alpha 82.081830
_cell_angle_beta 141.486307
_cell_angle_gamma 110.398414
_cell_volume 609.174637
_symmetry_space_group_name_H-M "P -1"
_symmetry_group_IT_number 2
_symmetry_cell_setting 'triclinic'
loop_
_space_group_symop_operation_xyz
x,y,z
-x,-y,-z
loop_
_atom_site_type_symbol
_atom_site_label
_atom_site_fract_x
_atom_site_fract_y
_atom_site_fract_z
Si Si1 0.397645 0.432382 0.222382
Si Si2 0.744476 0.684010 0.360015
Si Si3 0.946800 0.686084 0.765604
Si Si4 0.181098 0.710915 0.455510
Si Si5 0.924817 0.920753 0.308005
Si Si6 0.485713 0.927609 0.388936
Si Si7 0.025516 0.185762 0.920843
O O1 0.559904 0.615947 0.270375
O O2 0.421286 0.152261 0.286770
O O3 0.382761 0.616738 0.288487
O O4 0.227342 0.327073 0.047832
O O5 0.775360 0.395799 0.414990
O O6 0.775066 0.783670 0.275850
O O7 0.904579 0.906858 0.519230
O O8 0.972698 0.453126 0.858770
O O9 0.806475 0.497082 0.604319
O O10 0.092714 0.875619 0.791159
O O11 0.923875 0.935308 0.791659
O O12 0.326568 0.000498 0.517363
O O13 0.992583 0.699099 0.322169
O O14 0.500000 0.000000 0.500000
O O15 0.000000 0.000000 0.000000
#
# Coordination Sequence:
#
# PCOD9080474 Si02
#       7
#     2   2   2   2   2   2   2
#     4  11  24  44  59  93 129 163 210 257 307 383
#     4   9  20  36  65  99 127 165 195 259 334 372
#     4  11  24  42  64  94 122 164 220 261 295 373
#     4  10  20  37  66  95 136 153 211 257 318 384
#     4  10  18  39  67  98 126 161 203 263 318 381
#     4  11  24  38  65  94 126 161 199 265 329 366
#     4  12  27  44  65  84 125 178 219 253 305 361
#
# _framework density 22.981912999999999
#
# number of rings (size 3 to 8) (size 9 to 14) (size 15 to 20)
#    0.000    1.429    2.857    2.143    4.000    0.000 
#    0.000    1.429    0.000    0.000    0.000    0.000 
#    0.000    0.000    0.000    0.000    0.000    0.000 
#
# Total GULP energy -78032.022458 kJ/mol
# GULP energy per Si atom -5573.715890 kJ/mol
# Density = 2.292960 g / cm^3
# Si number density = 22.981913 Si / 1000 Ang^3
#
#
#
# Elastic Constant Matrix: (Units=GPa)
#
#
# Indices 1 2 3 4 5 6 
#
# 1 74.2623 44.3280 0.0068 1.6452 6.8465 8.8066
# 2 44.3280 115.1665 18.5504 -8.1990 -3.7059 -2.2482
# 3 0.0068 18.5504 35.3481 6.3437 8.3083 -5.5930
# 4 1.6452 -8.1990 6.3437 34.8555 3.5374 -9.8627
# 5 6.8465 -3.7059 8.3083 3.5374 30.1526 1.8330
# 6 8.8066 -2.2482 -5.5930 -9.8627 1.8330 45.7930
#
#
#
# Elastic Compliance Matrix: (Units=1/GPa)
#
#
# Indices 1 2 3 4 5 6 
#
# 1 0.020503 -0.009669 0.006900 -0.005040 -0.006887 -0.004385
# 2 -0.009669 0.014609 -0.009689 0.005741 0.005842 0.002396
# 3 0.006900 -0.009689 0.037947 -0.007785 -0.012400 0.001652
# 4 -0.005040 0.005741 -0.007785 0.033896 -0.000444 0.007618
# 5 -0.006887 0.005842 -0.012400 -0.000444 0.039010 -0.001560
# 6 -0.004385 0.002396 0.001652 0.007618 -0.001560 0.024703
#
#
# Mechanical properties :
#
#
# Convention : Reuss Voigt Hill
#
# Bulk Modulus (GPa) = 20.77182 38.94971 29.86077
# Shear Modulus (GPa) = 23.62579 32.95298 28.28938
#
# Velocity S-wave (km/s) = 3.20975 3.79075 3.51228
# Velocity P-wave (km/s) = 4.77437 6.01203 5.42859
#
# Compressibility (1/GPa) = 0.04814214
#
# Stress axis : x y z
#
# Youngs Moduli (GPa) = 48.77230 68.45111 26.35278
#
# Poissons Ratio (x) = 0.66187 -0.18183
# Poissons Ratio (y) = 0.47159 0.25533
# Poissons Ratio (z) = -0.33652 0.66323
#
# Static dielectric constant tensor:
#      x y z
#    x 1.972320 -0.065660 -0.033620 
#    y -0.065660 1.978380 0.013360 
#    z -0.033620 0.013360 1.873380 
# 
# From -- ./inp_files/119061.got.cif
#   From: 2010.05.17/outbox.cif.g08.bks.cpg/sg2_60_cif.got.tgz:119061.got - 2010.06.03 11:33:40.
