data_PCOD9080603
_publ_section_title
;
Structure prediction by ZEFSAII (Michael W. Deem and Ramdas Pophale) SiO2 
 PCOD9080603
Probable space group: P -1
;
_chemical_formula_sum "Si O2"
_cell_formula_units_Z 14
_cell_length_a 9.222501
_cell_length_b 20.254601
_cell_length_c 8.409278
_cell_angle_alpha 51.951424
_cell_angle_beta 98.676680
_cell_angle_gamma 142.691743
_cell_volume 527.222084
_symmetry_space_group_name_H-M "P -1"
_symmetry_group_IT_number 2
_symmetry_cell_setting 'triclinic'
loop_
_space_group_symop_operation_xyz
x,y,z
-x,-y,-z
loop_
_atom_site_type_symbol
_atom_site_label
_atom_site_fract_x
_atom_site_fract_y
_atom_site_fract_z
Si Si1 0.750663 0.699596 0.567009
Si Si2 0.254238 0.041804 0.666781
Si Si3 0.000000 0.000000 0.000000
Si Si4 0.500000 0.500000 0.500000
Si Si5 0.478371 0.001616 0.184290
Si Si6 0.497521 0.329746 0.918576
Si Si7 0.289637 0.563742 0.888587
Si Si8 0.177998 0.652708 0.173871
O O1 0.547805 0.542947 0.634215
O O2 0.520561 0.603422 0.821845
O O3 0.112983 0.840225 0.431693
O O4 0.826308 0.832301 0.315966
O O5 0.180720 0.023997 0.867160
O O6 0.501857 0.241751 0.353473
O O7 0.395970 0.022123 0.692418
O O8 0.881467 0.853442 0.806610
O O9 0.551638 0.426447 0.650641
O O10 0.724434 0.206385 0.956761
O O11 0.500000 0.000000 0.000000
O O12 0.493017 0.235432 0.976585
O O13 0.795487 0.491139 0.858049
O O14 0.027487 0.439527 0.886196
O O15 0.000000 0.500000 0.500000
#
# Coordination Sequence:
#
# PCOD9080603 Si02
#       8
#     2   2   1   1   2   2   2   2
#     4  11  25  44  71 107 144 190 244 307 365 435
#     4  11  24  44  75 105 145 195 248 297 370 437
#     4  10  18  40  66 100 138 182 240 294 346 432
#     4  12  26  42  80 104 140 192 250 300 358 442
#     4  12  25  43  71 111 150 188 252 306 361 435
#     4  12  27  50  74 107 153 192 249 305 379 439
#     4  11  27  49  76 106 150 197 242 311 376 437
#     4  12  28  45  78 110 148 197 249 306 369 443
#
# _framework density 26.554275000000001
#
# number of rings (size 3 to 8) (size 9 to 14) (size 15 to 20)
#    0.000    0.571    2.857    4.286   14.000    0.571 
#    0.000    1.429    0.000    0.000    0.000    0.000 
#    0.000    0.000    0.000    0.000    0.000    0.000 
#
# Total GULP energy -77996.281096 kJ/mol
# GULP energy per Si atom -5571.162935 kJ/mol
# Density = 2.649384 g / cm^3
# Si number density = 26.554275 Si / 1000 Ang^3
#
#
#
# Elastic Constant Matrix: (Units=GPa)
#
#
# Indices 1 2 3 4 5 6 
#
# 1 248.8430 60.9413 34.1057 -21.2002 17.9678 -9.2450
# 2 60.9413 131.7133 25.5763 -3.6216 18.0678 -17.3486
# 3 34.1057 25.5763 39.0275 -0.9372 11.3024 7.5463
# 4 -21.2002 -3.6216 -0.9372 30.8953 0.2269 4.6135
# 5 17.9678 18.0678 11.3024 0.2269 49.5823 -1.2914
# 6 -9.2450 -17.3486 7.5463 4.6135 -1.2914 43.3295
#
#
#
# Elastic Compliance Matrix: (Units=1/GPa)
#
#
# Indices 1 2 3 4 5 6 
#
# 1 0.005194 -0.001459 -0.003499 0.003175 -0.000547 0.000779
# 2 -0.001459 0.010273 -0.005909 -0.000688 -0.001738 0.004853
# 3 -0.003499 -0.005909 0.035808 -0.000562 -0.004984 -0.009438
# 4 0.003175 -0.000688 -0.000562 0.034941 -0.001016 -0.003251
# 5 -0.000547 -0.001738 -0.004984 -0.001016 0.022163 0.000824
# 6 0.000779 0.004853 -0.009438 -0.003251 0.000824 0.027202
#
#
# Mechanical properties :
#
#
# Convention : Reuss Voigt Hill
#
# Bulk Modulus (GPa) = 33.85043 73.42561 53.63802
# Shear Modulus (GPa) = 29.91078 44.69212 37.30145
#
# Velocity S-wave (km/s) = 3.35983 4.10695 3.75203
# Velocity P-wave (km/s) = 5.27509 7.08523 6.24608
#
# Compressibility (1/GPa) = 0.02954172
#
# Stress axis : x y z
#
# Youngs Moduli (GPa) = 192.51414 97.33898 27.92659
#
# Poissons Ratio (x) = 0.14200 0.09772
# Poissons Ratio (y) = 0.28085 0.16502
# Poissons Ratio (z) = 0.67365 0.57518
#
# Static dielectric constant tensor:
#      x y z
#    x 1.998790 0.008510 -0.081620 
#    y 0.008510 2.211790 -0.013220 
#    z -0.081620 -0.013220 2.119280 
# 
# From -- ./inp_files/160090.got.cif
#   From: 2010.05.17/outbox.cif.g08.bks.cpg/sg2_81_cif.got.tgz:160090.got - 2010.06.03 11:33:40.
