data_PCOD9080760
_publ_section_title
;
Structure prediction by ZEFSAII (Michael W. Deem and Ramdas Pophale) SiO2 
 PCOD9080760
Probable space group: P -1
;
_chemical_formula_sum "Si O2"
_cell_formula_units_Z 15
_cell_length_a 8.050842
_cell_length_b 9.226209
_cell_length_c 11.557608
_cell_angle_alpha 95.498352
_cell_angle_beta 98.126402
_cell_angle_gamma 127.550226
_cell_volume 655.429427
_symmetry_space_group_name_H-M "P -1"
_symmetry_group_IT_number 2
_symmetry_cell_setting 'triclinic'
loop_
_space_group_symop_operation_xyz
x,y,z
-x,-y,-z
loop_
_atom_site_type_symbol
_atom_site_label
_atom_site_fract_x
_atom_site_fract_y
_atom_site_fract_z
Si Si1 0.291913 0.583514 0.523156
Si Si2 0.500000 0.000000 0.500000
Si Si3 0.832159 0.391959 0.245536
Si Si4 0.277276 0.428055 0.917203
Si Si5 0.745812 0.432698 0.847726
Si Si6 0.460352 0.980549 0.213101
Si Si7 0.070441 0.987354 0.133290
Si Si8 0.698284 0.638262 0.679643
O O1 0.144580 0.546018 0.614744
O O2 0.505595 0.626436 0.605219
O O3 0.204953 0.410387 0.416085
O O4 0.374406 0.771184 0.478738
O O5 0.537455 0.015543 0.646663
O O6 0.695225 0.441020 0.170593
O O7 0.053539 0.505472 0.206566
O O8 0.692380 0.168309 0.210290
O O9 0.126818 0.213007 0.848496
O O10 0.500000 0.500000 0.000000
O O11 0.165751 0.445595 0.017761
O O12 0.598703 0.214079 0.846673
O O13 0.624067 0.485853 0.761036
O O14 0.276514 0.992051 0.152741
O O15 0.133828 0.159991 0.230143
O O16 0.000000 0.000000 0.000000
#
# Coordination Sequence:
#
# PCOD9080760 Si02
#       8
#     2   1   2   2   2   2   2   2
#     4  10  22  42  74 103 146 192 245 301 361 428
#     4  10  18  42  74 102 140 198 234 302 356 422
#     4  11  24  44  69 106 139 190 242 299 364 430
#     4  12  26  45  71 102 146 191 243 306 366 435
#     4  12  25  44  72 101 143 190 243 298 364 441
#     4  11  24  45  71 105 145 189 245 300 363 431
#     4  12  23  43  73 103 148 191 239 300 366 434
#     4  11  22  42  71 106 144 192 237 301 365 426
#
# _framework density 22.885762
#
# number of rings (size 3 to 8) (size 9 to 14) (size 15 to 20)
#    0.000    0.800    6.667    2.000    0.000    2.133 
#    0.000    0.667    0.000    0.000    0.000    0.000 
#    0.000    0.000    0.000    0.000    0.000    0.000 
#
# Total GULP energy -83741.037123 kJ/mol
# GULP energy per Si atom -5582.735808 kJ/mol
# Density = 2.283367 g / cm^3
# Si number density = 22.885762 Si / 1000 Ang^3
#
#
#
# Elastic Constant Matrix: (Units=GPa)
#
#
# Indices 1 2 3 4 5 6 
#
# 1 62.4191 20.9699 16.2703 2.8255 -5.5920 -10.5044
# 2 20.9699 175.3595 51.0096 18.6903 -6.5201 -26.1146
# 3 16.2703 51.0096 122.1298 7.9775 0.2508 -11.9990
# 4 2.8255 18.6903 7.9775 55.5766 -11.1639 2.7961
# 5 -5.5920 -6.5201 0.2508 -11.1639 38.1715 -2.3917
# 6 -10.5044 -26.1146 -11.9990 2.7961 -2.3917 25.1687
#
#
#
# Elastic Compliance Matrix: (Units=1/GPa)
#
#
# Indices 1 2 3 4 5 6 
#
# 1 0.017971 -0.000624 -0.001491 -0.000237 0.002870 0.006441
# 2 -0.000624 0.007804 -0.002324 -0.002416 0.000995 0.007092
# 3 -0.001491 -0.002324 0.009558 -0.000753 -0.000802 0.001531
# 4 -0.000237 -0.002416 -0.000753 0.020202 0.005170 -0.004718
# 5 0.002870 0.000995 -0.000802 0.005170 0.028555 0.003986
# 6 0.006441 0.007092 0.001531 -0.004718 0.003986 0.051411
#
#
# Mechanical properties :
#
#
# Convention : Reuss Voigt Hill
#
# Bulk Modulus (GPa) = 37.79941 59.60088 48.70014
# Shear Modulus (GPa) = 32.63772 41.89395 37.26584
#
# Velocity S-wave (km/s) = 3.78049 4.28316 4.03965
# Velocity P-wave (km/s) = 5.96729 7.11055 6.56386
#
# Compressibility (1/GPa) = 0.02645544
#
# Stress axis : x y z
#
# Youngs Moduli (GPa) = 55.64566 128.14410 104.61973
#
# Poissons Ratio (x) = 0.07997 0.15599
# Poissons Ratio (y) = 0.03473 0.24310
# Poissons Ratio (z) = 0.08297 0.29777
#
# Static dielectric constant tensor:
#      x y z
#    x 1.963220 -0.011580 0.000360 
#    y -0.011580 1.818210 0.015320 
#    z 0.000360 0.015320 1.856620 
# 
# From -- ./inp_files/382391.got.cif
#   From: 2010.05.17/outbox.cif.g08.bks.cpg/sg2_192_cif.got.tgz:382391.got - 2010.06.03 11:33:40.
