data_PCOD9080986
_publ_section_title
;
Structure prediction by ZEFSAII (Michael W. Deem and Ramdas Pophale) SiO2 
 PCOD9080986
Probable space group: P -1
;
_chemical_formula_sum "Si O2"
_cell_formula_units_Z 14
_cell_length_a 7.583888
_cell_length_b 19.815014
_cell_length_c 15.452580
_cell_angle_alpha 149.866187
_cell_angle_beta 48.382840
_cell_angle_gamma 109.046099
_cell_volume 654.009023
_symmetry_space_group_name_H-M "P -1"
_symmetry_group_IT_number 2
_symmetry_cell_setting 'triclinic'
loop_
_space_group_symop_operation_xyz
x,y,z
-x,-y,-z
loop_
_atom_site_type_symbol
_atom_site_label
_atom_site_fract_x
_atom_site_fract_y
_atom_site_fract_z
Si Si1 0.982679 0.738062 0.003343
Si Si2 0.649995 0.883949 0.430851
Si Si3 0.129485 0.424340 0.279398
Si Si4 0.641578 0.416436 0.718544
Si Si5 0.800979 0.129827 0.808987
Si Si6 0.067951 0.758763 0.394049
Si Si7 0.289730 0.321863 0.658185
O O1 0.826292 0.724110 0.123790
O O2 0.247429 0.736583 0.952586
O O3 0.687888 0.943520 0.300844
O O4 0.043378 0.619705 0.772636
O O5 0.602747 0.830389 0.476958
O O6 0.902657 0.911401 0.382673
O O7 0.142434 0.555131 0.364719
O O8 0.000000 0.500000 0.500000
O O9 0.489077 0.240964 0.976883
O O10 0.792092 0.280359 0.599202
O O11 0.532864 0.351767 0.608853
O O12 0.347047 0.607614 0.069928
O O13 0.907136 0.953160 0.625013
O O14 0.831553 0.719740 0.428053
O O15 0.000000 0.500000 0.000000
#
# Coordination Sequence:
#
# PCOD9080986 Si02
#       7
#     2   2   2   2   2   2   2
#     4   9  21  35  60  86 119 138 191 248 289 346
#     4   9  18  35  59  94 120 137 181 250 306 344
#     4  12  26  41  58  81 116 167 208 234 271 344
#     4  10  23  35  55  89 124 146 186 240 301 348
#     4  10  20  37  61  87 113 156 195 239 293 336
#     4  10  20  34  63  92 116 146 179 245 315 350
#     4  10  19  30  50  87 125 144 172 224 304 361
#
# _framework density 21.406433
#
# number of rings (size 3 to 8) (size 9 to 14) (size 15 to 20)
#    0.857    1.143    0.000    4.286    6.000    2.286 
#    0.000    0.714    0.000    6.000    0.000    0.000 
#    0.000    0.000    0.000    0.000    0.000    0.000 
#
# Total GULP energy -78064.077330 kJ/mol
# GULP energy per Si atom -5576.005524 kJ/mol
# Density = 2.135771 g / cm^3
# Si number density = 21.406433 Si / 1000 Ang^3
#
#
#
# Elastic Constant Matrix: (Units=GPa)
#
#
# Indices 1 2 3 4 5 6 
#
# 1 90.2916 2.3764 2.4415 -1.5097 20.9723 18.7848
# 2 2.3764 60.0562 10.8483 11.9530 8.7106 0.8405
# 3 2.4415 10.8483 29.1229 -3.6996 11.6093 -0.8198
# 4 -1.5097 11.9530 -3.6996 19.2615 -11.2096 7.3108
# 5 20.9723 8.7106 11.6093 -11.2096 33.6790 10.1370
# 6 18.7848 0.8405 -0.8198 7.3108 10.1370 24.7861
#
#
#
# Elastic Compliance Matrix: (Units=1/GPa)
#
#
# Indices 1 2 3 4 5 6 
#
# 1 0.014322 0.000283 0.001258 0.000208 -0.006934 -0.008048
# 2 0.000283 0.030384 -0.005084 -0.045346 -0.028482 0.023610
# 3 0.001258 -0.005084 0.043063 -0.001713 -0.017366 0.008251
# 4 0.000208 -0.045346 -0.001713 0.167079 0.093778 -0.086310
# 5 -0.006934 -0.028482 -0.017366 0.093778 0.097161 -0.061751
# 6 -0.008048 0.023610 0.008251 -0.086310 -0.061751 0.096629
#
#
# Mechanical properties :
#
#
# Convention : Reuss Voigt Hill
#
# Bulk Modulus (GPa) = 12.39424 23.42256 17.90840
# Shear Modulus (GPa) = 10.36014 26.46564 18.41289
#
# Velocity S-wave (km/s) = 2.20233 3.51998 2.93602
# Velocity P-wave (km/s) = 3.50279 5.24270 4.45844
#
# Compressibility (1/GPa) = 0.08068261
#
# Stress axis : x y z
#
# Youngs Moduli (GPa) = 69.82211 32.91199 23.22188
#
# Poissons Ratio (x) = -0.00932 -0.02921
# Poissons Ratio (y) = -0.01976 0.11806
# Poissons Ratio (z) = -0.08782 0.16733
#
# Static dielectric constant tensor:
#      x y z
#    x 1.943090 -0.049280 0.029910 
#    y -0.049280 1.853460 0.015430 
#    z 0.029910 0.015430 1.796530 
# 
# From -- ./inp_files/562234.got.cif
#   From: 2010.05.17/outbox.cif.g08.bks.cpg/sg2_282_cif.got.tgz:562234.got - 2010.06.03 11:33:40.
