data_PCOD9080659
_publ_section_title
;
Structure prediction by ZEFSAII (Michael W. Deem and Ramdas Pophale) SiO2 
 PCOD9080659
Probable space group: P -1
;
_chemical_formula_sum "Si O2"
_cell_formula_units_Z 16
_cell_length_a 6.780591
_cell_length_b 7.759874
_cell_length_c 18.752400
_cell_angle_alpha 74.562980
_cell_angle_beta 47.387334
_cell_angle_gamma 98.449393
_cell_volume 621.077756
_symmetry_space_group_name_H-M "P -1"
_symmetry_group_IT_number 2
_symmetry_cell_setting 'triclinic'
loop_
_space_group_symop_operation_xyz
x,y,z
-x,-y,-z
loop_
_atom_site_type_symbol
_atom_site_label
_atom_site_fract_x
_atom_site_fract_y
_atom_site_fract_z
Si Si1 0.322626 0.800300 0.783048
Si Si2 0.291889 0.503948 0.986726
Si Si3 0.527540 0.917250 0.407256
Si Si4 0.074804 0.283356 0.649311
Si Si5 0.900824 0.808781 0.597876
Si Si6 0.484204 0.052329 0.107983
Si Si7 0.871051 0.910436 0.949980
Si Si8 0.623477 0.468712 0.587460
O O1 0.653235 0.818633 0.708455
O O2 0.045053 0.580547 0.889076
O O3 0.196095 0.936189 0.842151
O O4 0.335752 0.870018 0.689135
O O5 0.404744 0.728729 0.908634
O O6 0.500000 0.500000 0.000000
O O7 0.284274 0.323684 0.960606
O O8 0.780526 0.868274 0.382971
O O9 0.403686 0.753889 0.389358
O O10 0.232522 0.845976 0.536863
O O11 0.292759 0.427226 0.642998
O O12 0.145708 0.409386 0.546235
O O13 0.740881 0.146984 0.773083
O O14 0.726792 0.601326 0.618194
O O15 0.000000 0.000000 0.500000
O O16 0.287935 0.062858 0.086774
O O17 0.781109 0.037539 0.011781
#
# Coordination Sequence:
#
# PCOD9080659 Si02
#       8
#     2   2   2   2   2   2   2   2
#     4   9  17  30  43  74 113 127 167 231 257 307
#     4   8  15  26  42  70 107 128 168 213 262 314
#     4   9  16  33  53  75 100 138 177 215 257 313
#     4   9  18  32  54  77 112 132 175 218 263 325
#     4  10  20  32  54  76 104 139 179 215 269 308
#     4  10  15  28  50  73 106 143 165 212 281 309
#     4   8  16  26  43  71 105 131 172 213 258 316
#     4   9  19  34  52  75 108 139 176 216 265 318
#
# _framework density 25.761666999999999
#
# number of rings (size 3 to 8) (size 9 to 14) (size 15 to 20)
#    1.500    1.500    1.250    0.375    0.000    4.000 
#    0.000    2.500    5.500    0.000    0.000   12.250 
#    0.000    0.000    0.000    0.000    0.000    0.000 
#
# Total GULP energy -89226.161541 kJ/mol
# GULP energy per Si atom -5576.635096 kJ/mol
# Density = 2.570303 g / cm^3
# Si number density = 25.761667 Si / 1000 Ang^3
#
#
#
# Elastic Constant Matrix: (Units=GPa)
#
#
# Indices 1 2 3 4 5 6 
#
# 1 76.9958 9.5256 35.3954 11.4936 -28.5880 6.4807
# 2 9.5256 106.7626 53.7759 3.3466 4.0570 5.1652
# 3 35.3954 53.7759 181.4131 5.8464 -18.3029 2.7011
# 4 11.4936 3.3466 5.8464 49.5650 -9.7008 -7.0734
# 5 -28.5880 4.0570 -18.3029 -9.7008 38.0068 2.4236
# 6 6.4807 5.1652 2.7011 -7.0734 2.4236 29.4313
#
#
#
# Elastic Compliance Matrix: (Units=1/GPa)
#
#
# Indices 1 2 3 4 5 6 
#
# 1 0.020092 -0.000921 -0.002074 -0.002450 0.013958 -0.005810
# 2 -0.000921 0.011488 -0.003554 -0.001095 -0.003818 -0.001436
# 3 -0.002074 -0.003554 0.007192 0.000380 0.002360 0.000317
# 4 -0.002450 -0.001095 0.000380 0.022336 0.003791 0.005753
# 5 0.013958 -0.003818 0.002360 0.003791 0.039639 -0.004973
# 6 -0.005810 -0.001436 0.000317 0.005753 -0.004973 0.037272
#
#
# Mechanical properties :
#
#
# Convention : Reuss Voigt Hill
#
# Bulk Modulus (GPa) = 38.94929 62.50729 50.72829
# Shear Modulus (GPa) = 31.31404 41.16559 36.23981
#
# Velocity S-wave (km/s) = 3.49023 4.00176 3.75471
# Velocity P-wave (km/s) = 5.60305 6.75785 6.20736
#
# Compressibility (1/GPa) = 0.02567441
#
# Stress axis : x y z
#
# Youngs Moduli (GPa) = 49.77095 87.04819 139.05242
#
# Poissons Ratio (x) = 0.08015 0.28833
# Poissons Ratio (y) = 0.04583 0.49423
# Poissons Ratio (z) = 0.10320 0.30939
#
# Static dielectric constant tensor:
#      x y z
#    x 2.237200 0.049320 0.030330 
#    y 0.049320 2.052470 0.042300 
#    z 0.030330 0.042300 1.982780 
# 
# From -- ./inp_files/606720.got.cif
#   From: 2010.05.17/outbox.cif.g08.bks.cpg/sg2_304_cif.got.tgz:606720.got - 2010.06.03 11:33:40.
