data_PCOD9080043
_publ_section_title
;
Structure prediction by ZEFSAII (Michael W. Deem and Ramdas Pophale) SiO2 
 PCOD9080043
Probable space group: P -1
;
_chemical_formula_sum "Si O2"
_cell_formula_units_Z 15
_cell_length_a 8.851252
_cell_length_b 12.210766
_cell_length_c 7.551629
_cell_angle_alpha 110.833225
_cell_angle_beta 62.542166
_cell_angle_gamma 121.721026
_cell_volume 609.083883
_symmetry_space_group_name_H-M "P -1"
_symmetry_group_IT_number 2
_symmetry_cell_setting 'triclinic'
loop_
_space_group_symop_operation_xyz
x,y,z
-x,-y,-z
loop_
_atom_site_type_symbol
_atom_site_label
_atom_site_fract_x
_atom_site_fract_y
_atom_site_fract_z
Si Si1 0.658240 0.964245 0.980265
Si Si2 0.080734 0.145097 0.716999
Si Si3 0.500000 0.500000 0.000000
Si Si4 0.889234 0.266438 0.660844
Si Si5 0.908104 0.451722 0.219075
Si Si6 0.120241 0.287815 0.119064
Si Si7 0.601537 0.316757 0.076250
Si Si8 0.197655 0.943110 0.663868
O O1 0.592541 0.812373 0.888067
O O2 0.674905 0.990925 0.197759
O O3 0.500000 0.000000 0.000000
O O4 0.866486 0.054544 0.845859
O O5 0.044002 0.217598 0.613136
O O6 0.184078 0.051338 0.604785
O O7 0.183585 0.253135 0.874867
O O8 0.692895 0.597370 0.841979
O O9 0.610459 0.424171 0.992814
O O10 0.748647 0.263268 0.890516
O O11 0.762089 0.163219 0.525505
O O12 0.007305 0.417614 0.635938
O O13 0.969147 0.343967 0.193261
O O14 0.685371 0.384953 0.257124
O O15 0.000000 0.500000 0.000000
O O16 0.010005 0.151267 0.198261
#
# Coordination Sequence:
#
# PCOD9080043 Si02
#       8
#     2   2   1   2   2   2   2   2
#     4  11  21  39  64  88 119 157 202 249 286 350
#     4  11  20  41  62  87 117 164 203 239 293 356
#     4  12  20  32  62  88 110 142 206 256 276 336
#     4  11  21  39  62  86 126 159 193 243 306 357
#     4  10  18  38  62  83 110 161 206 232 293 358
#     4  11  20  38  61  87 112 155 206 249 287 344
#     4  11  20  37  61  89 112 156 202 244 291 348
#     4  11  25  37  60  93 123 157 197 245 299 360
#
# _framework density 24.627148999999999
#
# number of rings (size 3 to 8) (size 9 to 14) (size 15 to 20)
#    0.000    1.067    6.667    4.400    0.000    1.067 
#    0.000    0.000    0.000    4.000    0.000    0.000 
#    0.000    0.000    0.000    0.000    0.000    0.000 
#
# Total GULP energy -83569.774407 kJ/mol
# GULP energy per Si atom -5571.318294 kJ/mol
# Density = 2.457110 g / cm^3
# Si number density = 24.627149 Si / 1000 Ang^3
#
#
#
# Elastic Constant Matrix: (Units=GPa)
#
#
# Indices 1 2 3 4 5 6 
#
# 1 94.8344 29.9197 12.1387 10.2380 -0.5167 -17.5542
# 2 29.9197 102.2400 4.3050 27.2552 -7.5967 -21.3962
# 3 12.1387 4.3050 43.1349 18.3295 7.2301 -0.5808
# 4 10.2380 27.2552 18.3295 31.9016 -2.4151 -8.9192
# 5 -0.5167 -7.5967 7.2301 -2.4151 6.2856 0.9628
# 6 -17.5542 -21.3962 -0.5808 -8.9192 0.9628 49.5016
#
#
#
# Elastic Compliance Matrix: (Units=1/GPa)
#
#
# Indices 1 2 3 4 5 6 
#
# 1 0.012545 -0.003240 -0.004872 0.002744 0.003249 0.003422
# 2 -0.003240 0.015169 0.002937 -0.012016 0.009597 0.003090
# 3 -0.004872 0.002937 0.051915 -0.037556 -0.070193 -0.005251
# 4 0.002744 -0.012016 -0.037556 0.068248 0.054117 0.006583
# 5 0.003249 0.009597 -0.070193 0.054117 0.271125 0.008954
# 6 0.003422 0.003090 -0.005251 0.006583 0.008954 0.023701
#
#
# Mechanical properties :
#
#
# Convention : Reuss Voigt Hill
#
# Bulk Modulus (GPa) = 14.43423 36.99291 25.71357
# Shear Modulus (GPa) = 10.50101 30.46080 20.48090
#
# Velocity S-wave (km/s) = 2.06718 3.52074 2.88694
# Velocity P-wave (km/s) = 3.40169 5.61973 4.64504
#
# Compressibility (1/GPa) = 0.06927977
#
# Stress axis : x y z
#
# Youngs Moduli (GPa) = 79.71017 65.92594 19.26233
#
# Poissons Ratio (x) = 0.21360 0.09384
# Poissons Ratio (y) = 0.25826 -0.05657
# Poissons Ratio (z) = 0.38831 -0.19363
#
# Static dielectric constant tensor:
#      x y z
#    x 2.039260 0.036320 0.003860 
#    y 0.036320 2.023400 0.041230 
#    z 0.003860 0.041230 2.042910 
# 
# From -- ./inp_files/189931.got.cif
#   From: 2010.05.17/outbox.cif.g08.bks.cpg/sg2_95_cif.got.tgz:189931.got - 2010.06.03 11:33:40.
