data_PCOD9080812
_publ_section_title
;
Structure prediction by ZEFSAII (Michael W. Deem and Ramdas Pophale) SiO2 
 PCOD9080812
Probable space group: P -1
;
_chemical_formula_sum "Si O2"
_cell_formula_units_Z 16
_cell_length_a 10.054337
_cell_length_b 15.111212
_cell_length_c 13.174208
_cell_angle_alpha 127.422941
_cell_angle_beta 147.756648
_cell_angle_gamma 71.591142
_cell_volume 749.590729
_symmetry_space_group_name_H-M "P -1"
_symmetry_group_IT_number 2
_symmetry_cell_setting 'triclinic'
loop_
_space_group_symop_operation_xyz
x,y,z
-x,-y,-z
loop_
_atom_site_type_symbol
_atom_site_label
_atom_site_fract_x
_atom_site_fract_y
_atom_site_fract_z
Si Si1 0.710041 0.767367 0.893379
Si Si2 0.734170 0.756117 0.273650
Si Si3 0.834782 0.631512 0.427354
Si Si4 0.329641 0.860385 0.629414
Si Si5 0.073867 0.972867 0.415487
Si Si6 0.794735 0.068091 0.796117
Si Si7 0.861875 0.091934 0.092287
Si Si8 0.390005 0.605647 0.752927
O O1 0.481836 0.773994 0.674892
O O2 0.572130 0.650512 0.799103
O O3 0.990134 0.804259 0.034928
O O4 0.807047 0.888097 0.116254
O O5 0.657558 0.648317 0.232598
O O6 0.743370 0.885630 0.408445
O O7 0.063162 0.802083 0.490623
O O8 0.550000 0.704174 0.016969
O O9 0.660389 0.526557 0.324871
O O10 0.985989 0.769533 0.669877
O O11 0.087622 0.601201 0.535501
O O12 0.213679 0.881150 0.461259
O O13 0.573432 0.003298 0.904005
O O14 0.000000 0.000000 0.500000
O O15 0.500000 0.000000 0.500000
O O16 0.787188 0.094446 0.928000
O O17 0.943428 0.977215 0.824621
#
# Coordination Sequence:
#
# PCOD9080812 Si02
#       8
#     2   2   2   2   2   2   2   2
#     4  11  20  36  56  85 115 152 188 236 296 345
#     4  11  20  33  54  83 116 151 191 231 285 346
#     4  11  24  39  57  82 126 159 193 234 275 351
#     4  10  19  31  55  81 113 141 180 238 291 340
#     4  10  19  28  50  85 113 142 179 235 286 347
#     4  10  22  39  62  86 113 145 192 250 301 335
#     4  10  22  38  58  88 114 151 189 241 297 342
#     4  11  23  38  56  86 121 163 194 226 281 349
#
# _framework density 21.344981000000001
#
# number of rings (size 3 to 8) (size 9 to 14) (size 15 to 20)
#    0.000    1.500    3.750    3.375    1.750    3.500 
#    0.000    0.625    0.000    0.750    0.000    0.000 
#    0.000    0.000    0.000    0.000    0.000    0.000 
#
# Total GULP energy -89255.219875 kJ/mol
# GULP energy per Si atom -5578.451242 kJ/mol
# Density = 2.129640 g / cm^3
# Si number density = 21.344981 Si / 1000 Ang^3
#
#
#
# Elastic Constant Matrix: (Units=GPa)
#
#
# Indices 1 2 3 4 5 6 
#
# 1 39.2692 15.2415 4.2278 -5.4492 11.8147 25.2307
# 2 15.2415 127.9976 17.6155 -1.4568 16.9344 40.4284
# 3 4.2278 17.6155 43.7226 -6.5629 16.5276 10.4935
# 4 -5.4492 -1.4568 -6.5629 48.1402 6.1178 4.3245
# 5 11.8147 16.9344 16.5276 6.1178 33.2325 3.0916
# 6 25.2307 40.4284 10.4935 4.3245 3.0916 37.2204
#
#
#
# Elastic Compliance Matrix: (Units=1/GPa)
#
#
# Indices 1 2 3 4 5 6 
#
# 1 0.105358 0.025639 0.035037 0.035358 -0.064418 -0.107904
# 2 0.025639 0.019262 0.009431 0.011189 -0.021919 -0.040441
# 3 0.035037 0.009431 0.044015 0.019222 -0.038463 -0.045442
# 4 0.035358 0.011189 0.019222 0.035466 -0.030347 -0.043141
# 5 -0.064418 -0.021919 -0.038463 -0.030347 0.081896 0.075042
# 6 -0.107904 -0.040441 -0.045442 -0.043141 0.075042 0.155529
#
#
# Mechanical properties :
#
#
# Convention : Reuss Voigt Hill
#
# Bulk Modulus (GPa) = 3.23781 31.68431 17.46106
# Shear Modulus (GPa) = 12.36821 35.31225 23.84023
#
# Velocity S-wave (km/s) = 2.40977 4.07179 3.34563
# Velocity P-wave (km/s) = 3.04350 6.08129 4.80859
#
# Compressibility (1/GPa) = 0.30885078
#
# Stress axis : x y z
#
# Youngs Moduli (GPa) = 9.49144 51.91466 22.71960
#
# Poissons Ratio (x) = -1.33105 -0.79604
# Poissons Ratio (y) = -0.24335 -0.21427
# Poissons Ratio (z) = -0.33256 -0.48961
#
# Static dielectric constant tensor:
#      x y z
#    x 1.804900 0.024320 0.041310 
#    y 0.024320 1.852870 -0.035170 
#    z 0.041310 -0.035170 1.800060 
# 
# From -- ./inp_files/520969.got.cif
#   From: 2010.05.17/outbox.cif.g08.bks.cpg/sg2_261_cif.got.tgz:520969.got - 2010.06.03 11:33:40.
