data_PCOD9080325
_publ_section_title
;
Structure prediction by ZEFSAII (Michael W. Deem and Ramdas Pophale) SiO2 
 PCOD9080325
Probable space group: P -1
;
_chemical_formula_sum "Si O2"
_cell_formula_units_Z 15
_cell_length_a 9.277592
_cell_length_b 12.536650
_cell_length_c 12.567936
_cell_angle_alpha 57.519237
_cell_angle_beta 129.706344
_cell_angle_gamma 143.471163
_cell_volume 668.490196
_symmetry_space_group_name_H-M "P -1"
_symmetry_group_IT_number 2
_symmetry_cell_setting 'triclinic'
loop_
_space_group_symop_operation_xyz
x,y,z
-x,-y,-z
loop_
_atom_site_type_symbol
_atom_site_label
_atom_site_fract_x
_atom_site_fract_y
_atom_site_fract_z
Si Si1 0.109561 0.012178 0.878562
Si Si2 0.644824 0.616138 0.171925
Si Si3 0.500000 0.000000 0.000000
Si Si4 0.456425 0.050689 0.564345
Si Si5 0.667117 0.720638 0.665766
Si Si6 0.086183 0.792661 0.140401
Si Si7 0.086969 0.486952 0.935556
Si Si8 0.889254 0.229205 0.269717
O O1 0.843865 0.835744 0.792124
O O2 0.143170 0.176952 0.803313
O O3 0.120307 0.951149 0.031478
O O4 0.355086 0.068313 0.902781
O O5 0.575029 0.480700 0.300033
O O6 0.790992 0.626269 0.133978
O O7 0.375561 0.562513 0.045499
O O8 0.669596 0.109842 0.136149
O O9 0.413931 0.180739 0.465933
O O10 0.710764 0.148464 0.706119
O O11 0.500000 0.000000 0.500000
O O12 0.215545 0.877320 0.612355
O O13 0.852038 0.724099 0.674064
O O14 0.115417 0.721678 0.084917
O O15 0.069816 0.599953 0.790876
O O16 0.000000 0.500000 0.000000
#
# Coordination Sequence:
#
# PCOD9080325 Si02
#       8
#     2   2   1   2   2   2   2   2
#     4  11  22  41  74 107 138 187 244 302 368 417
#     4  12  24  41  72 108 149 182 239 305 365 433
#     4  10  18  38  76 104 132 176 242 302 346 420
#     4  12  28  50  72 101 150 205 243 289 364 448
#     4  11  26  46  72 105 147 186 248 303 360 429
#     4  12  26  45  72 105 146 197 242 302 365 430
#     4  12  23  43  75 114 141 180 243 311 368 422
#     4  11  23  45  76 105 143 189 242 307 362 425
#
# _framework density 22.438623
#
# number of rings (size 3 to 8) (size 9 to 14) (size 15 to 20)
#    0.000    0.533    5.333    2.800    1.867    0.533 
#    2.400    2.000    0.000    0.000    0.000    0.000 
#    0.000    0.000    0.000    0.000    0.000    0.000 
#
# Total GULP energy -83686.481983 kJ/mol
# GULP energy per Si atom -5579.098799 kJ/mol
# Density = 2.238755 g / cm^3
# Si number density = 22.438623 Si / 1000 Ang^3
#
#
#
# Elastic Constant Matrix: (Units=GPa)
#
#
# Indices 1 2 3 4 5 6 
#
# 1 73.3659 9.5668 27.9719 -10.0430 -2.2823 1.4738
# 2 9.5668 87.3652 27.8083 -36.5291 -1.9526 -11.3548
# 3 27.9719 27.8083 101.3111 -29.4865 9.4098 -3.8329
# 4 -10.0430 -36.5291 -29.4865 54.5383 -5.3647 -0.5500
# 5 -2.2823 -1.9526 9.4098 -5.3647 38.0783 -4.7511
# 6 1.4738 -11.3548 -3.8329 -0.5500 -4.7511 42.5941
#
#
#
# Elastic Compliance Matrix: (Units=1/GPa)
#
#
# Indices 1 2 3 4 5 6 
#
# 1 0.015430 -0.000112 -0.004249 0.000656 0.001972 -0.000718
# 2 -0.000112 0.017354 -0.001631 0.011114 0.003478 0.005015
# 3 -0.004249 -0.001631 0.013237 0.005011 -0.002822 0.000653
# 4 0.000656 0.011114 0.005011 0.029044 0.003988 0.004211
# 5 0.001972 0.003478 -0.002822 0.003988 0.028293 0.003812
# 6 -0.000718 0.005015 0.000653 0.004211 0.003812 0.025378
#
#
# Mechanical properties :
#
#
# Convention : Reuss Voigt Hill
#
# Bulk Modulus (GPa) = 29.38033 43.63738 36.50886
# Shear Modulus (GPa) = 32.88050 40.15514 36.51782
#
# Velocity S-wave (km/s) = 3.83215 4.23490 4.03855
# Velocity P-wave (km/s) = 5.71861 6.58803 6.16866
#
# Compressibility (1/GPa) = 0.03403637
#
# Stress axis : x y z
#
# Youngs Moduli (GPa) = 64.80686 57.62353 75.54839
#
# Poissons Ratio (x) = 0.00647 0.32100
# Poissons Ratio (y) = 0.00728 0.12322
# Poissons Ratio (z) = 0.27536 0.09399
#
# Static dielectric constant tensor:
#      x y z
#    x 1.813410 -0.114730 -0.006310 
#    y -0.114730 1.769570 0.028160 
#    z -0.006310 0.028160 1.789770 
# 
# From -- ./inp_files/392413.got.cif
#   From: 2010.05.17/outbox.cif.g08.bks.cpg/sg2_197_cif.got.tgz:392413.got - 2010.06.03 11:33:40.
