data_PCOD9080466
_publ_section_title
;
Structure prediction by ZEFSAII (Michael W. Deem and Ramdas Pophale) SiO2 
 PCOD9080466
Probable space group: P -1
;
_chemical_formula_sum "Si O2"
_cell_formula_units_Z 16
_cell_length_a 8.016179
_cell_length_b 16.533304
_cell_length_c 11.720131
_cell_angle_alpha 44.634787
_cell_angle_beta 55.660835
_cell_angle_gamma 36.907703
_cell_volume 655.333289
_symmetry_space_group_name_H-M "P -1"
_symmetry_group_IT_number 2
_symmetry_cell_setting 'triclinic'
loop_
_space_group_symop_operation_xyz
x,y,z
-x,-y,-z
loop_
_atom_site_type_symbol
_atom_site_label
_atom_site_fract_x
_atom_site_fract_y
_atom_site_fract_z
Si Si1 0.715199 0.900448 0.619543
Si Si2 0.444503 0.695343 0.900307
Si Si3 0.560449 0.642409 0.642532
Si Si4 0.456973 0.920974 0.270247
Si Si5 0.003246 0.031142 0.703025
Si Si6 0.208595 0.549964 0.809957
Si Si7 0.636875 0.346420 0.677465
Si Si8 0.034718 0.692900 0.193843
O O1 0.913965 0.930760 0.480316
O O2 0.904246 0.712687 0.731829
O O3 0.500000 0.000000 0.500000
O O4 0.584040 0.971121 0.722359
O O5 0.479438 0.689085 0.758363
O O6 0.279994 0.876863 0.814662
O O7 0.728225 0.543924 0.004255
O O8 0.227283 0.682488 0.038438
O O9 0.524373 0.773228 0.455967
O O10 0.378661 0.605721 0.701461
O O11 0.877316 0.474059 0.683831
O O12 0.710982 0.843402 0.165718
O O13 0.171090 0.010483 0.226865
O O14 0.800159 0.189637 0.697317
O O15 0.373773 0.411715 0.790241
O O16 0.500000 0.500000 0.500000
O O17 0.861273 0.305695 0.722741
#
# Coordination Sequence:
#
# PCOD9080466 Si02
#       8
#     2   2   2   2   2   2   2   2
#     4  12  24  41  65  93 126 168 216 266 318 382
#     4  10  22  40  67  93 132 170 210 259 327 384
#     4  10  18  39  67  94 127 169 214 262 313 381
#     4  12  23  38  65  99 127 162 223 272 303 382
#     4  12  22  41  67  95 126 173 216 260 323 378
#     4  10  21  39  63  93 123 173 210 257 323 383
#     4  10  19  37  64  90 129 167 213 260 315 379
#     4  10  23  38  59  98 132 166 211 262 323 376
#
# _framework density 24.415056
#
# number of rings (size 3 to 8) (size 9 to 14) (size 15 to 20)
#    0.000    1.500    3.750    4.500    0.000    2.500 
#    0.000    0.625    0.000    0.000    0.000    0.875 
#    0.000    0.000    0.000    0.000    0.000    0.000 
#
# Total GULP energy -89454.096057 kJ/mol
# GULP energy per Si atom -5590.881004 kJ/mol
# Density = 2.435949 g / cm^3
# Si number density = 24.415056 Si / 1000 Ang^3
#
#
#
# Elastic Constant Matrix: (Units=GPa)
#
#
# Indices 1 2 3 4 5 6 
#
# 1 49.0671 23.0611 1.5048 -1.8012 9.4128 -4.0470
# 2 23.0611 157.6907 26.3911 -21.0852 15.7337 4.5808
# 3 1.5048 26.3911 93.8381 -21.0215 -2.0263 -7.7625
# 4 -1.8012 -21.0852 -21.0215 50.7196 -5.5764 5.9473
# 5 9.4128 15.7337 -2.0263 -5.5764 31.5457 -1.9865
# 6 -4.0470 4.5808 -7.7625 5.9473 -1.9865 41.0757
#
#
#
# Elastic Compliance Matrix: (Units=1/GPa)
#
#
# Indices 1 2 3 4 5 6 
#
# 1 0.023037 -0.003133 0.000334 -0.001239 -0.005345 0.002603
# 2 -0.003133 0.007746 -0.001843 0.002273 -0.002770 -0.001984
# 3 0.000334 -0.001843 0.012384 0.004414 0.002525 0.002062
# 4 -0.001239 0.002273 0.004414 0.023145 0.003439 -0.002726
# 5 -0.005345 -0.002770 0.002525 0.003439 0.035540 0.001480
# 6 0.002603 -0.001984 0.002062 -0.002726 0.001480 0.025679
#
#
# Mechanical properties :
#
#
# Convention : Reuss Voigt Hill
#
# Bulk Modulus (GPa) = 29.51320 44.72332 37.11826
# Shear Modulus (GPa) = 33.75916 41.31078 37.53497
#
# Velocity S-wave (km/s) = 3.72253 4.11788 3.92518
# Velocity P-wave (km/s) = 5.53088 6.40054 5.98154
#
# Compressibility (1/GPa) = 0.03388315
#
# Stress axis : x y z
#
# Youngs Moduli (GPa) = 43.40837 129.09740 80.75241
#
# Poissons Ratio (x) = 0.40444 -0.02698
# Poissons Ratio (y) = 0.13599 0.14882
# Poissons Ratio (z) = -0.01450 0.23792
#
# Static dielectric constant tensor:
#      x y z
#    x 2.045610 -0.058920 -0.032710 
#    y -0.058920 1.978170 -0.007170 
#    z -0.032710 -0.007170 1.968720 
# 
# From -- ./inp_files/402011.got.cif
#   From: 2010.05.17/outbox.cif.g08.bks.cpg/sg2_202_cif.got.tgz:402011.got - 2010.06.03 11:33:40.
