data_PCOD9080036
_publ_section_title
;
Structure prediction by ZEFSAII (Michael W. Deem and Ramdas Pophale) SiO2 
 PCOD9080036
Probable space group: P -1
;
_chemical_formula_sum "Si O2"
_cell_formula_units_Z 15
_cell_length_a 8.184610
_cell_length_b 11.971611
_cell_length_c 14.657510
_cell_angle_alpha 129.987646
_cell_angle_beta 70.646271
_cell_angle_gamma 68.539470
_cell_volume 621.931193
_symmetry_space_group_name_H-M "P -1"
_symmetry_group_IT_number 2
_symmetry_cell_setting 'triclinic'
loop_
_space_group_symop_operation_xyz
x,y,z
-x,-y,-z
loop_
_atom_site_type_symbol
_atom_site_label
_atom_site_fract_x
_atom_site_fract_y
_atom_site_fract_z
Si Si1 0.326069 0.842863 0.938653
Si Si2 0.086814 0.599522 0.076596
Si Si3 0.295988 0.211193 0.438168
Si Si4 0.510928 0.805668 0.083533
Si Si5 0.467177 0.547069 0.421538
Si Si6 0.118969 0.014309 0.800431
Si Si7 0.500000 0.000000 0.500000
Si Si8 0.053170 0.319035 0.174197
O O1 0.527027 0.606130 0.715444
O O2 0.430523 0.785751 0.993571
O O3 0.020711 0.964891 0.074707
O O4 0.261231 0.050468 0.028245
O O5 0.083940 0.724547 0.065855
O O6 0.828935 0.812486 0.305025
O O7 0.390269 0.373083 0.951593
O O8 0.000000 0.500000 0.000000
O O9 0.020467 0.503491 0.646633
O O10 0.288362 0.074399 0.304693
O O11 0.572056 0.120769 0.307707
O O12 0.377363 0.110191 0.473797
O O13 0.801128 0.702137 0.949656
O O14 0.500000 0.500000 0.500000
O O15 0.740602 0.457173 0.288371
O O16 0.190114 0.839217 0.622206
#
# Coordination Sequence:
#
# PCOD9080036 Si02
#       8
#     2   2   2   2   2   2   1   2
#     4  12  27  42  64  95 138 172 209 267 329 383
#     4  11  22  40  70  95 126 162 218 265 316 387
#     4  10  22  39  71  97 124 166 224 269 312 374
#     4  12  25  42  64 101 134 167 210 270 330 378
#     4  11  24  44  68  94 125 173 226 264 311 382
#     4  10  23  42  66  97 122 170 220 263 315 383
#     4  10  18  38  62 100 116 158 214 268 306 364
#     4  11  24  42  68  92 130 176 221 261 311 391
#
# _framework density 24.118424999999998
#
# number of rings (size 3 to 8) (size 9 to 14) (size 15 to 20)
#    0.000    1.067    5.333    1.600    3.733    2.133 
#    0.000    0.667    0.000    0.000    0.000    0.000 
#    0.000    0.000    0.000    0.000    0.000    0.000 
#
# Total GULP energy -83655.818198 kJ/mol
# GULP energy per Si atom -5577.054547 kJ/mol
# Density = 2.406353 g / cm^3
# Si number density = 24.118425 Si / 1000 Ang^3
#
#
#
# Elastic Constant Matrix: (Units=GPa)
#
#
# Indices 1 2 3 4 5 6 
#
# 1 73.4588 31.7064 41.1760 -4.3215 28.2776 -0.4876
# 2 31.7064 107.5486 34.9820 8.7980 25.2101 9.7769
# 3 41.1760 34.9820 148.7071 13.0927 50.7067 1.8318
# 4 -4.3215 8.7980 13.0927 47.6814 14.4835 -1.5912
# 5 28.2776 25.2101 50.7067 14.4835 47.8663 -12.6197
# 6 -0.4876 9.7769 1.8318 -1.5912 -12.6197 30.2978
#
#
#
# Elastic Compliance Matrix: (Units=1/GPa)
#
#
# Indices 1 2 3 4 5 6 
#
# 1 0.020648 -0.003084 -0.001522 0.006306 -0.011692 -0.003120
# 2 -0.003084 0.012329 0.000364 -0.000879 -0.006596 -0.006844
# 3 -0.001522 0.000364 0.011723 0.000480 -0.013564 -0.006475
# 4 0.006306 -0.000879 0.000480 0.025197 -0.012303 -0.003445
# 5 -0.011692 -0.006596 -0.013564 -0.012303 0.056080 0.025473
# 6 -0.003120 -0.006844 -0.006475 -0.003445 0.025473 0.045984
#
#
# Mechanical properties :
#
#
# Convention : Reuss Voigt Hill
#
# Bulk Modulus (GPa) = 27.61085 60.60480 44.10783
# Shear Modulus (GPa) = 25.97195 39.95913 32.96554
#
# Velocity S-wave (km/s) = 3.28510 4.07478 3.70106
# Velocity P-wave (km/s) = 5.08548 6.87903 6.04909
#
# Compressibility (1/GPa) = 0.03621764
#
# Stress axis : x y z
#
# Youngs Moduli (GPa) = 48.43014 81.11037 85.30398
#
# Poissons Ratio (x) = 0.25013 0.12981
# Poissons Ratio (y) = 0.14935 -0.03108
# Poissons Ratio (z) = 0.07370 -0.02956
#
# Static dielectric constant tensor:
#      x y z
#    x 2.027920 -0.014550 0.024750 
#    y -0.014550 1.918410 0.045100 
#    z 0.024750 0.045100 1.959980 
# 
# From -- ./inp_files/500818.got.cif
#   From: 2010.05.17/outbox.cif.g08.bks.cpg/sg2_251_cif.got.tgz:500818.got - 2010.06.03 11:33:40.
