data_PCOD9080754
_publ_section_title
;
Structure prediction by ZEFSAII (Michael W. Deem and Ramdas Pophale) SiO2 
 PCOD9080754
Probable space group: P -1
;
_chemical_formula_sum "Si O2"
_cell_formula_units_Z 16
_cell_length_a 10.672224
_cell_length_b 13.889488
_cell_length_c 8.263416
_cell_angle_alpha 56.189316
_cell_angle_beta 94.175321
_cell_angle_gamma 52.452239
_cell_volume 629.704936
_symmetry_space_group_name_H-M "P -1"
_symmetry_group_IT_number 2
_symmetry_cell_setting 'triclinic'
loop_
_space_group_symop_operation_xyz
x,y,z
-x,-y,-z
loop_
_atom_site_type_symbol
_atom_site_label
_atom_site_fract_x
_atom_site_fract_y
_atom_site_fract_z
Si Si1 0.404355 0.530036 0.129855
Si Si2 0.632995 0.683784 0.132112
Si Si3 0.970352 0.598178 0.748993
Si Si4 0.284399 0.102016 0.027125
Si Si5 0.806784 0.232649 0.612667
Si Si6 0.345239 0.334389 0.483855
Si Si7 0.208360 0.059263 0.696272
Si Si8 0.988043 0.144120 0.063284
O O1 0.584116 0.435871 0.358282
O O2 0.365898 0.422522 0.273834
O O3 0.181060 0.745664 0.920869
O O4 0.500000 0.500000 0.000000
O O5 0.672728 0.794007 0.049943
O O6 0.643053 0.626759 0.367693
O O7 0.817289 0.510469 0.200762
O O8 0.407178 0.838167 0.895245
O O9 0.858707 0.592618 0.619848
O O10 0.825683 0.813898 0.553230
O O11 0.000000 0.500000 0.000000
O O12 0.244714 0.092874 0.845283
O O13 0.090123 0.195651 0.017088
O O14 0.476475 0.889364 0.303788
O O15 0.861885 0.213697 0.821661
O O16 0.998259 0.144521 0.615354
O O17 0.830433 0.079125 0.719057
#
# Coordination Sequence:
#
# PCOD9080754 Si02
#       8
#     2   2   2   2   2   2   2   2
#     4  12  27  43  62  96 133 170 212 263 321 382
#     4  11  22  41  71  93 121 169 213 262 311 366
#     4  12  26  40  61  99 135 163 201 258 325 384
#     4  10  18  42  71  95 120 158 220 270 298 366
#     4  10  23  43  65  93 125 167 220 262 310 375
#     4  11  22  44  68  93 122 168 219 258 309 377
#     4  10  22  40  64  95 127 160 212 262 308 370
#     4  10  22  42  69  92 124 167 213 269 317 365
#
# _framework density 25.408722999999998
#
# number of rings (size 3 to 8) (size 9 to 14) (size 15 to 20)
#    0.000    1.250    3.750    2.250    7.000    2.000 
#    0.000    0.000    0.000    0.000    0.000    0.000 
#    0.000    0.000    0.000    0.000    0.000    0.000 
#
# Total GULP energy -89620.839925 kJ/mol
# GULP energy per Si atom -5601.302495 kJ/mol
# Density = 2.535089 g / cm^3
# Si number density = 25.408723 Si / 1000 Ang^3
#
#
#
# Elastic Constant Matrix: (Units=GPa)
#
#
# Indices 1 2 3 4 5 6 
#
# 1 96.0103 12.4720 -1.8297 -4.7696 -7.5386 -23.5368
# 2 12.4720 91.3069 31.9963 -9.6639 -1.7220 -38.1384
# 3 -1.8297 31.9963 83.4931 -4.7708 -11.6105 -9.4945
# 4 -4.7696 -9.6639 -4.7708 32.8858 -13.9728 -1.7459
# 5 -7.5386 -1.7220 -11.6105 -13.9728 41.8225 -8.7378
# 6 -23.5368 -38.1384 -9.4945 -1.7459 -8.7378 41.8485
#
#
#
# Elastic Compliance Matrix: (Units=1/GPa)
#
#
# Indices 1 2 3 4 5 6 
#
# 1 0.014874 0.004930 0.002082 0.008870 0.009712 0.015729
# 2 0.004930 0.024672 -0.003947 0.013517 0.011013 0.027226
# 3 0.002082 -0.003947 0.014909 0.004077 0.006221 0.002426
# 4 0.008870 0.013517 0.004077 0.048082 0.024655 0.025386
# 5 0.009712 0.011013 0.006221 0.024655 0.041643 0.026634
# 6 0.015729 0.027226 0.002426 0.025386 0.026634 0.064725
#
#
# Mechanical properties :
#
#
# Convention : Reuss Voigt Hill
#
# Bulk Modulus (GPa) = 16.50522 39.56527 28.03525
# Shear Modulus (GPa) = 22.42471 38.52282 30.47376
#
# Velocity S-wave (km/s) = 2.97401 3.89797 3.46691
# Velocity P-wave (km/s) = 4.27820 5.98868 5.20419
#
# Compressibility (1/GPa) = 0.06058689
#
# Stress axis : x y z
#
# Youngs Moduli (GPa) = 67.23198 40.53146 67.07320
#
# Poissons Ratio (x) = -0.19984 -0.13968
# Poissons Ratio (y) = -0.33148 0.26474
# Poissons Ratio (z) = -0.14001 0.15998
#
# Static dielectric constant tensor:
#      x y z
#    x 2.042700 0.038110 -0.021700 
#    y 0.038110 1.996400 -0.020830 
#    z -0.021700 -0.020830 2.000330 
# 
# From -- ./inp_files/271013.got.cif
#   From: 2010.05.17/outbox.cif.g08.bks.cpg/sg2_136_cif.got.tgz:271013.got - 2010.06.03 11:33:40.
