data_PCOD9080785
_publ_section_title
;
Structure prediction by ZEFSAII (Michael W. Deem and Ramdas Pophale) SiO2 
 PCOD9080785
Probable space group: P -1
;
_chemical_formula_sum "Si O2"
_cell_formula_units_Z 16
_cell_length_a 7.524014
_cell_length_b 14.205932
_cell_length_c 17.104108
_cell_angle_alpha 22.040525
_cell_angle_beta 69.751899
_cell_angle_gamma 79.934845
_cell_volume 585.679080
_symmetry_space_group_name_H-M "P -1"
_symmetry_group_IT_number 2
_symmetry_cell_setting 'triclinic'
loop_
_space_group_symop_operation_xyz
x,y,z
-x,-y,-z
loop_
_atom_site_type_symbol
_atom_site_label
_atom_site_fract_x
_atom_site_fract_y
_atom_site_fract_z
Si Si1 0.136058 0.857516 0.300234
Si Si2 0.255213 0.602199 0.978698
Si Si3 0.852313 0.691233 0.933706
Si Si4 0.520919 0.144113 0.469500
Si Si5 0.244971 0.325541 0.788740
Si Si6 0.454070 0.061700 0.871558
Si Si7 0.698387 0.726772 0.468884
Si Si8 0.828732 0.319203 0.908617
O O1 0.320644 0.758195 0.338887
O O2 0.154310 0.037325 0.237066
O O3 0.187286 0.084799 0.048487
O O4 0.895236 0.654266 0.482435
O O5 0.240485 0.386493 0.079443
O O6 0.473217 0.874167 0.738097
O O7 0.190734 0.498835 0.156198
O O8 0.084065 0.705857 0.891036
O O9 0.725652 0.425450 0.213061
O O10 0.356561 0.248422 0.451486
O O11 0.500000 0.000000 0.500000
O O12 0.282447 0.186660 0.810406
O O13 0.476891 0.544949 0.605281
O O14 0.055874 0.417433 0.758926
O O15 0.500000 0.000000 0.000000
O O16 0.353066 0.788995 0.044548
O O17 0.779716 0.029891 0.184216
#
# Coordination Sequence:
#
# PCOD9080785 Si02
#       8
#     2   2   2   2   2   2   2   2
#     4  10  19  34  51  79 113 140 172 213 259 323
#     4   9  17  27  50  81 105 130 171 217 257 304
#     4  10  15  28  51  79 106 136 168 208 261 309
#     4   9  15  24  45  79 105 129 167 210 255 299
#     4  10  19  36  57  77 101 139 179 225 263 301
#     4  10  23  38  55  74 106 147 176 216 268 318
#     4  10  18  32  56  80 106 132 177 223 263 301
#     4  10  19  37  55  79 107 133 178 227 259 304
#
# _framework density 27.318714
#
# number of rings (size 3 to 8) (size 9 to 14) (size 15 to 20)
#    0.000    2.250    5.000    0.375    0.000    1.000 
#    0.000    3.125    0.000    0.000    0.000    2.625 
#    0.000    0.000    0.000    0.000    0.000    0.000 
#
# Total GULP energy -89370.631332 kJ/mol
# GULP energy per Si atom -5585.664458 kJ/mol
# Density = 2.725654 g / cm^3
# Si number density = 27.318714 Si / 1000 Ang^3
#
#
#
# Elastic Constant Matrix: (Units=GPa)
#
#
# Indices 1 2 3 4 5 6 
#
# 1 120.6679 42.5500 42.1904 15.9111 -8.2176 -3.0775
# 2 42.5500 160.7151 19.0155 29.0231 -8.8648 1.3794
# 3 42.1904 19.0155 107.6460 15.6606 -40.2861 -10.5704
# 4 15.9111 29.0231 15.6606 41.9756 -12.9853 -11.1621
# 5 -8.2176 -8.8648 -40.2861 -12.9853 43.0322 3.3254
# 6 -3.0775 1.3794 -10.5704 -11.1621 3.3254 36.7443
#
#
#
# Elastic Compliance Matrix: (Units=1/GPa)
#
#
# Indices 1 2 3 4 5 6 
#
# 1 0.010770 -0.002074 -0.004971 -0.002112 -0.003602 -0.000766
# 2 -0.002074 0.007714 -0.000118 -0.005139 -0.000311 -0.002030
# 3 -0.004971 -0.000118 0.017083 0.001197 0.015110 0.003499
# 4 -0.002112 -0.005139 0.001197 0.033029 0.008884 0.009590
# 5 -0.003602 -0.000311 0.015110 0.008884 0.039064 0.003220
# 6 -0.000766 -0.002030 0.003499 0.009590 0.003220 0.030855
#
#
# Mechanical properties :
#
#
# Convention : Reuss Voigt Hill
#
# Bulk Modulus (GPa) = 47.07834 66.28232 56.68033
# Shear Modulus (GPa) = 31.26510 43.36864 37.31687
#
# Velocity S-wave (km/s) = 3.38665 3.98868 3.69993
# Velocity P-wave (km/s) = 5.70640 6.74744 6.24864
#
# Compressibility (1/GPa) = 0.02124119
#
# Stress axis : x y z
#
# Youngs Moduli (GPa) = 92.84850 129.64070 58.53686
#
# Poissons Ratio (x) = 0.26888 0.29099
# Poissons Ratio (y) = 0.19257 0.00690
# Poissons Ratio (z) = 0.46155 0.01529
#
# Static dielectric constant tensor:
#      x y z
#    x 2.208560 -0.051360 0.084910 
#    y -0.051360 2.201130 -0.015370 
#    z 0.084910 -0.015370 2.203780 
# 
# From -- ./inp_files/561117.got.cif
#   From: 2010.05.17/outbox.cif.g08.bks.cpg/sg2_281_cif.got.tgz:561117.got - 2010.06.03 11:33:40.
