data_PCOD9080855
_publ_section_title
;
Structure prediction by ZEFSAII (Michael W. Deem and Ramdas Pophale) SiO2 
 PCOD9080855
Probable space group: P -1
;
_chemical_formula_sum "Si O2"
_cell_formula_units_Z 12
_cell_length_a 9.363699
_cell_length_b 12.039966
_cell_length_c 10.544536
_cell_angle_alpha 50.499644
_cell_angle_beta 39.127706
_cell_angle_gamma 48.159547
_cell_volume 540.805587
_symmetry_space_group_name_H-M "P -1"
_symmetry_group_IT_number 2
_symmetry_cell_setting 'triclinic'
loop_
_space_group_symop_operation_xyz
x,y,z
-x,-y,-z
loop_
_atom_site_type_symbol
_atom_site_label
_atom_site_fract_x
_atom_site_fract_y
_atom_site_fract_z
Si Si1 0.123007 0.598660 0.623250
Si Si2 0.414334 0.708674 0.024919
Si Si3 0.362876 0.515283 0.770778
Si Si4 0.080630 0.146532 0.612690
Si Si5 0.300357 0.803281 0.769280
Si Si6 0.002507 0.328961 0.769119
O O1 0.149893 0.576132 0.771463
O O2 0.393468 0.580299 0.402747
O O3 0.952073 0.757999 0.563290
O O4 0.080073 0.456295 0.687503
O O5 0.637068 0.604969 0.030434
O O6 0.196462 0.832317 0.164902
O O7 0.265437 0.596957 0.164968
O O8 0.447279 0.782133 0.816315
O O9 0.390375 0.663515 0.711095
O O10 0.157112 0.231858 0.616785
O O11 0.240506 0.968773 0.629449
O O12 0.051071 0.784519 0.009877
#
# Coordination Sequence:
#
# PCOD9080855 Si02
#       6
#     2   2   2   2   2   2
#     4  10  19  32  48  71  96 129 152 188 235 284
#     4   7  16  30  52  69  85 124 162 187 223 273
#     4  10  19  29  49  73  99 120 153 196 238 272
#     4   8  16  30  52  71  91 122 161 187 233 280
#     4   9  17  31  52  73  89 122 161 198 225 272
#     4   8  17  31  55  68  87 125 169 186 219 280
#
# _framework density 22.189121
#
# number of rings (size 3 to 8) (size 9 to 14) (size 15 to 20)
#    2.000    1.000    0.000    3.000    0.000    1.333 
#    0.000    0.833    0.000   16.000    0.000    0.000 
#    0.000    0.000    0.000    0.000    0.000    0.000 
#
# Total GULP energy -66800.829699 kJ/mol
# GULP energy per Si atom -5566.735808 kJ/mol
# Density = 2.213862 g / cm^3
# Si number density = 22.189121 Si / 1000 Ang^3
#
#
#
# Elastic Constant Matrix: (Units=GPa)
#
#
# Indices 1 2 3 4 5 6 
#
# 1 111.9358 36.7546 38.2788 -27.1692 37.8056 -12.5693
# 2 36.7546 81.0209 34.0719 -22.3401 31.4366 -12.6090
# 3 38.2788 34.0719 98.7530 -20.7028 34.7467 -7.1929
# 4 -27.1692 -22.3401 -20.7028 42.3033 -15.0100 6.8172
# 5 37.8056 31.4366 34.7467 -15.0100 38.9879 -0.4057
# 6 -12.5693 -12.6090 -7.1929 6.8172 -0.4057 15.6102
#
#
#
# Elastic Compliance Matrix: (Units=1/GPa)
#
#
# Indices 1 2 3 4 5 6 
#
# 1 0.015706 0.001530 0.000419 0.003741 -0.015272 0.012045
# 2 0.001530 0.022240 0.000032 0.003640 -0.017866 0.017158
# 3 0.000419 0.000032 0.015583 0.002137 -0.013432 0.006261
# 4 0.003741 0.003640 0.002137 0.031333 0.003527 -0.006655
# 5 -0.015272 -0.017866 -0.013432 0.003527 0.067852 -0.032694
# 6 0.012045 0.017158 0.006261 -0.006655 -0.032694 0.092561
#
#
# Mechanical properties :
#
#
# Convention : Reuss Voigt Hill
#
# Bulk Modulus (GPa) = 17.39339 56.65781 37.02560
# Shear Modulus (GPa) = 19.19555 31.55391 25.37473
#
# Velocity S-wave (km/s) = 2.94443 3.77509 3.38533
# Velocity P-wave (km/s) = 4.40628 6.67767 5.65714
#
# Compressibility (1/GPa) = 0.05749309
#
# Stress axis : x y z
#
# Youngs Moduli (GPa) = 63.66797 44.96303 64.17230
#
# Poissons Ratio (x) = -0.06881 -0.02688
# Poissons Ratio (y) = -0.09743 -0.00207
# Poissons Ratio (z) = -0.02667 -0.00145
#
# Static dielectric constant tensor:
#      x y z
#    x 1.862020 -0.020360 -0.009520 
#    y -0.020360 1.787490 0.079070 
#    z -0.009520 0.079070 1.889330 
# 
# From -- ./inp_files/422699.got.cif
#   From: 2010.05.17/outbox.cif.g08.bks.cpg/sg2_212_cif.got.tgz:422699.got - 2010.06.03 11:33:40.
