data_PCOD9080058
_publ_section_title
;
Structure prediction by ZEFSAII (Michael W. Deem and Ramdas Pophale) SiO2 
 PCOD9080058
Probable space group: P -1
;
_chemical_formula_sum "Si O2"
_cell_formula_units_Z 16
_cell_length_a 15.408892
_cell_length_b 8.597179
_cell_length_c 12.797222
_cell_angle_alpha 144.166968
_cell_angle_beta 121.531390
_cell_angle_gamma 54.623969
_cell_volume 804.106314
_symmetry_space_group_name_H-M "P -1"
_symmetry_group_IT_number 2
_symmetry_cell_setting 'triclinic'
loop_
_space_group_symop_operation_xyz
x,y,z
-x,-y,-z
loop_
_atom_site_type_symbol
_atom_site_label
_atom_site_fract_x
_atom_site_fract_y
_atom_site_fract_z
Si Si1 0.215238 0.863871 0.721880
Si Si2 0.118620 0.510466 0.059463
Si Si3 0.947064 0.324581 0.113560
Si Si4 0.234964 0.552059 0.781121
Si Si5 0.569868 0.180627 0.100475
Si Si6 0.473091 0.227454 0.697365
Si Si7 0.854633 0.433212 0.660661
Si Si8 0.669560 0.990860 0.843919
O O1 0.198247 0.692528 0.720650
O O2 0.343736 0.772136 0.737754
O O3 0.149965 0.810429 0.552967
O O4 0.183240 0.189113 0.904760
O O5 0.152973 0.621392 0.249761
O O6 0.111968 0.667291 0.030978
O O7 0.000000 0.500000 0.000000
O O8 0.862712 0.490504 0.238826
O O9 0.041386 0.465767 0.236432
O O10 0.000000 0.000000 0.000000
O O11 0.348710 0.312347 0.703078
O O12 0.266712 0.783551 0.996633
O O13 0.512405 0.484220 0.180271
O O14 0.500000 0.000000 0.000000
O O15 0.636271 0.001977 0.949491
O O16 0.500000 0.000000 0.500000
O O17 0.560298 0.100985 0.771694
O O18 0.750362 0.691757 0.704148
#
# Coordination Sequence:
#
# PCOD9080058 Si02
#       8
#     2   2   2   2   2   2   2   2
#     4  10  21  40  64  89 123 165 213 256 322 383
#     4  10  21  39  63  83 125 166 209 254 323 379
#     4  11  22  39  65  92 125 164 214 267 312 386
#     4  10  19  38  61  92 125 167 212 256 318 382
#     4  10  21  39  64  89 125 168 215 264 315 383
#     4  10  21  38  62  92 129 169 213 264 325 388
#     4  11  21  41  66  91 125 172 209 261 323 382
#     4  10  18  38  62  86 125 167 205 254 323 381
#
# _framework density 19.897866
#
# number of rings (size 3 to 8) (size 9 to 14) (size 15 to 20)
#    0.000    2.000    3.750    3.750    0.000    4.500 
#    0.000    5.000    2.750    0.000    0.000    0.000 
#    0.000    0.000    0.000    0.000    0.000    0.000 
#
# Total GULP energy -89196.133590 kJ/mol
# GULP energy per Si atom -5574.758349 kJ/mol
# Density = 1.985258 g / cm^3
# Si number density = 19.897866 Si / 1000 Ang^3
#
#
#
# Elastic Constant Matrix: (Units=GPa)
#
#
# Indices 1 2 3 4 5 6 
#
# 1 99.9886 43.8928 26.6335 0.5547 -5.0503 11.4677
# 2 43.8928 123.3227 38.8524 -24.2216 -11.2414 -8.9859
# 3 26.6335 38.8524 94.8305 -30.5845 -4.6608 5.8592
# 4 0.5547 -24.2216 -30.5845 31.2575 -7.9916 -3.2932
# 5 -5.0503 -11.2414 -4.6608 -7.9916 18.9783 -0.2055
# 6 11.4677 -8.9859 5.8592 -3.2932 -0.2055 18.0494
#
#
#
# Elastic Compliance Matrix: (Units=1/GPa)
#
#
# Indices 1 2 3 4 5 6 
#
# 1 0.018102 -0.010727 -0.006593 -0.020049 -0.011799 -0.018494
# 2 -0.010727 0.019286 0.003059 0.025445 0.020255 0.020297
# 3 -0.006593 0.003059 0.020471 0.027203 0.016586 0.004218
# 4 -0.020049 0.025445 0.027203 0.097115 0.057690 0.034951
# 5 -0.011799 0.020255 0.016586 0.057690 0.090173 0.023748
# 6 -0.018494 0.020297 0.004218 0.034951 0.023748 0.082536
#
#
# Mechanical properties :
#
#
# Convention : Reuss Voigt Hill
#
# Bulk Modulus (GPa) = 34.08461 59.65546 46.87003
# Shear Modulus (GPa) = 13.66180 27.57458 20.61819
#
# Velocity S-wave (km/s) = 2.62314 3.72668 3.22250
# Velocity P-wave (km/s) = 5.13239 6.96875 6.11984
#
# Compressibility (1/GPa) = 0.02933876
#
# Stress axis : x y z
#
# Youngs Moduli (GPa) = 55.24118 51.85172 48.84863
#
# Poissons Ratio (x) = 0.55620 0.32205
# Poissons Ratio (y) = 0.59256 -0.14944
# Poissons Ratio (z) = 0.36419 -0.15862
#
# Static dielectric constant tensor:
#      x y z
#    x 1.759330 -0.025960 0.019600 
#    y -0.025960 1.697930 -0.018470 
#    z 0.019600 -0.018470 1.747460 
# 
# From -- ./inp_files/460879.got.cif
#   From: 2010.05.17/outbox.cif.g08.bks.cpg/sg2_231_cif.got.tgz:460879.got - 2010.06.03 11:33:40.
