data_PCOD9080164
_publ_section_title
;
Structure prediction by ZEFSAII (Michael W. Deem and Ramdas Pophale) SiO2 
 PCOD9080164
Probable space group: P -1
;
_chemical_formula_sum "Si O2"
_cell_formula_units_Z 16
_cell_length_a 6.074753
_cell_length_b 14.551719
_cell_length_c 8.224507
_cell_angle_alpha 106.320748
_cell_angle_beta 104.646706
_cell_angle_gamma 91.130566
_cell_volume 671.825395
_symmetry_space_group_name_H-M "P -1"
_symmetry_group_IT_number 2
_symmetry_cell_setting 'triclinic'
loop_
_space_group_symop_operation_xyz
x,y,z
-x,-y,-z
loop_
_atom_site_type_symbol
_atom_site_label
_atom_site_fract_x
_atom_site_fract_y
_atom_site_fract_z
Si Si1 0.074354 0.104588 0.135465
Si Si2 0.482724 0.809096 0.607914
Si Si3 0.929366 0.101713 0.484863
Si Si4 0.325443 0.605045 0.088007
Si Si5 0.064436 0.311701 0.110035
Si Si6 0.137098 0.630751 0.557738
Si Si7 0.502358 0.453542 0.243280
Si Si8 0.233261 0.285453 0.657822
O O1 0.348781 0.125296 0.213447
O O2 0.017962 0.197045 0.066476
O O3 0.969437 0.108857 0.300198
O O4 0.000000 0.000000 0.000000
O O5 0.329856 0.879007 0.516980
O O6 0.302374 0.728548 0.610011
O O7 0.644030 0.749355 0.498969
O O8 0.086276 0.189257 0.640509
O O9 0.000000 0.000000 0.500000
O O10 0.348866 0.540832 0.221313
O O11 0.553800 0.678383 0.174272
O O12 0.353962 0.547038 0.898272
O O13 0.091105 0.652704 0.046607
O O14 0.325413 0.357653 0.168284
O O15 0.981577 0.356046 0.284946
O O16 0.310774 0.549091 0.579695
O O17 0.939080 0.636675 0.389425
#
# Coordination Sequence:
#
# PCOD9080164 Si02
#       8
#     2   2   2   2   2   2   2   2
#     4  11  23  37  62  95 118 159 216 248 305 371
#     4  10  19  40  61  79 121 160 193 253 302 357
#     4  10  23  41  60  87 124 163 204 254 313 365
#     4  10  24  37  59  94 123 156 208 250 312 364
#     4  11  20  40  61  85 124 162 200 250 306 364
#     4  10  18  38  65  81 116 164 200 241 307 361
#     4  10  21  40  62  86 123 165 197 258 306 361
#     4  10  21  38  60  89 118 159 203 248 303 368
#
# _framework density 23.815712999999999
#
# number of rings (size 3 to 8) (size 9 to 14) (size 15 to 20)
#    0.000    1.750    5.000    0.375    0.000    8.000 
#    0.000    2.500    0.000    0.000    0.000    0.000 
#    0.000    0.000    0.000    0.000    0.000    0.000 
#
# Total GULP energy -89372.988231 kJ/mol
# GULP energy per Si atom -5585.811764 kJ/mol
# Density = 2.376151 g / cm^3
# Si number density = 23.815713 Si / 1000 Ang^3
#
#
#
# Elastic Constant Matrix: (Units=GPa)
#
#
# Indices 1 2 3 4 5 6 
#
# 1 81.3003 33.5579 29.4418 -8.9847 19.8889 -14.4406
# 2 33.5579 142.6246 27.7860 -15.6573 22.5522 -17.1083
# 3 29.4418 27.7860 76.1530 -3.7878 18.0395 -2.3768
# 4 -8.9847 -15.6573 -3.7878 44.8518 3.8322 19.9884
# 5 19.8889 22.5522 18.0395 3.8322 45.6582 -13.5821
# 6 -14.4406 -17.1083 -2.3768 19.9884 -13.5821 35.7663
#
#
#
# Elastic Compliance Matrix: (Units=1/GPa)
#
#
# Indices 1 2 3 4 5 6 
#
# 1 0.016325 -0.001869 -0.004682 0.000895 -0.003337 0.003619
# 2 -0.001869 0.008554 -0.001619 0.002291 -0.002687 0.000929
# 3 -0.004682 -0.001619 0.016825 0.002699 -0.005573 -0.005171
# 4 0.000895 0.002291 0.002699 0.034422 -0.012076 -0.022187
# 5 -0.003337 -0.002687 -0.005573 -0.012076 0.032708 0.016166
# 6 0.003619 0.000929 -0.005171 -0.022187 0.016166 0.048060
#
#
# Mechanical properties :
#
#
# Convention : Reuss Voigt Hill
#
# Bulk Modulus (GPa) = 39.42412 53.51657 46.47035
# Shear Modulus (GPa) = 27.51969 39.20807 33.36388
#
# Velocity S-wave (km/s) = 3.40299 4.06188 3.74695
# Velocity P-wave (km/s) = 5.65953 6.67221 6.18662
#
# Compressibility (1/GPa) = 0.02536518
#
# Stress axis : x y z
#
# Youngs Moduli (GPa) = 61.25606 116.89807 59.43441
#
# Poissons Ratio (x) = 0.21849 0.27825
# Poissons Ratio (y) = 0.11449 0.09623
# Poissons Ratio (z) = 0.28677 0.18927
#
# Static dielectric constant tensor:
#      x y z
#    x 1.936470 -0.031530 -0.001890 
#    y -0.031530 1.928850 -0.024040 
#    z -0.001890 -0.024040 1.940640 
# 
# From -- ./inp_files/46224.got.cif
#   From: 2010.05.17/outbox.cif.g08.bks.cpg/sg2_24_cif.got.tgz:46224.got - 2010.06.03 11:33:40.
