data_PCOD9080244
_publ_section_title
;
Structure prediction by ZEFSAII (Michael W. Deem and Ramdas Pophale) SiO2 
 PCOD9080244
Probable space group: P -1
;
_chemical_formula_sum "Si O2"
_cell_formula_units_Z 16
_cell_length_a 12.501037
_cell_length_b 16.125838
_cell_length_c 17.255887
_cell_angle_alpha 30.597989
_cell_angle_beta 25.803313
_cell_angle_gamma 38.073344
_cell_volume 769.548814
_symmetry_space_group_name_H-M "P -1"
_symmetry_group_IT_number 2
_symmetry_cell_setting 'triclinic'
loop_
_space_group_symop_operation_xyz
x,y,z
-x,-y,-z
loop_
_atom_site_type_symbol
_atom_site_label
_atom_site_fract_x
_atom_site_fract_y
_atom_site_fract_z
Si Si1 0.527884 0.371458 0.348390
Si Si2 0.976969 0.257558 0.055364
Si Si3 0.812266 0.458227 0.226404
Si Si4 0.081745 0.224257 0.357514
Si Si5 0.770230 0.469490 0.884359
Si Si6 0.992899 0.656067 0.323568
Si Si7 0.257788 0.938028 0.167572
Si Si8 0.569497 0.255561 0.937868
O O1 0.768852 0.264232 0.252287
O O2 0.562490 0.417629 0.378768
O O3 0.288561 0.280722 0.552101
O O4 0.515666 0.550263 0.169953
O O5 0.114051 0.083881 0.097603
O O6 0.822519 0.326419 0.027555
O O7 0.176082 0.386201 0.849868
O O8 0.916104 0.306455 0.331096
O O9 0.000000 0.500000 0.000000
O O10 0.158752 0.367555 0.249944
O O11 0.076323 0.887241 0.395466
O O12 0.336314 0.165367 0.196230
O O13 0.938894 0.417343 0.744732
O O14 0.500000 0.500000 0.000000
O O15 0.000000 0.500000 0.500000
O O16 0.201823 0.763280 0.136697
O O17 0.342464 0.802483 0.157796
O O18 0.500000 0.000000 0.000000
#
# Coordination Sequence:
#
# PCOD9080244 Si02
#       8
#     2   2   2   2   2   2   2   2
#     4  10  18  38  67  95 127 170 221 285 330 387
#     4  10  22  41  62  96 136 170 221 284 328 394
#     4   9  17  36  69  94 124 167 229 278 329 392
#     4  11  22  42  72  95 130 188 215 275 346 393
#     4  11  19  40  72  99 126 170 228 277 335 395
#     4  10  20  34  63 100 127 161 220 280 325 395
#     4  12  29  45  63 100 144 179 224 277 339 409
#     4  11  21  44  67  93 134 175 229 271 332 405
#
# _framework density 20.791404
#
# number of rings (size 3 to 8) (size 9 to 14) (size 15 to 20)
#    0.000    1.500    5.000    3.000    1.750    1.500 
#    2.250    6.250    0.000    0.000    0.000    0.000 
#    0.000    0.000    0.000    0.000    0.000    0.000 
#
# Total GULP energy -89255.677526 kJ/mol
# GULP energy per Si atom -5578.479845 kJ/mol
# Density = 2.074408 g / cm^3
# Si number density = 20.791404 Si / 1000 Ang^3
#
#
#
# Elastic Constant Matrix: (Units=GPa)
#
#
# Indices 1 2 3 4 5 6 
#
# 1 126.8208 7.1453 39.5249 -0.3107 -12.2618 -8.1696
# 2 7.1453 57.4953 13.1163 7.8113 1.6762 -4.9412
# 3 39.5249 13.1163 87.4901 12.5503 -6.7728 -13.5972
# 4 -0.3107 7.8113 12.5503 15.9654 -3.4437 7.4579
# 5 -12.2618 1.6762 -6.7728 -3.4437 39.5492 10.8511
# 6 -8.1696 -4.9412 -13.5972 7.4579 10.8511 25.2241
#
#
#
# Elastic Compliance Matrix: (Units=1/GPa)
#
#
# Indices 1 2 3 4 5 6 
#
# 1 0.009935 -0.001584 -0.005885 0.008644 0.004157 -0.004609
# 2 -0.001584 0.021086 0.001851 -0.019248 -0.006317 0.013024
# 3 -0.005885 0.001851 0.020585 -0.028292 -0.006528 0.020726
# 4 0.008644 -0.019248 -0.028292 0.132285 0.028744 -0.067699
# 5 0.004157 -0.006317 -0.006528 0.028744 0.035708 -0.027270
# 6 -0.004609 0.013024 0.020726 -0.067699 -0.027270 0.083623
#
#
# Mechanical properties :
#
#
# Convention : Reuss Voigt Hill
#
# Bulk Modulus (GPa) = 24.77136 43.48658 34.12897
# Shear Modulus (GPa) = 15.24782 30.28239 22.76511
#
# Velocity S-wave (km/s) = 2.71102 3.82053 3.31256
# Velocity P-wave (km/s) = 4.66258 6.35791 5.57506
#
# Compressibility (1/GPa) = 0.04036920
#
# Stress axis : x y z
#
# Youngs Moduli (GPa) = 100.65708 47.42505 48.57814
#
# Poissons Ratio (x) = 0.07511 0.28589
# Poissons Ratio (y) = 0.15941 -0.08990
# Poissons Ratio (z) = 0.59239 -0.08776
#
# Static dielectric constant tensor:
#      x y z
#    x 1.765290 -0.043710 -0.037350 
#    y -0.043710 1.752390 0.027900 
#    z -0.037350 0.027900 1.839840 
# 
# From -- ./inp_files/569732.got.cif
#   From: 2010.05.17/outbox.cif.g08.bks.cpg/sg2_285_cif.got.tgz:569732.got - 2010.06.03 11:33:40.
