data_PCOD9080699
_publ_section_title
;
Structure prediction by ZEFSAII (Michael W. Deem and Ramdas Pophale) SiO2 
 PCOD9080699
Probable space group: P -1
;
_chemical_formula_sum "Si O2"
_cell_formula_units_Z 16
_cell_length_a 10.360647
_cell_length_b 16.322824
_cell_length_c 6.735240
_cell_angle_alpha 87.831547
_cell_angle_beta 42.410639
_cell_angle_gamma 77.119939
_cell_volume 734.831167
_symmetry_space_group_name_H-M "P -1"
_symmetry_group_IT_number 2
_symmetry_cell_setting 'triclinic'
loop_
_space_group_symop_operation_xyz
x,y,z
-x,-y,-z
loop_
_atom_site_type_symbol
_atom_site_label
_atom_site_fract_x
_atom_site_fract_y
_atom_site_fract_z
Si Si1 0.791734 0.068475 0.275123
Si Si2 0.429348 0.068154 0.900754
Si Si3 0.774725 0.558548 0.714222
Si Si4 0.001730 0.853955 0.660856
Si Si5 0.761098 0.215496 0.976597
Si Si6 0.579559 0.484007 0.631870
Si Si7 0.217898 0.701136 0.666373
Si Si8 0.556092 0.743904 0.017160
O O1 0.593848 0.042846 0.545224
O O2 0.832818 0.105653 0.440489
O O3 0.751086 0.140116 0.144645
O O4 0.000000 0.000000 0.000000
O O5 0.400905 0.166894 0.992509
O O6 0.206476 0.074651 0.088096
O O7 0.500000 0.000000 0.000000
O O8 0.686864 0.549994 0.595377
O O9 0.000000 0.500000 0.500000
O O10 0.613815 0.524783 0.026675
O O11 0.740191 0.658274 0.795348
O O12 0.055992 0.822176 0.379007
O O13 0.029094 0.771290 0.778621
O O14 0.573015 0.245636 0.040557
O O15 0.784583 0.288560 0.094384
O O16 0.500000 0.500000 0.500000
O O17 0.751099 0.393107 0.441441
O O18 0.413764 0.723748 0.353379
#
# Coordination Sequence:
#
# PCOD9080699 Si02
#       8
#     2   2   2   2   2   2   2   2
#     4  11  24  43  64  88 123 163 207 265 317 366
#     4  12  25  42  63  94 125 164 211 260 310 370
#     4  10  23  41  66  95 131 172 210 262 325 380
#     4  10  23  41  63  91 124 162 209 256 311 377
#     4  10  18  41  66  85 122 172 203 253 320 368
#     4  10  21  40  66  97 128 165 216 263 314 386
#     4   9  19  40  65  91 126 168 203 256 317 370
#     4  10  21  42  63  90 131 166 205 262 315 370
#
# _framework density 21.773707999999999
#
# number of rings (size 3 to 8) (size 9 to 14) (size 15 to 20)
#    0.000    1.750    3.750    1.500    3.500    3.000 
#    4.500    0.000    0.000    0.000    0.000    0.000 
#    0.000    0.000    0.000    0.000    0.000    0.000 
#
# Total GULP energy -89293.043399 kJ/mol
# GULP energy per Si atom -5580.815212 kJ/mol
# Density = 2.172415 g / cm^3
# Si number density = 21.773708 Si / 1000 Ang^3
#
#
#
# Elastic Constant Matrix: (Units=GPa)
#
#
# Indices 1 2 3 4 5 6 
#
# 1 95.3894 11.8291 45.0180 9.0495 0.3583 -9.1244
# 2 11.8291 76.2774 17.4290 20.3321 -9.1702 -1.2155
# 3 45.0180 17.4290 95.3377 22.5363 4.5751 -8.5122
# 4 9.0495 20.3321 22.5363 28.1203 -5.9166 -5.5660
# 5 0.3583 -9.1702 4.5751 -5.9166 34.5026 15.5093
# 6 -9.1244 -1.2155 -8.5122 -5.5660 15.5093 36.5750
#
#
#
# Elastic Compliance Matrix: (Units=1/GPa)
#
#
# Indices 1 2 3 4 5 6 
#
# 1 0.013743 -0.001185 -0.006547 0.002079 -0.000264 0.002294
# 2 -0.001185 0.016817 -0.000326 -0.011309 0.004047 -0.003250
# 3 -0.006547 -0.000326 0.016970 -0.011866 -0.005595 0.002872
# 4 0.002079 -0.011309 -0.011866 0.054538 0.006604 0.002881
# 5 -0.000264 0.004047 -0.005595 0.006604 0.039584 -0.017014
# 6 0.002294 -0.003250 0.002872 0.002881 -0.017014 0.036127
#
#
# Mechanical properties :
#
#
# Convention : Reuss Voigt Hill
#
# Bulk Modulus (GPa) = 31.83198 46.17298 39.00248
# Shear Modulus (GPa) = 24.46585 32.68814 28.57699
#
# Velocity S-wave (km/s) = 3.35571 3.87882 3.62671
# Velocity P-wave (km/s) = 5.44661 6.42746 5.95726
#
# Compressibility (1/GPa) = 0.03141495
#
# Stress axis : x y z
#
# Youngs Moduli (GPa) = 72.76354 59.46212 58.92784
#
# Poissons Ratio (x) = 0.07045 0.38579
# Poissons Ratio (y) = 0.08621 0.01922
# Poissons Ratio (z) = 0.47637 0.01939
#
# Static dielectric constant tensor:
#      x y z
#    x 1.800290 0.023640 0.016440 
#    y 0.023640 1.866680 0.053570 
#    z 0.016440 0.053570 1.810840 
# 
# From -- ./inp_files/47695.got.cif
#   From: 2010.05.17/outbox.cif.g08.bks.cpg/sg2_24_cif.got.tgz:47695.got - 2010.06.03 11:33:40.
