data_PCOD9080397
_publ_section_title
;
Structure prediction by ZEFSAII (Michael W. Deem and Ramdas Pophale) SiO2 
 PCOD9080397
Probable space group: P -1
;
_chemical_formula_sum "Si O2"
_cell_formula_units_Z 14
_cell_length_a 9.094160
_cell_length_b 8.215432
_cell_length_c 9.718402
_cell_angle_alpha 52.407268
_cell_angle_beta 79.107061
_cell_angle_gamma 92.832766
_cell_volume 552.157933
_symmetry_space_group_name_H-M "P -1"
_symmetry_group_IT_number 2
_symmetry_cell_setting 'triclinic'
loop_
_space_group_symop_operation_xyz
x,y,z
-x,-y,-z
loop_
_atom_site_type_symbol
_atom_site_label
_atom_site_fract_x
_atom_site_fract_y
_atom_site_fract_z
Si Si1 0.639097 0.470255 0.189038
Si Si2 0.436203 0.999046 0.228767
Si Si3 0.340731 0.548398 0.099688
Si Si4 0.945092 0.795694 0.421116
Si Si5 0.300712 0.231195 0.713590
Si Si6 0.816331 0.139096 0.435179
Si Si7 0.195494 0.847825 0.114729
O O1 0.706178 0.560869 0.981806
O O2 0.677007 0.619222 0.235995
O O3 0.718704 0.276895 0.299441
O O4 0.455903 0.435446 0.219776
O O5 0.540517 0.828957 0.329205
O O6 0.307934 0.992448 0.370401
O O7 0.346634 0.933474 0.136326
O O8 0.549299 0.224253 0.075882
O O9 0.208831 0.622580 0.168095
O O10 0.787849 0.676022 0.439149
O O11 0.050431 0.731444 0.556436
O O12 0.057982 0.836591 0.249717
O O13 0.892579 0.996227 0.394779
O O14 0.200969 0.011325 0.904960
#
# Coordination Sequence:
#
# PCOD9080397 Si02
#       7
#     2   2   2   2   2   2   2
#     4  11  22  36  60  93 124 142 191 258 297 331
#     4  10  19  38  66  86 114 156 201 237 283 358
#     4  10  20  38  64  92 115 148 197 249 294 337
#     4  10  23  40  61  81 121 165 198 227 284 368
#     4  11  20  36  62  92 117 152 196 244 293 341
#     4  10  23  42  60  87 118 158 198 237 291 347
#     4  10  18  39  63  88 112 160 197 239 280 364
#
# _framework density 25.355063999999999
#
# number of rings (size 3 to 8) (size 9 to 14) (size 15 to 20)
#    0.000    1.714    2.857    3.000    0.000    3.429 
#    0.000    2.857    3.143    0.000    0.000    0.000 
#    0.000    0.000    0.000    0.000    0.000    0.000 
#
# Total GULP energy -78326.769185 kJ/mol
# GULP energy per Si atom -5594.769227 kJ/mol
# Density = 2.529736 g / cm^3
# Si number density = 25.355064 Si / 1000 Ang^3
#
#
#
# Elastic Constant Matrix: (Units=GPa)
#
#
# Indices 1 2 3 4 5 6 
#
# 1 124.3061 51.8979 62.4566 13.6842 7.9569 -10.4227
# 2 51.8979 111.6124 38.7459 35.9372 -5.6657 -22.4994
# 3 62.4566 38.7459 103.2704 17.8775 13.2598 -13.3486
# 4 13.6842 35.9372 17.8775 40.0415 -6.9434 -1.8233
# 5 7.9569 -5.6657 13.2598 -6.9434 53.5662 17.8907
# 6 -10.4227 -22.4994 -13.3486 -1.8233 17.8907 50.6338
#
#
#
# Elastic Compliance Matrix: (Units=1/GPa)
#
#
# Indices 1 2 3 4 5 6 
#
# 1 0.013041 -0.004895 -0.006685 0.002861 -0.000051 -0.001132
# 2 -0.004895 0.016751 -0.000014 -0.013300 -0.001372 0.006438
# 3 -0.006685 -0.000014 0.015917 -0.005499 -0.005142 0.004433
# 4 0.002861 -0.013300 -0.005499 0.039287 0.007269 -0.007924
# 5 -0.000051 -0.001372 -0.005142 0.007269 0.024171 -0.010254
# 6 -0.001132 0.006438 0.004433 -0.007924 -0.010254 0.026884
#
#
# Mechanical properties :
#
#
# Convention : Reuss Voigt Hill
#
# Bulk Modulus (GPa) = 44.40438 71.70995 58.05716
# Shear Modulus (GPa) = 29.98594 41.25421 35.62007
#
# Velocity S-wave (km/s) = 3.44269 4.03806 3.75220
# Velocity P-wave (km/s) = 5.77528 7.07707 6.45905
#
# Compressibility (1/GPa) = 0.02252030
#
# Stress axis : x y z
#
# Youngs Moduli (GPa) = 76.68310 59.69902 62.82658
#
# Poissons Ratio (x) = 0.29222 0.42002
# Poissons Ratio (y) = 0.37535 0.00086
# Poissons Ratio (z) = 0.51266 0.00082
#
# Static dielectric constant tensor:
#      x y z
#    x 2.000540 0.013630 -0.028640 
#    y 0.013630 2.025410 -0.037080 
#    z -0.028640 -0.037080 2.061920 
# 
# From -- ./inp_files/156577.got.cif
#   From: 2010.05.17/outbox.cif.g08.bks.cpg/sg2_79_cif.got.tgz:156577.got - 2010.06.03 11:33:40.
