data_PCOD9080232
_publ_section_title
;
Structure prediction by ZEFSAII (Michael W. Deem and Ramdas Pophale) SiO2 
 PCOD9080232
Probable space group: P -1
;
_chemical_formula_sum "Si O2"
_cell_formula_units_Z 16
_cell_length_a 8.186491
_cell_length_b 8.155875
_cell_length_c 17.308680
_cell_angle_alpha 48.867448
_cell_angle_beta 111.043541
_cell_angle_gamma 128.746027
_cell_volume 676.147851
_symmetry_space_group_name_H-M "P -1"
_symmetry_group_IT_number 2
_symmetry_cell_setting 'triclinic'
loop_
_space_group_symop_operation_xyz
x,y,z
-x,-y,-z
loop_
_atom_site_type_symbol
_atom_site_label
_atom_site_fract_x
_atom_site_fract_y
_atom_site_fract_z
Si Si1 0.082608 0.274532 0.386636
Si Si2 0.421294 0.277745 0.374534
Si Si3 0.102039 0.110652 0.832964
Si Si4 0.099766 0.226089 0.230721
Si Si5 0.652553 0.908560 0.896143
Si Si6 0.695395 0.511460 0.122141
Si Si7 0.145318 0.720497 0.056464
Si Si8 0.150963 0.650350 0.551167
O O1 0.331475 0.403659 0.377536
O O2 0.008670 0.230057 0.298355
O O3 0.998943 0.414253 0.380023
O O4 0.000000 0.000000 0.500000
O O5 0.324917 0.280949 0.274459
O O6 0.662059 0.392312 0.392780
O O7 0.283797 0.965172 0.464436
O O8 0.052977 0.041313 0.756659
O O9 0.871035 0.000183 0.863370
O O10 0.245905 0.391298 0.810516
O O11 0.184169 0.933836 0.934282
O O12 0.140316 0.466599 0.110965
O O13 0.469719 0.783938 0.840626
O O14 0.693799 0.140357 0.887397
O O15 0.612343 0.682047 0.019139
O O16 0.915339 0.614445 0.084917
O O17 0.000000 0.500000 0.500000
#
# Coordination Sequence:
#
# PCOD9080232 Si02
#       8
#     2   2   2   2   2   2   2   2
#     4   8  18  38  60  82 116 150 184 241 295 348
#     4   8  20  38  57  86 117 142 187 240 292 351
#     4   9  17  31  54  77 110 155 192 232 281 334
#     4  10  19  36  53  83 122 147 190 241 286 350
#     4   8  15  31  52  75 106 145 196 243 281 330
#     4   8  15  31  53  76 103 148 197 238 281 332
#     4   9  17  31  53  78 111 155 190 230 288 334
#     4  10  18  38  67  85 106 152 192 233 298 353
#
# _framework density 23.663464999999999
#
# number of rings (size 3 to 8) (size 9 to 14) (size 15 to 20)
#    0.750    2.500    0.000    1.875    0.000    0.500 
#    6.750    2.500    0.000    6.000    0.000    0.000 
#    0.000    0.000    0.000    0.000    0.000    0.000 
#
# Total GULP energy -89209.394424 kJ/mol
# GULP energy per Si atom -5575.587151 kJ/mol
# Density = 2.360961 g / cm^3
# Si number density = 23.663465 Si / 1000 Ang^3
#
#
#
# Elastic Constant Matrix: (Units=GPa)
#
#
# Indices 1 2 3 4 5 6 
#
# 1 122.1124 59.1279 37.4655 34.0235 7.9357 2.6534
# 2 59.1279 155.4392 20.9511 48.9417 0.9798 12.8653
# 3 37.4655 20.9511 63.9026 23.5437 8.3684 8.6274
# 4 34.0235 48.9417 23.5437 46.9315 -4.6394 -4.5882
# 5 7.9357 0.9798 8.3684 -4.6394 29.3459 7.0096
# 6 2.6534 12.8653 8.6274 -4.5882 7.0096 21.2132
#
#
#
# Elastic Compliance Matrix: (Units=1/GPa)
#
#
# Indices 1 2 3 4 5 6 
#
# 1 0.012271 -0.003264 -0.005019 -0.002989 -0.002920 0.002805
# 2 -0.003264 0.012549 0.004745 -0.014312 -0.000251 -0.012145
# 3 -0.005019 0.004745 0.025580 -0.016065 -0.005193 -0.014412
# 4 -0.002989 -0.014312 -0.016065 0.049567 0.008055 0.023647
# 5 -0.002920 -0.000251 -0.005193 0.008055 0.039719 -0.008753
# 6 0.002805 -0.012145 -0.014412 0.023647 -0.008753 0.068023
#
#
# Mechanical properties :
#
#
# Convention : Reuss Voigt Hill
#
# Bulk Modulus (GPa) = 23.08208 64.06036 43.57122
# Shear Modulus (GPa) = 21.81238 34.42543 28.11890
#
# Velocity S-wave (km/s) = 3.03937 3.81831 3.45089
# Velocity P-wave (km/s) = 4.70027 6.82419 5.85927
#
# Compressibility (1/GPa) = 0.04332366
#
# Stress axis : x y z
#
# Youngs Moduli (GPa) = 81.49115 79.69047 39.09245
#
# Poissons Ratio (x) = 0.26011 0.19622
# Poissons Ratio (y) = 0.26599 -0.18550
# Poissons Ratio (z) = 0.40904 -0.37814
#
# Static dielectric constant tensor:
#      x y z
#    x 1.918710 -0.008220 -0.016160 
#    y -0.008220 1.895800 -0.013170 
#    z -0.016160 -0.013170 1.951190 
# 
# From -- ./inp_files/586671.got.cif
#   From: 2010.05.17/outbox.cif.g08.bks.cpg/sg2_294_cif.got.tgz:586671.got - 2010.06.03 11:33:40.
