data_PCOD9080895
_publ_section_title
;
Structure prediction by ZEFSAII (Michael W. Deem and Ramdas Pophale) SiO2 
 PCOD9080895
Probable space group: P -1
;
_chemical_formula_sum "Si O2"
_cell_formula_units_Z 15
_cell_length_a 8.779827
_cell_length_b 10.437036
_cell_length_c 7.348281
_cell_angle_alpha 93.330125
_cell_angle_beta 73.691498
_cell_angle_gamma 56.303612
_cell_volume 518.042179
_symmetry_space_group_name_H-M "P -1"
_symmetry_group_IT_number 2
_symmetry_cell_setting 'triclinic'
loop_
_space_group_symop_operation_xyz
x,y,z
-x,-y,-z
loop_
_atom_site_type_symbol
_atom_site_label
_atom_site_fract_x
_atom_site_fract_y
_atom_site_fract_z
Si Si1 0.082975 0.653114 0.843438
Si Si2 0.000000 0.000000 0.000000
Si Si3 0.717072 0.688936 0.856981
Si Si4 0.193059 0.875283 0.308719
Si Si5 0.558122 0.670322 0.372387
Si Si6 0.319402 0.145347 0.468578
Si Si7 0.657292 0.237671 0.186863
Si Si8 0.108375 0.648281 0.396929
O O1 0.286488 0.482403 0.816589
O O2 0.135573 0.772534 0.910179
O O3 0.871658 0.685051 0.947357
O O4 0.102832 0.648476 0.617301
O O5 0.137180 0.951669 0.137943
O O6 0.790467 0.055541 0.190360
O O7 0.664698 0.832731 0.750281
O O8 0.506745 0.711341 0.905316
O O9 0.851353 0.509383 0.713922
O O10 0.395623 0.827151 0.325388
O O11 0.247057 0.696215 0.287744
O O12 0.000000 0.000000 0.500000
O O13 0.693489 0.705394 0.433580
O O14 0.450490 0.658839 0.585606
O O15 0.103574 0.198189 0.579358
O O16 0.500000 0.000000 0.500000
#
# Coordination Sequence:
#
# PCOD9080895 Si02
#       8
#     2   1   2   2   2   2   2   2
#     4  11  18  38  68 107 138 177 241 298 343 425
#     4  12  28  48  62 106 152 176 238 304 348 438
#     4  10  21  37  63 106 141 181 240 295 352 419
#     4  12  24  41  71 100 135 190 239 283 363 428
#     4  11  19  37  67 103 128 177 245 278 348 429
#     4  10  19  29  55  99 144 170 226 292 341 416
#     4  11  22  39  69  92 142 190 222 293 360 408
#     4  11  18  35  62  99 138 178 230 294 347 415
#
# _framework density 28.955172999999998
#
# number of rings (size 3 to 8) (size 9 to 14) (size 15 to 20)
#    0.000    1.067    6.667    2.800    1.867    1.067 
#    0.000    3.333    2.933    1.600    0.000    0.000 
#    0.000    0.000    0.000    0.000    0.000    0.000 
#
# Total GULP energy -83532.099059 kJ/mol
# GULP energy per Si atom -5568.806604 kJ/mol
# Density = 2.888927 g / cm^3
# Si number density = 28.955173 Si / 1000 Ang^3
#
#
#
# Elastic Constant Matrix: (Units=GPa)
#
#
# Indices 1 2 3 4 5 6 
#
# 1 206.9752 58.8338 36.8469 16.4489 8.9274 -32.2465
# 2 58.8338 148.3649 26.3987 11.6729 -2.5457 -50.8512
# 3 36.8469 26.3987 82.8609 -6.9609 14.7969 -15.3177
# 4 16.4489 11.6729 -6.9609 40.3216 -7.8549 -0.4214
# 5 8.9274 -2.5457 14.7969 -7.8549 31.4478 0.1582
# 6 -32.2465 -50.8512 -15.3177 -0.4214 0.1582 78.4168
#
#
#
# Elastic Compliance Matrix: (Units=1/GPa)
#
#
# Indices 1 2 3 4 5 6 
#
# 1 0.006059 -0.001482 -0.001952 -0.002679 -0.001597 0.001138
# 2 -0.001482 0.009672 -0.001903 -0.002171 0.001530 0.005276
# 3 -0.001952 -0.001903 0.015014 0.002785 -0.005973 0.000923
# 4 -0.002679 -0.002171 0.002785 0.028217 0.006331 -0.001826
# 5 -0.001597 0.001530 -0.005973 0.006331 0.036772 -0.000871
# 6 0.001138 0.005276 0.000923 -0.001826 -0.000871 0.016814
#
#
# Mechanical properties :
#
#
# Convention : Reuss Voigt Hill
#
# Bulk Modulus (GPa) = 49.82059 75.81776 62.81918
# Shear Modulus (GPa) = 38.48772 51.11203 44.79987
#
# Velocity S-wave (km/s) = 3.64980 4.20600 3.93773
# Velocity P-wave (km/s) = 5.91649 7.05894 6.51281
#
# Compressibility (1/GPa) = 0.02007202
#
# Stress axis : x y z
#
# Youngs Moduli (GPa) = 165.03414 103.39440 66.60526
#
# Poissons Ratio (x) = 0.15323 0.13000
# Poissons Ratio (y) = 0.24459 0.12672
# Poissons Ratio (z) = 0.32212 0.19671
#
# Static dielectric constant tensor:
#      x y z
#    x 2.300660 0.056010 -0.113430 
#    y 0.056010 2.576080 0.219610 
#    z -0.113430 0.219610 2.519940 
# 
# From -- ./inp_files/178890.got.cif
#   From: 2010.05.17/outbox.cif.g08.bks.cpg/sg2_90_cif.got.tgz:178890.got - 2010.06.03 11:33:40.
