data_PCOD9080600
_publ_section_title
;
Structure prediction by ZEFSAII (Michael W. Deem and Ramdas Pophale) SiO2 
 PCOD9080600
Probable space group: P -1
;
_chemical_formula_sum "Si O2"
_cell_formula_units_Z 16
_cell_length_a 8.071885
_cell_length_b 13.933743
_cell_length_c 23.024007
_cell_angle_alpha 23.581792
_cell_angle_beta 127.693291
_cell_angle_gamma 125.292053
_cell_volume 818.521460
_symmetry_space_group_name_H-M "P -1"
_symmetry_group_IT_number 2
_symmetry_cell_setting 'triclinic'
loop_
_space_group_symop_operation_xyz
x,y,z
-x,-y,-z
loop_
_atom_site_type_symbol
_atom_site_label
_atom_site_fract_x
_atom_site_fract_y
_atom_site_fract_z
Si Si1 0.945341 0.846232 0.401241
Si Si2 0.407674 0.055115 0.386274
Si Si3 0.378953 0.787494 0.412921
Si Si4 0.181807 0.008899 0.080249
Si Si5 0.346139 0.823819 0.795212
Si Si6 0.563142 0.519530 0.097239
Si Si7 0.402543 0.257369 0.711825
Si Si8 0.971108 0.693866 0.311933
O O1 0.765710 0.850563 0.310961
O O2 0.008781 0.569353 0.567119
O O3 0.826533 0.978878 0.353747
O O4 0.157312 0.012080 0.351076
O O5 0.480322 0.325153 0.234092
O O6 0.500000 0.000000 0.500000
O O7 0.463877 0.873612 0.446367
O O8 0.466348 0.533812 0.555647
O O9 0.129994 0.726426 0.383635
O O10 0.442901 0.008413 0.262304
O O11 0.386089 0.879456 0.171986
O O12 0.071567 0.881329 0.183318
O O13 0.266226 0.281791 0.955883
O O14 0.000000 0.000000 0.000000
O O15 0.335328 0.635005 0.845878
O O16 0.376118 0.664517 0.947377
O O17 0.263430 0.268741 0.735091
#
# Coordination Sequence:
#
# PCOD9080600 Si02
#       8
#     2   2   2   2   2   2   2   2
#     4  11  20  40  66 102 119 168 220 271 321 375
#     4  11  24  40  62  91 136 167 212 268 321 392
#     4  10  18  40  65  97 124 166 218 276 313 380
#     4  12  27  44  64  96 136 174 213 272 333 387
#     4  10  20  38  68  89 127 168 223 268 318 388
#     4  10  23  43  59  91 130 175 213 261 330 392
#     4  11  21  40  70  99 127 169 226 267 321 385
#     4  11  21  40  72  96 130 164 228 271 321 383
#
# _framework density 19.547442
#
# number of rings (size 3 to 8) (size 9 to 14) (size 15 to 20)
#    0.000    1.250    5.000    1.500    1.750    3.000 
#    4.500    1.250    0.000    0.000    0.000    0.000 
#    0.000    0.000    0.000    0.000    0.000    0.000 
#
# Total GULP energy -89092.172915 kJ/mol
# GULP energy per Si atom -5568.260807 kJ/mol
# Density = 1.950295 g / cm^3
# Si number density = 19.547442 Si / 1000 Ang^3
#
#
#
# Elastic Constant Matrix: (Units=GPa)
#
#
# Indices 1 2 3 4 5 6 
#
# 1 69.9004 37.5543 49.3879 -9.7377 5.4663 5.6703
# 2 37.5543 108.7720 82.0695 -14.2086 -8.0111 10.3678
# 3 49.3879 82.0695 116.5277 -22.4087 -20.6962 1.9366
# 4 -9.7377 -14.2086 -22.4087 39.6979 -3.7952 -2.1189
# 5 5.4663 -8.0111 -20.6962 -3.7952 31.5283 -3.1175
# 6 5.6703 10.3678 1.9366 -2.1189 -3.1175 25.2442
#
#
#
# Elastic Compliance Matrix: (Units=1/GPa)
#
#
# Indices 1 2 3 4 5 6 
#
# 1 0.025478 0.002030 -0.015516 -0.003646 -0.015273 -0.007558
# 2 0.002030 0.022334 -0.018503 -0.003238 -0.008151 -0.009488
# 3 -0.015516 -0.018503 0.034386 0.011857 0.023205 0.012307
# 4 -0.003646 -0.003238 0.011857 0.031250 0.011881 0.005330
# 5 -0.015273 -0.008151 0.023205 0.011881 0.050163 0.012190
# 6 -0.007558 -0.009488 0.012307 0.005330 0.012190 0.046216
#
#
# Mechanical properties :
#
#
# Convention : Reuss Voigt Hill
#
# Bulk Modulus (GPa) = 54.88347 70.35815 62.62081
# Shear Modulus (GPa) = 17.86487 27.70665 22.78576
#
# Velocity S-wave (km/s) = 3.02640 3.76893 3.41789
# Velocity P-wave (km/s) = 6.35217 7.41697 6.90513
#
# Compressibility (1/GPa) = 0.01822042
#
# Stress axis : x y z
#
# Youngs Moduli (GPa) = 39.24971 44.77416 29.08135
#
# Poissons Ratio (x) = -0.09089 0.45123
# Poissons Ratio (y) = -0.07967 0.53809
# Poissons Ratio (z) = 0.60900 0.82845
#
# Static dielectric constant tensor:
#      x y z
#    x 1.793240 -0.030350 -0.010300 
#    y -0.030350 1.702550 0.023410 
#    z -0.010300 0.023410 1.697470 
# 
# From -- ./inp_files/285091.got.cif
#   From: 2010.05.17/outbox.cif.g08.bks.cpg/sg2_143_cif.got.tgz:285091.got - 2010.06.03 11:33:40.
