data_PCOD9080987
_publ_section_title
;
Structure prediction by ZEFSAII (Michael W. Deem and Ramdas Pophale) SiO2 
 PCOD9080987
Probable space group: P -1
;
_chemical_formula_sum "Si O2"
_cell_formula_units_Z 14
_cell_length_a 14.962803
_cell_length_b 14.561477
_cell_length_c 12.672964
_cell_angle_alpha 81.303017
_cell_angle_beta 70.857480
_cell_angle_gamma 20.138015
_cell_volume 787.019525
_symmetry_space_group_name_H-M "P -1"
_symmetry_group_IT_number 2
_symmetry_cell_setting 'triclinic'
loop_
_space_group_symop_operation_xyz
x,y,z
-x,-y,-z
loop_
_atom_site_type_symbol
_atom_site_label
_atom_site_fract_x
_atom_site_fract_y
_atom_site_fract_z
Si Si1 0.631892 0.458922 0.574252
Si Si2 0.733075 0.695772 0.463116
Si Si3 0.177679 0.543266 0.384798
Si Si4 0.748525 0.761460 0.138798
Si Si5 0.520682 0.158915 0.659608
Si Si6 0.835564 0.579753 0.760182
Si Si7 0.641270 0.246663 0.598600
O O1 0.655279 0.516655 0.643210
O O2 0.531050 0.449648 0.648649
O O3 0.431380 0.679008 0.512660
O O4 0.991492 0.107966 0.460667
O O5 0.643042 0.710061 0.587373
O O6 0.713532 0.648084 0.376840
O O7 0.054274 0.450189 0.369360
O O8 0.500000 0.000000 0.500000
O O9 0.137953 0.546756 0.280167
O O10 0.853669 0.843758 0.524548
O O11 0.547807 0.856456 0.226625
O O12 0.934807 0.619336 0.196231
O O13 0.510842 0.063603 0.141820
O O14 0.000000 0.500000 0.000000
O O15 0.485878 0.296745 0.688112
#
# Coordination Sequence:
#
# PCOD9080987 Si02
#       7
#     2   2   2   2   2   2   2
#     4   9  18  28  45  67 105 124 156 189 240 305
#     4  11  18  28  43  75 104 129 157 193 242 302
#     4  11  18  30  48  77 100 127 155 200 257 296
#     4  11  24  38  49  69  98 137 175 206 234 285
#     4  10  19  30  51  70 101 131 166 199 246 292
#     4  11  22  33  52  71 100 131 164 204 246 295
#     4   9  17  30  43  69  96 135 155 190 237 297
#
# _framework density 17.788630000000001
#
# number of rings (size 3 to 8) (size 9 to 14) (size 15 to 20)
#    0.000    1.714    4.286    2.571    0.000    0.000 
#    0.000    0.000    0.000    0.000    0.000    2.000 
#    0.000    0.000    0.000    0.286    0.000    0.000 
#
# Total GULP energy -77945.564011 kJ/mol
# GULP energy per Si atom -5567.540287 kJ/mol
# Density = 1.774814 g / cm^3
# Si number density = 17.788630 Si / 1000 Ang^3
#
#
#
# Elastic Constant Matrix: (Units=GPa)
#
#
# Indices 1 2 3 4 5 6 
#
# 1 164.3749 14.4179 22.1933 0.2478 15.7858 5.6487
# 2 14.4179 61.5652 5.1601 9.3318 0.8209 1.1055
# 3 22.1933 5.1601 44.7673 13.3577 8.8183 1.9900
# 4 0.2478 9.3318 13.3577 19.4537 0.4001 1.5381
# 5 15.7858 0.8209 8.8183 0.4001 12.6565 -1.0340
# 6 5.6487 1.1055 1.9900 1.5381 -1.0340 21.7719
#
#
#
# Elastic Compliance Matrix: (Units=1/GPa)
#
#
# Indices 1 2 3 4 5 6 
#
# 1 0.007405 -0.001820 -0.002805 0.003027 -0.007434 -0.002139
# 2 -0.001820 0.018006 0.001697 -0.009793 0.000238 0.000106
# 3 -0.002805 0.001697 0.034793 -0.024111 -0.020238 -0.001796
# 4 0.003027 -0.009793 -0.024111 0.072602 0.011145 -0.002684
# 5 -0.007434 0.000238 -0.020238 0.011145 0.102657 0.007854
# 6 -0.002139 0.000106 -0.001796 -0.002684 0.007854 0.047207
#
#
# Mechanical properties :
#
#
# Convention : Reuss Voigt Hill
#
# Bulk Modulus (GPa) = 18.39969 39.36112 28.88040
# Shear Modulus (GPa) = 16.30565 26.03884 21.17224
#
# Velocity S-wave (km/s) = 3.03088 3.83010 3.45369
# Velocity P-wave (km/s) = 4.75545 6.46024 5.67226
#
# Compressibility (1/GPa) = 0.05434874
#
# Stress axis : x y z
#
# Youngs Moduli (GPa) = 135.04601 55.53624 28.74124
#
# Poissons Ratio (x) = 0.10109 0.08062
# Poissons Ratio (y) = 0.24583 -0.04878
# Poissons Ratio (z) = 0.37879 -0.09427
#
# Static dielectric constant tensor:
#      x y z
#    x 1.665070 -0.002320 0.020150 
#    y -0.002320 1.716930 -0.003380 
#    z 0.020150 -0.003380 1.599510 
# 
# From -- ./inp_files/72961.got.cif
#   From: 2010.05.17/outbox.cif.g08.bks.cpg/sg2_37_cif.got.tgz:72961.got - 2010.06.03 11:33:40.
