data_PCOD9080097
_publ_section_title
;
Structure prediction by ZEFSAII (Michael W. Deem and Ramdas Pophale) SiO2 
 PCOD9080097
Probable space group: P -1
;
_chemical_formula_sum "Si O2"
_cell_formula_units_Z 16
_cell_length_a 18.557367
_cell_length_b 21.355733
_cell_length_c 5.698121
_cell_angle_alpha 108.532162
_cell_angle_beta 109.929573
_cell_angle_gamma 19.563695
_cell_volume 710.843339
_symmetry_space_group_name_H-M "P -1"
_symmetry_group_IT_number 2
_symmetry_cell_setting 'triclinic'
loop_
_space_group_symop_operation_xyz
x,y,z
-x,-y,-z
loop_
_atom_site_type_symbol
_atom_site_label
_atom_site_fract_x
_atom_site_fract_y
_atom_site_fract_z
Si Si1 0.469330 0.603394 0.073642
Si Si2 0.681176 0.782154 0.190245
Si Si3 0.753133 0.175055 0.415064
Si Si4 0.865786 0.366426 0.069132
Si Si5 0.237482 0.985950 0.858354
Si Si6 0.259634 0.135406 0.404364
Si Si7 0.562808 0.807330 0.692403
Si Si8 0.373564 0.316665 0.791592
O O1 0.359543 0.712429 0.330116
O O2 0.697401 0.458847 0.139517
O O3 0.500000 0.500000 0.000000
O O4 0.350309 0.716996 0.823942
O O5 0.796822 0.748196 0.410211
O O6 0.714255 0.682444 0.212840
O O7 0.423400 0.008809 0.211995
O O8 0.718593 0.734378 0.904769
O O9 0.757768 0.092038 0.314869
O O10 0.000000 0.000000 0.500000
O O11 0.727235 0.539291 0.020531
O O12 0.054374 0.255476 0.274870
O O13 0.998930 0.209001 0.866977
O O14 0.394401 0.907549 0.796530
O O15 0.366088 0.884509 0.129759
O O16 0.416554 0.970081 0.557420
O O17 0.670441 0.658929 0.501946
#
# Coordination Sequence:
#
# PCOD9080097 Si02
#       8
#     2   2   2   2   2   2   2   2
#     4  12  28  50  77 118 155 187 246 308 359 444
#     4   9  19  38  60  89 133 176 237 290 354 425
#     4  12  27  51  80 109 153 198 238 300 374 441
#     4  12  23  43  69 101 137 184 236 295 364 427
#     4  11  23  43  67  99 134 190 229 286 360 431
#     4  10  20  36  61  95 128 182 232 292 359 429
#     4  10  18  38  63  90 131 179 231 296 350 429
#     4  10  21  41  61  93 137 172 235 291 354 422
#
# _framework density 22.508475000000001
#
# number of rings (size 3 to 8) (size 9 to 14) (size 15 to 20)
#    0.000    1.250    5.000    2.625    0.000    2.500 
#    4.500    0.625    0.000    0.000    0.000    0.000 
#    0.000    0.000    0.000    0.000    0.000    0.000 
#
# Total GULP energy -89131.216207 kJ/mol
# GULP energy per Si atom -5570.701013 kJ/mol
# Density = 2.245724 g / cm^3
# Si number density = 22.508475 Si / 1000 Ang^3
#
#
#
# Elastic Constant Matrix: (Units=GPa)
#
#
# Indices 1 2 3 4 5 6 
#
# 1 127.1413 39.1990 42.5458 14.0097 37.2131 7.9892
# 2 39.1990 88.8175 31.6911 20.2656 8.3362 -1.5679
# 3 42.5458 31.6911 111.8455 27.2894 17.8178 -0.0693
# 4 14.0097 20.2656 27.2894 30.3668 7.4603 19.4669
# 5 37.2131 8.3362 17.8178 7.4603 41.6306 3.6010
# 6 7.9892 -1.5679 -0.0693 19.4669 3.6010 42.8253
#
#
#
# Elastic Compliance Matrix: (Units=1/GPa)
#
#
# Indices 1 2 3 4 5 6 
#
# 1 0.013066 -0.004970 -0.003316 0.005425 -0.009868 -0.004261
# 2 -0.004970 0.016627 0.000406 -0.015125 0.002944 0.008164
# 3 -0.003316 0.000406 0.014329 -0.016725 -0.000974 0.008341
# 4 0.005425 -0.015125 -0.016725 0.081451 -0.005961 -0.038117
# 5 -0.009868 0.002944 -0.000974 -0.005961 0.033579 0.001833
# 6 -0.004261 0.008164 0.008341 -0.038117 0.001833 0.041630
#
#
# Mechanical properties :
#
#
# Convention : Reuss Voigt Hill
#
# Bulk Modulus (GPa) = 35.38538 61.63069 48.50803
# Shear Modulus (GPa) = 22.13745 37.25578 29.69661
#
# Velocity S-wave (km/s) = 3.13951 4.07281 3.63623
# Velocity P-wave (km/s) = 5.37560 7.03972 6.26317
#
# Compressibility (1/GPa) = 0.02826026
#
# Stress axis : x y z
#
# Youngs Moduli (GPa) = 76.53716 60.14494 69.79087
#
# Poissons Ratio (x) = 0.29892 0.23143
# Poissons Ratio (y) = 0.38039 -0.02833
# Poissons Ratio (z) = 0.25380 -0.02441
#
# Static dielectric constant tensor:
#      x y z
#    x 1.872540 0.021740 -0.089770 
#    y 0.021740 1.907220 -0.016610 
#    z -0.089770 -0.016610 2.103100 
# 
# From -- ./inp_files/112487.got.cif
#   From: 2010.05.17/outbox.cif.g08.bks.cpg/sg2_57_cif.got.tgz:112487.got - 2010.06.03 11:33:40.
