data_PCOD9080790
_publ_section_title
;
Structure prediction by ZEFSAII (Michael W. Deem and Ramdas Pophale) SiO2 
 PCOD9080790
Probable space group: P -1
;
_chemical_formula_sum "Si O2"
_cell_formula_units_Z 16
_cell_length_a 11.481564
_cell_length_b 7.687556
_cell_length_c 14.580614
_cell_angle_alpha 116.348007
_cell_angle_beta 121.180940
_cell_angle_gamma 44.642983
_cell_volume 767.570302
_symmetry_space_group_name_H-M "P -1"
_symmetry_group_IT_number 2
_symmetry_cell_setting 'triclinic'
loop_
_space_group_symop_operation_xyz
x,y,z
-x,-y,-z
loop_
_atom_site_type_symbol
_atom_site_label
_atom_site_fract_x
_atom_site_fract_y
_atom_site_fract_z
Si Si1 0.390413 0.220166 0.432191
Si Si2 0.540997 0.125219 0.767439
Si Si3 0.825734 0.184601 0.701680
Si Si4 0.908620 0.946442 0.369765
Si Si5 0.069967 0.306050 0.403334
Si Si6 0.811757 0.586502 0.230081
Si Si7 0.070997 0.086579 0.122827
Si Si8 0.555207 0.491532 0.348781
O O1 0.193184 0.318161 0.388577
O O2 0.400960 0.427032 0.521550
O O3 0.500000 0.000000 0.500000
O O4 0.457873 0.085696 0.331223
O O5 0.395083 0.259278 0.818012
O O6 0.738620 0.999400 0.846142
O O7 0.485624 0.324912 0.709832
O O8 0.892865 0.061770 0.801256
O O9 0.631895 0.441164 0.693735
O O10 0.816899 0.984605 0.596917
O O11 0.959490 0.179923 0.692532
O O12 0.725169 0.213637 0.333861
O O13 0.855278 0.768811 0.319731
O O14 0.000000 0.000000 0.500000
O O15 0.000000 0.500000 0.500000
O O16 0.892121 0.396315 0.304470
O O17 0.927905 0.386591 0.150542
O O18 0.000000 0.000000 0.000000
#
# Coordination Sequence:
#
# PCOD9080790 Si02
#       8
#     2   2   2   2   2   2   2   2
#     4  10  15  28  51  83 111 146 199 241 283 342
#     4  10  20  37  64  86 115 151 204 259 301 342
#     4  10  21  39  58  85 117 160 201 244 295 352
#     4  12  26  36  53  89 136 173 191 222 291 373
#     4  11  17  31  56  80 113 154 201 250 289 339
#     4  11  23  37  55  88 123 153 195 248 297 362
#     4  10  22  44  71  91 107 144 210 274 309 338
#     4  10  20  35  55  83 119 165 200 237 285 356
#
# _framework density 20.844994
#
# number of rings (size 3 to 8) (size 9 to 14) (size 15 to 20)
#    0.000    1.500    5.000    5.250    1.750    2.000 
#    0.000    0.625    0.000    3.750    0.000    0.000 
#    0.000    0.000    0.000    0.000    0.000    0.000 
#
# Total GULP energy -89173.385394 kJ/mol
# GULP energy per Si atom -5573.336587 kJ/mol
# Density = 2.079755 g / cm^3
# Si number density = 20.844994 Si / 1000 Ang^3
#
#
#
# Elastic Constant Matrix: (Units=GPa)
#
#
# Indices 1 2 3 4 5 6 
#
# 1 104.8759 58.2358 24.8820 -0.7604 2.2620 -34.8485
# 2 58.2358 116.1720 33.7451 9.8338 5.1997 -27.0810
# 3 24.8820 33.7451 75.0138 11.4191 20.2056 -11.3378
# 4 -0.7604 9.8338 11.4191 18.2270 1.1084 1.5825
# 5 2.2620 5.1997 20.2056 1.1084 16.1612 -0.3191
# 6 -34.8485 -27.0810 -11.3378 1.5825 -0.3191 43.5927
#
#
#
# Elastic Compliance Matrix: (Units=1/GPa)
#
#
# Indices 1 2 3 4 5 6 
#
# 1 0.016292 -0.005854 -0.003149 0.004875 0.003372 0.008416
# 2 -0.005854 0.013643 -0.002932 -0.006086 0.000578 0.003258
# 3 -0.003149 -0.002932 0.026438 -0.013490 -0.030690 0.002802
# 4 0.004875 -0.006086 -0.013490 0.066478 0.013469 -0.005707
# 5 0.003372 0.000578 -0.030690 0.013469 0.098572 -0.004695
# 6 0.008416 0.003258 0.002802 -0.005707 -0.004695 0.032593
#
#
# Mechanical properties :
#
#
# Convention : Reuss Voigt Hill
#
# Bulk Modulus (GPa) = 30.76691 58.86526 44.81609
# Shear Modulus (GPa) = 17.31778 27.54278 22.43028
#
# Velocity S-wave (km/s) = 2.88547 3.63893 3.28388
# Velocity P-wave (km/s) = 5.08853 6.77913 5.99373
#
# Compressibility (1/GPa) = 0.03250245
#
# Stress axis : x y z
#
# Youngs Moduli (GPa) = 61.38022 73.29726 37.82428
#
# Poissons Ratio (x) = 0.42908 0.11911
# Poissons Ratio (y) = 0.35932 0.11091
# Poissons Ratio (z) = 0.19328 0.21493
#
# Static dielectric constant tensor:
#      x y z
#    x 1.833420 0.004010 -0.005320 
#    y 0.004010 1.843610 0.003180 
#    z -0.005320 0.003180 1.733840 
# 
# From -- ./inp_files/505132.got.cif
#   From: 2010.05.17/outbox.cif.g08.bks.cpg/sg2_253_cif.got.tgz:505132.got - 2010.06.03 11:33:40.
