data_PCOD9080101
_publ_section_title
;
Structure prediction by ZEFSAII (Michael W. Deem and Ramdas Pophale) SiO2 
 PCOD9080101
Probable space group: P -1
;
_chemical_formula_sum "Si O2"
_cell_formula_units_Z 16
_cell_length_a 11.603782
_cell_length_b 10.647732
_cell_length_c 9.774454
_cell_angle_alpha 108.695194
_cell_angle_beta 130.369492
_cell_angle_gamma 106.633561
_cell_volume 635.523341
_symmetry_space_group_name_H-M "P -1"
_symmetry_group_IT_number 2
_symmetry_cell_setting 'triclinic'
loop_
_space_group_symop_operation_xyz
x,y,z
-x,-y,-z
loop_
_atom_site_type_symbol
_atom_site_label
_atom_site_fract_x
_atom_site_fract_y
_atom_site_fract_z
Si Si1 0.757464 0.199306 0.495364
Si Si2 0.673732 0.760699 0.366702
Si Si3 0.217542 0.378756 0.271967
Si Si4 0.462729 0.824946 0.002311
Si Si5 0.502035 0.601902 0.806273
Si Si6 0.375417 0.709951 0.332829
Si Si7 0.955542 0.858746 0.182027
Si Si8 0.911186 0.376947 0.166996
O O1 0.611420 0.182487 0.491346
O O2 0.887394 0.164135 0.663780
O O3 0.929305 0.404071 0.642119
O O4 0.618014 0.041024 0.219645
O O5 0.559286 0.771918 0.163077
O O6 0.622628 0.575667 0.258825
O O7 0.577033 0.769886 0.434576
O O8 0.916781 0.933539 0.614722
O O9 0.427615 0.511202 0.567070
O O10 0.243237 0.508325 0.221655
O O11 0.047122 0.328610 0.230618
O O12 0.123597 0.199938 0.055229
O O13 0.459668 0.732192 0.833244
O O14 0.234125 0.715380 0.845248
O O15 0.744250 0.722712 0.056120
O O16 0.241988 0.698165 0.106883
#
# Coordination Sequence:
#
# PCOD9080101 Si02
#       8
#     2   2   2   2   2   2   2   2
#     4  10  19  36  64  92 110 143 196 249 285 331
#     4  10  23  37  64  87 110 155 198 240 279 339
#     4  11  21  38  63  84 119 155 184 241 296 337
#     4  10  24  38  61  86 115 158 191 235 283 343
#     4  12  25  42  51  84 132 156 188 225 283 360
#     4  10  18  38  63  93 113 138 195 253 296 319
#     4  11  21  37  62  88 112 154 191 240 292 330
#     4  10  19  38  64  88 113 144 195 248 287 331
#
# _framework density 25.176100999999999
#
# number of rings (size 3 to 8) (size 9 to 14) (size 15 to 20)
#    0.000    1.500    3.750    2.250    1.750    5.500 
#    0.000    2.500    0.000    0.000    0.000    0.000 
#    0.000    0.000    0.000    0.000    0.000    0.000 
#
# Total GULP energy -89547.151311 kJ/mol
# GULP energy per Si atom -5596.696957 kJ/mol
# Density = 2.511880 g / cm^3
# Si number density = 25.176101 Si / 1000 Ang^3
#
#
#
# Elastic Constant Matrix: (Units=GPa)
#
#
# Indices 1 2 3 4 5 6 
#
# 1 55.6289 -6.1483 18.3017 2.4444 -14.8585 -1.0560
# 2 -6.1483 41.1370 19.2503 18.2505 -3.8988 -3.4663
# 3 18.3017 19.2503 141.6309 19.5085 -12.6532 3.5391
# 4 2.4444 18.2505 19.5085 43.3763 -3.1131 -8.1748
# 5 -14.8585 -3.8988 -12.6532 -3.1131 31.0534 -2.1369
# 6 -1.0560 -3.4663 3.5391 -8.1748 -2.1369 26.8866
#
#
#
# Elastic Compliance Matrix: (Units=1/GPa)
#
#
# Indices 1 2 3 4 5 6 
#
# 1 0.022506 0.006533 -0.002700 -0.001591 0.010497 0.002432
# 2 0.006533 0.032735 -0.003247 -0.012028 0.004819 0.001630
# 3 -0.002700 -0.003247 0.008382 -0.002594 0.001296 -0.002314
# 4 -0.001591 -0.012028 -0.002594 0.030933 0.000334 0.008160
# 5 0.010497 0.004819 0.001296 0.000334 0.038670 0.004038
# 6 0.002432 0.001630 -0.002314 0.008160 0.004038 0.040605
#
#
# Mechanical properties :
#
#
# Convention : Reuss Voigt Hill
#
# Bulk Modulus (GPa) = 15.43324 33.46714 24.45019
# Shear Modulus (GPa) = 25.73890 34.06281 29.90085
#
# Velocity S-wave (km/s) = 3.20090 3.68228 3.44999
# Velocity P-wave (km/s) = 4.45021 5.60366 5.05991
#
# Compressibility (1/GPa) = 0.06479523
#
# Stress axis : x y z
#
# Youngs Moduli (GPa) = 44.43175 30.54816 119.30557
#
# Poissons Ratio (x) = -0.19957 0.32214
# Poissons Ratio (y) = -0.29027 0.38738
# Poissons Ratio (z) = 0.11997 0.09919
#
# Static dielectric constant tensor:
#      x y z
#    x 2.025340 0.021990 -0.057590 
#    y 0.021990 2.021020 -0.042190 
#    z -0.057590 -0.042190 1.994050 
# 
# From -- ./inp_files/269573.got.cif
#   From: 2010.05.17/outbox.cif.g08.bks.cpg/sg2_135_cif.got.tgz:269573.got - 2010.06.03 11:33:40.
