data_PCOD9080480
_publ_section_title
;
Structure prediction by ZEFSAII (Michael W. Deem and Ramdas Pophale) SiO2 
 PCOD9080480
Probable space group: P -1
;
_chemical_formula_sum "Si O2"
_cell_formula_units_Z 16
_cell_length_a 7.776712
_cell_length_b 13.521037
_cell_length_c 7.406810
_cell_angle_alpha 96.131878
_cell_angle_beta 104.444613
_cell_angle_gamma 121.216504
_cell_volume 618.238933
_symmetry_space_group_name_H-M "P -1"
_symmetry_group_IT_number 2
_symmetry_cell_setting 'triclinic'
loop_
_space_group_symop_operation_xyz
x,y,z
-x,-y,-z
loop_
_atom_site_type_symbol
_atom_site_label
_atom_site_fract_x
_atom_site_fract_y
_atom_site_fract_z
Si Si1 0.437802 0.581500 0.722061
Si Si2 0.445160 0.076471 0.376191
Si Si3 0.494473 0.182602 0.052652
Si Si4 0.766182 0.684531 0.308808
Si Si5 0.922630 0.725429 0.764556
Si Si6 0.381361 0.717505 0.257335
Si Si7 0.897390 0.503024 0.662150
Si Si8 0.018501 0.117929 0.885280
O O1 0.313481 0.453586 0.764624
O O2 0.690023 0.645537 0.785117
O O3 0.341529 0.547250 0.488155
O O4 0.416750 0.682741 0.824911
O O5 0.535722 0.113299 0.203048
O O6 0.187745 0.002254 0.273007
O O7 0.500000 0.000000 0.500000
O O8 0.538861 0.201104 0.528073
O O9 0.594072 0.198324 0.885214
O O10 0.235388 0.120594 0.955212
O O11 0.879908 0.731722 0.543127
O O12 0.555208 0.687341 0.248213
O O13 0.926035 0.774885 0.216763
O O14 0.004344 0.638482 0.779779
O O15 0.033874 0.847822 0.929328
O O16 0.152612 0.595451 0.221356
O O17 0.000000 0.500000 0.500000
#
# Coordination Sequence:
#
# PCOD9080480 Si02
#       8
#     2   2   2   2   2   2   2   2
#     4  10  18  39  68 102 143 171 221 284 354 413
#     4  12  27  48  65  90 149 190 230 282 349 420
#     4  10  23  42  75 104 128 178 243 295 332 410
#     4  10  19  36  70 107 138 170 223 292 349 401
#     4  10  19  38  67  98 138 174 222 282 339 406
#     4  11  22  42  69  98 133 186 233 282 353 397
#     4  11  21  37  64 100 145 182 217 277 349 426
#     4  10  24  40  71 108 129 175 240 289 329 405
#
# _framework density 25.879963
#
# number of rings (size 3 to 8) (size 9 to 14) (size 15 to 20)
#    0.000    1.500    3.750    1.875    1.750    7.000 
#    2.250    0.625    0.000    0.000    0.000    0.000 
#    0.000    0.000    0.000    0.000    0.000    0.000 
#
# Total GULP energy -89603.561494 kJ/mol
# GULP energy per Si atom -5600.222593 kJ/mol
# Density = 2.582106 g / cm^3
# Si number density = 25.879963 Si / 1000 Ang^3
#
#
#
# Elastic Constant Matrix: (Units=GPa)
#
#
# Indices 1 2 3 4 5 6 
#
# 1 82.2261 12.1365 17.1956 -4.8199 0.4912 -1.5069
# 2 12.1365 157.0940 45.5042 -37.9884 1.9837 -9.9284
# 3 17.1956 45.5042 119.7847 -19.0301 10.2914 13.1648
# 4 -4.8199 -37.9884 -19.0301 52.0916 1.5970 -1.9705
# 5 0.4912 1.9837 10.2914 1.5970 31.2523 -3.7082
# 6 -1.5069 -9.9284 13.1648 -1.9705 -3.7082 14.8440
#
#
#
# Elastic Compliance Matrix: (Units=1/GPa)
#
#
# Indices 1 2 3 4 5 6 
#
# 1 0.012713 -0.000018 -0.002213 0.000460 0.000926 0.003533
# 2 -0.000018 0.009701 -0.004148 0.005934 0.001800 0.011403
# 3 -0.002213 -0.004148 0.012586 0.000959 -0.005731 -0.015466
# 4 0.000460 0.005934 0.000959 0.024184 -0.001215 0.006072
# 5 0.000926 0.001800 -0.005731 -0.001215 0.035612 0.015115
# 6 0.003533 0.011403 -0.015466 0.006072 0.015115 0.093651
#
#
# Mechanical properties :
#
#
# Convention : Reuss Voigt Hill
#
# Bulk Modulus (GPa) = 44.95919 56.53085 50.74502
# Shear Modulus (GPa) = 23.96698 38.58881 31.27790
#
# Velocity S-wave (km/s) = 3.04646 3.86563 3.48023
# Velocity P-wave (km/s) = 5.45752 6.46645 5.98329
#
# Compressibility (1/GPa) = 0.02224239
#
# Stress axis : x y z
#
# Youngs Moduli (GPa) = 78.65817 103.07740 79.45234
#
# Poissons Ratio (x) = 0.00190 0.17582
# Poissons Ratio (y) = 0.00145 0.32957
# Poissons Ratio (z) = 0.17406 0.42756
#
# Static dielectric constant tensor:
#      x y z
#    x 2.136320 -0.032900 0.045340 
#    y -0.032900 2.058300 -0.032530 
#    z 0.045340 -0.032530 1.998440 
# 
# From -- ./inp_files/208739.got.cif
#   From: 2010.05.17/outbox.cif.g08.bks.cpg/sg2_105_cif.got.tgz:208739.got - 2010.06.03 11:33:40.
