data_PCOD9080388
_publ_section_title
;
Structure prediction by ZEFSAII (Michael W. Deem and Ramdas Pophale) SiO2 
 PCOD9080388
Probable space group: P -1
;
_chemical_formula_sum "Si O2"
_cell_formula_units_Z 14
_cell_length_a 11.767312
_cell_length_b 13.648681
_cell_length_c 22.646683
_cell_angle_alpha 162.958793
_cell_angle_beta 34.106023
_cell_angle_gamma 139.632977
_cell_volume 587.826592
_symmetry_space_group_name_H-M "P -1"
_symmetry_group_IT_number 2
_symmetry_cell_setting 'triclinic'
loop_
_space_group_symop_operation_xyz
x,y,z
-x,-y,-z
loop_
_atom_site_type_symbol
_atom_site_label
_atom_site_fract_x
_atom_site_fract_y
_atom_site_fract_z
Si Si1 0.445295 0.165969 0.485194
Si Si2 0.407886 0.911103 0.744027
Si Si3 0.778439 0.566492 0.602707
Si Si4 0.791091 0.431098 0.753718
Si Si5 0.772385 0.732239 0.564895
Si Si6 0.631847 0.498274 0.743265
Si Si7 0.772899 0.684625 0.217400
O O1 0.438627 0.246154 0.465310
O O2 0.671798 0.237180 0.445118
O O3 0.292789 0.361378 0.712584
O O4 0.383771 0.798102 0.301404
O O5 0.563455 0.941631 0.748266
O O6 0.253183 0.647937 0.663260
O O7 0.268581 0.278399 0.004986
O O8 0.779814 0.741952 0.639037
O O9 0.647074 0.712658 0.801159
O O10 0.000000 0.500000 0.500000
O O11 0.761485 0.611782 0.806221
O O12 0.018485 0.208253 0.522422
O O13 0.394016 0.470205 0.837955
O O14 0.734332 0.092482 0.458410
O O15 0.000000 0.500000 0.000000
#
# Coordination Sequence:
#
# PCOD9080388 Si02
#       7
#     2   2   2   2   2   2   2
#     4   9  21  37  62  92 121 155 206 248 299 367
#     4  10  22  41  59  86 127 158 202 251 292 365
#     4  10  18  39  63  81 122 163 192 253 307 345
#     4  11  20  37  62  89 120 162 197 249 307 352
#     4  10  22  39  61  87 117 164 207 245 299 359
#     4   9  19  34  56  89 117 147 200 242 290 367
#     4   9  18  36  59  86 120 152 188 247 305 347
#
# _framework density 23.816547
#
# number of rings (size 3 to 8) (size 9 to 14) (size 15 to 20)
#    0.000    2.286    1.429    1.714    0.000    2.857 
#    0.000   13.571    0.000    0.000    0.000    0.000 
#    0.000    0.000    0.000    0.000    0.000    0.000 
#
# Total GULP energy -77936.669794 kJ/mol
# GULP energy per Si atom -5566.904985 kJ/mol
# Density = 2.376234 g / cm^3
# Si number density = 23.816547 Si / 1000 Ang^3
#
#
#
# Elastic Constant Matrix: (Units=GPa)
#
#
# Indices 1 2 3 4 5 6 
#
# 1 99.2032 15.0649 -0.7054 -14.7537 -8.1178 1.2009
# 2 15.0649 86.9894 22.5470 -18.6237 -6.4924 10.3879
# 3 -0.7054 22.5470 69.4075 -13.3011 -15.4674 14.9737
# 4 -14.7537 -18.6237 -13.3011 25.0632 6.7096 1.5262
# 5 -8.1178 -6.4924 -15.4674 6.7096 25.3263 -5.0545
# 6 1.2009 10.3879 14.9737 1.5262 -5.0545 31.1456
#
#
#
# Elastic Compliance Matrix: (Units=1/GPa)
#
#
# Indices 1 2 3 4 5 6 
#
# 1 0.011504 -0.000840 0.002647 0.006821 0.003027 -0.001279
# 2 -0.000840 0.014791 -0.002235 0.009958 -0.001386 -0.004539
# 3 0.002647 -0.002235 0.020642 0.008989 0.008847 -0.008285
# 4 0.006821 0.009958 0.008989 0.058901 -0.007782 -0.012055
# 5 0.003027 -0.001386 0.008847 -0.007782 0.048429 0.004333
# 6 -0.001279 -0.004539 -0.008285 -0.012055 0.004333 0.038948
#
#
# Mechanical properties :
#
#
# Convention : Reuss Voigt Hill
#
# Bulk Modulus (GPa) = 21.69979 36.60143 29.15061
# Shear Modulus (GPa) = 23.87432 30.88660 27.38046
#
# Velocity S-wave (km/s) = 3.16955 3.60509 3.39431
# Velocity P-wave (km/s) = 4.74612 5.72105 5.25624
#
# Compressibility (1/GPa) = 0.04608340
#
# Stress axis : x y z
#
# Youngs Moduli (GPa) = 86.92484 67.60983 48.44448
#
# Poissons Ratio (x) = 0.05676 -0.12824
# Poissons Ratio (y) = 0.07297 0.10825
# Poissons Ratio (z) = -0.23011 0.15108
#
# Static dielectric constant tensor:
#      x y z
#    x 2.018530 -0.060520 0.067850 
#    y -0.060520 2.002530 -0.019280 
#    z 0.067850 -0.019280 1.943830 
# 
# From -- ./inp_files/458016.got.cif
#   From: 2010.05.17/outbox.cif.g08.bks.cpg/sg2_230_cif.got.tgz:458016.got - 2010.06.03 11:33:40.
