data_PCOD9080764
_publ_section_title
;
Structure prediction by ZEFSAII (Michael W. Deem and Ramdas Pophale) SiO2 
 PCOD9080764
Probable space group: P -1
;
_chemical_formula_sum "Si O2"
_cell_formula_units_Z 16
_cell_length_a 9.090792
_cell_length_b 15.756913
_cell_length_c 9.057301
_cell_angle_alpha 100.155907
_cell_angle_beta 61.190942
_cell_angle_gamma 55.657925
_cell_volume 736.861786
_symmetry_space_group_name_H-M "P -1"
_symmetry_group_IT_number 2
_symmetry_cell_setting 'triclinic'
loop_
_space_group_symop_operation_xyz
x,y,z
-x,-y,-z
loop_
_atom_site_type_symbol
_atom_site_label
_atom_site_fract_x
_atom_site_fract_y
_atom_site_fract_z
Si Si1 0.464229 0.162083 0.610286
Si Si2 0.796482 0.005467 0.133267
Si Si3 0.507034 0.594248 0.087087
Si Si4 0.938984 0.557121 0.212886
Si Si5 0.737200 0.141735 0.725878
Si Si6 0.644792 0.507794 0.322012
Si Si7 0.455858 0.120413 0.071237
Si Si8 0.116331 0.216435 0.017999
O O1 0.700217 0.044052 0.359430
O O2 0.235069 0.291025 0.666648
O O3 0.551052 0.202623 0.693937
O O4 0.355862 0.132366 0.764985
O O5 0.536632 0.111622 0.194787
O O6 0.933662 0.864636 0.973689
O O7 0.000000 0.000000 0.000000
O O8 0.291638 0.746331 0.185778
O O9 0.495203 0.589956 0.270541
O O10 0.500000 0.500000 0.000000
O O11 0.781523 0.529585 0.887049
O O12 0.761385 0.548169 0.355853
O O13 0.000000 0.500000 0.000000
O O14 0.637110 0.114857 0.890137
O O15 0.000000 0.000000 0.500000
O O16 0.500000 0.500000 0.500000
O O17 0.887748 0.358463 0.105986
O O18 0.189446 0.229807 0.145245
O O19 0.500000 0.000000 0.000000
#
# Coordination Sequence:
#
# PCOD9080764 Si02
#       8
#     2   2   2   2   2   2   2   2
#     4  11  20  40  69  88 120 177 217 253 322 399
#     4  11  24  37  60 100 134 159 209 278 328 378
#     4  11  24  45  66  98 136 175 221 277 328 400
#     4  10  18  43  68  85 126 173 217 254 321 395
#     4  11  22  40  68  95 128 174 218 263 329 400
#     4  11  23  41  70  95 123 175 222 270 328 394
#     4   9  21  42  60  91 132 168 208 271 330 384
#     4  10  21  42  64  87 127 174 217 256 323 404
#
# _framework density 21.713706999999999
#
# number of rings (size 3 to 8) (size 9 to 14) (size 15 to 20)
#    0.000    1.500    5.000    1.875    1.750    4.000 
#    9.000    0.625    0.000    0.000    0.000    0.000 
#    0.000    0.000    0.000    0.000    0.000    0.000 
#
# Total GULP energy -89160.663224 kJ/mol
# GULP energy per Si atom -5572.541451 kJ/mol
# Density = 2.166429 g / cm^3
# Si number density = 21.713707 Si / 1000 Ang^3
#
#
#
# Elastic Constant Matrix: (Units=GPa)
#
#
# Indices 1 2 3 4 5 6 
#
# 1 86.2590 30.7400 23.0362 -8.9211 -3.3705 36.0466
# 2 30.7400 112.1978 18.4122 1.8313 -6.1446 21.6594
# 3 23.0362 18.4122 35.4625 -7.0494 -1.2320 5.9493
# 4 -8.9211 1.8313 -7.0494 34.6451 1.3573 -3.8318
# 5 -3.3705 -6.1446 -1.2320 1.3573 25.0325 -5.4692
# 6 36.0466 21.6594 5.9493 -3.8318 -5.4692 35.4274
#
#
#
# Elastic Compliance Matrix: (Units=1/GPa)
#
#
# Indices 1 2 3 4 5 6 
#
# 1 0.024495 -0.000564 -0.011563 0.001554 -0.002487 -0.022853
# 2 -0.000564 0.011021 -0.004875 -0.002369 0.001339 -0.005395
# 3 -0.011563 -0.004875 0.037922 0.005977 0.000787 0.009145
# 4 0.001554 -0.002369 0.005977 0.030878 -0.001315 0.002000
# 5 -0.002487 0.001339 0.000787 -0.001315 0.041775 0.007886
# 6 -0.022853 -0.005395 0.009145 0.002000 0.007886 0.054676
#
#
# Mechanical properties :
#
#
# Convention : Reuss Voigt Hill
#
# Bulk Modulus (GPa) = 25.35801 42.03290 33.69545
# Shear Modulus (GPa) = 20.16813 29.80305 24.98559
#
# Velocity S-wave (km/s) = 3.05096 3.70881 3.39585
# Velocity P-wave (km/s) = 4.91069 6.14330 5.56125
#
# Compressibility (1/GPa) = 0.03943528
#
# Stress axis : x y z
#
# Youngs Moduli (GPa) = 40.82409 90.73757 26.36965
#
# Poissons Ratio (x) = 0.05114 0.30491
# Poissons Ratio (y) = 0.02301 0.12856
# Poissons Ratio (z) = 0.47204 0.44236
#
# Static dielectric constant tensor:
#      x y z
#    x 1.860350 -0.020930 -0.018040 
#    y -0.020930 1.859900 -0.015920 
#    z -0.018040 -0.015920 1.798400 
# 
# From -- ./inp_files/207592.got.cif
#   From: 2010.05.17/outbox.cif.g08.bks.cpg/sg2_104_cif.got.tgz:207592.got - 2010.06.03 11:33:40.
