data_PCOD9080342
_publ_section_title
;
Structure prediction by ZEFSAII (Michael W. Deem and Ramdas Pophale) SiO2 
 PCOD9080342
Probable space group: P -1
;
_chemical_formula_sum "Si O2"
_cell_formula_units_Z 16
_cell_length_a 9.228288
_cell_length_b 7.742071
_cell_length_c 13.679931
_cell_angle_alpha 99.506171
_cell_angle_beta 91.460700
_cell_angle_gamma 47.228808
_cell_volume 702.524806
_symmetry_space_group_name_H-M "P -1"
_symmetry_group_IT_number 2
_symmetry_cell_setting 'triclinic'
loop_
_space_group_symop_operation_xyz
x,y,z
-x,-y,-z
loop_
_atom_site_type_symbol
_atom_site_label
_atom_site_fract_x
_atom_site_fract_y
_atom_site_fract_z
Si Si1 0.370681 0.452564 0.445111
Si Si2 0.327413 0.114727 0.363908
Si Si3 0.715111 0.281921 0.940860
Si Si4 0.844739 0.248098 0.727180
Si Si5 0.847681 0.508975 0.060437
Si Si6 0.588441 0.026532 0.860385
Si Si7 0.937684 0.537085 0.767522
Si Si8 0.975399 0.861784 0.563902
O O1 0.500000 0.500000 0.500000
O O2 0.443550 0.192497 0.405467
O O3 0.299809 0.580501 0.349028
O O4 0.174051 0.590883 0.521883
O O5 0.120791 0.353520 0.331065
O O6 0.235151 0.064649 0.439205
O O7 0.428797 0.935092 0.255554
O O8 0.730619 0.321534 0.832091
O O9 0.724518 0.064037 0.915688
O O10 0.500000 0.500000 0.000000
O O11 0.850655 0.306543 0.004337
O O12 0.992770 0.289472 0.744532
O O13 0.959780 0.976516 0.676804
O O14 0.626816 0.777169 0.077607
O O15 0.910427 0.474041 0.171145
O O16 0.000000 0.500000 0.000000
O O17 0.721396 0.740940 0.837395
O O18 0.000000 0.000000 0.500000
#
# Coordination Sequence:
#
# PCOD9080342 Si02
#       8
#     2   2   2   2   2   2   2   2
#     4  10  22  38  59  92 120 153 212 256 310 375
#     4   9  19  41  61  82 128 161 202 253 314 375
#     4  10  20  38  60  85 123 161 203 250 306 368
#     4  10  18  39  60  82 121 161 198 254 304 362
#     4  11  21  36  61  93 123 158 215 251 297 375
#     4   9  21  39  60  86 123 167 197 251 315 356
#     4   9  20  37  60  87 120 164 205 245 308 362
#     4  10  20  37  65  86 117 166 201 249 321 367
#
# _framework density 22.774996000000002
#
# number of rings (size 3 to 8) (size 9 to 14) (size 15 to 20)
#    0.750    1.500    2.500    0.375    0.000    2.000 
#    4.500    2.500    0.000    0.000    0.000    0.000 
#    0.000    0.000    0.000    0.000    0.000    0.000 
#
# Total GULP energy -89079.780558 kJ/mol
# GULP energy per Si atom -5567.486285 kJ/mol
# Density = 2.272316 g / cm^3
# Si number density = 22.774996 Si / 1000 Ang^3
#
#
#
# Elastic Constant Matrix: (Units=GPa)
#
#
# Indices 1 2 3 4 5 6 
#
# 1 121.5060 10.6915 53.1372 6.3969 25.7475 9.0608
# 2 10.6915 23.5117 3.5737 12.3900 12.7749 1.6694
# 3 53.1372 3.5737 112.8556 7.7233 16.7789 -4.8341
# 4 6.3969 12.3900 7.7233 31.4330 5.9221 6.3283
# 5 25.7475 12.7749 16.7789 5.9221 54.7708 11.1661
# 6 9.0608 1.6694 -4.8341 6.3283 11.1661 28.9525
#
#
#
# Elastic Compliance Matrix: (Units=1/GPa)
#
#
# Indices 1 2 3 4 5 6 
#
# 1 0.011542 -0.003752 -0.005233 0.001608 -0.002365 -0.003709
# 2 -0.003752 0.063004 0.003760 -0.024229 -0.013208 0.008559
# 3 -0.005233 0.003760 0.012124 -0.003953 -0.002803 0.005390
# 4 0.001608 -0.024229 -0.003953 0.043478 0.003576 -0.010649
# 5 -0.002365 -0.013208 -0.002803 0.003576 0.024823 -0.009321
# 6 -0.003709 0.008559 0.005390 -0.010649 -0.009321 0.042029
#
#
# Mechanical properties :
#
#
# Convention : Reuss Voigt Hill
#
# Bulk Modulus (GPa) = 13.11992 43.63090 28.37541
# Shear Modulus (GPa) = 21.47258 35.72933 28.60095
#
# Velocity S-wave (km/s) = 3.07386 3.96510 3.54758
# Velocity P-wave (km/s) = 4.28618 6.33732 5.40985
#
# Compressibility (1/GPa) = 0.07621999
#
# Stress axis : x y z
#
# Youngs Moduli (GPa) = 86.64238 15.87205 82.48303
#
# Poissons Ratio (x) = 0.05955 0.43161
# Poissons Ratio (y) = 0.32507 -0.31014
# Poissons Ratio (z) = 0.45338 -0.05968
#
# Static dielectric constant tensor:
#      x y z
#    x 1.834570 0.044860 0.053810 
#    y 0.044860 1.925390 -0.028110 
#    z 0.053810 -0.028110 1.860330 
# 
# From -- ./inp_files/491273.got.cif
#   From: 2010.05.17/outbox.cif.g08.bks.cpg/sg2_246_cif.got.tgz:491273.got - 2010.06.03 11:33:40.
