data_PCOD9080704
_publ_section_title
;
Structure prediction by ZEFSAII (Michael W. Deem and Ramdas Pophale) SiO2 
 PCOD9080704
Probable space group: P -1
;
_chemical_formula_sum "Si O2"
_cell_formula_units_Z 16
_cell_length_a 9.337655
_cell_length_b 26.109178
_cell_length_c 9.263395
_cell_angle_alpha 151.498265
_cell_angle_beta 50.752254
_cell_angle_gamma 133.470322
_cell_volume 779.528157
_symmetry_space_group_name_H-M "P -1"
_symmetry_group_IT_number 2
_symmetry_cell_setting 'triclinic'
loop_
_space_group_symop_operation_xyz
x,y,z
-x,-y,-z
loop_
_atom_site_type_symbol
_atom_site_label
_atom_site_fract_x
_atom_site_fract_y
_atom_site_fract_z
Si Si1 0.548126 0.292628 0.394238
Si Si2 0.942205 0.297417 0.822774
Si Si3 0.159732 0.119491 0.742187
Si Si4 0.731812 0.723260 0.215874
Si Si5 0.442724 0.481525 0.764155
Si Si6 0.896579 0.686381 0.565055
Si Si7 0.491328 0.876659 0.258373
Si Si8 0.901244 0.445760 0.690803
O O1 0.426417 0.251146 0.515377
O O2 0.494788 0.401835 0.649188
O O3 0.783424 0.346956 0.407319
O O4 0.480794 0.196177 0.077101
O O5 0.723555 0.204140 0.745629
O O6 0.084963 0.273303 0.791339
O O7 0.025865 0.291233 0.593272
O O8 0.959045 0.431318 0.156594
O O9 0.224080 0.192089 0.735367
O O10 0.341388 0.107795 0.688872
O O11 0.069055 0.194025 0.084579
O O12 0.000000 0.000000 0.500000
O O13 0.631615 0.593987 0.897271
O O14 0.336766 0.393115 0.486511
O O15 0.272716 0.524759 0.042159
O O16 0.997065 0.610835 0.400496
O O17 0.500000 0.000000 0.500000
#
# Coordination Sequence:
#
# PCOD9080704 Si02
#       8
#     2   2   2   2   2   2   2   2
#     4  11  21  44  70  97 137 172 210 260 333 390
#     4  11  22  43  69 100 133 171 213 263 332 387
#     4  12  29  48  64  93 130 174 230 272 315 381
#     4  11  22  41  73  97 133 173 210 264 330 393
#     4  10  18  41  67 103 133 171 205 258 330 405
#     4  11  24  42  69  98 139 172 209 268 327 388
#     4  12  29  47  66  93 129 173 229 275 313 383
#     4  10  21  36  71 105 136 164 212 263 323 401
#
# _framework density 20.525238999999999
#
# number of rings (size 3 to 8) (size 9 to 14) (size 15 to 20)
#    0.000    1.000    5.000    3.000    8.750    3.000 
#    0.000    3.750    0.000    0.000    0.000    0.000 
#    0.000    0.000    0.000    0.000    0.000    0.000 
#
# Total GULP energy -89420.998105 kJ/mol
# GULP energy per Si atom -5588.812382 kJ/mol
# Density = 2.047852 g / cm^3
# Si number density = 20.525239 Si / 1000 Ang^3
#
#
#
# Elastic Constant Matrix: (Units=GPa)
#
#
# Indices 1 2 3 4 5 6 
#
# 1 195.2947 136.3090 87.0417 51.6529 21.5121 -29.0070
# 2 136.3090 237.4659 96.0676 68.8838 18.4136 -25.3397
# 3 87.0417 96.0676 144.2630 33.8603 26.6401 -9.3430
# 4 51.6529 68.8838 33.8603 50.8642 3.7771 -1.0097
# 5 21.5121 18.4136 26.6401 3.7771 39.7556 9.0269
# 6 -29.0070 -25.3397 -9.3430 -1.0097 9.0269 35.6048
#
#
#
# Elastic Compliance Matrix: (Units=1/GPa)
#
#
# Indices 1 2 3 4 5 6 
#
# 1 0.011094 -0.002652 -0.002299 -0.005668 -0.004399 0.007502
# 2 -0.002652 0.009843 -0.002242 -0.008923 -0.001786 0.004456
# 3 -0.002299 -0.002242 0.011230 -0.001701 -0.005255 0.000763
# 4 -0.005668 -0.008923 -0.001701 0.037831 0.007527 -0.012250
# 5 -0.004399 -0.001786 -0.005255 0.007527 0.034522 -0.014773
# 6 0.007502 0.004456 0.000763 -0.012250 -0.014773 0.040967
#
#
# Mechanical properties :
#
#
# Convention : Reuss Voigt Hill
#
# Bulk Modulus (GPa) = 56.23654 135.09558 95.66606
# Shear Modulus (GPa) = 30.15677 42.41860 36.28769
#
# Velocity S-wave (km/s) = 3.83724 4.55098 4.20927
# Velocity P-wave (km/s) = 6.86227 9.67354 8.38654
#
# Compressibility (1/GPa) = 0.01778203
#
# Stress axis : x y z
#
# Youngs Moduli (GPa) = 90.13493 101.59794 89.04337
#
# Poissons Ratio (x) = 0.26948 0.20470
# Poissons Ratio (y) = 0.23907 0.19959
# Poissons Ratio (z) = 0.20721 0.22774
#
# Static dielectric constant tensor:
#      x y z
#    x 1.764830 0.022600 0.033020 
#    y 0.022600 1.752000 -0.027560 
#    z 0.033020 -0.027560 1.760980 
# 
# From -- ./inp_files/226778.got.cif
#   From: 2010.05.17/outbox.cif.g08.bks.cpg/sg2_114_cif.got.tgz:226778.got - 2010.06.03 11:33:40.
