data_PCOD9080033
_publ_section_title
;
Structure prediction by ZEFSAII (Michael W. Deem and Ramdas Pophale) SiO2 
 PCOD9080033
Probable space group: P -1
;
_chemical_formula_sum "Si O2"
_cell_formula_units_Z 14
_cell_length_a 6.762784
_cell_length_b 15.613701
_cell_length_c 8.591940
_cell_angle_alpha 115.991459
_cell_angle_beta 57.047382
_cell_angle_gamma 126.998816
_cell_volume 599.617009
_symmetry_space_group_name_H-M "P -1"
_symmetry_group_IT_number 2
_symmetry_cell_setting 'triclinic'
loop_
_space_group_symop_operation_xyz
x,y,z
-x,-y,-z
loop_
_atom_site_type_symbol
_atom_site_label
_atom_site_fract_x
_atom_site_fract_y
_atom_site_fract_z
Si Si1 0.770265 0.080972 0.538861
Si Si2 0.630949 0.667330 0.964830
Si Si3 0.508401 0.930055 0.797074
Si Si4 0.197151 0.691427 0.732413
Si Si5 0.037699 0.108107 0.150523
Si Si6 0.226310 0.514616 0.788498
Si Si7 0.822277 0.312558 0.639088
O O1 0.010545 0.094334 0.335653
O O2 0.772173 0.196039 0.632749
O O3 0.500000 0.000000 0.500000
O O4 0.745516 0.018236 0.658774
O O5 0.493578 0.568531 0.821788
O O6 0.909817 0.674848 0.907917
O O7 0.721401 0.781311 0.927278
O O8 0.412342 0.661313 0.178849
O O9 0.443152 0.808320 0.768249
O O10 0.231940 0.891447 0.788060
O O11 0.500000 0.000000 0.000000
O O12 0.245291 0.599294 0.716603
O O13 0.175548 0.683723 0.546787
O O14 0.000000 0.000000 0.000000
O O15 0.106349 0.400169 0.661185
O O16 0.000000 0.500000 0.000000
#
# Coordination Sequence:
#
# PCOD9080033 Si02
#       7
#     2   2   2   2   2   2   2
#     4  10  18  38  61  93 125 165 208 257 327 377
#     4  10  22  42  65  94 128 170 210 263 322 374
#     4  10  22  36  61  90 123 166 202 266 316 371
#     4  11  23  44  64  95 129 165 222 256 323 383
#     4  10  20  36  63  90 125 166 209 253 322 387
#     4  10  25  41  67  95 125 172 215 265 318 379
#     4  11  21  41  66  93 127 169 214 264 317 383
#
# _framework density 23.348237000000001
#
# number of rings (size 3 to 8) (size 9 to 14) (size 15 to 20)
#    0.000    1.714    4.286    2.143    6.000    2.857 
#    0.000    6.429    0.000    0.000    0.000    0.000 
#    0.000    0.000    0.000    0.000    0.000    0.000 
#
# Total GULP energy -78160.171464 kJ/mol
# GULP energy per Si atom -5582.869390 kJ/mol
# Density = 2.329510 g / cm^3
# Si number density = 23.348237 Si / 1000 Ang^3
#
#
#
# Elastic Constant Matrix: (Units=GPa)
#
#
# Indices 1 2 3 4 5 6 
#
# 1 60.4131 24.1766 8.3033 -1.0601 -2.6906 7.7893
# 2 24.1766 160.3229 23.3179 17.5508 9.1909 9.4919
# 3 8.3033 23.3179 115.1241 1.8280 3.9294 11.3244
# 4 -1.0601 17.5508 1.8280 35.7299 1.0175 4.6937
# 5 -2.6906 9.1909 3.9294 1.0175 28.7862 -4.4957
# 6 7.7893 9.4919 11.3244 4.6937 -4.4957 33.6623
#
#
#
# Elastic Compliance Matrix: (Units=1/GPa)
#
#
# Indices 1 2 3 4 5 6 
#
# 1 0.018335 -0.002871 -0.000525 0.002355 0.002103 -0.003304
# 2 -0.002871 0.007403 -0.001062 -0.003476 -0.002507 -0.000916
# 3 -0.000525 -0.001062 0.009272 0.000461 -0.001454 -0.002957
# 4 0.002355 -0.003476 0.000461 0.030279 -0.000428 -0.003999
# 5 0.002103 -0.002507 -0.001454 -0.000428 0.036838 0.005689
# 6 -0.003304 -0.000916 -0.002957 -0.003999 0.005689 0.033042
#
#
# Mechanical properties :
#
#
# Convention : Reuss Voigt Hill
#
# Bulk Modulus (GPa) = 38.32178 49.71730 44.01954
# Shear Modulus (GPa) = 32.72609 38.30651 35.51630
#
# Velocity S-wave (km/s) = 3.74793 4.05490 3.90443
# Velocity P-wave (km/s) = 5.93111 6.57746 6.26263
#
# Compressibility (1/GPa) = 0.02609482
#
# Stress axis : x y z
#
# Youngs Moduli (GPa) = 54.54078 135.07533 107.84790
#
# Poissons Ratio (x) = 0.38785 0.05662
# Poissons Ratio (y) = 0.15660 0.11448
# Poissons Ratio (z) = 0.02863 0.14338
#
# Static dielectric constant tensor:
#      x y z
#    x 1.909060 -0.073990 -0.029320 
#    y -0.073990 1.976610 0.025700 
#    z -0.029320 0.025700 1.954920 
# 
# From -- ./inp_files/215473.got.cif
#   From: 2010.05.17/outbox.cif.g08.bks.cpg/sg2_108_cif.got.tgz:215473.got - 2010.06.03 11:33:40.
