data_PCOD9080461
_publ_section_title
;
Structure prediction by ZEFSAII (Michael W. Deem and Ramdas Pophale) SiO2 
 PCOD9080461
Probable space group: P -1
;
_chemical_formula_sum "Si O2"
_cell_formula_units_Z 16
_cell_length_a 14.895416
_cell_length_b 8.731888
_cell_length_c 7.608479
_cell_angle_alpha 117.531872
_cell_angle_beta 60.500613
_cell_angle_gamma 78.098736
_cell_volume 631.679269
_symmetry_space_group_name_H-M "P -1"
_symmetry_group_IT_number 2
_symmetry_cell_setting 'triclinic'
loop_
_space_group_symop_operation_xyz
x,y,z
-x,-y,-z
loop_
_atom_site_type_symbol
_atom_site_label
_atom_site_fract_x
_atom_site_fract_y
_atom_site_fract_z
Si Si1 0.203438 0.530420 0.582759
Si Si2 0.521274 0.284242 0.808500
Si Si3 0.165716 0.112474 0.087458
Si Si4 0.287116 0.140270 0.462716
Si Si5 0.057036 0.148452 0.837473
Si Si6 0.921689 0.243290 0.539241
Si Si7 0.373331 0.681654 0.628776
Si Si8 0.725546 0.647090 0.063716
O O1 0.266735 0.283572 0.394901
O O2 0.157072 0.630503 0.490702
O O3 0.299113 0.582488 0.587364
O O4 0.077751 0.645813 0.882708
O O5 0.595044 0.230965 0.525348
O O6 0.392435 0.311637 0.906532
O O7 0.605599 0.103010 0.769773
O O8 0.500000 0.500000 0.000000
O O9 0.050731 0.225339 0.391798
O O10 0.112997 0.061446 0.935045
O O11 0.207179 0.257118 0.048756
O O12 0.278256 0.892976 0.939094
O O13 0.156966 0.176264 0.663014
O O14 0.319837 0.237561 0.644920
O O15 0.049602 0.984452 0.638127
O O16 0.827598 0.399138 0.859827
O O17 0.500000 0.500000 0.500000
#
# Coordination Sequence:
#
# PCOD9080461 Si02
#       8
#     2   2   2   2   2   2   2   2
#     4  11  21  38  65  98 119 166 216 262 304 367
#     4  12  25  46  65  88 128 174 213 251 319 388
#     4  10  20  39  65  94 123 168 209 257 315 368
#     4  11  23  40  63  94 131 164 206 261 324 374
#     4  10  18  39  67  88 126 169 210 250 311 379
#     4  11  20  41  69  94 125 166 217 260 306 376
#     4  12  23  40  67  93 128 163 214 258 315 376
#     4  11  23  38  65  92 127 169 207 256 318 375
#
# _framework density 25.329308000000001
#
# number of rings (size 3 to 8) (size 9 to 14) (size 15 to 20)
#    0.000    1.000    5.000    4.125    1.750    0.000 
#    2.250    1.875    0.000    0.000    0.000    0.000 
#    0.000    0.000    0.000    0.000    0.000    0.000 
#
# Total GULP energy -89729.929137 kJ/mol
# GULP energy per Si atom -5608.120571 kJ/mol
# Density = 2.527166 g / cm^3
# Si number density = 25.329308 Si / 1000 Ang^3
#
#
#
# Elastic Constant Matrix: (Units=GPa)
#
#
# Indices 1 2 3 4 5 6 
#
# 1 118.5407 21.5744 31.3450 3.1405 -19.1816 2.2251
# 2 21.5744 85.2096 14.3761 29.1101 -9.5349 -3.2343
# 3 31.3450 14.3761 85.6120 30.1667 -16.9831 -3.5866
# 4 3.1405 29.1101 30.1667 44.6602 1.5890 -4.5450
# 5 -19.1816 -9.5349 -16.9831 1.5890 48.4916 -1.3285
# 6 2.2251 -3.2343 -3.5866 -4.5450 -1.3285 43.2480
#
#
#
# Elastic Compliance Matrix: (Units=1/GPa)
#
#
# Indices 1 2 3 4 5 6 
#
# 1 0.010360 -0.003123 -0.004404 0.004154 0.001788 -0.000640
# 2 -0.003123 0.016951 0.003857 -0.013528 0.003904 0.000446
# 3 -0.004404 0.003857 0.019371 -0.015444 0.006325 0.000693
# 4 0.004154 -0.013528 -0.015444 0.041792 -0.007750 0.001648
# 5 0.001788 0.003904 0.006325 -0.007750 0.024585 0.000665
# 6 -0.000640 0.000446 0.000693 0.001648 0.000665 0.023440
#
#
# Mechanical properties :
#
#
# Convention : Reuss Voigt Hill
#
# Bulk Modulus (GPa) = 25.41856 47.10593 36.26225
# Shear Modulus (GPa) = 31.85636 42.08440 36.97038
#
# Velocity S-wave (km/s) = 3.55024 4.08056 3.82460
# Velocity P-wave (km/s) = 5.18291 6.39055 5.81815
#
# Compressibility (1/GPa) = 0.03934133
#
# Stress axis : x y z
#
# Youngs Moduli (GPa) = 96.52241 58.99263 51.62316
#
# Poissons Ratio (x) = 0.18425 0.22737
# Poissons Ratio (y) = 0.30147 -0.19912
# Poissons Ratio (z) = 0.42513 -0.22754
#
# Static dielectric constant tensor:
#      x y z
#    x 1.991870 -0.039890 0.071650 
#    y -0.039890 1.985270 -0.018350 
#    z 0.071650 -0.018350 2.087910 
# 
# From -- ./inp_files/186161.got.cif
#   From: 2010.05.17/outbox.cif.g08.bks.cpg/sg2_94_cif.got.tgz:186161.got - 2010.06.03 11:33:40.
