data_PCOD9080205
_publ_section_title
;
Structure prediction by ZEFSAII (Michael W. Deem and Ramdas Pophale) SiO2 
 PCOD9080205
Probable space group: P -1
;
_chemical_formula_sum "Si O2"
_cell_formula_units_Z 16
_cell_length_a 9.344048
_cell_length_b 13.538282
_cell_length_c 7.290406
_cell_angle_alpha 82.657602
_cell_angle_beta 65.338002
_cell_angle_gamma 61.003190
_cell_volume 729.843105
_symmetry_space_group_name_H-M "P -1"
_symmetry_group_IT_number 2
_symmetry_cell_setting 'triclinic'
loop_
_space_group_symop_operation_xyz
x,y,z
-x,-y,-z
loop_
_atom_site_type_symbol
_atom_site_label
_atom_site_fract_x
_atom_site_fract_y
_atom_site_fract_z
Si Si1 0.244814 0.846547 0.084300
Si Si2 0.946739 0.784271 0.157713
Si Si3 0.189822 0.862347 0.550146
Si Si4 0.789496 0.928206 0.879674
Si Si5 0.679864 0.382261 0.462141
Si Si6 0.317284 0.045889 0.473462
Si Si7 0.521477 0.392566 0.906369
Si Si8 0.864165 0.452477 0.061733
O O1 0.206237 0.860930 0.320995
O O2 0.417134 0.724222 0.993908
O O3 0.082697 0.837852 0.074906
O O4 0.269312 0.954978 0.005481
O O5 0.826082 0.834110 0.390600
O O6 0.817508 0.834176 0.037308
O O7 0.062883 0.649473 0.101348
O O8 0.314573 0.733432 0.583670
O O9 0.988654 0.893215 0.703063
O O10 0.244547 0.954908 0.564208
O O11 0.673062 0.943779 0.755578
O O12 0.500000 0.500000 0.500000
O O13 0.680128 0.368146 0.682503
O O14 0.833825 0.396223 0.275008
O O15 0.500000 0.000000 0.500000
O O16 0.328273 0.440305 0.905572
O O17 0.500000 0.500000 0.000000
O O18 0.000000 0.500000 0.000000
#
# Coordination Sequence:
#
# PCOD9080205 Si02
#       8
#     2   2   2   2   2   2   2   2
#     4  10  19  35  65  97 122 161 218 264 310 377
#     4  12  22  38  70  91 124 169 217 263 326 390
#     4  10  18  38  66  89 124 165 213 263 309 384
#     4  11  21  38  67  94 122 161 219 257 314 385
#     4   9  20  37  62  90 124 167 220 263 314 380
#     4  11  25  41  60  98 136 165 203 268 336 388
#     4  10  20  38  66  91 124 168 219 265 311 388
#     4  11  24  41  63  93 130 173 217 275 336 379
#
# _framework density 21.922521
#
# number of rings (size 3 to 8) (size 9 to 14) (size 15 to 20)
#    0.000    1.500    5.000    1.125    0.000    4.500 
#    0.000    0.625    0.000    0.000    0.000    0.000 
#    0.000    0.000    0.000    0.000    0.000    0.000 
#
# Total GULP energy -89309.043526 kJ/mol
# GULP energy per Si atom -5581.815220 kJ/mol
# Density = 2.187262 g / cm^3
# Si number density = 21.922521 Si / 1000 Ang^3
#
#
#
# Elastic Constant Matrix: (Units=GPa)
#
#
# Indices 1 2 3 4 5 6 
#
# 1 100.3523 12.9548 23.2523 1.5339 12.6375 1.2285
# 2 12.9548 120.1011 21.8657 22.6622 -0.6807 -14.7100
# 3 23.2523 21.8657 63.4694 15.7391 8.7829 9.9014
# 4 1.5339 22.6622 15.7391 32.2279 -2.2936 2.2997
# 5 12.6375 -0.6807 8.7829 -2.2936 27.4994 -3.1879
# 6 1.2285 -14.7100 9.9014 2.2997 -3.1879 30.1333
#
#
#
# Elastic Compliance Matrix: (Units=1/GPa)
#
#
# Indices 1 2 3 4 5 6 
#
# 1 0.011417 -0.000925 -0.003679 0.001638 -0.003988 -0.000255
# 2 -0.000925 0.011173 -0.003303 -0.006574 0.002054 0.007296
# 3 -0.003679 -0.003303 0.022801 -0.008518 -0.007438 -0.009091
# 4 0.001638 -0.006574 -0.008518 0.040294 0.004813 -0.003043
# 5 -0.003988 0.002054 -0.007438 0.004813 0.041915 0.007676
# 6 -0.000255 0.007296 -0.009091 -0.003043 0.007676 0.040790
#
#
# Mechanical properties :
#
#
# Convention : Reuss Voigt Hill
#
# Bulk Modulus (GPa) = 33.80747 44.45206 39.12976
# Shear Modulus (GPa) = 25.76516 33.02879 29.39697
#
# Velocity S-wave (km/s) = 3.43196 3.88572 3.66587
# Velocity P-wave (km/s) = 5.58205 6.36025 5.98381
#
# Compressibility (1/GPa) = 0.02957926
#
# Stress axis : x y z
#
# Youngs Moduli (GPa) = 87.58969 89.50011 43.85780
#
# Poissons Ratio (x) = 0.08275 0.16134
# Poissons Ratio (y) = 0.08099 0.14485
# Poissons Ratio (z) = 0.32221 0.29559
#
# Static dielectric constant tensor:
#      x y z
#    x 1.853060 -0.047860 0.039220 
#    y -0.047860 1.874610 -0.007230 
#    z 0.039220 -0.007230 1.892170 
# 
# From -- ./inp_files/187403.got.cif
#   From: 2010.05.17/outbox.cif.g08.bks.cpg/sg2_94_cif.got.tgz:187403.got - 2010.06.03 11:33:40.
