data_PCOD9080661
_publ_section_title
;
Structure prediction by ZEFSAII (Michael W. Deem and Ramdas Pophale) SiO2 
 PCOD9080661
Probable space group: P -1
;
_chemical_formula_sum "Si O2"
_cell_formula_units_Z 14
_cell_length_a 14.421784
_cell_length_b 9.914283
_cell_length_c 11.415170
_cell_angle_alpha 118.338604
_cell_angle_beta 122.871989
_cell_angle_gamma 27.296859
_cell_volume 628.538704
_symmetry_space_group_name_H-M "P -1"
_symmetry_group_IT_number 2
_symmetry_cell_setting 'triclinic'
loop_
_space_group_symop_operation_xyz
x,y,z
-x,-y,-z
loop_
_atom_site_type_symbol
_atom_site_label
_atom_site_fract_x
_atom_site_fract_y
_atom_site_fract_z
Si Si1 0.822827 0.954610 0.785433
Si Si2 0.859124 0.633087 0.342068
Si Si3 0.517578 0.123193 0.478933
Si Si4 0.756100 0.357469 0.827045
Si Si5 0.249877 0.972611 0.739415
Si Si6 0.722636 0.318733 0.538084
Si Si7 0.079811 0.238655 0.983318
O O1 0.051347 0.628285 0.759045
O O2 0.661277 0.076288 0.628844
O O3 0.794755 0.169499 0.862198
O O4 0.782333 0.925346 0.871437
O O5 0.000000 0.500000 0.500000
O O6 0.625846 0.928891 0.356130
O O7 0.869834 0.748583 0.296006
O O8 0.318580 0.460397 0.443812
O O9 0.500000 0.000000 0.500000
O O10 0.505157 0.688767 0.788111
O O11 0.836154 0.196681 0.689743
O O12 0.886130 0.357016 0.934770
O O13 0.193548 0.886757 0.592434
O O14 0.192137 0.039137 0.863015
O O15 0.500000 0.500000 0.500000
O O16 0.000000 0.500000 0.000000
#
# Coordination Sequence:
#
# PCOD9080661 Si02
#       7
#     2   2   2   2   2   2   2
#     4  11  23  46  62  95 141 173 222 276 328 400
#     4  10  20  38  67  93 136 172 205 278 341 377
#     4  11  22  37  68 104 129 165 223 279 331 393
#     4  11  24  45  72  94 135 178 221 280 335 392
#     4  11  22  45  71  97 132 179 223 271 339 395
#     4  10  18  40  69  95 126 168 221 276 334 388
#     4  12  28  44  65 101 136 179 230 269 324 410
#
# _framework density 22.273886999999998
#
# number of rings (size 3 to 8) (size 9 to 14) (size 15 to 20)
#    0.000    1.143    7.143    1.286    2.000    2.857 
#    2.571    0.000    0.000    0.000    0.000    0.000 
#    0.000    0.000    0.000    0.000    0.000    0.000 
#
# Total GULP energy -78181.538020 kJ/mol
# GULP energy per Si atom -5584.395573 kJ/mol
# Density = 2.222319 g / cm^3
# Si number density = 22.273887 Si / 1000 Ang^3
#
#
#
# Elastic Constant Matrix: (Units=GPa)
#
#
# Indices 1 2 3 4 5 6 
#
# 1 85.0236 34.6048 14.6299 5.3240 -4.9943 25.4911
# 2 34.6048 101.2996 9.6091 4.1750 -6.3856 28.7677
# 3 14.6299 9.6091 75.6153 5.2027 -28.2886 -7.5205
# 4 5.3240 4.1750 5.2027 23.2479 8.2200 -6.6360
# 5 -4.9943 -6.3856 -28.2886 8.2200 46.4715 -0.3462
# 6 25.4911 28.7677 -7.5205 -6.6360 -0.3462 44.9732
#
#
#
# Elastic Compliance Matrix: (Units=1/GPa)
#
#
# Indices 1 2 3 4 5 6 
#
# 1 0.016389 -0.002493 -0.003286 -0.005242 0.000279 -0.009016
# 2 -0.002493 0.013376 -0.001095 -0.004436 0.001629 -0.007968
# 3 -0.003286 -0.001095 0.019683 -0.006509 0.012666 0.004991
# 4 -0.005242 -0.004436 -0.006509 0.055360 -0.014832 0.012775
# 5 0.000279 0.001629 0.012666 -0.014832 0.032099 -0.001023
# 6 -0.009016 -0.007968 0.004991 0.012775 -0.001023 0.035154
#
#
# Mechanical properties :
#
#
# Convention : Reuss Voigt Hill
#
# Bulk Modulus (GPa) = 28.01208 42.18069 35.09638
# Shear Modulus (GPa) = 25.28981 36.47817 30.88399
#
# Velocity S-wave (km/s) = 3.37323 4.05125 3.72769
# Velocity P-wave (km/s) = 5.27020 6.39233 5.85820
#
# Compressibility (1/GPa) = 0.03569888
#
# Stress axis : x y z
#
# Youngs Moduli (GPa) = 61.01617 74.76319 50.80588
#
# Poissons Ratio (x) = 0.18639 0.16694
# Poissons Ratio (y) = 0.15212 0.05565
# Poissons Ratio (z) = 0.20049 0.08189
#
# Static dielectric constant tensor:
#      x y z
#    x 1.854130 -0.032200 0.014660 
#    y -0.032200 1.851120 -0.023450 
#    z 0.014660 -0.023450 1.859040 
# 
# From -- ./inp_files/175569.got.cif
#   From: 2010.05.17/outbox.cif.g08.bks.cpg/sg2_88_cif.got.tgz:175569.got - 2010.06.03 11:33:40.
