data_PCOD9080722
_publ_section_title
;
Structure prediction by ZEFSAII (Michael W. Deem and Ramdas Pophale) SiO2 
 PCOD9080722
Probable space group: P -1
;
_chemical_formula_sum "Si O2"
_cell_formula_units_Z 15
_cell_length_a 12.019342
_cell_length_b 12.308252
_cell_length_c 8.679996
_cell_angle_alpha 80.795441
_cell_angle_beta 120.668184
_cell_angle_gamma 52.531007
_cell_volume 635.478153
_symmetry_space_group_name_H-M "P -1"
_symmetry_group_IT_number 2
_symmetry_cell_setting 'triclinic'
loop_
_space_group_symop_operation_xyz
x,y,z
-x,-y,-z
loop_
_atom_site_type_symbol
_atom_site_label
_atom_site_fract_x
_atom_site_fract_y
_atom_site_fract_z
Si Si1 0.875919 0.802918 0.185071
Si Si2 0.495293 0.378846 0.080846
Si Si3 0.850585 0.077725 0.026291
Si Si4 0.850222 0.680565 0.464287
Si Si5 0.628074 0.623486 0.332853
Si Si6 0.712113 0.812057 0.785691
Si Si7 0.000000 0.000000 0.500000
Si Si8 0.140457 0.533605 0.999374
O O1 0.858770 0.941586 0.101151
O O2 0.812057 0.819029 0.313213
O O3 0.137367 0.590450 0.404054
O O4 0.716655 0.834580 0.964597
O O5 0.500000 0.500000 0.000000
O O6 0.399841 0.375771 0.870241
O O7 0.335523 0.475668 0.092207
O O8 0.743660 0.170591 0.335144
O O9 0.916584 0.083221 0.237820
O O10 0.588336 0.279562 0.765049
O O11 0.000000 0.000000 0.000000
O O12 0.647638 0.740801 0.348074
O O13 0.000000 0.500000 0.500000
O O14 0.992894 0.604913 0.731032
O O15 0.944151 0.712557 0.927998
O O16 0.500000 0.000000 0.500000
O O17 0.753059 0.654091 0.823126
#
# Coordination Sequence:
#
# PCOD9080722 Si02
#       8
#     2   2   2   2   2   2   1   2
#     4  11  22  43  68  98 132 174 230 277 347 419
#     4  11  22  40  68  97 131 178 226 281 344 409
#     4  11  27  45  67 100 142 186 232 286 343 414
#     4  10  18  41  72  95 125 168 227 285 338 401
#     4  10  21  42  69  96 131 176 228 284 344 407
#     4  11  26  41  63 103 138 176 223 280 357 411
#     4  10  26  46  64 100 138 180 242 284 334 408
#     4  11  23  44  67  95 138 176 222 286 343 410
#
# _framework density 23.604271000000001
#
# number of rings (size 3 to 8) (size 9 to 14) (size 15 to 20)
#    0.000    1.333    5.333    0.800    1.867    6.400 
#    2.400    0.000    0.000    0.000    0.000    0.000 
#    0.000    0.000    0.000    0.000    0.000    0.000 
#
# Total GULP energy -83566.742754 kJ/mol
# GULP energy per Si atom -5571.116184 kJ/mol
# Density = 2.355055 g / cm^3
# Si number density = 23.604271 Si / 1000 Ang^3
#
#
#
# Elastic Constant Matrix: (Units=GPa)
#
#
# Indices 1 2 3 4 5 6 
#
# 1 119.7512 11.4561 38.8043 -12.2774 7.2784 -22.5527
# 2 11.4561 35.4400 24.6957 -10.1302 1.3047 -13.5718
# 3 38.8043 24.6957 168.4711 -13.7068 13.0810 -5.3974
# 4 -12.2774 -10.1302 -13.7068 28.5482 -10.7823 -2.2585
# 5 7.2784 1.3047 13.0810 -10.7823 38.5548 -9.0458
# 6 -22.5527 -13.5718 -5.3974 -2.2585 -9.0458 40.2038
#
#
#
# Elastic Compliance Matrix: (Units=1/GPa)
#
#
# Indices 1 2 3 4 5 6 
#
# 1 0.010692 0.002489 -0.002283 0.005711 0.001981 0.007298
# 2 0.002489 0.043423 -0.005551 0.018896 0.009575 0.018525
# 3 -0.002283 -0.005551 0.007341 -0.000679 -0.002723 -0.002820
# 4 0.005711 0.018896 -0.000679 0.051442 0.016685 0.016135
# 5 0.001981 0.009575 -0.002723 0.016685 0.033765 0.012512
# 6 0.007298 0.018525 -0.002820 0.016135 0.012512 0.038564
#
#
# Mechanical properties :
#
#
# Convention : Reuss Voigt Hill
#
# Bulk Modulus (GPa) = 19.69826 52.61939 36.15883
# Shear Modulus (GPa) = 23.49191 38.04178 30.76684
#
# Velocity S-wave (km/s) = 3.15816 4.01889 3.61424
# Velocity P-wave (km/s) = 4.65425 6.62390 5.72442
#
# Compressibility (1/GPa) = 0.05076591
#
# Stress axis : x y z
#
# Youngs Moduli (GPa) = 93.52964 23.02909 136.21764
#
# Poissons Ratio (x) = -0.05732 0.31097
# Poissons Ratio (y) = -0.23278 0.75617
# Poissons Ratio (z) = 0.21352 0.12784
#
# Static dielectric constant tensor:
#      x y z
#    x 1.972680 -0.068250 -0.016440 
#    y -0.068250 2.190460 0.104200 
#    z -0.016440 0.104200 1.947840 
# 
# From -- ./inp_files/270051.got.cif
#   From: 2010.05.17/outbox.cif.g08.bks.cpg/sg2_136_cif.got.tgz:270051.got - 2010.06.03 11:33:40.
