data_PCOD9080854
_publ_section_title
;
Structure prediction by ZEFSAII (Michael W. Deem and Ramdas Pophale) SiO2 
 PCOD9080854
Probable space group: P -1
;
_chemical_formula_sum "Si O2"
_cell_formula_units_Z 16
_cell_length_a 8.378741
_cell_length_b 7.257759
_cell_length_c 11.579865
_cell_angle_alpha 65.945619
_cell_angle_beta 75.911703
_cell_angle_gamma 63.006878
_cell_volume 571.500602
_symmetry_space_group_name_H-M "P -1"
_symmetry_group_IT_number 2
_symmetry_cell_setting 'triclinic'
loop_
_space_group_symop_operation_xyz
x,y,z
-x,-y,-z
loop_
_atom_site_type_symbol
_atom_site_label
_atom_site_fract_x
_atom_site_fract_y
_atom_site_fract_z
Si Si1 0.616488 0.972406 0.179284
Si Si2 0.906715 0.173569 0.072371
Si Si3 0.374958 0.229449 0.523502
Si Si4 0.665199 0.375778 0.720893
Si Si5 0.335258 0.412436 0.891254
Si Si6 0.903145 0.271288 0.346048
Si Si7 0.230087 0.125217 0.200019
Si Si8 0.994506 0.238270 0.584282
O O1 0.613712 0.827102 0.328197
O O2 0.662898 0.820222 0.094807
O O3 0.414978 0.154566 0.146041
O O4 0.753424 0.084054 0.156435
O O5 0.788473 0.438558 0.022026
O O6 0.077588 0.162211 0.121208
O O7 0.000000 0.000000 0.000000
O O8 0.421517 0.414912 0.401746
O O9 0.163745 0.295572 0.524383
O O10 0.500000 0.000000 0.500000
O O11 0.538981 0.397349 0.848139
O O12 0.691090 0.138269 0.726151
O O13 0.878644 0.322576 0.699747
O O14 0.232722 0.563762 0.760231
O O15 0.864762 0.312728 0.476246
O O16 0.105218 0.256007 0.293164
O O17 0.922676 0.026402 0.374598
#
# Coordination Sequence:
#
# PCOD9080854 Si02
#       8
#     2   2   2   2   2   2   2   2
#     4  11  23  41  65  95 132 171 213 263 320 382
#     4  11  25  48  72  93 123 162 214 283 341 390
#     4  12  22  33  56  91 133 181 221 249 301 378
#     4  10  20  34  53  83 130 167 201 254 299 364
#     4  10  22  40  62  91 125 165 213 264 327 391
#     4   9  17  32  51  78 122 167 206 259 305 354
#     4   9  21  40  62  92 128 165 214 265 319 388
#     4  10  19  29  48  80 122 174 223 252 293 361
#
# _framework density 27.996471
#
# number of rings (size 3 to 8) (size 9 to 14) (size 15 to 20)
#    0.000    1.750    0.000    5.625    0.000    8.500 
#    0.000    7.500    0.000    0.000    0.000    0.000 
#    0.000    0.000    0.000    0.000    0.000    0.000 
#
# Total GULP energy -89362.288382 kJ/mol
# GULP energy per Si atom -5585.143024 kJ/mol
# Density = 2.793275 g / cm^3
# Si number density = 27.996471 Si / 1000 Ang^3
#
#
#
# Elastic Constant Matrix: (Units=GPa)
#
#
# Indices 1 2 3 4 5 6 
#
# 1 165.7868 38.1106 38.8077 7.8355 -16.2384 -10.0972
# 2 38.1106 148.0925 28.0203 11.5172 -4.0971 2.2824
# 3 38.8077 28.0203 60.7420 16.7846 -9.0602 -2.1628
# 4 7.8355 11.5172 16.7846 56.7015 -6.3920 -1.5982
# 5 -16.2384 -4.0971 -9.0602 -6.3920 52.3255 5.7980
# 6 -10.0972 2.2824 -2.1628 -1.5982 5.7980 34.9569
#
#
#
# Elastic Compliance Matrix: (Units=1/GPa)
#
#
# Indices 1 2 3 4 5 6 
#
# 1 0.007488 -0.001182 -0.004145 0.000639 0.001394 0.001782
# 2 -0.001182 0.007617 -0.002644 -0.000652 -0.000197 -0.000999
# 3 -0.004145 -0.002644 0.022021 -0.005222 0.001702 -0.000183
# 4 0.000639 -0.000652 -0.005222 0.019417 0.001556 0.000534
# 5 0.001394 -0.000197 0.001702 0.001556 0.020321 -0.002778
# 6 0.001782 -0.000999 -0.000183 0.000534 -0.002778 0.029660
#
#
# Mechanical properties :
#
#
# Convention : Reuss Voigt Hill
#
# Bulk Modulus (GPa) = 47.19893 64.94428 56.07161
# Shear Modulus (GPa) = 38.60184 46.77563 42.68874
#
# Velocity S-wave (km/s) = 3.71726 4.09194 3.90909
# Velocity P-wave (km/s) = 5.94302 6.75077 6.35974
#
# Compressibility (1/GPa) = 0.02118692
#
# Stress axis : x y z
#
# Youngs Moduli (GPa) = 133.53814 131.27683 45.41112
#
# Poissons Ratio (x) = 0.15511 0.18821
# Poissons Ratio (y) = 0.15778 0.12006
# Poissons Ratio (z) = 0.55346 0.34709
#
# Static dielectric constant tensor:
#      x y z
#    x 2.178490 0.010460 -0.046820 
#    y 0.010460 2.229490 -0.075570 
#    z -0.046820 -0.075570 2.404750 
# 
# From -- ./inp_files/490772.got.cif
#   From: 2010.05.17/outbox.cif.g08.bks.cpg/sg2_246_cif.got.tgz:490772.got - 2010.06.03 11:33:40.
