data_PCOD9080123
_publ_section_title
;
Structure prediction by ZEFSAII (Michael W. Deem and Ramdas Pophale) SiO2 
 PCOD9080123
Probable space group: P -1
;
_chemical_formula_sum "Si O2"
_cell_formula_units_Z 14
_cell_length_a 16.378442
_cell_length_b 9.195439
_cell_length_c 9.718504
_cell_angle_alpha 118.534693
_cell_angle_beta 37.658924
_cell_angle_gamma 96.627039
_cell_volume 685.041317
_symmetry_space_group_name_H-M "P -1"
_symmetry_group_IT_number 2
_symmetry_cell_setting 'triclinic'
loop_
_space_group_symop_operation_xyz
x,y,z
-x,-y,-z
loop_
_atom_site_type_symbol
_atom_site_label
_atom_site_fract_x
_atom_site_fract_y
_atom_site_fract_z
Si Si1 0.386439 0.805580 0.829203
Si Si2 0.650747 0.014727 0.764672
Si Si3 0.348591 0.137254 0.844104
Si Si4 0.265480 0.526437 0.807893
Si Si5 0.456946 0.335002 0.991664
Si Si6 0.925522 0.557163 0.776664
Si Si7 0.814807 0.588980 0.408927
O O1 0.308175 0.692416 0.818417
O O2 0.570263 0.670329 0.504778
O O3 0.331687 0.009378 0.926230
O O4 0.340511 0.849955 0.069692
O O5 0.784992 0.798868 0.500129
O O6 0.606073 0.131811 0.736041
O O7 0.500000 0.000000 0.000000
O O8 0.500000 0.000000 0.500000
O O9 0.375277 0.299147 0.953817
O O10 0.205404 0.226952 0.974026
O O11 0.170881 0.521736 0.800322
O O12 0.170428 0.539330 0.077136
O O13 0.338025 0.383166 0.297347
O O14 0.500000 0.500000 0.000000
O O15 0.000000 0.500000 0.500000
O O16 0.052403 0.513126 0.702747
#
# Coordination Sequence:
#
# PCOD9080123 Si02
#       7
#     2   2   2   2   2   2   2
#     4  11  21  40  66 100 122 165 226 273 313 380
#     4  10  18  38  64  87 128 165 213 261 320 385
#     4  12  24  41  66  96 133 171 220 272 327 387
#     4  11  24  39  68  95 129 169 226 268 316 395
#     4  11  23  37  67 100 130 168 218 276 327 381
#     4  12  25  43  66  95 139 178 208 271 346 390
#     4  11  22  44  63  92 134 176 216 262 330 395
#
# _framework density 20.436723000000001
#
# number of rings (size 3 to 8) (size 9 to 14) (size 15 to 20)
#    0.000    0.857    8.571    0.429    4.000    0.000 
#    0.000    5.000    0.000    0.000    0.000    0.000 
#    0.000    0.000    0.000    0.000    0.000    0.000 
#
# Total GULP energy -78148.235909 kJ/mol
# GULP energy per Si atom -5582.016851 kJ/mol
# Density = 2.039021 g / cm^3
# Si number density = 20.436723 Si / 1000 Ang^3
#
#
#
# Elastic Constant Matrix: (Units=GPa)
#
#
# Indices 1 2 3 4 5 6 
#
# 1 148.2768 61.7611 38.2420 17.0511 -9.8616 -15.9912
# 2 61.7611 100.6451 19.2411 7.1783 -13.0318 4.0214
# 3 38.2420 19.2411 75.1381 -6.5450 -0.1656 -0.6387
# 4 17.0511 7.1783 -6.5450 30.4649 -8.2221 2.4224
# 5 -9.8616 -13.0318 -0.1656 -8.2221 33.6739 12.1838
# 6 -15.9912 4.0214 -0.6387 2.4224 12.1838 30.4396
#
#
#
# Elastic Compliance Matrix: (Units=1/GPa)
#
#
# Indices 1 2 3 4 5 6 
#
# 1 0.013045 -0.007396 -0.005444 -0.008913 -0.005020 0.010435
# 2 -0.007396 0.015671 -0.000015 0.003402 0.008165 -0.009495
# 3 -0.005444 -0.000015 0.016698 0.007379 0.001641 -0.003752
# 4 -0.008913 0.003402 0.007379 0.043666 0.014573 -0.014285
# 5 -0.005020 0.008165 0.001641 0.014573 0.042920 -0.022020
# 6 0.010435 -0.009495 -0.003752 -0.014285 -0.022020 0.049460
#
#
# Mechanical properties :
#
#
# Convention : Reuss Voigt Hill
#
# Bulk Modulus (GPa) = 50.75131 62.50537 56.62834
# Shear Modulus (GPa) = 23.39306 32.57007 27.98156
#
# Velocity S-wave (km/s) = 3.38695 3.99645 3.70426
# Velocity P-wave (km/s) = 6.33897 7.20741 6.78709
#
# Compressibility (1/GPa) = 0.01970392
#
# Stress axis : x y z
#
# Youngs Moduli (GPa) = 76.65692 63.81177 59.88677
#
# Poissons Ratio (x) = 0.47193 0.32604
# Poissons Ratio (y) = 0.56693 0.00092
# Poissons Ratio (z) = 0.41734 0.00098
#
# Static dielectric constant tensor:
#      x y z
#    x 1.773860 -0.031060 0.003810 
#    y -0.031060 1.726150 -0.003820 
#    z 0.003810 -0.003820 1.787880 
# 
# From -- ./inp_files/299431.got.cif
#   From: 2010.05.17/outbox.cif.g08.bks.cpg/sg2_150_cif.got.tgz:299431.got - 2010.06.03 11:33:40.
