data_PCOD9080861
_publ_section_title
;
Structure prediction by ZEFSAII (Michael W. Deem and Ramdas Pophale) SiO2 
 PCOD9080861
Probable space group: P -1
;
_chemical_formula_sum "Si O2"
_cell_formula_units_Z 16
_cell_length_a 18.366785
_cell_length_b 12.792542
_cell_length_c 5.469759
_cell_angle_alpha 68.570324
_cell_angle_beta 54.683804
_cell_angle_gamma 38.021502
_cell_volume 635.478221
_symmetry_space_group_name_H-M "P -1"
_symmetry_group_IT_number 2
_symmetry_cell_setting 'triclinic'
loop_
_space_group_symop_operation_xyz
x,y,z
-x,-y,-z
loop_
_atom_site_type_symbol
_atom_site_label
_atom_site_fract_x
_atom_site_fract_y
_atom_site_fract_z
Si Si1 0.421579 0.053240 0.860933
Si Si2 0.675862 0.010402 0.211963
Si Si3 0.488662 0.643800 0.682634
Si Si4 0.107501 0.315881 0.635270
Si Si5 0.798100 0.555350 0.137054
Si Si6 0.661953 0.285870 0.578976
Si Si7 0.841717 0.463650 0.633839
Si Si8 0.885263 0.901099 0.578713
O O1 0.500000 0.000000 0.500000
O O2 0.376578 0.969633 0.974702
O O3 0.284376 0.255837 0.938722
O O4 0.500000 0.000000 0.000000
O O5 0.546327 0.191578 0.433645
O O6 0.752188 0.838500 0.354234
O O7 0.807619 0.959779 0.937877
O O8 0.634556 0.443611 0.551561
O O9 0.399994 0.676714 0.602498
O O10 0.425635 0.680968 0.045891
O O11 0.102975 0.457626 0.498732
O O12 0.122717 0.202797 0.495140
O O13 0.962241 0.423611 0.956149
O O14 0.777578 0.498593 0.989115
O O15 0.750118 0.559582 0.489867
O O16 0.809454 0.083207 0.466179
O O17 0.953987 0.260409 0.543997
#
# Coordination Sequence:
#
# PCOD9080861 Si02
#       8
#     2   2   2   2   2   2   2   2
#     4  12  27  40  52  70 101 145 186 220 242 290
#     4  11  20  34  55  73 107 137 181 202 265 302
#     4   9  18  30  47  71 100 145 160 203 243 314
#     4  11  19  30  51  80  99 136 160 213 251 323
#     4  11  21  36  50  71 101 129 167 211 256 299
#     4   9  17  29  45  71 110 134 163 193 252 310
#     4  11  20  29  49  75 103 128 166 200 252 308
#     4  10  19  29  49  79 108 137 161 202 259 320
#
# _framework density 25.177890999999999
#
# number of rings (size 3 to 8) (size 9 to 14) (size 15 to 20)
#    0.000    1.500    3.750    4.125    1.750    0.000 
#    0.000    0.000    0.000    0.000    0.000    0.000 
#    0.000   14.000    0.000    0.000    0.000    0.000 
#
# Total GULP energy -89070.281665 kJ/mol
# GULP energy per Si atom -5566.892604 kJ/mol
# Density = 2.512058 g / cm^3
# Si number density = 25.177891 Si / 1000 Ang^3
#
#
#
# Elastic Constant Matrix: (Units=GPa)
#
#
# Indices 1 2 3 4 5 6 
#
# 1 42.7757 38.8272 25.9522 1.0593 21.4819 -1.0717
# 2 38.8272 231.8729 20.0939 30.4524 13.8918 18.1310
# 3 25.9522 20.0939 102.5085 3.7776 22.8467 1.5770
# 4 1.0593 30.4524 3.7776 45.0852 0.0132 16.6447
# 5 21.4819 13.8918 22.8467 0.0132 32.7343 -8.4559
# 6 -1.0717 18.1310 1.5770 16.6447 -8.4559 22.6728
#
#
#
# Elastic Compliance Matrix: (Units=1/GPa)
#
#
# Indices 1 2 3 4 5 6 
#
# 1 0.043172 -0.005602 -0.004486 0.005484 -0.024457 -0.006315
# 2 -0.005602 0.005787 0.000376 -0.002779 0.000238 -0.002790
# 3 -0.004486 0.000376 0.012427 0.000389 -0.006992 -0.004270
# 4 0.005484 -0.002779 0.000389 0.033293 -0.009278 -0.025447
# 5 -0.024457 0.000238 -0.006992 -0.009278 0.058561 0.027791
# 6 -0.006315 -0.002790 -0.004270 -0.025447 0.027791 0.075382
#
#
# Mechanical properties :
#
#
# Convention : Reuss Voigt Hill
#
# Bulk Modulus (GPa) = 23.83034 60.76709 42.29871
# Shear Modulus (GPa) = 19.08153 39.58404 29.33279
#
# Velocity S-wave (km/s) = 2.75593 3.96937 3.41694
# Velocity P-wave (km/s) = 4.42856 6.72275 5.69243
#
# Compressibility (1/GPa) = 0.04196331
#
# Stress axis : x y z
#
# Youngs Moduli (GPa) = 23.16295 172.80330 80.46934
#
# Poissons Ratio (x) = 0.96798 0.36098
# Poissons Ratio (y) = 0.12975 -0.03026
# Poissons Ratio (z) = 0.10391 -0.06498
#
# Static dielectric constant tensor:
#      x y z
#    x 2.187370 0.005310 -0.037570 
#    y 0.005310 2.054910 -0.031820 
#    z -0.037570 -0.031820 2.147120 
# 
# From -- ./inp_files/51699.got.cif
#   From: 2010.05.17/outbox.cif.g08.bks.cpg/sg2_26_cif.got.tgz:51699.got - 2010.06.03 11:33:40.
