data_PCOD9080357
_publ_section_title
;
Structure prediction by ZEFSAII (Michael W. Deem and Ramdas Pophale) SiO2 
 PCOD9080357
Probable space group: P -1
;
_chemical_formula_sum "Si O2"
_cell_formula_units_Z 16
_cell_length_a 15.628825
_cell_length_b 17.975245
_cell_length_c 16.143115
_cell_angle_alpha 36.194033
_cell_angle_beta 161.206255
_cell_angle_gamma 142.722133
_cell_volume 850.706607
_symmetry_space_group_name_H-M "P -1"
_symmetry_group_IT_number 2
_symmetry_cell_setting 'triclinic'
loop_
_space_group_symop_operation_xyz
x,y,z
-x,-y,-z
loop_
_atom_site_type_symbol
_atom_site_label
_atom_site_fract_x
_atom_site_fract_y
_atom_site_fract_z
Si Si1 0.678219 0.848060 0.235186
Si Si2 0.490375 0.112302 0.779856
Si Si3 0.542103 0.349980 0.399753
Si Si4 0.703676 0.414296 0.301742
Si Si5 0.229831 0.738146 0.657235
Si Si6 0.388928 0.359902 0.772520
Si Si7 0.935187 0.208855 0.990279
Si Si8 0.154450 0.983045 0.445353
O O1 0.659076 0.834280 0.328689
O O2 0.562754 0.722897 0.189459
O O3 0.973445 0.895188 0.425988
O O4 0.534780 0.969328 0.973197
O O5 0.772272 0.201230 0.935270
O O6 0.331425 0.088587 0.569559
O O7 0.606676 0.369886 0.343912
O O8 0.596155 0.490579 0.363746
O O9 0.745689 0.263416 0.701816
O O10 0.229797 0.292091 0.179446
O O11 0.709907 0.298554 0.347681
O O12 0.000000 0.500000 0.500000
O O13 0.500000 0.500000 0.000000
O O14 0.910645 0.694486 0.419490
O O15 0.299077 0.887267 0.611154
O O16 0.396382 0.662767 0.940378
O O17 0.978354 0.060746 0.155847
#
# Coordination Sequence:
#
# PCOD9080357 Si02
#       8
#     2   2   2   2   2   2   2   2
#     4   9  20  33  64  97 113 154 200 272 290 337
#     4  10  18  39  61  90 121 157 208 243 301 350
#     4  12  23  40  62  84 125 162 200 237 303 369
#     4  12  22  40  64  94 119 148 203 254 299 353
#     4  11  21  38  63  95 116 151 193 266 306 338
#     4  11  21  38  60  92 125 146 202 251 312 342
#     4  11  24  40  60  84 123 176 195 231 296 378
#     4  10  20  38  65  86 127 154 206 246 304 348
#
# _framework density 18.807894000000001
#
# number of rings (size 3 to 8) (size 9 to 14) (size 15 to 20)
#    0.000    1.250    5.000    1.875    0.000    0.000 
#    0.000    2.500    0.000    0.000    0.000    0.000 
#    0.000    0.000    0.000    0.000    0.000    0.000 
#
# Total GULP energy -89223.502250 kJ/mol
# GULP energy per Si atom -5576.468891 kJ/mol
# Density = 1.876509 g / cm^3
# Si number density = 18.807894 Si / 1000 Ang^3
#
#
#
# Elastic Constant Matrix: (Units=GPa)
#
#
# Indices 1 2 3 4 5 6 
#
# 1 124.6023 86.2884 36.2688 -4.3828 1.2737 -19.8369
# 2 86.2884 65.6343 25.6699 7.5143 -0.8968 2.2051
# 3 36.2688 25.6699 98.0869 -6.7401 -6.8736 4.9661
# 4 -4.3828 7.5143 -6.7401 29.5776 5.8735 -0.9774
# 5 1.2737 -0.8968 -6.8736 5.8735 22.8460 0.1475
# 6 -19.8369 2.2051 4.9661 -0.9774 0.1475 31.7121
#
#
#
# Elastic Compliance Matrix: (Units=1/GPa)
#
#
# Indices 1 2 3 4 5 6 
#
# 1 -0.067845 0.095108 0.001345 -0.039220 0.018330 -0.050557
# 2 0.095108 -0.115433 -0.006889 0.049133 -0.024991 0.070229
# 3 0.001345 -0.006889 0.011965 0.004231 0.002170 -0.000433
# 4 -0.039220 0.049133 0.004231 0.015220 0.001657 -0.028151
# 5 0.018330 -0.024991 0.002170 0.001657 0.041913 0.012720
# 6 -0.050557 0.070229 -0.000433 -0.028151 0.012720 -0.005834
#
#
# Mechanical properties :
#
#
# Convention : Reuss Voigt Hill
#
# Bulk Modulus (GPa) = 127.93417 64.97531 96.45474
# Shear Modulus (GPa) = -16.86131 26.16688 4.65279
#
# Velocity S-wave (km/s) = -2.99741 3.73402 1.57455
# Velocity P-wave (km/s) = 7.49599 7.29468 7.39602
#
# Compressibility (1/GPa) = 0.00781652
#
# Stress axis : x y z
#
# Youngs Moduli (GPa) = -14.73950 -8.66305 83.57699
#
# Poissons Ratio (x) = 0.82392 -0.11244
# Poissons Ratio (y) = 1.40184 0.57572
# Poissons Ratio (z) = 0.01983 -0.05968
#
# Static dielectric constant tensor:
#      x y z
#    x 1.649000 -0.007710 0.002950 
#    y -0.007710 1.673380 0.016640 
#    z 0.002950 0.016640 1.701120 
# 
# From -- ./inp_files/110845.got.cif
#   From: 2010.05.17/outbox.cif.g08.bks.cpg/sg2_56_cif.got.tgz:110845.got - 2010.06.03 11:33:40.
