data_PCOD9080870
_publ_section_title
;
Structure prediction by ZEFSAII (Michael W. Deem and Ramdas Pophale) SiO2 
 PCOD9080870
Probable space group: P -1
;
_chemical_formula_sum "Si O2"
_cell_formula_units_Z 13
_cell_length_a 7.750242
_cell_length_b 12.756337
_cell_length_c 10.860143
_cell_angle_alpha 144.138437
_cell_angle_beta 123.353928
_cell_angle_gamma 74.664138
_cell_volume 488.084779
_symmetry_space_group_name_H-M "P -1"
_symmetry_group_IT_number 2
_symmetry_cell_setting 'triclinic'
loop_
_space_group_symop_operation_xyz
x,y,z
-x,-y,-z
loop_
_atom_site_type_symbol
_atom_site_label
_atom_site_fract_x
_atom_site_fract_y
_atom_site_fract_z
Si Si1 0.285816 0.227906 0.735561
Si Si2 0.593038 0.139693 0.929978
Si Si3 0.000000 0.000000 0.000000
Si Si4 0.971262 0.229068 0.983923
Si Si5 0.883229 0.267604 0.711705
Si Si6 0.460175 0.337471 0.645655
Si Si7 0.222892 0.497954 0.521163
O O1 0.033054 0.213206 0.620724
O O2 0.362847 0.220115 0.619320
O O3 0.351917 0.089902 0.724414
O O4 0.418872 0.443366 0.049923
O O5 0.598760 0.293542 0.184869
O O6 0.745526 0.242214 0.966044
O O7 0.758859 0.040867 0.950505
O O8 0.979204 0.929748 0.068935
O O9 0.167706 0.426585 0.293000
O O10 0.935076 0.195688 0.795985
O O11 0.632358 0.252374 0.575659
O O12 0.000000 0.500000 0.000000
O O13 0.277853 0.339921 0.475574
O O14 0.000000 0.500000 0.500000
#
# Coordination Sequence:
#
# PCOD9080870 Si02
#       7
#     2   2   1   2   2   2   2
#     4   9  16  27  50  69  98 132 165 200 242 289
#     4   8  15  30  48  74  95 128 163 203 243 284
#     4   8  16  28  54  66 104 132 160 206 238 290
#     4   9  17  32  49  76 100 126 166 203 244 293
#     4  10  19  29  50  76 100 130 167 204 242 293
#     4   9  16  30  45  71 100 128 162 202 246 292
#     4   9  17  27  52  74 100 126 159 209 253 286
#
# _framework density 26.634716000000001
#
# number of rings (size 3 to 8) (size 9 to 14) (size 15 to 20)
#    0.923    2.154    1.538    0.000    6.462    0.000 
#    0.000    7.692    0.000    3.692    0.000    5.385 
#    0.000    0.000    0.000    0.000    0.000    0.000 
#
# Total GULP energy -72368.760309 kJ/mol
# GULP energy per Si atom -5566.827716 kJ/mol
# Density = 2.657409 g / cm^3
# Si number density = 26.634716 Si / 1000 Ang^3
#
#
#
# Elastic Constant Matrix: (Units=GPa)
#
#
# Indices 1 2 3 4 5 6 
#
# 1 76.7820 33.5508 11.2004 -20.7221 18.4680 -34.9888
# 2 33.5508 159.1897 30.3055 -25.8937 12.0917 -44.8359
# 3 11.2004 30.3055 137.4221 -37.8439 -0.9768 -17.1864
# 4 -20.7221 -25.8937 -37.8439 42.1725 -17.1407 5.8391
# 5 18.4680 12.0917 -0.9768 -17.1407 17.8753 -6.1914
# 6 -34.9888 -44.8359 -17.1864 5.8391 -6.1914 48.2220
#
#
#
# Elastic Compliance Matrix: (Units=1/GPa)
#
#
# Indices 1 2 3 4 5 6 
#
# 1 0.025585 0.001480 0.001298 0.005840 -0.015637 0.017688
# 2 0.001480 0.009468 0.000880 0.006796 0.001963 0.009620
# 3 0.001298 0.000880 0.013994 0.021754 0.022096 0.006950
# 4 0.005840 0.006796 0.021754 0.076165 0.069846 0.018055
# 5 -0.015637 0.001963 0.022096 0.069846 0.141758 0.008098
# 6 0.017688 0.009620 0.006950 0.018055 0.008098 0.043846
#
#
# Mechanical properties :
#
#
# Convention : Reuss Voigt Hill
#
# Bulk Modulus (GPa) = 17.74210 58.16747 37.95479
# Shear Modulus (GPa) = 15.51402 41.54311 28.52857
#
# Velocity S-wave (km/s) = 2.41607 3.95363 3.27632
# Velocity P-wave (km/s) = 3.80249 6.53667 5.34728
#
# Compressibility (1/GPa) = 0.05636311
#
# Stress axis : x y z
#
# Youngs Moduli (GPa) = 39.08481 105.61683 71.45899
#
# Poissons Ratio (x) = -0.15633 -0.09272
# Poissons Ratio (y) = -0.05785 -0.06289
# Poissons Ratio (z) = -0.05071 -0.09295
#
# Static dielectric constant tensor:
#      x y z
#    x 2.100500 0.074380 0.164170 
#    y 0.074380 2.136140 0.120360 
#    z 0.164170 0.120360 1.982940 
# 
# From -- ./inp_files/394635.got.cif
#   From: 2010.05.17/outbox.cif.g08.bks.cpg/sg2_198_cif.got.tgz:394635.got - 2010.06.03 11:33:40.
