data_PCOD9080242
_publ_section_title
;
Structure prediction by ZEFSAII (Michael W. Deem and Ramdas Pophale) SiO2 
 PCOD9080242
Probable space group: P -1
;
_chemical_formula_sum "Si O2"
_cell_formula_units_Z 16
_cell_length_a 7.765084
_cell_length_b 10.941064
_cell_length_c 11.833751
_cell_angle_alpha 81.383905
_cell_angle_beta 69.545517
_cell_angle_gamma 125.813583
_cell_volume 675.744510
_symmetry_space_group_name_H-M "P -1"
_symmetry_group_IT_number 2
_symmetry_cell_setting 'triclinic'
loop_
_space_group_symop_operation_xyz
x,y,z
-x,-y,-z
loop_
_atom_site_type_symbol
_atom_site_label
_atom_site_fract_x
_atom_site_fract_y
_atom_site_fract_z
Si Si1 0.931611 0.738817 0.384960
Si Si2 0.235349 0.946840 0.073681
Si Si3 0.818802 0.615785 0.811827
Si Si4 0.405020 0.275351 0.079799
Si Si5 0.986206 0.708955 0.969782
Si Si6 0.567076 0.340893 0.488807
Si Si7 0.267041 0.838585 0.498889
Si Si8 0.723324 0.359776 0.194115
O O1 0.758649 0.535064 0.462526
O O2 0.722099 0.749715 0.427920
O O3 0.066458 0.799028 0.225502
O O4 0.145349 0.852047 0.417537
O O5 0.236433 0.089247 0.087522
O O6 0.126832 0.873554 0.984548
O O7 0.500000 0.000000 0.000000
O O8 0.634855 0.645496 0.809483
O O9 0.799836 0.694044 0.928334
O O10 0.021417 0.703355 0.653188
O O11 0.637836 0.419576 0.917980
O O12 0.558209 0.249633 0.138626
O O13 0.095853 0.682153 0.839304
O O14 0.887381 0.554768 0.092649
O O15 0.624753 0.242357 0.556153
O O16 0.620794 0.333858 0.345612
O O17 0.500000 0.000000 0.500000
#
# Coordination Sequence:
#
# PCOD9080242 Si02
#       8
#     2   2   2   2   2   2   2   2
#     4  11  28  48  70 110 143 187 241 288 363 428
#     4  12  25  41  70 103 136 181 227 300 353 414
#     4  10  23  45  65 101 135 181 235 281 355 425
#     4  10  23  40  70  99 134 181 229 297 350 409
#     4  10  20  37  66  96 130 167 229 278 338 414
#     4  11  24  49  75  98 145 196 234 295 352 426
#     4  12  28  45  73 106 144 189 237 293 353 431
#     4  10  18  38  67  94 125 180 229 274 339 414
#
# _framework density 23.677588
#
# number of rings (size 3 to 8) (size 9 to 14) (size 15 to 20)
#    0.000    1.250    3.750    1.125    7.000    1.000 
#    0.000    0.000    0.000    0.000    0.000    0.000 
#    0.000    0.000    0.000    0.000    0.000    0.000 
#
# Total GULP energy -89070.543760 kJ/mol
# GULP energy per Si atom -5566.908985 kJ/mol
# Density = 2.362370 g / cm^3
# Si number density = 23.677588 Si / 1000 Ang^3
#
#
#
# Elastic Constant Matrix: (Units=GPa)
#
#
# Indices 1 2 3 4 5 6 
#
# 1 98.7649 27.9088 25.1748 -0.7034 -26.6797 2.2714
# 2 27.9088 82.0391 -11.7325 6.2854 -4.4243 12.6005
# 3 25.1748 -11.7325 83.8154 8.5252 -22.5722 13.4161
# 4 -0.7034 6.2854 8.5252 20.8769 0.4287 7.0674
# 5 -26.6797 -4.4243 -22.5722 0.4287 36.9848 3.5731
# 6 2.2714 12.6005 13.4161 7.0674 3.5731 40.2221
#
#
#
# Elastic Compliance Matrix: (Units=1/GPa)
#
#
# Indices 1 2 3 4 5 6 
#
# 1 0.014631 -0.005446 -0.003561 0.003147 0.007612 0.000839
# 2 -0.005446 0.016421 0.006142 -0.005615 0.002440 -0.006115
# 3 -0.003561 0.006142 0.018586 -0.007207 0.010324 -0.007573
# 4 0.003147 -0.005615 -0.007207 0.054505 -0.002917 -0.005333
# 5 0.007612 0.002440 0.010324 -0.002917 0.039897 -0.007670
# 6 0.000839 -0.006115 -0.007573 -0.005333 -0.007670 0.030875
#
#
# Mechanical properties :
#
#
# Convention : Reuss Voigt Hill
#
# Bulk Modulus (GPa) = 22.77535 38.59130 30.68333
# Shear Modulus (GPa) = 25.60403 34.50131 30.05267
#
# Velocity S-wave (km/s) = 3.29197 3.82138 3.56651
# Velocity P-wave (km/s) = 4.90808 5.98370 5.47238
#
# Compressibility (1/GPa) = 0.04390711
#
# Stress axis : x y z
#
# Youngs Moduli (GPa) = 68.34749 60.89613 53.80402
#
# Poissons Ratio (x) = 0.33164 0.19161
# Poissons Ratio (y) = 0.37222 -0.33044
# Poissons Ratio (z) = 0.24340 -0.37400
#
# Static dielectric constant tensor:
#      x y z
#    x 2.101930 0.060120 -0.026180 
#    y 0.060120 1.933660 -0.034640 
#    z -0.026180 -0.034640 1.898530 
# 
# From -- ./inp_files/392607.got.cif
#   From: 2010.05.17/outbox.cif.g08.bks.cpg/sg2_197_cif.got.tgz:392607.got - 2010.06.03 11:33:40.
