data_PCOD9080374
_publ_section_title
;
Structure prediction by ZEFSAII (Michael W. Deem and Ramdas Pophale) SiO2 
 PCOD9080374
Probable space group: P -1
;
_chemical_formula_sum "Si O2"
_cell_formula_units_Z 16
_cell_length_a 12.384616
_cell_length_b 8.613443
_cell_length_c 8.461233
_cell_angle_alpha 110.520683
_cell_angle_beta 75.178618
_cell_angle_gamma 87.084274
_cell_volume 807.290856
_symmetry_space_group_name_H-M "P -1"
_symmetry_group_IT_number 2
_symmetry_cell_setting 'triclinic'
loop_
_space_group_symop_operation_xyz
x,y,z
-x,-y,-z
loop_
_atom_site_type_symbol
_atom_site_label
_atom_site_fract_x
_atom_site_fract_y
_atom_site_fract_z
Si Si1 0.002995 0.969974 0.671869
Si Si2 0.432259 0.904544 0.116709
Si Si3 0.841719 0.857091 0.930367
Si Si4 0.979236 0.312494 0.971260
Si Si5 0.652609 0.705178 0.120253
Si Si6 0.369912 0.037313 0.510808
Si Si7 0.774375 0.167821 0.309369
Si Si8 0.712170 0.336755 0.095045
O O1 0.108335 0.832821 0.641978
O O2 0.887067 0.921686 0.771457
O O3 0.000000 0.000000 0.500000
O O4 0.025933 0.152236 0.789773
O O5 0.528302 0.778610 0.129257
O O6 0.369291 0.029612 0.318566
O O7 0.348733 0.803433 0.016943
O O8 0.500000 0.000000 0.000000
O O9 0.740874 0.750684 0.968886
O O10 0.955179 0.745069 0.913729
O O11 0.807129 0.022069 0.111721
O O12 0.846180 0.316588 0.013306
O O13 0.000000 0.500000 0.000000
O O14 0.678477 0.800530 0.307748
O O15 0.662730 0.512969 0.097098
O O16 0.500000 0.000000 0.500000
O O17 0.308441 0.891219 0.552313
O O18 0.709238 0.318530 0.281303
#
# Coordination Sequence:
#
# PCOD9080374 Si02
#       8
#     2   2   2   2   2   2   2   2
#     4  11  23  37  63  92 123 158 214 251 296 370
#     4  11  24  41  65  92 122 162 209 254 301 369
#     4  10  18  39  62  88 119 166 208 236 300 379
#     4  11  21  38  63  90 122 168 200 250 310 364
#     4  10  22  39  66  90 124 161 203 257 310 359
#     4   9  20  40  61  88 117 158 209 250 296 366
#     4  10  20  36  62  85 118 163 201 244 305 363
#     4  12  21  38  65  91 125 160 204 255 315 360
#
# _framework density 19.819375000000001
#
# number of rings (size 3 to 8) (size 9 to 14) (size 15 to 20)
#    0.000    1.500    3.750    3.375    1.750    0.000 
#    0.000    7.500    2.750    0.000    0.000    0.000 
#    0.000    0.000    0.000    0.000    0.000    0.000 
#
# Total GULP energy -89089.037778 kJ/mol
# GULP energy per Si atom -5568.064861 kJ/mol
# Density = 1.977426 g / cm^3
# Si number density = 19.819375 Si / 1000 Ang^3
#
#
#
# Elastic Constant Matrix: (Units=GPa)
#
#
# Indices 1 2 3 4 5 6 
#
# 1 105.0045 25.0065 24.8455 -4.4812 -4.5671 11.7364
# 2 25.0065 99.4372 33.0260 -12.1245 0.0805 10.2873
# 3 24.8455 33.0260 93.8866 -34.0228 -1.9856 18.3626
# 4 -4.4812 -12.1245 -34.0228 27.3399 4.4466 -4.7262
# 5 -4.5671 0.0805 -1.9856 4.4466 23.6164 -3.3447
# 6 11.7364 10.2873 18.3626 -4.7262 -3.3447 39.7305
#
#
#
# Elastic Compliance Matrix: (Units=1/GPa)
#
#
# Indices 1 2 3 4 5 6 
#
# 1 0.010853 -0.001973 -0.003174 -0.003678 0.002323 -0.001470
# 2 -0.001973 0.011808 -0.003054 0.001104 -0.001031 -0.001018
# 3 -0.003174 -0.003054 0.023492 0.027020 -0.004608 -0.006303
# 4 -0.003678 0.001104 0.027020 0.071384 -0.012485 -0.004247
# 5 0.002323 -0.001031 -0.004608 -0.012485 0.045332 0.004042
# 6 -0.001470 -0.001018 -0.006303 -0.004247 0.004042 0.028616
#
#
# Mechanical properties :
#
#
# Convention : Reuss Voigt Hill
#
# Bulk Modulus (GPa) = 33.61313 51.56493 42.58903
# Shear Modulus (GPa) = 22.95640 32.50070 27.72855
#
# Velocity S-wave (km/s) = 3.40704 4.05389 3.74446
# Velocity P-wave (km/s) = 5.69858 6.92719 6.34270
#
# Compressibility (1/GPa) = 0.02975028
#
# Stress axis : x y z
#
# Youngs Moduli (GPa) = 92.14254 84.68854 42.56743
#
# Poissons Ratio (x) = 0.16712 0.13512
# Poissons Ratio (y) = 0.18183 0.12999
# Poissons Ratio (z) = 0.29247 0.25862
#
# Static dielectric constant tensor:
#      x y z
#    x 1.743130 0.000420 -0.001310 
#    y 0.000420 1.742030 -0.019310 
#    z -0.001310 -0.019310 1.649080 
# 
# From -- ./inp_files/244997.got.cif
#   From: 2010.05.17/outbox.cif.g08.bks.cpg/sg2_123_cif.got.tgz:244997.got - 2010.06.03 11:33:40.
