data_PCOD9080076
_publ_section_title
;
Structure prediction by ZEFSAII (Michael W. Deem and Ramdas Pophale) SiO2 
 PCOD9080076
Probable space group: P -1
;
_chemical_formula_sum "Si O2"
_cell_formula_units_Z 15
_cell_length_a 9.812682
_cell_length_b 10.127027
_cell_length_c 12.111787
_cell_angle_alpha 128.550272
_cell_angle_beta 40.064865
_cell_angle_gamma 132.042911
_cell_volume 559.687582
_symmetry_space_group_name_H-M "P -1"
_symmetry_group_IT_number 2
_symmetry_cell_setting 'triclinic'
loop_
_space_group_symop_operation_xyz
x,y,z
-x,-y,-z
loop_
_atom_site_type_symbol
_atom_site_label
_atom_site_fract_x
_atom_site_fract_y
_atom_site_fract_z
Si Si1 0.500000 0.000000 0.500000
Si Si2 0.224983 0.103877 0.990933
Si Si3 0.410260 0.866949 0.879332
Si Si4 0.479756 0.468889 0.337670
Si Si5 0.035238 0.935301 0.640730
Si Si6 0.996551 0.575868 0.348629
Si Si7 0.413035 0.612541 0.234204
Si Si8 0.996637 0.709112 0.195508
O O1 0.714629 0.971796 0.413011
O O2 0.588848 0.210800 0.605558
O O3 0.392517 0.288972 0.926037
O O4 0.377448 0.979871 0.853502
O O5 0.129580 0.118216 0.177874
O O6 0.000000 0.000000 0.000000
O O7 0.547090 0.734459 0.714646
O O8 0.151662 0.731718 0.003515
O O9 0.500000 0.000000 0.000000
O O10 0.277053 0.529671 0.538527
O O11 0.472519 0.488072 0.220245
O O12 0.730214 0.598141 0.286732
O O13 0.014418 0.763390 0.492387
O O14 0.979929 0.086247 0.685565
O O15 0.086260 0.622088 0.193659
O O16 0.161170 0.510407 0.284411
#
# Coordination Sequence:
#
# PCOD9080076 Si02
#       8
#     1   2   2   2   2   2   2   2
#     4  10  18  38  62  98 128 176 212 278 324 404
#     4  11  21  42  69 104 130 177 229 277 339 408
#     4  11  25  46  71 101 136 179 227 282 342 415
#     4  12  24  46  67 100 140 178 229 288 338 403
#     4  10  21  40  68  98 137 173 230 274 338 406
#     4  11  25  41  65  99 137 184 223 284 342 404
#     4  11  23  43  69  99 138 178 231 280 346 399
#     4  11  22  43  66  99 135 179 226 283 341 401
#
# _framework density 26.800664999999999
#
# number of rings (size 3 to 8) (size 9 to 14) (size 15 to 20)
#    0.000    1.067    2.667    4.800    0.000    2.133 
#    2.400   11.333    0.000    0.000    0.000    0.000 
#    0.000    0.000    0.000    0.000    0.000    0.000 
#
# Total GULP energy -83836.886940 kJ/mol
# GULP energy per Si atom -5589.125796 kJ/mol
# Density = 2.673967 g / cm^3
# Si number density = 26.800665 Si / 1000 Ang^3
#
#
#
# Elastic Constant Matrix: (Units=GPa)
#
#
# Indices 1 2 3 4 5 6 
#
# 1 145.8726 42.9087 25.3943 -15.3948 -17.6939 -16.7366
# 2 42.9087 89.5038 34.9273 0.0184 0.7387 -10.2337
# 3 25.3943 34.9273 66.5499 -5.5596 -9.2862 -13.4558
# 4 -15.3948 0.0184 -5.5596 44.2390 -4.7192 -3.2842
# 5 -17.6939 0.7387 -9.2862 -4.7192 37.9737 -8.5941
# 6 -16.7366 -10.2337 -13.4558 -3.2842 -8.5941 52.1226
#
#
#
# Elastic Compliance Matrix: (Units=1/GPa)
#
#
# Indices 1 2 3 4 5 6 
#
# 1 0.009710 -0.004538 0.000646 0.004392 0.006150 0.003685
# 2 -0.004538 0.016415 -0.008157 -0.003264 -0.005149 -0.001395
# 3 0.000646 -0.008157 0.021614 0.004173 0.007553 0.005694
# 4 0.004392 -0.003264 0.004173 0.025796 0.007398 0.004692
# 5 0.006150 -0.005149 0.007553 0.007398 0.034104 0.009003
# 6 0.003685 -0.001395 0.005694 0.004692 0.009003 0.023345
#
#
# Mechanical properties :
#
#
# Convention : Reuss Voigt Hill
#
# Bulk Modulus (GPa) = 42.29525 56.48744 49.39135
# Shear Modulus (GPa) = 30.68233 40.11348 35.39790
#
# Velocity S-wave (km/s) = 3.38721 3.87296 3.63820
# Velocity P-wave (km/s) = 5.57793 6.41268 6.00981
#
# Compressibility (1/GPa) = 0.02364332
#
# Stress axis : x y z
#
# Youngs Moduli (GPa) = 102.98962 60.92078 46.26549
#
# Poissons Ratio (x) = 0.27643 -0.02991
# Poissons Ratio (y) = 0.46732 0.37737
# Poissons Ratio (z) = -0.06658 0.49691
#
# Static dielectric constant tensor:
#      x y z
#    x 2.058260 0.032300 -0.018780 
#    y 0.032300 2.114650 -0.021910 
#    z -0.018780 -0.021910 2.128550 
# 
# From -- ./inp_files/382830.got.cif
#   From: 2010.05.17/outbox.cif.g08.bks.cpg/sg2_192_cif.got.tgz:382830.got - 2010.06.03 11:33:40.
