data_PCOD9080284
_publ_section_title
;
Structure prediction by ZEFSAII (Michael W. Deem and Ramdas Pophale) SiO2 
 PCOD9080284
Probable space group: P -1
;
_chemical_formula_sum "Si O2"
_cell_formula_units_Z 14
_cell_length_a 9.664844
_cell_length_b 10.879847
_cell_length_c 13.310463
_cell_angle_alpha 134.725242
_cell_angle_beta 146.026087
_cell_angle_gamma 56.125962
_cell_volume 554.483233
_symmetry_space_group_name_H-M "P -1"
_symmetry_group_IT_number 2
_symmetry_cell_setting 'triclinic'
loop_
_space_group_symop_operation_xyz
x,y,z
-x,-y,-z
loop_
_atom_site_type_symbol
_atom_site_label
_atom_site_fract_x
_atom_site_fract_y
_atom_site_fract_z
Si Si1 0.367458 0.155389 0.121824
Si Si2 0.792615 0.109525 0.986068
Si Si3 0.491846 0.302126 0.645272
Si Si4 0.168996 0.395483 0.317725
Si Si5 0.298410 0.026018 0.513290
Si Si6 0.784566 0.916474 0.229099
Si Si7 0.277125 0.435083 0.905676
O O1 0.287058 0.296123 0.236273
O O2 0.644886 0.094099 0.256943
O O3 0.292269 0.181480 0.978459
O O4 0.233200 0.968476 0.964424
O O5 0.917222 0.297676 0.155616
O O6 0.554919 0.059845 0.747184
O O7 0.000000 0.000000 0.000000
O O8 0.365494 0.388594 0.522589
O O9 0.662293 0.148017 0.626647
O O10 0.654338 0.441738 0.887148
O O11 0.288987 0.195325 0.533484
O O12 0.022312 0.559347 0.290199
O O13 0.070755 0.976046 0.420065
O O14 0.698202 0.765717 0.168256
O O15 0.500000 0.500000 0.000000
#
# Coordination Sequence:
#
# PCOD9080284 Si02
#       7
#     2   2   2   2   2   2   2
#     4  10  22  44  68 104 140 191 236 300 352 411
#     4  10  18  38  69 104 137 179 241 298 346 406
#     4  11  24  43  74 109 138 194 245 282 366 433
#     4  11  22  45  77 100 143 190 243 295 345 438
#     4  11  22  40  73 114 137 185 250 301 341 423
#     4  11  26  43  70 107 152 183 240 302 359 425
#     4  12  28  50  70 103 153 193 230 300 373 433
#
# _framework density 25.248733999999999
#
# number of rings (size 3 to 8) (size 9 to 14) (size 15 to 20)
#    0.000    1.143    4.286    2.571    4.000    4.571 
#    2.571    1.429    0.000    0.000    0.000    0.000 
#    0.000    0.000    0.000    0.000    0.000    0.000 
#
# Total GULP energy -78197.291018 kJ/mol
# GULP energy per Si atom -5585.520787 kJ/mol
# Density = 2.519127 g / cm^3
# Si number density = 25.248734 Si / 1000 Ang^3
#
#
#
# Elastic Constant Matrix: (Units=GPa)
#
#
# Indices 1 2 3 4 5 6 
#
# 1 137.8193 40.0817 42.7628 -9.5234 9.9509 3.4828
# 2 40.0817 82.0897 61.2583 -10.6585 -6.4308 -8.9410
# 3 42.7628 61.2583 115.5250 -1.1493 1.2358 -2.2664
# 4 -9.5234 -10.6585 -1.1493 39.2316 0.6996 5.7995
# 5 9.9509 -6.4308 1.2358 0.6996 37.6985 -0.9500
# 6 3.4828 -8.9410 -2.2664 5.7995 -0.9500 36.3638
#
#
#
# Elastic Compliance Matrix: (Units=1/GPa)
#
#
# Indices 1 2 3 4 5 6 
#
# 1 0.009157 -0.003680 -0.001433 0.001561 -0.003082 -0.002201
# 2 -0.003680 0.023904 -0.011230 0.004441 0.005460 0.004964
# 3 -0.001433 -0.011230 0.015110 -0.002728 -0.002015 -0.001300
# 4 0.001561 0.004441 -0.002728 0.027534 -0.000167 -0.003623
# 5 -0.003082 0.005460 -0.002015 -0.000167 0.028398 0.002281
# 6 -0.002201 0.004964 -0.001300 -0.003623 0.002281 0.029488
#
#
# Mechanical properties :
#
#
# Convention : Reuss Voigt Hill
#
# Bulk Modulus (GPa) = 64.57768 69.29329 66.93549
# Shear Modulus (GPa) = 29.16522 35.41419 32.28970
#
# Velocity S-wave (km/s) = 3.40239 3.74921 3.58000
# Velocity P-wave (km/s) = 6.40836 6.80044 6.60731
#
# Compressibility (1/GPa) = 0.01548523
#
# Stress axis : x y z
#
# Youngs Moduli (GPa) = 109.20873 41.83436 66.18117
#
# Poissons Ratio (x) = 0.15396 0.09481
# Poissons Ratio (y) = 0.40192 0.74320
# Poissons Ratio (z) = 0.15646 0.46979
#
# Static dielectric constant tensor:
#      x y z
#    x 2.116160 0.093680 0.060610 
#    y 0.093680 2.670420 0.049170 
#    z 0.060610 0.049170 2.093490 
# 
# From -- ./inp_files/418332.got.cif
#   From: 2010.05.17/outbox.cif.g08.bks.cpg/sg2_210_cif.got.tgz:418332.got - 2010.06.03 11:33:40.
