data_PCOD9080330
_publ_section_title
;
Structure prediction by ZEFSAII (Michael W. Deem and Ramdas Pophale) SiO2 
 PCOD9080330
Probable space group: P -1
;
_chemical_formula_sum "Si O2"
_cell_formula_units_Z 16
_cell_length_a 12.467129
_cell_length_b 9.697961
_cell_length_c 12.566482
_cell_angle_alpha 107.503018
_cell_angle_beta 31.648997
_cell_angle_gamma 124.408650
_cell_volume 597.979064
_symmetry_space_group_name_H-M "P -1"
_symmetry_group_IT_number 2
_symmetry_cell_setting 'triclinic'
loop_
_space_group_symop_operation_xyz
x,y,z
-x,-y,-z
loop_
_atom_site_type_symbol
_atom_site_label
_atom_site_fract_x
_atom_site_fract_y
_atom_site_fract_z
Si Si1 0.150952 0.429882 0.748858
Si Si2 0.070082 0.348869 0.551085
Si Si3 0.555958 0.779494 0.404384
Si Si4 0.381881 0.317635 0.886277
Si Si5 0.833019 0.163921 0.361237
Si Si6 0.689650 0.284192 0.999268
Si Si7 0.171725 0.954151 0.089504
Si Si8 0.186118 0.004725 0.452528
O O1 0.172447 0.386115 0.595754
O O2 0.416219 0.631847 0.585602
O O3 0.899675 0.425786 0.944850
O O4 0.027308 0.231481 0.856787
O O5 0.825401 0.350930 0.784810
O O6 0.320541 0.505067 0.308384
O O7 0.950534 0.156449 0.554741
O O8 0.320978 0.769281 0.543642
O O9 0.759874 0.988904 0.314583
O O10 0.658542 0.717998 0.213729
O O11 0.146460 0.312616 0.128397
O O12 0.339202 0.139888 0.927166
O O13 0.728514 0.070410 0.543479
O O14 0.404508 0.199380 0.256165
O O15 0.326862 0.897888 0.007943
O O16 0.013398 0.984059 0.311387
#
# Coordination Sequence:
#
# PCOD9080330 Si02
#       8
#     2   2   2   2   2   2   2   2
#     4   7  18  37  52  76 107 146 178 217 266 320
#     4   8  19  33  57  80 113 146 179 222 267 329
#     4  10  19  42  55  80 113 138 193 227 263 334
#     4  10  18  39  57  81 113 143 181 226 275 325
#     4  10  23  32  63  85 103 151 179 228 285 308
#     4   8  18  36  52  79 108 152 176 217 275 315
#     4   8  19  32  55  81 108 145 174 226 274 317
#     4  11  18  36  56  84 114 139 188 226 268 328
#
# _framework density 26.756791
#
# number of rings (size 3 to 8) (size 9 to 14) (size 15 to 20)
#    1.500    1.250    0.000    1.500    0.000    4.000 
#    6.750   11.250    0.000    0.000    0.000    0.000 
#    0.000    0.000    0.000    0.000    0.000    0.000 
#
# Total GULP energy -89196.738407 kJ/mol
# GULP energy per Si atom -5574.796150 kJ/mol
# Density = 2.669589 g / cm^3
# Si number density = 26.756791 Si / 1000 Ang^3
#
#
#
# Elastic Constant Matrix: (Units=GPa)
#
#
# Indices 1 2 3 4 5 6 
#
# 1 56.8247 0.9500 -0.9377 -2.5158 -2.1884 -7.4902
# 2 0.9500 60.2175 16.5981 -12.6074 0.4739 -13.2048
# 3 -0.9377 16.5981 158.7991 -27.2434 12.1965 6.6564
# 4 -2.5158 -12.6074 -27.2434 51.3598 -7.3173 -1.1552
# 5 -2.1884 0.4739 12.1965 -7.3173 16.2571 -4.3865
# 6 -7.4902 -13.2048 6.6564 -1.1552 -4.3865 28.2417
#
#
#
# Elastic Compliance Matrix: (Units=1/GPa)
#
#
# Indices 1 2 3 4 5 6 
#
# 1 0.018767 0.001705 -0.000428 0.002057 0.005565 0.006824
# 2 0.001705 0.020911 -0.002317 0.005254 0.006981 0.012075
# 3 -0.000428 -0.002317 0.007554 0.002547 -0.005517 -0.003730
# 4 0.002057 0.005254 0.002547 0.023786 0.010259 0.004968
# 5 0.005565 0.006981 -0.005517 0.010259 0.075730 0.018222
# 6 0.006824 0.012075 -0.003730 0.004968 0.018222 0.046777
#
#
# Mechanical properties :
#
#
# Convention : Reuss Voigt Hill
#
# Bulk Modulus (GPa) = 22.14659 34.34024 28.24342
# Shear Modulus (GPa) = 23.73557 36.45379 30.09468
#
# Velocity S-wave (km/s) = 2.98163 3.69509 3.35737
# Velocity P-wave (km/s) = 4.48870 5.57378 5.06041
#
# Compressibility (1/GPa) = 0.04515368
#
# Stress axis : x y z
#
# Youngs Moduli (GPa) = 53.28418 47.82195 132.38066
#
# Poissons Ratio (x) = -0.08155 0.05665
# Poissons Ratio (y) = -0.09086 0.30666
# Poissons Ratio (z) = 0.02280 0.11078
#
# Static dielectric constant tensor:
#      x y z
#    x 2.237680 -0.058600 -0.065120 
#    y -0.058600 2.067140 -0.036940 
#    z -0.065120 -0.036940 2.210950 
# 
# From -- ./inp_files/531874.got.cif
#   From: 2010.05.17/outbox.cif.g08.bks.cpg/sg2_266_cif.got.tgz:531874.got - 2010.06.03 11:33:40.
