data_PCOD9080410
_publ_section_title
;
Structure prediction by ZEFSAII (Michael W. Deem and Ramdas Pophale) SiO2 
 PCOD9080410
Probable space group: P -1
;
_chemical_formula_sum "Si O2"
_cell_formula_units_Z 16
_cell_length_a 14.503200
_cell_length_b 8.400805
_cell_length_c 8.785232
_cell_angle_alpha 59.102677
_cell_angle_beta 53.020617
_cell_angle_gamma 62.561981
_cell_volume 715.488276
_symmetry_space_group_name_H-M "P -1"
_symmetry_group_IT_number 2
_symmetry_cell_setting 'triclinic'
loop_
_space_group_symop_operation_xyz
x,y,z
-x,-y,-z
loop_
_atom_site_type_symbol
_atom_site_label
_atom_site_fract_x
_atom_site_fract_y
_atom_site_fract_z
Si Si1 0.888079 0.653145 0.659660
Si Si2 0.903133 0.617220 0.314865
Si Si3 0.581496 0.116325 0.159220
Si Si4 0.783991 0.149970 0.377601
Si Si5 0.337787 0.164865 0.510673
Si Si6 0.774916 0.308372 0.011352
Si Si7 0.749337 0.023257 0.777139
Si Si8 0.060290 0.051981 0.106686
O O1 0.926910 0.679559 0.434910
O O2 0.796317 0.830497 0.731328
O O3 0.004948 0.585157 0.682363
O O4 0.819911 0.482211 0.813182
O O5 0.762146 0.648067 0.446430
O O6 0.925552 0.757247 0.089969
O O7 0.443614 0.197312 0.284181
O O8 0.661068 0.260560 0.067345
O O9 0.614042 0.934181 0.329508
O O10 0.628683 0.051115 0.977536
O O11 0.755737 0.326472 0.202851
O O12 0.722523 0.993659 0.432704
O O13 0.740213 0.180882 0.578101
O O14 0.925874 0.079533 0.278132
O O15 0.883006 0.121690 0.977176
O O16 0.852649 0.007203 0.807473
#
# Coordination Sequence:
#
# PCOD9080410 Si02
#       8
#     2   2   2   2   2   2   2   2
#     4  11  23  35  59  90 123 150 186 235 305 352
#     4  11  20  38  59  87 116 159 190 230 290 361
#     4   9  21  38  65  85 107 151 207 248 265 337
#     4  11  19  34  58  84 116 153 191 235 283 347
#     4  10  18  39  64  84 106 156 209 231 277 341
#     4  10  19  37  60  83 112 154 202 231 278 347
#     4  11  22  37  54  92 122 148 186 244 299 334
#     4  11  20  37  58  85 116 153 201 234 279 341
#
# _framework density 22.362349999999999
#
# number of rings (size 3 to 8) (size 9 to 14) (size 15 to 20)
#    0.000    1.500    6.250    1.500    1.750    1.000 
#    0.000    0.625    0.000    8.250    0.000    0.000 
#    0.000    0.000    0.000    0.000    0.000    0.000 
#
# Total GULP energy -89315.792767 kJ/mol
# GULP energy per Si atom -5582.237048 kJ/mol
# Density = 2.231145 g / cm^3
# Si number density = 22.362350 Si / 1000 Ang^3
#
#
#
# Elastic Constant Matrix: (Units=GPa)
#
#
# Indices 1 2 3 4 5 6 
#
# 1 38.1740 2.0401 37.4951 -0.9611 -11.7667 -7.9483
# 2 2.0401 27.2701 20.7438 5.2082 -4.4809 -8.0201
# 3 37.4951 20.7438 179.5662 18.9242 -4.7348 -2.2749
# 4 -0.9611 5.2082 18.9242 22.4023 -9.1038 -1.3480
# 5 -11.7667 -4.4809 -4.7348 -9.1038 60.7792 5.6218
# 6 -7.9483 -8.0201 -2.2749 -1.3480 5.6218 16.8307
#
#
#
# Elastic Compliance Matrix: (Units=1/GPa)
#
#
# Indices 1 2 3 4 5 6 
#
# 1 0.044765 0.010968 -0.011573 0.014004 0.008537 0.023072
# 2 0.010968 0.050351 -0.007454 -0.002331 0.002392 0.027180
# 3 -0.011573 -0.007454 0.009563 -0.008351 -0.002600 -0.007525
# 4 0.014004 -0.002331 -0.008351 0.057213 0.009937 0.005637
# 5 0.008537 0.002392 -0.002600 0.009937 0.019656 -0.000950
# 6 0.023072 0.027180 -0.007525 0.005637 -0.000950 0.083014
#
#
# Mechanical properties :
#
#
# Convention : Reuss Voigt Hill
#
# Bulk Modulus (GPa) = 11.29158 40.61871 25.95515
# Shear Modulus (GPa) = 16.11867 32.31787 24.21827
#
# Velocity S-wave (km/s) = 2.68768 3.80569 3.29446
# Velocity P-wave (km/s) = 3.83299 6.12490 5.10912
#
# Compressibility (1/GPa) = 0.08856158
#
# Stress axis : x y z
#
# Youngs Moduli (GPa) = 22.33912 19.86042 104.57208
#
# Poissons Ratio (x) = -0.21783 1.21019
# Poissons Ratio (y) = -0.24502 0.77946
# Poissons Ratio (z) = 0.25853 0.14804
#
# Static dielectric constant tensor:
#      x y z
#    x 1.898440 -0.005420 0.032870 
#    y -0.005420 1.853010 -0.003990 
#    z 0.032870 -0.003990 1.872450 
# 
# From -- ./inp_files/169754.got.cif
#   From: 2010.05.17/outbox.cif.g08.bks.cpg/sg2_85_cif.got.tgz:169754.got - 2010.06.03 11:33:40.
