data_PCOD9080759
_publ_section_title
;
Structure prediction by ZEFSAII (Michael W. Deem and Ramdas Pophale) SiO2 
 PCOD9080759
Probable space group: P -1
;
_chemical_formula_sum "Si O2"
_cell_formula_units_Z 13
_cell_length_a 7.487669
_cell_length_b 11.956118
_cell_length_c 6.955211
_cell_angle_alpha 78.419029
_cell_angle_beta 89.287860
_cell_angle_gamma 46.995179
_cell_volume 439.287890
_symmetry_space_group_name_H-M "P -1"
_symmetry_group_IT_number 2
_symmetry_cell_setting 'triclinic'
loop_
_space_group_symop_operation_xyz
x,y,z
-x,-y,-z
loop_
_atom_site_type_symbol
_atom_site_label
_atom_site_fract_x
_atom_site_fract_y
_atom_site_fract_z
Si Si1 0.628414 0.517029 0.738297
Si Si2 0.637843 0.029840 0.119674
Si Si3 0.077842 0.850999 0.647395
Si Si4 0.000000 0.000000 0.000000
Si Si5 0.000000 0.500000 0.500000
Si Si6 0.259814 0.211199 0.352840
Si Si7 0.583115 0.635084 0.117903
Si Si8 0.000000 0.500000 0.000000
O O1 0.367440 0.697383 0.665691
O O2 0.822721 0.463908 0.596163
O O3 0.551764 0.418598 0.795993
O O4 0.721499 0.531246 0.942574
O O5 0.531128 0.062283 0.322178
O O6 0.603708 0.174966 0.965566
O O7 0.929048 0.915592 0.167095
O O8 0.500000 0.000000 0.000000
O O9 0.931578 0.803317 0.619257
O O10 0.013711 0.905441 0.849283
O O11 0.000000 0.000000 0.500000
O O12 0.760726 0.693243 0.507434
O O13 0.176726 0.313845 0.118548
O O14 0.852733 0.552695 0.222846
#
# Coordination Sequence:
#
# PCOD9080759 Si02
#       8
#     2   2   2   1   1   2   2   1
#     4  11  23  45  73 107 154 197 261 323 397 473
#     4  11  22  44  77 108 151 202 266 317 391 486
#     4  12  27  51  73 113 161 207 269 325 399 495
#     4  12  24  48  78 104 154 216 254 324 398 470
#     4  12  24  46  72 108 158 194 244 342 400 464
#     4  11  24  47  69 111 152 190 264 322 394 477
#     4  10  21  41  75 107 139 193 262 323 379 477
#     4  10  18  42  74 100 138 186 244 328 366 462
#
# _framework density 29.593350000000001
#
# number of rings (size 3 to 8) (size 9 to 14) (size 15 to 20)
#    0.000    0.923    7.692    0.000    0.000    1.846 
#    8.308    4.615    0.000    0.000    0.000    0.000 
#    0.000    0.000    0.000    0.000    0.000    0.000 
#
# Total GULP energy -72413.783934 kJ/mol
# GULP energy per Si atom -5570.291072 kJ/mol
# Density = 2.952599 g / cm^3
# Si number density = 29.593350 Si / 1000 Ang^3
#
#
#
# Elastic Constant Matrix: (Units=GPa)
#
#
# Indices 1 2 3 4 5 6 
#
# 1 212.4413 54.6028 68.1414 14.3874 -39.2447 36.7468
# 2 54.6028 114.8905 45.5193 39.9519 -2.7630 22.7409
# 3 68.1414 45.5193 160.0064 35.0244 -51.6252 1.6801
# 4 14.3874 39.9519 35.0244 55.9055 -12.6078 -5.7360
# 5 -39.2447 -2.7630 -51.6252 -12.6078 68.5551 -1.8982
# 6 36.7468 22.7409 1.6801 -5.7360 -1.8982 65.6622
#
#
#
# Elastic Compliance Matrix: (Units=1/GPa)
#
#
# Indices 1 2 3 4 5 6 
#
# 1 0.006710 -0.002450 -0.001535 0.001333 0.002758 -0.002672
# 2 -0.002450 0.015304 -0.002529 -0.010289 -0.004718 -0.004900
# 3 -0.001535 -0.002529 0.010203 -0.002632 0.006258 0.001425
# 4 0.001333 -0.010289 -0.002632 0.027927 0.003653 0.005430
# 5 0.002758 -0.004718 0.006258 0.003653 0.021384 0.000868
# 6 -0.002672 -0.004900 0.001425 0.005430 0.000868 0.018885
#
#
# Mechanical properties :
#
#
# Convention : Reuss Voigt Hill
#
# Bulk Modulus (GPa) = 52.10745 91.54058 71.82402
# Shear Modulus (GPa) = 41.72290 59.29620 50.50955
#
# Velocity S-wave (km/s) = 3.75890 4.48113 4.13581
# Velocity P-wave (km/s) = 6.04030 7.60092 6.86510
#
# Compressibility (1/GPa) = 0.01919111
#
# Stress axis : x y z
#
# Youngs Moduli (GPa) = 149.02263 65.34027 98.00679
#
# Poissons Ratio (x) = 0.16005 0.15041
# Poissons Ratio (y) = 0.36504 0.24789
# Poissons Ratio (z) = 0.22871 0.16527
#
# Static dielectric constant tensor:
#      x y z
#    x 2.196890 0.155150 0.692400 
#    y 0.155150 4.824410 3.098270 
#    z 0.692400 3.098270 7.965830 
# 
# From -- ./inp_files/168441.got.cif
#   From: 2010.05.17/outbox.cif.g08.bks.cpg/sg2_85_cif.got.tgz:168441.got - 2010.06.03 11:33:40.
