data_PCOD9080724
_publ_section_title
;
Structure prediction by ZEFSAII (Michael W. Deem and Ramdas Pophale) SiO2 
 PCOD9080724
Probable space group: P -1
;
_chemical_formula_sum "Si O2"
_cell_formula_units_Z 14
_cell_length_a 9.320118
_cell_length_b 13.498920
_cell_length_c 11.081764
_cell_angle_alpha 146.389212
_cell_angle_beta 55.963575
_cell_angle_gamma 133.239177
_cell_volume 562.029295
_symmetry_space_group_name_H-M "P -1"
_symmetry_group_IT_number 2
_symmetry_cell_setting 'triclinic'
loop_
_space_group_symop_operation_xyz
x,y,z
-x,-y,-z
loop_
_atom_site_type_symbol
_atom_site_label
_atom_site_fract_x
_atom_site_fract_y
_atom_site_fract_z
Si Si1 0.446142 0.344823 0.475350
Si Si2 0.216318 0.073754 0.918281
Si Si3 0.359789 0.628358 0.920845
Si Si4 0.778147 0.348105 0.484696
Si Si5 0.210905 0.930696 0.233242
Si Si6 0.163582 0.040558 0.631742
Si Si7 0.307831 0.768728 0.343177
O O1 0.500000 0.500000 0.500000
O O2 0.637969 0.375140 0.485256
O O3 0.336077 0.106480 0.257174
O O4 0.303036 0.401954 0.679910
O O5 0.401969 0.251651 0.078701
O O6 0.229667 0.136658 0.833427
O O7 0.252591 0.880283 0.724905
O O8 0.000000 0.000000 0.000000
O O9 0.319971 0.655526 0.105258
O O10 0.258050 0.744277 0.017500
O O11 0.717365 0.369141 0.670256
O O12 0.000000 0.500000 0.500000
O O13 0.268055 0.034668 0.447406
O O14 0.992670 0.890387 0.267209
O O15 0.122440 0.813123 0.461818
O O16 0.500000 0.000000 0.500000
#
# Coordination Sequence:
#
# PCOD9080724 Si02
#       7
#     2   2   2   2   2   2   2
#     4  12  28  42  64  93 137 175 218 270 332 396
#     4  11  22  39  68  96 129 166 226 267 328 390
#     4  11  23  44  69  96 122 181 225 264 330 396
#     4  11  23  42  63  99 138 164 213 285 331 377
#     4  10  22  45  66  93 134 170 217 267 330 397
#     4   9  20  39  71  93 126 173 212 274 326 383
#     4  10  18  41  74  94 128 169 221 275 322 394
#
# _framework density 24.909731000000001
#
# number of rings (size 3 to 8) (size 9 to 14) (size 15 to 20)
#    0.000    1.429    4.286    1.714    6.000    2.286 
#    2.571    6.429    0.000    0.000    0.000    0.000 
#    0.000    0.000    0.000    0.000    0.000    0.000 
#
# Total GULP energy -78099.997132 kJ/mol
# GULP energy per Si atom -5578.571224 kJ/mol
# Density = 2.485304 g / cm^3
# Si number density = 24.909731 Si / 1000 Ang^3
#
#
#
# Elastic Constant Matrix: (Units=GPa)
#
#
# Indices 1 2 3 4 5 6 
#
# 1 128.9560 30.5826 28.6570 4.8245 -33.8596 -19.0285
# 2 30.5826 99.2605 0.3061 8.6220 -0.9837 -28.2455
# 3 28.6570 0.3061 80.2143 4.2597 -20.7049 -12.8535
# 4 4.8245 8.6220 4.2597 30.2425 -4.4413 -4.7941
# 5 -33.8596 -0.9837 -20.7049 -4.4413 34.7326 -3.3328
# 6 -19.0285 -28.2455 -12.8535 -4.7941 -3.3328 40.7571
#
#
#
# Elastic Compliance Matrix: (Units=1/GPa)
#
#
# Indices 1 2 3 4 5 6 
#
# 1 0.012383 -0.002332 -0.000451 0.001401 0.012415 0.005203
# 2 -0.002332 0.013468 0.002304 -0.002414 0.000006 0.008688
# 3 -0.000451 0.002304 0.016414 -0.000249 0.010085 0.007358
# 4 0.001401 -0.002414 -0.000249 0.034997 0.005960 0.003506
# 5 0.012415 0.000006 0.010085 0.005960 0.048982 0.013688
# 6 0.005203 0.008688 0.007358 0.003506 0.013688 0.036838
#
#
# Mechanical properties :
#
#
# Convention : Reuss Voigt Hill
#
# Bulk Modulus (GPa) = 24.20936 47.50248 35.85592
# Shear Modulus (GPa) = 28.12004 37.73878 32.92941
#
# Velocity S-wave (km/s) = 3.36352 3.89655 3.63981
# Velocity P-wave (km/s) = 4.98240 6.27339 5.66479
#
# Compressibility (1/GPa) = 0.04130634
#
# Stress axis : x y z
#
# Youngs Moduli (GPa) = 80.75580 74.25101 60.92279
#
# Poissons Ratio (x) = 0.17315 0.02748
# Poissons Ratio (y) = 0.18832 -0.14035
# Poissons Ratio (z) = 0.03643 -0.17105
#
# Static dielectric constant tensor:
#      x y z
#    x 2.093000 0.051820 0.068060 
#    y 0.051820 2.123120 -0.097370 
#    z 0.068060 -0.097370 2.047830 
# 
# From -- ./inp_files/391525.got.cif
#   From: 2010.05.17/outbox.cif.g08.bks.cpg/sg2_196_cif.got.tgz:391525.got - 2010.06.03 11:33:40.
