data_PCOD9080400
_publ_section_title
;
Structure prediction by ZEFSAII (Michael W. Deem and Ramdas Pophale) SiO2 
 PCOD9080400
Probable space group: P -1
;
_chemical_formula_sum "Si O2"
_cell_formula_units_Z 16
_cell_length_a 22.221831
_cell_length_b 7.081447
_cell_length_c 13.638317
_cell_angle_alpha 88.392718
_cell_angle_beta 139.309236
_cell_angle_gamma 122.779848
_cell_volume 842.728401
_symmetry_space_group_name_H-M "P -1"
_symmetry_group_IT_number 2
_symmetry_cell_setting 'triclinic'
loop_
_space_group_symop_operation_xyz
x,y,z
-x,-y,-z
loop_
_atom_site_type_symbol
_atom_site_label
_atom_site_fract_x
_atom_site_fract_y
_atom_site_fract_z
Si Si1 0.039250 0.276864 0.275930
Si Si2 0.578992 0.560692 0.326111
Si Si3 0.097085 0.099766 0.525427
Si Si4 0.853402 0.164345 0.518522
Si Si5 0.738693 0.747781 0.803185
Si Si6 0.258663 0.505889 0.368712
Si Si7 0.404624 0.134817 0.474588
Si Si8 0.649173 0.763437 0.114406
O O1 0.066867 0.542454 0.327244
O O2 0.134356 0.364663 0.297534
O O3 0.101202 0.270316 0.448157
O O4 0.862100 0.946640 0.038982
O O5 0.616999 0.421838 0.423092
O O6 0.574439 0.713056 0.401344
O O7 0.722903 0.851201 0.429108
O O8 0.419370 0.296942 0.073897
O O9 0.039597 0.823984 0.394871
O O10 0.257770 0.281136 0.763053
O O11 0.000000 0.000000 0.500000
O O12 0.762798 0.088185 0.309710
O O13 0.799871 0.725710 0.787215
O O14 0.572342 0.393800 0.630290
O O15 0.702981 0.904552 0.723418
O O16 0.330936 0.813039 0.408992
O O17 0.500000 0.500000 0.000000
#
# Coordination Sequence:
#
# PCOD9080400 Si02
#       8
#     2   2   2   2   2   2   2   2
#     4  12  22  40  64  93 122 174 201 256 321 371
#     4  10  18  39  63  89 121 163 206 264 302 357
#     4  10  23  40  59  90 132 160 206 261 306 375
#     4   9  20  38  59  88 126 158 209 255 300 375
#     4  10  25  39  62  90 132 157 206 265 319 363
#     4  11  21  40  66  92 122 161 221 254 305 382
#     4  10  22  42  61  90 122 162 211 263 306 375
#     4   8  17  38  60  83 123 160 200 259 300 355
#
# _framework density 18.985949999999999
#
# number of rings (size 3 to 8) (size 9 to 14) (size 15 to 20)
#    0.750    1.250    2.500    0.750    1.750    2.000 
#    2.250    1.875    0.000    0.000    0.000    0.000 
#    0.000    0.000    0.000    0.000    0.000    0.000 
#
# Total GULP energy -89100.992053 kJ/mol
# GULP energy per Si atom -5568.812003 kJ/mol
# Density = 1.894274 g / cm^3
# Si number density = 18.985950 Si / 1000 Ang^3
#
#
#
# Elastic Constant Matrix: (Units=GPa)
#
#
# Indices 1 2 3 4 5 6 
#
# 1 119.9726 20.7743 10.3119 2.7176 8.9150 -7.9518
# 2 20.7743 92.8935 27.9701 -3.6016 9.8620 -7.0536
# 3 10.3119 27.9701 57.3964 -11.4214 2.2131 -2.5257
# 4 2.7176 -3.6016 -11.4214 16.8404 0.1680 -3.9169
# 5 8.9150 9.8620 2.2131 0.1680 19.5504 -1.8597
# 6 -7.9518 -7.0536 -2.5257 -3.9169 -1.8597 19.7891
#
#
#
# Elastic Compliance Matrix: (Units=1/GPa)
#
#
# Indices 1 2 3 4 5 6 
#
# 1 0.009087 -0.001234 -0.001195 -0.001957 -0.003143 0.002376
# 2 -0.001234 0.013685 -0.006166 -0.000297 -0.005351 0.003033
# 3 -0.001195 -0.006166 0.023929 0.015938 0.001156 0.003639
# 4 -0.001957 -0.000297 0.015938 0.074122 0.000106 0.015823
# 5 -0.003143 -0.005351 0.001156 0.000106 0.055360 0.002201
# 6 0.002376 0.003033 0.003639 0.015823 0.002201 0.056372
#
#
# Mechanical properties :
#
#
# Convention : Reuss Voigt Hill
#
# Bulk Modulus (GPa) = 33.88620 43.15278 38.51949
# Shear Modulus (GPa) = 19.26171 25.31639 22.28905
#
# Velocity S-wave (km/s) = 3.18862 3.65557 3.43005
# Velocity P-wave (km/s) = 5.60742 6.37148 6.00162
#
# Compressibility (1/GPa) = 0.02951054
#
# Stress axis : x y z
#
# Youngs Moduli (GPa) = 110.04715 73.07497 41.78949
#
# Poissons Ratio (x) = 0.09019 0.04993
# Poissons Ratio (y) = 0.13582 0.25769
# Poissons Ratio (z) = 0.13148 0.45060
#
# Static dielectric constant tensor:
#      x y z
#    x 1.681970 0.015050 -0.005350 
#    y 0.015050 1.658890 -0.025400 
#    z -0.005350 -0.025400 1.653180 
# 
# From -- ./inp_files/542168.got.cif
#   From: 2010.05.17/outbox.cif.g08.bks.cpg/sg2_272_cif.got.tgz:542168.got - 2010.06.03 11:33:40.
