data_PCOD9080795
_publ_section_title
;
Structure prediction by ZEFSAII (Michael W. Deem and Ramdas Pophale) SiO2 
 PCOD9080795
Probable space group: P -1
;
_chemical_formula_sum "Si O2"
_cell_formula_units_Z 14
_cell_length_a 5.654136
_cell_length_b 8.254310
_cell_length_c 16.378544
_cell_angle_alpha 42.547173
_cell_angle_beta 86.712115
_cell_angle_gamma 91.259254
_cell_volume 513.695187
_symmetry_space_group_name_H-M "P -1"
_symmetry_group_IT_number 2
_symmetry_cell_setting 'triclinic'
loop_
_space_group_symop_operation_xyz
x,y,z
-x,-y,-z
loop_
_atom_site_type_symbol
_atom_site_label
_atom_site_fract_x
_atom_site_fract_y
_atom_site_fract_z
Si Si1 0.076422 0.748137 0.955215
Si Si2 0.512638 0.406490 0.678323
Si Si3 0.229864 0.656000 0.472894
Si Si4 0.186763 0.831596 0.746001
Si Si5 0.313887 0.217933 0.233392
Si Si6 0.586661 0.888863 0.919461
Si Si7 0.254213 0.107149 0.487786
O O1 0.153633 0.910184 0.811683
O O2 0.329658 0.745920 0.997448
O O3 0.844421 0.838516 0.970089
O O4 0.000000 0.500000 0.000000
O O5 0.284213 0.541184 0.603218
O O6 0.597382 0.352444 0.605543
O O7 0.695152 0.613248 0.636188
O O8 0.526330 0.165395 0.819077
O O9 0.000000 0.500000 0.500000
O O10 0.248574 0.947062 0.370373
O O11 0.419109 0.689940 0.780082
O O12 0.939070 0.681776 0.782556
O O13 0.237333 0.061345 0.602356
O O14 0.356813 0.186823 0.147115
O O15 0.500000 0.000000 0.500000
O O16 0.000000 0.000000 0.500000
#
# Coordination Sequence:
#
# PCOD9080795 Si02
#       7
#     2   2   2   2   2   2   2
#     4  10  20  36  57  87 116 140 176 234 307 360
#     4  10  22  34  50  82 112 149 196 232 275 345
#     4  10  19  27  53  76 108 145 178 225 290 331
#     4  10  19  36  52  76 109 150 185 223 272 338
#     4   9  17  29  49  75 106 136 180 211 270 337
#     4   9  20  31  53  83 111 145 173 226 293 349
#     4  12  26  39  54  77 117 167 201 228 263 324
#
# _framework density 27.253515
#
# number of rings (size 3 to 8) (size 9 to 14) (size 15 to 20)
#    0.000    2.000    1.429    2.143   14.000    0.000 
#    0.000    0.000    0.000    0.000    0.000    6.000 
#    0.000    0.000    0.000    0.000    0.000    0.000 
#
# Total GULP energy -78019.464022 kJ/mol
# GULP energy per Si atom -5572.818859 kJ/mol
# Density = 2.719148 g / cm^3
# Si number density = 27.253515 Si / 1000 Ang^3
#
#
#
# Elastic Constant Matrix: (Units=GPa)
#
#
# Indices 1 2 3 4 5 6 
#
# 1 294.6006 41.8174 45.2584 -28.8195 -25.5591 7.9944
# 2 41.8174 41.3847 10.3684 -14.1780 -7.4109 5.6526
# 3 45.2584 10.3684 69.4361 -31.8756 -11.0745 -1.2339
# 4 -28.8195 -14.1780 -31.8756 39.4444 2.4213 -4.8870
# 5 -25.5591 -7.4109 -11.0745 2.4213 40.8856 -0.4926
# 6 7.9944 5.6526 -1.2339 -4.8870 -0.4926 38.4130
#
#
#
# Elastic Compliance Matrix: (Units=1/GPa)
#
#
# Indices 1 2 3 4 5 6 
#
# 1 0.004362 -0.003521 -0.002012 0.000150 0.001530 -0.000416
# 2 -0.003521 0.031625 0.003044 0.010729 0.003691 -0.002411
# 3 -0.002012 0.003044 0.025440 0.020300 0.005024 0.003435
# 4 0.000150 0.010729 0.020300 0.046039 0.004870 0.004962
# 5 0.001530 0.003691 0.005024 0.004870 0.027159 0.000268
# 6 -0.000416 -0.002411 0.003435 0.004962 0.000268 0.027219
#
#
# Mechanical properties :
#
#
# Convention : Reuss Voigt Hill
#
# Bulk Modulus (GPa) = 17.71514 66.70106 42.20810
# Shear Modulus (GPa) = 26.93407 44.28041 35.60724
#
# Velocity S-wave (km/s) = 3.14710 4.03520 3.61850
# Velocity P-wave (km/s) = 4.44071 6.79985 5.74273
#
# Compressibility (1/GPa) = 0.05644890
#
# Stress axis : x y z
#
# Youngs Moduli (GPa) = 229.25082 31.62038 39.30865
#
# Poissons Ratio (x) = 0.11135 0.07908
# Poissons Ratio (y) = 0.80730 -0.11967
# Poissons Ratio (z) = 0.46121 -0.09626
#
# Static dielectric constant tensor:
#      x y z
#    x 2.421650 -0.086410 0.168690 
#    y -0.086410 2.254420 -0.022660 
#    z 0.168690 -0.022660 2.304820 
# 
# From -- ./inp_files/138066.got.cif
#   From: 2010.05.17/outbox.cif.g08.bks.cpg/sg2_70_cif.got.tgz:138066.got - 2010.06.03 11:33:40.
