data_PCOD9080495
_publ_section_title
;
Structure prediction by ZEFSAII (Michael W. Deem and Ramdas Pophale) SiO2 
 PCOD9080495
Probable space group: P -1
;
_chemical_formula_sum "Si O2"
_cell_formula_units_Z 16
_cell_length_a 13.759780
_cell_length_b 9.640682
_cell_length_c 9.572051
_cell_angle_alpha 45.139657
_cell_angle_beta 76.427713
_cell_angle_gamma 101.655966
_cell_volume 740.026903
_symmetry_space_group_name_H-M "P -1"
_symmetry_group_IT_number 2
_symmetry_cell_setting 'triclinic'
loop_
_space_group_symop_operation_xyz
x,y,z
-x,-y,-z
loop_
_atom_site_type_symbol
_atom_site_label
_atom_site_fract_x
_atom_site_fract_y
_atom_site_fract_z
Si Si1 0.947771 0.878179 0.454941
Si Si2 0.555492 0.696237 0.459733
Si Si3 0.248347 0.576851 0.015666
Si Si4 0.550589 0.141858 0.058600
Si Si5 0.811704 0.036500 0.201277
Si Si6 0.313626 0.759988 0.333094
Si Si7 0.692906 0.553376 0.194972
Si Si8 0.151798 0.915246 0.167809
O O1 0.843255 0.619089 0.709998
O O2 0.895604 0.009131 0.297074
O O3 0.042120 0.871377 0.327845
O O4 0.000000 0.000000 0.500000
O O5 0.500000 0.500000 0.500000
O O6 0.685700 0.791443 0.404686
O O7 0.448381 0.589764 0.681498
O O8 0.568136 0.926173 0.226847
O O9 0.378850 0.691467 0.956799
O O10 0.244066 0.467308 0.946691
O O11 0.217657 0.774277 0.873530
O O12 0.410069 0.013320 0.185736
O O13 0.616256 0.258303 0.809309
O O14 0.866359 0.106271 0.977410
O O15 0.287197 0.572173 0.592089
O O16 0.201822 0.760360 0.313852
O O17 0.745916 0.817232 0.029206
#
# Coordination Sequence:
#
# PCOD9080495 Si02
#       8
#     2   2   2   2   2   2   2   2
#     4  12  29  48  68  94 136 181 234 286 328 384
#     4  10  18  39  69 105 137 170 213 271 339 406
#     4  11  25  47  65 101 138 175 225 279 339 398
#     4   9  20  39  65 103 138 169 216 271 339 410
#     4  11  26  45  73  99 134 175 228 278 336 398
#     4  10  21  39  70 101 138 172 212 275 338 400
#     4  11  24  38  72 101 140 175 214 273 345 401
#     4  12  24  47  66 102 128 177 237 269 328 405
#
# _framework density 21.620835
#
# number of rings (size 3 to 8) (size 9 to 14) (size 15 to 20)
#    0.000    1.250    5.000    0.375    3.500    8.500 
#    0.000    1.250    0.000    0.000    0.000    0.000 
#    0.000    0.000    0.000    0.000    0.000    0.000 
#
# Total GULP energy -89469.558833 kJ/mol
# GULP energy per Si atom -5591.847427 kJ/mol
# Density = 2.157162 g / cm^3
# Si number density = 21.620835 Si / 1000 Ang^3
#
#
#
# Elastic Constant Matrix: (Units=GPa)
#
#
# Indices 1 2 3 4 5 6 
#
# 1 89.8517 4.9848 6.9943 20.1330 11.9083 9.6893
# 2 4.9848 56.3917 -3.9302 6.9830 6.6925 4.9339
# 3 6.9943 -3.9302 68.7997 11.4642 -0.1588 -3.0927
# 4 20.1330 6.9830 11.4642 32.1894 -2.9852 -2.7795
# 5 11.9083 6.6925 -0.1588 -2.9852 25.1802 10.8481
# 6 9.6893 4.9339 -3.0927 -2.7795 10.8481 24.6669
#
#
#
# Elastic Compliance Matrix: (Units=1/GPa)
#
#
# Indices 1 2 3 4 5 6 
#
# 1 0.014759 0.001173 0.000112 -0.010515 -0.006705 -0.004254
# 2 0.001173 0.019403 0.001923 -0.006339 -0.005400 -0.002440
# 3 0.000112 0.001923 0.015725 -0.006119 -0.001922 0.001699
# 4 -0.010515 -0.006339 -0.006119 0.042524 0.009378 0.005299
# 5 -0.006705 -0.005400 -0.001922 0.009378 0.053629 -0.019056
# 6 -0.004254 -0.002440 0.001699 0.005299 -0.019056 0.051890
#
#
# Mechanical properties :
#
#
# Convention : Reuss Voigt Hill
#
# Bulk Modulus (GPa) = 17.76085 25.68231 21.72158
# Shear Modulus (GPa) = 23.77771 30.20690 26.99231
#
# Velocity S-wave (km/s) = 3.31986 3.74186 3.53716
# Velocity P-wave (km/s) = 4.78830 5.52929 5.17208
#
# Compressibility (1/GPa) = 0.05630361
#
# Stress axis : x y z
#
# Youngs Moduli (GPa) = 67.75525 51.53890 63.59283
#
# Poissons Ratio (x) = -0.06046 -0.00712
# Poissons Ratio (y) = -0.07948 -0.12231
# Poissons Ratio (z) = -0.00758 -0.09913
#
# Static dielectric constant tensor:
#      x y z
#    x 1.824280 0.008040 -0.028300 
#    y 0.008040 1.774910 -0.010370 
#    z -0.028300 -0.010370 1.778960 
# 
# From -- ./inp_files/297380.got.cif
#   From: 2010.05.17/outbox.cif.g08.bks.cpg/sg2_149_cif.got.tgz:297380.got - 2010.06.03 11:33:40.
