data_PCOD9080489
_publ_section_title
;
Structure prediction by ZEFSAII (Michael W. Deem and Ramdas Pophale) SiO2 
 PCOD9080489
Probable space group: P -1
;
_chemical_formula_sum "Si O2"
_cell_formula_units_Z 14
_cell_length_a 8.067537
_cell_length_b 11.008596
_cell_length_c 8.841200
_cell_angle_alpha 126.506234
_cell_angle_beta 116.818681
_cell_angle_gamma 68.154338
_cell_volume 557.339618
_symmetry_space_group_name_H-M "P -1"
_symmetry_group_IT_number 2
_symmetry_cell_setting 'triclinic'
loop_
_space_group_symop_operation_xyz
x,y,z
-x,-y,-z
loop_
_atom_site_type_symbol
_atom_site_label
_atom_site_fract_x
_atom_site_fract_y
_atom_site_fract_z
Si Si1 0.758423 0.014539 0.134878
Si Si2 0.581154 0.590312 0.962405
Si Si3 0.847430 0.102360 0.631960
Si Si4 0.427049 0.275497 0.228136
Si Si5 0.778819 0.184218 0.981475
Si Si6 0.130413 0.219683 0.637375
Si Si7 0.896229 0.666720 0.628068
O O1 0.630896 0.169067 0.260819
O O2 0.789594 0.037521 0.984371
O O3 0.963282 0.980607 0.266571
O O4 0.669223 0.859247 0.994312
O O5 0.760332 0.654100 0.151213
O O6 0.500000 0.500000 0.000000
O O7 0.612590 0.569419 0.777976
O O8 0.403595 0.717268 0.955457
O O9 0.932871 0.216554 0.640245
O O10 0.764442 0.955728 0.425955
O O11 0.734284 0.176515 0.780619
O O12 0.305069 0.319880 0.362539
O O13 0.959141 0.265589 0.149855
O O14 0.121918 0.247321 0.475831
O O15 0.000000 0.500000 0.500000
#
# Coordination Sequence:
#
# PCOD9080489 Si02
#       7
#     2   2   2   2   2   2   2
#     4  10  18  39  68  96 119 163 214 266 317 387
#     4  11  24  44  62  90 133 176 213 255 317 395
#     4  11  21  41  69  96 132 158 211 280 326 376
#     4  10  22  40  69  91 127 174 213 256 327 382
#     4  11  22  40  68  93 124 177 213 255 332 384
#     4  11  24  41  62 100 130 159 216 272 325 364
#     4  12  24  42  64  94 130 174 221 259 303 391
#
# _framework density 25.119333999999998
#
# number of rings (size 3 to 8) (size 9 to 14) (size 15 to 20)
#    0.000    1.143    4.286    2.143    0.000    1.714 
#    5.143    9.286    0.000    0.000    0.000    0.000 
#    0.000    0.000    0.000    0.000    0.000    0.000 
#
# Total GULP energy -78015.314312 kJ/mol
# GULP energy per Si atom -5572.522451 kJ/mol
# Density = 2.506216 g / cm^3
# Si number density = 25.119334 Si / 1000 Ang^3
#
#
#
# Elastic Constant Matrix: (Units=GPa)
#
#
# Indices 1 2 3 4 5 6 
#
# 1 71.4231 32.0128 2.6716 -1.8811 -8.1951 24.1783
# 2 32.0128 98.5064 10.4210 -5.4763 -11.2925 36.9164
# 3 2.6716 10.4210 34.0277 -5.5104 -7.0026 9.8740
# 4 -1.8811 -5.4763 -5.5104 32.3365 8.9167 -14.5231
# 5 -8.1951 -11.2925 -7.0026 8.9167 45.6934 -5.7155
# 6 24.1783 36.9164 9.8740 -14.5231 -5.7155 58.0237
#
#
#
# Elastic Compliance Matrix: (Units=1/GPa)
#
#
# Indices 1 2 3 4 5 6 
#
# 1 0.017711 -0.003646 0.001443 -0.002537 0.002276 -0.005716
# 2 -0.003646 0.014561 -0.001832 -0.002123 0.002108 -0.007757
# 3 0.001443 -0.001832 0.032145 0.002453 0.003763 -0.003921
# 4 -0.002537 -0.002123 0.002453 0.037463 -0.006574 0.010720
# 5 0.002276 0.002108 0.003763 -0.006574 0.024402 -0.002172
# 6 -0.005716 -0.007757 -0.003921 0.010720 -0.002172 0.027688
#
#
# Mechanical properties :
#
#
# Convention : Reuss Voigt Hill
#
# Bulk Modulus (GPa) = 17.74770 32.68534 25.21652
# Shear Modulus (GPa) = 27.65136 37.80084 32.72610
#
# Velocity S-wave (km/s) = 3.32143 3.88345 3.61338
# Velocity P-wave (km/s) = 4.66796 5.75747 5.24111
#
# Compressibility (1/GPa) = 0.05634532
#
# Stress axis : x y z
#
# Youngs Moduli (GPa) = 56.46247 68.67691 31.10902
#
# Poissons Ratio (x) = 0.25040 -0.04488
# Poissons Ratio (y) = 0.20587 0.05700
# Poissons Ratio (z) = -0.08145 0.12583
#
# Static dielectric constant tensor:
#      x y z
#    x 2.075940 0.089440 -0.073100 
#    y 0.089440 2.125740 -0.055610 
#    z -0.073100 -0.055610 2.190100 
# 
# From -- ./inp_files/183372.got.cif
#   From: 2010.05.17/outbox.cif.g08.bks.cpg/sg2_92_cif.got.tgz:183372.got - 2010.06.03 11:33:40.
