data_PCOD9080145
_publ_section_title
;
Structure prediction by ZEFSAII (Michael W. Deem and Ramdas Pophale) SiO2 
 PCOD9080145
Probable space group: P -1
;
_chemical_formula_sum "Si O2"
_cell_formula_units_Z 16
_cell_length_a 11.483898
_cell_length_b 19.986131
_cell_length_c 13.645741
_cell_angle_alpha 30.792090
_cell_angle_beta 148.313931
_cell_angle_gamma 148.590959
_cell_volume 749.722357
_symmetry_space_group_name_H-M "P -1"
_symmetry_group_IT_number 2
_symmetry_cell_setting 'triclinic'
loop_
_space_group_symop_operation_xyz
x,y,z
-x,-y,-z
loop_
_atom_site_type_symbol
_atom_site_label
_atom_site_fract_x
_atom_site_fract_y
_atom_site_fract_z
Si Si1 0.985344 0.829974 0.479595
Si Si2 0.070296 0.460174 0.938116
Si Si3 0.229409 0.162754 0.972104
Si Si4 0.238848 0.217999 0.321879
Si Si5 0.410636 0.149538 0.333352
Si Si6 0.283297 0.701233 0.958968
Si Si7 0.975528 0.313493 0.504379
Si Si8 0.693742 0.945049 0.246493
O O1 0.092744 0.769568 0.719035
O O2 0.926921 0.722785 0.481619
O O3 0.763093 0.859688 0.319383
O O4 0.219916 0.980938 0.427214
O O5 0.212365 0.577884 0.978162
O O6 0.049616 0.541162 0.722968
O O7 0.211807 0.362750 0.145308
O O8 0.793646 0.368130 0.902061
O O9 0.146037 0.290328 0.735317
O O10 0.342470 0.183431 0.134862
O O11 0.438261 0.184163 0.013396
O O12 0.000000 0.000000 0.000000
O O13 0.366387 0.232035 0.290100
O O14 0.367148 0.158460 0.570451
O O15 0.955252 0.088438 0.273869
O O16 0.697883 0.188156 0.485454
O O17 0.500000 0.000000 0.000000
#
# Coordination Sequence:
#
# PCOD9080145 Si02
#       8
#     2   2   2   2   2   2   2   2
#     4  10  18  38  64  91 125 159 208 276 315 379
#     4  10  21  43  65  92 132 174 215 260 328 396
#     4  12  23  40  66  98 130 168 219 280 325 370
#     4  10  23  42  64  89 133 179 208 266 325 389
#     4  11  22  40  62  92 133 170 220 262 328 385
#     4  10  21  39  70  95 126 169 217 266 328 387
#     4  11  23  39  64  98 127 167 219 266 329 382
#     4  10  22  41  64  96 127 164 224 265 324 385
#
# _framework density 21.341234
#
# number of rings (size 3 to 8) (size 9 to 14) (size 15 to 20)
#    0.000    1.500    5.000    1.125    0.000    4.000 
#    2.250    0.625    0.000    0.000    0.000    0.000 
#    0.000    0.000    0.000    0.000    0.000    0.000 
#
# Total GULP energy -89341.392849 kJ/mol
# GULP energy per Si atom -5583.837053 kJ/mol
# Density = 2.129266 g / cm^3
# Si number density = 21.341234 Si / 1000 Ang^3
#
#
#
# Elastic Constant Matrix: (Units=GPa)
#
#
# Indices 1 2 3 4 5 6 
#
# 1 89.7874 16.9364 31.5883 1.0753 10.5944 4.5728
# 2 16.9364 28.3278 15.6702 2.8336 4.2859 10.2523
# 3 31.5883 15.6702 141.3764 -0.0163 13.4177 -5.4815
# 4 1.0753 2.8336 -0.0163 24.9382 2.8625 4.9945
# 5 10.5944 4.2859 13.4177 2.8625 30.5109 -5.8832
# 6 4.5728 10.2523 -5.4815 4.9945 -5.8832 23.4302
#
#
#
# Elastic Compliance Matrix: (Units=1/GPa)
#
#
# Indices 1 2 3 4 5 6 
#
# 1 0.013445 -0.005911 -0.002096 0.000771 -0.003281 -0.001516
# 2 -0.005911 0.051373 -0.004572 0.000210 -0.007882 -0.024419
# 3 -0.002096 -0.004572 0.008348 -0.000006 -0.001533 0.003979
# 4 0.000771 0.000210 -0.000006 0.042992 -0.006455 -0.011028
# 5 -0.003281 -0.007882 -0.001533 -0.006455 0.039183 0.014945
# 6 -0.001516 -0.024419 0.003979 -0.011028 0.014945 0.060695
#
#
# Mechanical properties :
#
#
# Convention : Reuss Voigt Hill
#
# Bulk Modulus (GPa) = 20.82978 43.09791 31.96385
# Shear Modulus (GPa) = 19.44027 28.79566 24.11796
#
# Velocity S-wave (km/s) = 3.02143 3.67726 3.36536
# Velocity P-wave (km/s) = 4.68546 6.18613 5.48734
#
# Compressibility (1/GPa) = 0.04800818
#
# Stress axis : x y z
#
# Youngs Moduli (GPa) = 74.37734 19.46531 119.78513
#
# Poissons Ratio (x) = 0.11505 0.25109
# Poissons Ratio (y) = 0.43962 0.54770
# Poissons Ratio (z) = 0.15591 0.08900
#
# Static dielectric constant tensor:
#      x y z
#    x 1.790630 0.010250 -0.029860 
#    y 0.010250 1.818310 -0.029160 
#    z -0.029860 -0.029160 1.803740 
# 
# From -- ./inp_files/524070.got.cif
#   From: 2010.05.17/outbox.cif.g08.bks.cpg/sg2_263_cif.got.tgz:524070.got - 2010.06.03 11:33:40.
