data_PCOD9080172
_publ_section_title
;
Structure prediction by ZEFSAII (Michael W. Deem and Ramdas Pophale) SiO2 
 PCOD9080172
Probable space group: P -1
;
_chemical_formula_sum "Si O2"
_cell_formula_units_Z 14
_cell_length_a 8.798338
_cell_length_b 10.518784
_cell_length_c 11.685081
_cell_angle_alpha 86.864797
_cell_angle_beta 92.455762
_cell_angle_gamma 149.998526
_cell_volume 539.907025
_symmetry_space_group_name_H-M "P -1"
_symmetry_group_IT_number 2
_symmetry_cell_setting 'triclinic'
loop_
_space_group_symop_operation_xyz
x,y,z
-x,-y,-z
loop_
_atom_site_type_symbol
_atom_site_label
_atom_site_fract_x
_atom_site_fract_y
_atom_site_fract_z
Si Si1 0.674166 0.324140 0.608046
Si Si2 0.689784 0.182964 0.290622
Si Si3 0.744609 0.900556 0.783188
Si Si4 0.154348 0.744512 0.962622
Si Si5 0.656745 0.736169 0.550168
Si Si6 0.874026 0.777735 0.927914
Si Si7 0.369889 0.281216 0.786387
O O1 0.536752 0.278861 0.488443
O O2 0.034986 0.584629 0.625578
O O3 0.520565 0.079885 0.650062
O O4 0.546454 0.341744 0.687976
O O5 0.479588 0.146464 0.241515
O O6 0.851954 0.253949 0.175451
O O7 0.672833 0.745244 0.687756
O O8 0.753795 0.838211 0.911739
O O9 0.099373 0.184001 0.752675
O O10 0.985936 0.744022 0.013816
O O11 0.000000 0.500000 0.000000
O O12 0.500000 0.000000 0.000000
O O13 0.500000 0.500000 0.500000
O O14 0.000000 0.000000 0.500000
O O15 0.174845 0.026220 0.850670
O O16 0.590737 0.502617 0.873586
#
# Coordination Sequence:
#
# PCOD9080172 Si02
#       7
#     2   2   2   2   2   2   2
#     4  12  22  41  66  96 135 179 215 266 311 394
#     4  12  26  43  66  98 136 170 212 271 352 365
#     4  10  26  40  69  95 138 173 215 268 321 385
#     4  12  24  43  69  97 123 166 224 272 323 405
#     4  12  24  40  68 102 128 175 238 254 303 382
#     4  10  20  40  65  92 123 173 211 254 328 390
#     4  10  18  38  65  88 118 176 213 245 310 384
#
# _framework density 25.930389000000002
#
# number of rings (size 3 to 8) (size 9 to 14) (size 15 to 20)
#    0.857    0.000    4.286    3.429    2.000    1.143 
#    0.000    1.429    0.000    0.000    0.000    0.000 
#    0.000    0.000    0.000    0.000    0.000    0.000 
#
# Total GULP energy -78215.967099 kJ/mol
# GULP energy per Si atom -5586.854793 kJ/mol
# Density = 2.587137 g / cm^3
# Si number density = 25.930389 Si / 1000 Ang^3
#
#
#
# Elastic Constant Matrix: (Units=GPa)
#
#
# Indices 1 2 3 4 5 6 
#
# 1 204.3881 81.0851 39.4005 1.4400 31.7341 9.1962
# 2 81.0851 175.6197 -1.9812 9.5105 16.3554 0.9233
# 3 39.4005 -1.9812 73.0989 4.0737 10.2932 3.2152
# 4 1.4400 9.5105 4.0737 26.6203 -0.2388 13.7341
# 5 31.7341 16.3554 10.2932 -0.2388 51.9301 0.6655
# 6 9.1962 0.9233 3.2152 13.7341 0.6655 57.3133
#
#
#
# Elastic Compliance Matrix: (Units=1/GPa)
#
#
# Indices 1 2 3 4 5 6 
#
# 1 0.007396 -0.003308 -0.003748 0.002044 -0.002708 -0.001381
# 2 -0.003308 0.007503 0.002243 -0.003427 -0.000816 0.001115
# 3 -0.003748 0.002243 0.016157 -0.003332 -0.001640 0.000476
# 4 0.002044 -0.003427 -0.003332 0.044782 0.000835 -0.010827
# 5 -0.002708 -0.000816 -0.001640 0.000835 0.021496 0.000090
# 6 -0.001381 0.001115 0.000476 -0.010827 0.000090 0.020218
#
#
# Mechanical properties :
#
#
# Convention : Reuss Voigt Hill
#
# Bulk Modulus (GPa) = 46.66454 76.67950 61.67202
# Shear Modulus (GPa) = 37.22441 49.47956 43.35199
#
# Velocity S-wave (km/s) = 3.79298 4.37300 4.09327
# Velocity P-wave (km/s) = 6.10061 7.42516 6.79523
#
# Compressibility (1/GPa) = 0.02142955
#
# Stress axis : x y z
#
# Youngs Moduli (GPa) = 135.21324 133.28718 61.89393
#
# Poissons Ratio (x) = 0.44094 0.23197
# Poissons Ratio (y) = 0.44731 -0.13885
# Poissons Ratio (z) = 0.50676 -0.29901
#
# Static dielectric constant tensor:
#      x y z
#    x 2.086580 -0.005200 -0.063560 
#    y -0.005200 1.985350 0.020670 
#    z -0.063560 0.020670 2.167090 
# 
# From -- ./inp_files/497998.got.cif
#   From: 2010.05.17/outbox.cif.g08.bks.cpg/sg2_249_cif.got.tgz:497998.got - 2010.06.03 11:33:40.
