data_PCOD9080718
_publ_section_title
;
Structure prediction by ZEFSAII (Michael W. Deem and Ramdas Pophale) SiO2 
 PCOD9080718
Probable space group: P -1
;
_chemical_formula_sum "Si O2"
_cell_formula_units_Z 14
_cell_length_a 13.394583
_cell_length_b 19.509663
_cell_length_c 8.692270
_cell_angle_alpha 36.886317
_cell_angle_beta 133.595653
_cell_angle_gamma 152.774468
_cell_volume 621.814165
_symmetry_space_group_name_H-M "P -1"
_symmetry_group_IT_number 2
_symmetry_cell_setting 'triclinic'
loop_
_space_group_symop_operation_xyz
x,y,z
-x,-y,-z
loop_
_atom_site_type_symbol
_atom_site_label
_atom_site_fract_x
_atom_site_fract_y
_atom_site_fract_z
Si Si1 0.482054 0.131589 0.577665
Si Si2 0.472547 0.061183 0.208779
Si Si3 0.042634 0.229872 0.804916
Si Si4 0.941623 0.992721 0.623424
Si Si5 0.245737 0.602764 0.903458
Si Si6 0.134205 0.539766 0.424409
Si Si7 0.244484 0.352097 0.464766
O O1 0.244164 0.030967 0.523210
O O2 0.598222 0.267700 0.309250
O O3 0.626501 0.256375 0.656118
O O4 0.479358 0.996366 0.774114
O O5 0.633377 0.268958 0.047168
O O6 0.500000 0.000000 0.500000
O O7 0.220287 0.936724 0.155464
O O8 0.135364 0.403750 0.669502
O O9 0.110305 0.278415 0.612262
O O10 0.130396 0.169082 0.077650
O O11 0.000000 0.000000 0.500000
O O12 0.151975 0.181779 0.588553
O O13 0.015641 0.516416 0.776573
O O14 0.211761 0.446705 0.164224
O O15 0.000000 0.500000 0.500000
O O16 0.500000 0.500000 0.500000
#
# Coordination Sequence:
#
# PCOD9080718 Si02
#       7
#     2   2   2   2   2   2   2
#     4  10  22  45  68  98 141 178 221 281 345 396
#     4  10  18  41  71 102 129 178 219 279 339 400
#     4  12  24  46  74  96 143 179 230 279 344 407
#     4  12  30  47  68  99 137 188 231 277 344 410
#     4  10  21  41  74 104 135 169 234 275 342 404
#     4  10  21  40  72 104 132 173 223 286 343 388
#     4  12  27  46  68 104 140 184 228 280 337 413
#
# _framework density 22.514762999999999
#
# number of rings (size 3 to 8) (size 9 to 14) (size 15 to 20)
#    0.000    1.143    4.286    3.857    6.000    1.143 
#    0.000    1.429    0.000    0.000    0.000    0.000 
#    0.000    0.000    0.000    0.000    0.000    0.000 
#
# Total GULP energy -78366.682409 kJ/mol
# GULP energy per Si atom -5597.620172 kJ/mol
# Density = 2.246352 g / cm^3
# Si number density = 22.514763 Si / 1000 Ang^3
#
#
#
# Elastic Constant Matrix: (Units=GPa)
#
#
# Indices 1 2 3 4 5 6 
#
# 1 122.9606 55.4320 25.7788 -12.9214 8.4229 -8.0865
# 2 55.4320 139.6181 5.7609 4.2662 16.1091 -12.3481
# 3 25.7788 5.7609 97.2046 -20.9840 7.3941 -8.7983
# 4 -12.9214 4.2662 -20.9840 15.0867 -0.5949 17.7049
# 5 8.4229 16.1091 7.3941 -0.5949 34.4959 -4.8213
# 6 -8.0865 -12.3481 -8.7983 17.7049 -4.8213 50.8957
#
#
#
# Elastic Compliance Matrix: (Units=1/GPa)
#
#
# Indices 1 2 3 4 5 6 
#
# 1 0.012780 -0.006413 0.001523 0.023812 -0.001111 -0.007651
# 2 -0.006413 0.011725 -0.003317 -0.024888 -0.002273 0.009695
# 3 0.001523 -0.003317 0.018353 0.042208 -0.003766 -0.012429
# 4 0.023812 -0.024888 0.042208 0.248845 -0.010480 -0.082516
# 5 -0.001111 -0.002273 -0.003766 -0.010480 0.031685 0.005268
# 6 -0.007651 0.009695 -0.012429 -0.082516 0.005268 0.047840
#
#
# Mechanical properties :
#
#
# Convention : Reuss Voigt Hill
#
# Bulk Modulus (GPa) = 37.81228 59.30295 48.55761
# Shear Modulus (GPa) = 12.61178 38.28310 25.44744
#
# Velocity S-wave (km/s) = 2.36933 4.12801 3.36557
# Velocity P-wave (km/s) = 4.93111 7.00838 6.05942
#
# Compressibility (1/GPa) = 0.02644644
#
# Stress axis : x y z
#
# Youngs Moduli (GPa) = 78.25028 85.28453 54.48639
#
# Poissons Ratio (x) = 0.54691 -0.08300
# Poissons Ratio (y) = 0.50180 0.18071
# Poissons Ratio (z) = -0.11921 0.28285
#
# Static dielectric constant tensor:
#      x y z
#    x 1.851340 0.009670 -0.023590 
#    y 0.009670 1.861990 0.009880 
#    z -0.023590 0.009880 1.831140 
# 
# From -- ./inp_files/278848.got.cif
#   From: 2010.05.17/outbox.cif.g08.bks.cpg/sg2_140_cif.got.tgz:278848.got - 2010.06.03 11:33:40.
