data_PCOD9080482
_publ_section_title
;
Structure prediction by ZEFSAII (Michael W. Deem and Ramdas Pophale) SiO2 
 PCOD9080482
Probable space group: P -1
;
_chemical_formula_sum "Si O2"
_cell_formula_units_Z 16
_cell_length_a 13.396845
_cell_length_b 8.885133
_cell_length_c 11.044679
_cell_angle_alpha 40.103520
_cell_angle_beta 132.573665
_cell_angle_gamma 111.890601
_cell_volume 593.952136
_symmetry_space_group_name_H-M "P -1"
_symmetry_group_IT_number 2
_symmetry_cell_setting 'triclinic'
loop_
_space_group_symop_operation_xyz
x,y,z
-x,-y,-z
loop_
_atom_site_type_symbol
_atom_site_label
_atom_site_fract_x
_atom_site_fract_y
_atom_site_fract_z
Si Si1 0.088945 0.875133 0.534076
Si Si2 0.512052 0.932462 0.405297
Si Si3 0.363635 0.545312 0.615742
Si Si4 0.450736 0.763222 0.225559
Si Si5 0.172554 0.306302 0.197677
Si Si6 0.106987 0.620210 0.187508
Si Si7 0.695635 0.570304 0.094284
Si Si8 0.147834 0.097363 0.852136
O O1 0.231226 0.648376 0.801922
O O2 0.130947 0.089015 0.365762
O O3 0.000000 0.000000 0.500000
O O4 0.979505 0.787293 0.414695
O O5 0.405062 0.782488 0.454394
O O6 0.524405 0.911462 0.282370
O O7 0.328879 0.195056 0.342875
O O8 0.441303 0.217951 0.194632
O O9 0.488363 0.312783 0.809646
O O10 0.222511 0.516956 0.449698
O O11 0.339387 0.543552 0.738814
O O12 0.500000 0.500000 0.500000
O O13 0.286605 0.924011 0.000924
O O14 0.168146 0.504647 0.177204
O O15 0.050130 0.406327 0.934966
O O16 0.093837 0.906215 0.002976
O O17 0.800684 0.720550 0.134426
#
# Coordination Sequence:
#
# PCOD9080482 Si02
#       8
#     2   2   2   2   2   2   2   2
#     4  11  27  47  66  98 145 194 236 302 377 440
#     4  10  20  41  68 106 149 192 234 303 352 430
#     4  11  20  38  73 109 145 188 240 296 356 417
#     4   9  15  31  64  98 136 174 228 278 342 404
#     4  10  22  39  69 102 151 193 241 278 370 437
#     4  10  18  39  68 105 144 195 233 298 342 431
#     4  11  25  43  72 107 138 186 256 302 355 434
#     4  10  20  41  69 102 139 182 243 296 348 424
#
# _framework density 26.938196999999999
#
# number of rings (size 3 to 8) (size 9 to 14) (size 15 to 20)
#    0.000    1.750    5.000    1.125    1.750    3.500 
#    0.000    8.125    0.000    0.000    0.000    0.875 
#    0.000    0.000    0.000    0.000    0.000    0.000 
#
# Total GULP energy -89615.114228 kJ/mol
# GULP energy per Si atom -5600.944639 kJ/mol
# Density = 2.687688 g / cm^3
# Si number density = 26.938197 Si / 1000 Ang^3
#
#
#
# Elastic Constant Matrix: (Units=GPa)
#
#
# Indices 1 2 3 4 5 6 
#
# 1 118.0297 54.2609 63.7813 2.2399 5.8519 -11.9458
# 2 54.2609 121.0231 40.0198 -4.1903 8.4359 11.2706
# 3 63.7813 40.0198 126.9272 -15.2833 32.4601 -7.8166
# 4 2.2399 -4.1903 -15.2833 42.8861 3.4121 13.6084
# 5 5.8519 8.4359 32.4601 3.4121 51.0729 -1.2305
# 6 -11.9458 11.2706 -7.8166 13.6084 -1.2305 49.7494
#
#
#
# Elastic Compliance Matrix: (Units=1/GPa)
#
#
# Indices 1 2 3 4 5 6 
#
# 1 0.015620 -0.005520 -0.007678 -0.006235 0.004554 0.005613
# 2 -0.005520 0.011539 -0.000491 0.002876 -0.001270 -0.004835
# 3 -0.007678 -0.000491 0.014935 0.006865 -0.009026 -0.001487
# 4 -0.006235 0.002876 0.006865 0.029856 -0.006345 -0.009394
# 5 0.004554 -0.001270 -0.009026 -0.006345 0.025484 0.002329
# 6 0.005613 -0.004835 -0.001487 -0.009394 0.002329 0.024937
#
#
# Mechanical properties :
#
#
# Convention : Reuss Voigt Hill
#
# Bulk Modulus (GPa) = 67.95810 75.78934 71.87372
# Shear Modulus (GPa) = 32.32994 42.60287 37.46640
#
# Velocity S-wave (km/s) = 3.46808 3.98113 3.73343
# Velocity P-wave (km/s) = 6.42798 7.02340 6.73227
#
# Compressibility (1/GPa) = 0.01471495
#
# Stress axis : x y z
#
# Youngs Moduli (GPa) = 64.02005 86.66601 66.95704
#
# Poissons Ratio (x) = 0.47842 0.51412
# Poissons Ratio (y) = 0.35341 0.03286
# Poissons Ratio (z) = 0.49157 0.04253
#
# Static dielectric constant tensor:
#      x y z
#    x 2.132000 -0.001480 -0.028250 
#    y -0.001480 2.093410 0.009270 
#    z -0.028250 0.009270 2.106370 
# 
# From -- ./inp_files/445495.got.cif
#   From: 2010.05.17/outbox.cif.g08.bks.cpg/sg2_223_cif.got.tgz:445495.got - 2010.06.03 11:33:40.
