data_PCOD9080578
_publ_section_title
;
Structure prediction by ZEFSAII (Michael W. Deem and Ramdas Pophale) SiO2 
 PCOD9080578
Probable space group: P -1
;
_chemical_formula_sum "Si O2"
_cell_formula_units_Z 12
_cell_length_a 8.417061
_cell_length_b 9.505515
_cell_length_c 15.151522
_cell_angle_alpha 30.905181
_cell_angle_beta 62.993373
_cell_angle_gamma 77.443692
_cell_volume 513.953208
_symmetry_space_group_name_H-M "P -1"
_symmetry_group_IT_number 2
_symmetry_cell_setting 'triclinic'
loop_
_space_group_symop_operation_xyz
x,y,z
-x,-y,-z
loop_
_atom_site_type_symbol
_atom_site_label
_atom_site_fract_x
_atom_site_fract_y
_atom_site_fract_z
Si Si1 0.795864 0.389602 0.776346
Si Si2 0.847230 0.258083 0.392928
Si Si3 0.527681 0.613458 0.834511
Si Si4 0.706126 0.123054 0.328870
Si Si5 0.275591 0.240339 0.783515
Si Si6 0.718876 0.577093 0.509740
O O1 0.610163 0.442447 0.835342
O O2 0.799814 0.427100 0.648680
O O3 0.973058 0.647773 0.638926
O O4 0.798431 0.084106 0.980389
O O5 0.878465 0.218226 0.303329
O O6 0.767669 0.521375 0.274367
O O7 0.684401 0.947739 0.626725
O O8 0.322120 0.613857 0.856790
O O9 0.500000 0.500000 0.000000
O O10 0.500000 0.000000 0.500000
O O11 0.708920 0.863616 0.406304
O O12 0.506505 0.341511 0.667270
O O13 0.199013 0.294310 0.677001
#
# Coordination Sequence:
#
# PCOD9080578 Si02
#       6
#     2   2   2   2   2   2
#     4  12  24  41  68  98 126 171 212 260 328 375
#     4  11  23  44  65  91 137 161 206 275 320 366
#     4  11  22  40  67  96 122 169 220 256 307 390
#     4  10  18  40  64  87 123 171 203 256 318 368
#     4  11  24  42  64  95 130 171 212 260 317 382
#     4  11  22  41  68  91 131 168 217 261 308 384
#
# _framework density 23.348427999999998
#
# number of rings (size 3 to 8) (size 9 to 14) (size 15 to 20)
#    0.000    1.000    6.667    2.500    2.333    0.667 
#    3.000    1.667    0.000    0.000    0.000    0.000 
#    0.000    0.000    0.000    0.000    0.000    0.000 
#
# Total GULP energy -66968.231010 kJ/mol
# GULP energy per Si atom -5580.685918 kJ/mol
# Density = 2.329529 g / cm^3
# Si number density = 23.348428 Si / 1000 Ang^3
#
#
#
# Elastic Constant Matrix: (Units=GPa)
#
#
# Indices 1 2 3 4 5 6 
#
# 1 82.1772 15.0482 51.2359 21.8475 18.3351 37.0124
# 2 15.0482 99.2486 58.3663 7.6727 8.0850 23.1223
# 3 51.2359 58.3663 136.4603 9.2153 32.8664 9.9124
# 4 21.8475 7.6727 9.2153 35.0496 8.1963 21.0058
# 5 18.3351 8.0850 32.8664 8.1963 37.4732 4.9742
# 6 37.0124 23.1223 9.9124 21.0058 4.9742 46.6676
#
#
#
# Elastic Compliance Matrix: (Units=1/GPa)
#
#
# Indices 1 2 3 4 5 6 
#
# 1 0.031067 0.009241 -0.013208 -0.002451 -0.001739 -0.025124
# 2 0.009241 0.018288 -0.010984 0.001460 0.002840 -0.015018
# 3 -0.013208 -0.010984 0.018167 0.000191 -0.008858 0.012917
# 4 -0.002451 0.001460 0.000191 0.041099 -0.006059 -0.016673
# 5 -0.001739 0.002840 -0.008858 -0.006059 0.035919 0.000753
# 6 -0.025124 -0.015018 0.012917 -0.016673 0.000753 0.053476
#
#
# Mechanical properties :
#
#
# Convention : Reuss Voigt Hill
#
# Bulk Modulus (GPa) = 26.58001 63.02075 44.80038
# Shear Modulus (GPa) = 20.79375 36.72046 28.75711
#
# Velocity S-wave (km/s) = 2.98750 3.97005 3.51330
# Velocity P-wave (km/s) = 4.82794 6.93290 5.97387
#
# Compressibility (1/GPa) = 0.03762226
#
# Stress axis : x y z
#
# Youngs Moduli (GPa) = 32.18859 54.67961 55.04359
#
# Poissons Ratio (x) = -0.50531 0.72700
# Poissons Ratio (y) = -0.29746 0.60459
# Poissons Ratio (z) = 0.42514 0.60059
#
# Static dielectric constant tensor:
#      x y z
#    x 1.921640 -0.060260 -0.057250 
#    y -0.060260 1.813230 -0.049430 
#    z -0.057250 -0.049430 1.717920 
# 
# From -- ./inp_files/148922.got.cif
#   From: 2010.05.17/outbox.cif.g08.bks.cpg/sg2_75_cif.got.tgz:148922.got - 2010.06.03 11:33:40.
