data_PCOD9080067
_publ_section_title
;
Structure prediction by ZEFSAII (Michael W. Deem and Ramdas Pophale) SiO2 
 PCOD9080067
Probable space group: P -1
;
_chemical_formula_sum "Si O2"
_cell_formula_units_Z 14
_cell_length_a 8.087295
_cell_length_b 12.278626
_cell_length_c 6.245468
_cell_angle_alpha 83.962112
_cell_angle_beta 102.186268
_cell_angle_gamma 63.597933
_cell_volume 528.756408
_symmetry_space_group_name_H-M "P -1"
_symmetry_group_IT_number 2
_symmetry_cell_setting 'triclinic'
loop_
_space_group_symop_operation_xyz
x,y,z
-x,-y,-z
loop_
_atom_site_type_symbol
_atom_site_label
_atom_site_fract_x
_atom_site_fract_y
_atom_site_fract_z
Si Si1 0.539740 0.897260 0.850545
Si Si2 0.893759 0.797377 0.649334
Si Si3 0.561280 0.601812 0.564640
Si Si4 0.780740 0.677298 0.266535
Si Si5 0.845514 0.071902 0.218061
Si Si6 0.116997 0.591921 0.081253
Si Si7 0.803935 0.192188 0.746918
O O1 0.700617 0.878514 0.721525
O O2 0.329589 0.928219 0.700520
O O3 0.637756 0.766440 0.028868
O O4 0.500000 0.000000 0.000000
O O5 0.833638 0.765009 0.413569
O O6 0.033903 0.859152 0.687782
O O7 0.017478 0.660926 0.822305
O O8 0.500000 0.500000 0.500000
O O9 0.689375 0.616415 0.410286
O O10 0.688535 0.539634 0.823712
O O11 0.368974 0.734762 0.482714
O O12 0.965794 0.582676 0.202107
O O13 0.005430 0.929887 0.248751
O O14 0.750220 0.138060 0.952593
O O15 0.152960 0.699703 0.177946
#
# Coordination Sequence:
#
# PCOD9080067 Si02
#       7
#     2   2   2   2   2   2   2
#     4  11  22  41  64  94 132 174 210 254 318 388
#     4  10  24  40  62 101 129 163 216 265 315 385
#     4  10  20  37  64  93 119 169 217 258 318 382
#     4  11  22  41  64  94 129 165 214 265 321 376
#     4  10  18  38  62  90 131 166 206 261 319 374
#     4   9  20  39  64  86 126 166 210 260 320 372
#     4   9  17  35  62  89 118 167 212 250 311 384
#
# _framework density 26.477222999999999
#
# number of rings (size 3 to 8) (size 9 to 14) (size 15 to 20)
#    0.000    2.000    1.429    3.857    0.000    1.143 
#    5.143    1.429    0.000    6.857    0.000    0.000 
#    0.000    0.000    0.000    0.000    0.000    0.000 
#
# Total GULP energy -78392.632850 kJ/mol
# GULP energy per Si atom -5599.473775 kJ/mol
# Density = 2.641696 g / cm^3
# Si number density = 26.477223 Si / 1000 Ang^3
#
#
#
# Elastic Constant Matrix: (Units=GPa)
#
#
# Indices 1 2 3 4 5 6 
#
# 1 154.3211 53.2157 35.5843 -15.9494 9.9888 -3.5830
# 2 53.2157 141.1232 42.8302 -26.2558 25.5257 10.8466
# 3 35.5843 42.8302 64.8335 -20.1112 0.1387 -14.8428
# 4 -15.9494 -26.2558 -20.1112 42.6849 0.9309 11.1112
# 5 9.9888 25.5257 0.1387 0.9309 31.0204 -16.9715
# 6 -3.5830 10.8466 -14.8428 11.1112 -16.9715 47.9136
#
#
#
# Elastic Compliance Matrix: (Units=1/GPa)
#
#
# Indices 1 2 3 4 5 6 
#
# 1 0.007932 -0.001304 -0.003480 0.000865 -0.002116 -0.001140
# 2 -0.001304 0.021978 -0.015222 0.012703 -0.030942 -0.023694
# 3 -0.003480 -0.015222 0.031887 -0.002137 0.026031 0.022780
# 4 0.000865 0.012703 -0.002137 0.036238 -0.022707 -0.019920
# 5 -0.002116 -0.030942 0.026031 -0.022707 0.086805 0.050923
# 6 -0.001140 -0.023694 0.022780 -0.019920 0.050923 0.055863
#
#
# Mechanical properties :
#
#
# Convention : Reuss Voigt Hill
#
# Bulk Modulus (GPa) = 45.90245 69.28202 57.59224
# Shear Modulus (GPa) = 17.36253 39.56696 28.46474
#
# Velocity S-wave (km/s) = 2.56355 3.86991 3.28238
# Velocity P-wave (km/s) = 5.11239 6.79645 6.01366
#
# Compressibility (1/GPa) = 0.02178533
#
# Stress axis : x y z
#
# Youngs Moduli (GPa) = 126.07298 45.49923 31.36106
#
# Poissons Ratio (x) = 0.05931 0.10915
# Poissons Ratio (y) = 0.16434 0.47737
# Poissons Ratio (z) = 0.43880 0.69258
#
# Static dielectric constant tensor:
#      x y z
#    x 2.094820 -0.007740 0.022050 
#    y -0.007740 2.018670 0.011550 
#    z 0.022050 0.011550 2.081790 
# 
# From -- ./inp_files/37365.got.cif
#   From: 2010.05.17/outbox.cif.g08.bks.cpg/sg2_19_cif.got.tgz:37365.got - 2010.06.03 11:33:40.
