data_PCOD9080916
_publ_section_title
;
Structure prediction by ZEFSAII (Michael W. Deem and Ramdas Pophale) SiO2 
 PCOD9080916
Probable space group: P -1
;
_chemical_formula_sum "Si O2"
_cell_formula_units_Z 10
_cell_length_a 12.186408
_cell_length_b 8.078467
_cell_length_c 5.381751
_cell_angle_alpha 77.063143
_cell_angle_beta 119.578251
_cell_angle_gamma 97.415578
_cell_volume 448.971712
_symmetry_space_group_name_H-M "P -1"
_symmetry_group_IT_number 2
_symmetry_cell_setting 'triclinic'
loop_
_space_group_symop_operation_xyz
x,y,z
-x,-y,-z
loop_
_atom_site_type_symbol
_atom_site_label
_atom_site_fract_x
_atom_site_fract_y
_atom_site_fract_z
Si Si1 0.917010 0.912997 0.649272
Si Si2 0.580928 0.812485 0.945151
Si Si3 0.197124 0.403346 0.664072
Si Si4 0.972709 0.351343 0.822786
Si Si5 0.344803 0.985854 0.538924
O O1 0.840927 0.743977 0.525121
O O2 0.013266 0.831013 0.977279
O O3 0.802351 0.029299 0.562067
O O4 0.000000 0.000000 0.500000
O O5 0.432413 0.821414 0.714636
O O6 0.639074 0.930944 0.745944
O O7 0.661023 0.640305 0.084070
O O8 0.600383 0.892010 0.216955
O O9 0.158349 0.588239 0.463166
O O10 0.091716 0.365979 0.767460
O O11 0.000000 0.500000 0.000000
#
# Coordination Sequence:
#
# PCOD9080916 Si02
#       5
#     2   2   2   2   2
#     4  10  19  30  46  72 104 128 154 194 248 301
#     4   9  16  29  49  68  96 122 163 208 234 280
#     4   9  17  30  48  70  92 125 164 202 239 279
#     4   9  17  30  46  67  94 124 164 200 239 281
#     4   9  17  29  45  72  96 126 159 198 246 279
#
# _framework density 22.273118
#
# number of rings (size 3 to 8) (size 9 to 14) (size 15 to 20)
#    0.000    2.800    2.000    0.000    0.000    0.800 
#    0.000    0.000    0.000    1.200    0.000   12.600 
#    0.000    0.000    0.000    0.000    0.000    0.000 
#
# Total GULP energy -55668.682147 kJ/mol
# GULP energy per Si atom -5566.868215 kJ/mol
# Density = 2.222242 g / cm^3
# Si number density = 22.273118 Si / 1000 Ang^3
#
#
#
# Elastic Constant Matrix: (Units=GPa)
#
#
# Indices 1 2 3 4 5 6 
#
# 1 151.9317 46.0041 43.2081 -38.5569 39.8974 -40.5965
# 2 46.0041 98.4434 40.4256 -43.7791 28.2446 -29.4333
# 3 43.2081 40.4256 83.7016 -32.6979 10.8782 -13.0955
# 4 -38.5569 -43.7791 -32.6979 55.1217 -18.3470 13.9885
# 5 39.8974 28.2446 10.8782 -18.3470 36.7393 -16.5199
# 6 -40.5965 -29.4333 -13.0955 13.9885 -16.5199 39.5670
#
#
#
# Elastic Compliance Matrix: (Units=1/GPa)
#
#
# Indices 1 2 3 4 5 6 
#
# 1 0.012230 0.002093 -0.003726 0.003073 -0.008559 0.008211
# 2 0.002093 0.020469 -0.004582 0.010205 -0.007446 0.009141
# 3 -0.003726 -0.004582 0.017639 0.006197 0.004714 -0.001616
# 4 0.003073 0.010205 0.006197 0.032871 0.004833 0.003192
# 5 -0.008559 -0.007446 0.004714 0.004833 0.045244 0.004420
# 6 0.008211 0.009141 -0.001616 0.003192 0.004420 0.040680
#
#
# Mechanical properties :
#
#
# Convention : Reuss Voigt Hill
#
# Bulk Modulus (GPa) = 26.38032 65.92803 46.15417
# Shear Modulus (GPa) = 25.74672 39.91487 32.83079
#
# Velocity S-wave (km/s) = 3.40362 4.23787 3.84345
# Velocity P-wave (km/s) = 5.22646 7.32190 6.36106
#
# Compressibility (1/GPa) = 0.03790705
#
# Stress axis : x y z
#
# Youngs Moduli (GPa) = 81.76853 48.85335 56.69242
#
# Poissons Ratio (x) = -0.10223 0.21124
# Poissons Ratio (y) = -0.17111 0.25977
# Poissons Ratio (z) = 0.30468 0.22385
#
# Static dielectric constant tensor:
#      x y z
#    x 1.767140 0.047580 0.162390 
#    y 0.047580 1.563460 -0.353640 
#    z 0.162390 -0.353640 1.396070 
# 
# From -- ./inp_files/57761.got.cif
#   From: 2010.05.17/outbox.cif.g08.bks.cpg/sg2_29_cif.got.tgz:57761.got - 2010.06.03 11:33:40.
