data_PCOD9080558
_publ_section_title
;
Structure prediction by ZEFSAII (Michael W. Deem and Ramdas Pophale) SiO2 
 PCOD9080558
Probable space group: P -1
;
_chemical_formula_sum "Si O2"
_cell_formula_units_Z 14
_cell_length_a 9.013698
_cell_length_b 14.123215
_cell_length_c 9.507418
_cell_angle_alpha 54.717350
_cell_angle_beta 76.572935
_cell_angle_gamma 119.721879
_cell_volume 585.024842
_symmetry_space_group_name_H-M "P -1"
_symmetry_group_IT_number 2
_symmetry_cell_setting 'triclinic'
loop_
_space_group_symop_operation_xyz
x,y,z
-x,-y,-z
loop_
_atom_site_type_symbol
_atom_site_label
_atom_site_fract_x
_atom_site_fract_y
_atom_site_fract_z
Si Si1 0.514630 0.000846 0.705926
Si Si2 0.824051 0.817230 0.961081
Si Si3 0.570376 0.406947 0.542800
Si Si4 0.079560 0.810326 0.134945
Si Si5 0.537956 0.437830 0.208601
Si Si6 0.995582 0.158257 0.555604
Si Si7 0.710370 0.308140 0.189228
O O1 0.333899 0.798199 0.845159
O O2 0.785868 0.106057 0.569813
O O3 0.561879 0.142924 0.479928
O O4 0.362228 0.943908 0.926834
O O5 0.600046 0.744610 0.164071
O O6 0.731848 0.655061 0.024246
O O7 0.007255 0.868977 0.990779
O O8 0.945455 0.991533 0.695706
O O9 0.500000 0.500000 0.500000
O O10 0.502096 0.348621 0.445230
O O11 0.868613 0.582964 0.348593
O O12 0.033297 0.825708 0.288089
O O13 0.606804 0.375384 0.144374
O O14 0.285422 0.348725 0.294219
O O15 0.000000 0.500000 0.000000
#
# Coordination Sequence:
#
# PCOD9080558 Si02
#       7
#     2   2   2   2   2   2   2
#     4  11  27  42  61  95 123 162 214 248 311 375
#     4  10  19  34  63  95 125 159 206 236 298 382
#     4   8  15  32  57  88 121 156 203 230 282 372
#     4  10  18  40  62  91 135 164 193 248 306 374
#     4  10  20  39  65  90 119 163 210 251 301 356
#     4  12  22  37  63 100 133 154 189 264 321 362
#     4  11  25  49  68  79 117 172 219 259 296 361
#
# _framework density 23.930607999999999
#
# number of rings (size 3 to 8) (size 9 to 14) (size 15 to 20)
#    0.000    2.000    4.286    3.429    2.000    2.857 
#    0.000    2.143    0.000    0.000    0.000    0.000 
#    0.000    0.000    0.000    0.000    0.000    0.000 
#
# Total GULP energy -78242.282809 kJ/mol
# GULP energy per Si atom -5588.734486 kJ/mol
# Density = 2.387614 g / cm^3
# Si number density = 23.930608 Si / 1000 Ang^3
#
#
#
# Elastic Constant Matrix: (Units=GPa)
#
#
# Indices 1 2 3 4 5 6 
#
# 1 85.0303 37.4397 22.9689 -11.2197 -4.9164 -14.8620
# 2 37.4397 84.3946 26.1309 -7.1625 5.4125 -13.1821
# 3 22.9689 26.1309 61.0097 -9.6724 -8.4394 -8.1411
# 4 -11.2197 -7.1625 -9.6724 25.1846 -1.1581 -0.9180
# 5 -4.9164 5.4125 -8.4394 -1.1581 36.2022 2.0994
# 6 -14.8620 -13.1821 -8.1411 -0.9180 2.0994 20.0755
#
#
#
# Elastic Compliance Matrix: (Units=1/GPa)
#
#
# Indices 1 2 3 4 5 6 
#
# 1 0.016938 -0.005338 -0.001729 0.005778 0.002396 0.008346
# 2 -0.005338 0.017036 -0.005111 0.000491 -0.004777 0.005683
# 3 -0.001729 -0.005111 0.021525 0.006436 0.005532 0.003808
# 4 0.005778 0.000491 0.006436 0.045363 0.003143 0.008955
# 5 0.002396 -0.004777 0.005532 0.003143 0.030176 -0.002132
# 6 0.008346 0.005683 0.003808 0.008955 -0.002132 0.061899
#
#
# Mechanical properties :
#
#
# Convention : Reuss Voigt Hill
#
# Bulk Modulus (GPa) = 32.11215 44.83483 38.47349
# Shear Modulus (GPa) = 21.96113 25.88548 23.92330
#
# Velocity S-wave (km/s) = 3.03264 3.29247 3.16523
# Velocity P-wave (km/s) = 5.07056 5.76453 5.42865
#
# Compressibility (1/GPa) = 0.03114086
#
# Stress axis : x y z
#
# Youngs Moduli (GPa) = 59.03933 58.70017 46.45796
#
# Poissons Ratio (x) = 0.31336 0.08033
# Poissons Ratio (y) = 0.31517 0.23746
# Poissons Ratio (z) = 0.10209 0.30004
#
# Static dielectric constant tensor:
#      x y z
#    x 1.893400 0.032470 0.001940 
#    y 0.032470 1.896370 0.021020 
#    z 0.001940 0.021020 2.067450 
# 
# From -- ./inp_files/397028.got.cif
#   From: 2010.05.17/outbox.cif.g08.bks.cpg/sg2_199_cif.got.tgz:397028.got - 2010.06.03 11:33:40.
