data_PCOD9080157
_publ_section_title
;
Structure prediction by ZEFSAII (Michael W. Deem and Ramdas Pophale) SiO2 
 PCOD9080157
Probable space group: P -1
;
_chemical_formula_sum "Si O2"
_cell_formula_units_Z 13
_cell_length_a 6.994134
_cell_length_b 10.190441
_cell_length_c 14.759816
_cell_angle_alpha 138.136041
_cell_angle_beta 116.542321
_cell_angle_gamma 91.029978
_cell_volume 508.233122
_symmetry_space_group_name_H-M "P -1"
_symmetry_group_IT_number 2
_symmetry_cell_setting 'triclinic'
loop_
_space_group_symop_operation_xyz
x,y,z
-x,-y,-z
loop_
_atom_site_type_symbol
_atom_site_label
_atom_site_fract_x
_atom_site_fract_y
_atom_site_fract_z
Si Si1 0.183861 0.040225 0.178907
Si Si2 0.055502 0.819684 0.332353
Si Si3 0.101682 0.934607 0.707577
Si Si4 0.640153 0.157040 0.430028
Si Si5 0.509539 0.537864 0.881018
Si Si6 0.332013 0.397604 0.250081
Si Si7 0.000000 0.500000 0.000000
O O1 0.336534 0.965589 0.235482
O O2 0.377759 0.254915 0.261782
O O3 0.054801 0.134035 0.266203
O O4 0.960705 0.808934 0.956445
O O5 0.055889 0.007052 0.363856
O O6 0.769762 0.655161 0.233712
O O7 0.093665 0.648234 0.192142
O O8 0.270992 0.933641 0.516144
O O9 0.174833 0.784936 0.587465
O O10 0.379566 0.191270 0.922343
O O11 0.656357 0.386488 0.588590
O O12 0.492628 0.529142 0.764177
O O13 0.744617 0.519706 0.951919
#
# Coordination Sequence:
#
# PCOD9080157 Si02
#       7
#     2   2   2   2   2   2   1
#     4  10  25  48  68  96 137 173 231 278 318 411
#     4  11  24  40  68 102 137 172 224 274 335 401
#     4  10  24  41  64 102 136 170 223 278 328 393
#     4  12  25  42  70 101 132 182 217 277 344 385
#     4  10  22  42  68  98 136 174 227 272 325 404
#     4  10  23  49  70  95 133 182 224 274 335 385
#     4  10  18  38  64  96 122 184 210 258 336 380
#
# _framework density 25.578814999999999
#
# number of rings (size 3 to 8) (size 9 to 14) (size 15 to 20)
#    0.000    1.538    1.538    2.769    4.308    4.923 
#    2.769    2.308    0.000    0.000    0.000    0.000 
#    0.000    0.000    0.000    0.000    0.000    0.000 
#
# Total GULP energy -72660.019830 kJ/mol
# GULP energy per Si atom -5589.232295 kJ/mol
# Density = 2.552060 g / cm^3
# Si number density = 25.578815 Si / 1000 Ang^3
#
#
#
# Elastic Constant Matrix: (Units=GPa)
#
#
# Indices 1 2 3 4 5 6 
#
# 1 107.1861 14.2572 50.8328 -8.5156 -19.4030 4.3300
# 2 14.2572 75.1999 23.3606 -15.0273 1.1859 13.4839
# 3 50.8328 23.3606 132.0678 -16.7487 -14.4491 -0.1273
# 4 -8.5156 -15.0273 -16.7487 35.0778 -3.9852 0.1895
# 5 -19.4030 1.1859 -14.4491 -3.9852 60.7237 -3.9323
# 6 4.3300 13.4839 -0.1273 0.1895 -3.9323 28.0639
#
#
#
# Elastic Compliance Matrix: (Units=1/GPa)
#
#
# Indices 1 2 3 4 5 6 
#
# 1 0.011987 -0.000643 -0.004057 0.001030 0.002870 -0.001164
# 2 -0.000643 0.016736 -0.002098 0.005923 -0.001171 -0.008155
# 3 -0.004057 -0.002098 0.010056 0.003074 0.001460 0.001863
# 4 0.001030 0.005923 0.003074 0.033112 0.002936 -0.002803
# 5 0.002870 -0.001171 0.001460 0.002936 0.018119 0.002645
# 6 -0.001164 -0.008155 0.001863 -0.002803 0.002645 0.040129
#
#
# Mechanical properties :
#
#
# Convention : Reuss Voigt Hill
#
# Bulk Modulus (GPa) = 39.70801 54.59500 47.15151
# Shear Modulus (GPa) = 32.86698 39.83996 36.35347
#
# Velocity S-wave (km/s) = 3.58848 3.95085 3.77402
# Velocity P-wave (km/s) = 5.72076 6.49634 6.12085
#
# Compressibility (1/GPa) = 0.02518383
#
# Stress axis : x y z
#
# Youngs Moduli (GPa) = 83.42146 59.75201 99.44700
#
# Poissons Ratio (x) = 0.03844 0.40342
# Poissons Ratio (y) = 0.05366 0.20859
# Poissons Ratio (z) = 0.33841 0.12533
#
# Static dielectric constant tensor:
#      x y z
#    x 1.566630 -0.423900 -0.293390 
#    y -0.423900 1.539450 -0.339830 
#    z -0.293390 -0.339830 1.784180 
# 
# From -- ./inp_files/75754.got.cif
#   From: 2010.05.17/outbox.cif.g08.bks.cpg/sg2_38_cif.got.tgz:75754.got - 2010.06.03 11:33:40.
