data_PCOD9080797
_publ_section_title
;
Structure prediction by ZEFSAII (Michael W. Deem and Ramdas Pophale) SiO2 
 PCOD9080797
Probable space group: P -1
;
_chemical_formula_sum "Si O2"
_cell_formula_units_Z 16
_cell_length_a 7.480696
_cell_length_b 11.550469
_cell_length_c 9.490881
_cell_angle_alpha 72.546180
_cell_angle_beta 111.052805
_cell_angle_gamma 116.125133
_cell_volume 677.230415
_symmetry_space_group_name_H-M "P -1"
_symmetry_group_IT_number 2
_symmetry_cell_setting 'triclinic'
loop_
_space_group_symop_operation_xyz
x,y,z
-x,-y,-z
loop_
_atom_site_type_symbol
_atom_site_label
_atom_site_fract_x
_atom_site_fract_y
_atom_site_fract_z
Si Si1 0.268806 0.952139 0.886824
Si Si2 0.752105 0.050470 0.581992
Si Si3 0.336404 0.218228 0.372472
Si Si4 0.023295 0.476917 0.683104
Si Si5 0.879198 0.197652 0.848736
Si Si6 0.383533 0.499110 0.322015
Si Si7 0.284481 0.763824 0.708266
Si Si8 0.553135 0.772959 0.270429
O O1 0.269756 0.847596 0.806933
O O2 0.273023 0.091965 0.780584
O O3 0.090637 0.876191 0.976515
O O4 0.500000 0.000000 0.000000
O O5 0.810634 0.095997 0.739301
O O6 0.833571 0.181669 0.462712
O O7 0.500000 0.000000 0.500000
O O8 0.823694 0.931053 0.610576
O O9 0.311868 0.355117 0.287981
O O10 0.487075 0.207523 0.295680
O O11 0.430299 0.234682 0.551821
O O12 0.032053 0.338010 0.782353
O O13 0.820069 0.480183 0.697784
O O14 0.000000 0.500000 0.500000
O O15 0.195136 0.607643 0.744730
O O16 0.669280 0.219909 0.820124
O O17 0.500000 0.500000 0.500000
O O18 0.534970 0.635193 0.245699
#
# Coordination Sequence:
#
# PCOD9080797 Si02
#       8
#     2   2   2   2   2   2   2   2
#     4  10  19  30  51  81 103 135 179 219 255 305
#     4  10  15  28  52  74 102 132 169 221 251 295
#     4  10  16  30  52  79 103 131 174 219 257 305
#     4  11  20  34  54  77 110 138 170 220 265 310
#     4  10  18  30  48  76 105 135 172 214 262 304
#     4   9  19  30  50  78 107 136 170 215 265 310
#     4  11  19  31  56  79 108 135 173 221 265 297
#     4   9  14  28  47  70 101 131 168 215 251 298
#
# _framework density 23.625636
#
# number of rings (size 3 to 8) (size 9 to 14) (size 15 to 20)
#    0.000    2.000    5.000    3.750    0.000    0.500 
#    0.000    0.625    0.000   12.000    0.000   16.625 
#    0.000    0.000    0.000    0.000    0.000    0.000 
#
# Total GULP energy -89091.555844 kJ/mol
# GULP energy per Si atom -5568.222240 kJ/mol
# Density = 2.357186 g / cm^3
# Si number density = 23.625636 Si / 1000 Ang^3
#
#
#
# Elastic Constant Matrix: (Units=GPa)
#
#
# Indices 1 2 3 4 5 6 
#
# 1 35.0528 18.0380 0.6977 -3.8222 -9.3836 -2.0553
# 2 18.0380 223.4265 46.5918 -31.3861 -17.5176 -21.8217
# 3 0.6977 46.5918 86.2919 -9.1509 -25.3695 -7.4669
# 4 -3.8222 -31.3861 -9.1509 24.6501 4.3404 -6.1935
# 5 -9.3836 -17.5176 -25.3695 4.3404 16.2327 1.5690
# 6 -2.0553 -21.8217 -7.4669 -6.1935 1.5690 34.4897
#
#
#
# Elastic Compliance Matrix: (Units=1/GPa)
#
#
# Indices 1 2 3 4 5 6 
#
# 1 0.040963 -0.002448 0.013589 0.001498 0.041660 0.002208
# 2 -0.002448 0.006920 -0.002555 0.008973 -0.000856 0.005329
# 3 0.013589 -0.002555 0.026978 0.001469 0.046560 0.003179
# 4 0.001498 0.008973 0.001469 0.057687 -0.004188 0.016634
# 5 0.041660 -0.000856 0.046560 -0.004188 0.158256 0.004070
# 6 0.002208 0.005329 0.003179 0.016634 0.004070 0.035988
#
#
# Mechanical properties :
#
#
# Convention : Reuss Voigt Hill
#
# Bulk Modulus (GPa) = 10.86596 52.82512 31.84554
# Shear Modulus (GPa) = 14.69296 33.70408 24.19852
#
# Velocity S-wave (km/s) = 2.49651 3.78112 3.20386
# Velocity P-wave (km/s) = 3.59434 6.43974 5.21486
#
# Compressibility (1/GPa) = 0.09203050
#
# Stress axis : x y z
#
# Youngs Moduli (GPa) = 24.41227 144.50443 37.06751
#
# Poissons Ratio (x) = 0.35380 -0.50370
# Poissons Ratio (y) = 0.05977 0.09473
# Poissons Ratio (z) = -0.33173 0.36928
#
# Static dielectric constant tensor:
#      x y z
#    x 1.908690 0.001640 0.033120 
#    y 0.001640 2.051340 -0.120510 
#    z 0.033120 -0.120510 1.979890 
# 
# From -- ./inp_files/177880.got.cif
#   From: 2010.05.17/outbox.cif.g08.bks.cpg/sg2_89_cif.got.tgz:177880.got - 2010.06.03 11:33:40.
