data_PCOD9080613
_publ_section_title
;
Structure prediction by ZEFSAII (Michael W. Deem and Ramdas Pophale) SiO2 
 PCOD9080613
Probable space group: P -1
;
_chemical_formula_sum "Si O2"
_cell_formula_units_Z 16
_cell_length_a 11.107864
_cell_length_b 14.252923
_cell_length_c 9.787237
_cell_angle_alpha 153.055454
_cell_angle_beta 104.522235
_cell_angle_gamma 70.892579
_cell_volume 660.387742
_symmetry_space_group_name_H-M "P -1"
_symmetry_group_IT_number 2
_symmetry_cell_setting 'triclinic'
loop_
_space_group_symop_operation_xyz
x,y,z
-x,-y,-z
loop_
_atom_site_type_symbol
_atom_site_label
_atom_site_fract_x
_atom_site_fract_y
_atom_site_fract_z
Si Si1 0.108605 0.626148 0.541764
Si Si2 0.051104 0.344252 0.937363
Si Si3 0.708973 0.078480 0.331158
Si Si4 0.494716 0.978749 0.631230
Si Si5 0.566135 0.709781 0.526498
Si Si6 0.834042 0.157976 0.728551
Si Si7 0.677850 0.265249 0.102639
Si Si8 0.840451 0.770596 0.758937
O O1 0.129010 0.456298 0.450307
O O2 0.961898 0.763261 0.686689
O O3 0.217732 0.749339 0.767647
O O4 0.177310 0.050637 0.896015
O O5 0.937840 0.300497 0.945985
O O6 0.110396 0.099078 0.591443
O O7 0.129397 0.480898 0.225000
O O8 0.000000 0.500000 0.000000
O O9 0.645945 0.937912 0.236884
O O10 0.581323 0.171449 0.326476
O O11 0.762421 0.217184 0.638699
O O12 0.544168 0.737420 0.390742
O O13 0.500000 0.000000 0.500000
O O14 0.582979 0.114963 0.900018
O O15 0.697953 0.785029 0.681235
O O16 0.593041 0.499022 0.349889
O O17 0.749109 0.204982 0.899476
#
# Coordination Sequence:
#
# PCOD9080613 Si02
#       8
#     2   2   2   2   2   2   2   2
#     4  10  22  40  69  97 133 173 220 286 337 391
#     4  11  25  47  64 102 136 175 223 276 337 413
#     4  10  21  40  65  96 134 178 219 277 322 395
#     4  10  22  41  62  99 139 176 217 279 325 392
#     4   9  22  38  65  94 131 180 220 268 334 390
#     4  11  23  41  71  94 137 180 217 274 347 383
#     4  11  22  44  68 102 134 179 226 271 335 401
#     4  10  18  40  66  91 132 172 222 273 332 389
#
# _framework density 24.228190000000001
#
# number of rings (size 3 to 8) (size 9 to 14) (size 15 to 20)
#    0.750    1.000    2.500    2.625    1.750    4.000 
#    4.500    3.750    0.000    0.000    0.000    0.000 
#    0.000    0.000    0.000    0.000    0.000    0.000 
#
# Total GULP energy -89164.243182 kJ/mol
# GULP energy per Si atom -5572.765199 kJ/mol
# Density = 2.417305 g / cm^3
# Si number density = 24.228190 Si / 1000 Ang^3
#
#
#
# Elastic Constant Matrix: (Units=GPa)
#
#
# Indices 1 2 3 4 5 6 
#
# 1 52.9398 15.4733 19.8069 3.4746 -14.5646 -12.5794
# 2 15.4733 101.9249 37.2407 3.2698 -4.9016 -16.4260
# 3 19.8069 37.2407 62.5596 -10.1541 3.4892 -14.8675
# 4 3.4746 3.2698 -10.1541 38.3496 -0.7969 4.5660
# 5 -14.5646 -4.9016 3.4892 -0.7969 31.9937 -2.6007
# 6 -12.5794 -16.4260 -14.8675 4.5660 -2.6007 33.9373
#
#
#
# Elastic Compliance Matrix: (Units=1/GPa)
#
#
# Indices 1 2 3 4 5 6 
#
# 1 0.028742 0.001560 -0.009679 -0.006076 0.014970 0.009133
# 2 0.001560 0.013692 -0.008485 -0.003988 0.003986 0.004330
# 3 -0.009679 -0.008485 0.026392 0.008163 -0.008207 0.002140
# 4 -0.006076 -0.003988 0.008163 0.029629 -0.003927 -0.004894
# 5 0.014970 0.003986 -0.008207 -0.003927 0.040087 0.007483
# 6 0.009133 0.004330 0.002140 -0.004894 0.007483 0.037117
#
#
# Mechanical properties :
#
#
# Convention : Reuss Voigt Hill
#
# Bulk Modulus (GPa) = 28.07646 40.27400 34.17523
# Shear Modulus (GPa) = 22.65106 30.51635 26.58370
#
# Velocity S-wave (km/s) = 3.06094 3.55285 3.31603
# Velocity P-wave (km/s) = 4.90978 5.78698 5.36634
#
# Compressibility (1/GPa) = 0.03561703
#
# Stress axis : x y z
#
# Youngs Moduli (GPa) = 34.79173 73.03539 37.89086
#
# Poissons Ratio (x) = -0.11393 0.36676
# Poissons Ratio (y) = -0.05427 0.32151
# Poissons Ratio (z) = 0.33676 0.61971
#
# Static dielectric constant tensor:
#      x y z
#    x 2.048840 -0.114450 0.031540 
#    y -0.114450 2.045510 -0.018920 
#    z 0.031540 -0.018920 1.972280 
# 
# From -- ./inp_files/523373.got.cif
#   From: 2010.05.17/outbox.cif.g08.bks.cpg/sg2_262_cif.got.tgz:523373.got - 2010.06.03 11:33:40.
