data_PCOD9080688
_publ_section_title
;
Structure prediction by ZEFSAII (Michael W. Deem and Ramdas Pophale) SiO2 
 PCOD9080688
Probable space group: P -1
;
_chemical_formula_sum "Si O2"
_cell_formula_units_Z 16
_cell_length_a 11.828862
_cell_length_b 14.877019
_cell_length_c 7.429988
_cell_angle_alpha 131.560545
_cell_angle_beta 61.884792
_cell_angle_gamma 128.106161
_cell_volume 765.579070
_symmetry_space_group_name_H-M "P -1"
_symmetry_group_IT_number 2
_symmetry_cell_setting 'triclinic'
loop_
_space_group_symop_operation_xyz
x,y,z
-x,-y,-z
loop_
_atom_site_type_symbol
_atom_site_label
_atom_site_fract_x
_atom_site_fract_y
_atom_site_fract_z
Si Si1 0.735358 0.056189 0.859815
Si Si2 0.540125 0.746903 0.509586
Si Si3 0.045153 0.970734 0.120461
Si Si4 0.791526 0.694896 0.100093
Si Si5 0.900895 0.386748 0.780324
Si Si6 0.316156 0.698565 0.861457
Si Si7 0.015844 0.212148 0.611242
Si Si8 0.768634 0.436653 0.600633
O O1 0.628924 0.907834 0.673567
O O2 0.870309 0.122801 0.711391
O O3 0.814416 0.052083 0.981822
O O4 0.667486 0.158538 0.036859
O O5 0.647264 0.694474 0.280096
O O6 0.466034 0.696459 0.696757
O O7 0.395431 0.684061 0.413474
O O8 0.905436 0.841058 0.131284
O O9 0.079316 0.109926 0.382474
O O10 0.000000 0.000000 0.000000
O O11 0.872472 0.676125 0.189577
O O12 0.766876 0.577973 0.822866
O O13 0.967840 0.281288 0.583119
O O14 0.872078 0.423407 0.652749
O O15 0.747272 0.321673 0.919167
O O16 0.000000 0.500000 0.000000
O O17 0.203017 0.587493 0.659521
#
# Coordination Sequence:
#
# PCOD9080688 Si02
#       8
#     2   2   2   2   2   2   2   2
#     4  10  18  41  62  83 123 162 200 257 303 350
#     4  10  20  40  64  82 126 164 204 244 305 377
#     4  11  23  35  62  97 117 157 214 254 300 354
#     4  11  19  43  62  86 124 165 198 250 309 359
#     4  11  22  42  63  88 125 156 207 259 303 356
#     4   9  24  38  60  95 118 164 206 244 309 366
#     4  10  20  38  64  86 117 159 209 251 305 349
#     4  10  24  39  63  94 120 167 201 243 313 371
#
# _framework density 20.899213
#
# number of rings (size 3 to 8) (size 9 to 14) (size 15 to 20)
#    0.750    1.000    3.750    1.500    1.750    1.500 
#    2.250    3.125    0.000    0.000    0.000    0.000 
#    0.000    0.000    0.000    0.000    0.000    0.000 
#
# Total GULP energy -89130.169481 kJ/mol
# GULP energy per Si atom -5570.635593 kJ/mol
# Density = 2.085164 g / cm^3
# Si number density = 20.899213 Si / 1000 Ang^3
#
#
#
# Elastic Constant Matrix: (Units=GPa)
#
#
# Indices 1 2 3 4 5 6 
#
# 1 51.1358 25.6693 2.4336 -0.5916 1.5278 8.9595
# 2 25.6693 37.1483 7.4802 1.5682 -3.1638 1.9858
# 3 2.4336 7.4802 71.0008 13.7839 2.7411 -9.1742
# 4 -0.5916 1.5682 13.7839 30.2732 3.9712 7.6985
# 5 1.5278 -3.1638 2.7411 3.9712 27.0198 7.1656
# 6 8.9595 1.9858 -9.1742 7.6985 7.1656 24.4514
#
#
#
# Elastic Compliance Matrix: (Units=1/GPa)
#
#
# Indices 1 2 3 4 5 6 
#
# 1 0.033077 -0.022348 -0.001377 0.005757 -0.001998 -0.012048
# 2 -0.022348 0.043550 -0.003245 -0.002667 0.006452 0.002383
# 3 -0.001377 -0.003245 0.018277 -0.010767 -0.003790 0.012126
# 4 0.005757 -0.002667 -0.010767 0.043197 -0.000774 -0.019306
# 5 -0.001998 0.006452 -0.003790 -0.000774 0.041889 -0.013246
# 6 -0.012048 0.002383 0.012126 -0.019306 -0.013246 0.059629
#
#
# Mechanical properties :
#
#
# Convention : Reuss Voigt Hill
#
# Bulk Modulus (GPa) = 24.41197 25.60566 25.00882
# Shear Modulus (GPa) = 16.27538 24.59567 20.43552
#
# Velocity S-wave (km/s) = 2.79365 3.43428 3.13039
# Velocity P-wave (km/s) = 4.70235 5.29190 5.00581
#
# Compressibility (1/GPa) = 0.04096351
#
# Stress axis : x y z
#
# Youngs Moduli (GPa) = 30.23263 22.96233 54.71402
#
# Poissons Ratio (x) = 0.51316 0.07532
# Poissons Ratio (y) = 0.67563 0.17757
# Poissons Ratio (z) = 0.04162 0.07452
#
# Static dielectric constant tensor:
#      x y z
#    x 1.788550 -0.009440 -0.016090 
#    y -0.009440 1.777170 0.000180 
#    z -0.016090 0.000180 1.807260 
# 
# From -- ./inp_files/271067.got.cif
#   From: 2010.05.17/outbox.cif.g08.bks.cpg/sg2_136_cif.got.tgz:271067.got - 2010.06.03 11:33:40.
