data_PCOD9080276
_publ_section_title
;
Structure prediction by ZEFSAII (Michael W. Deem and Ramdas Pophale) SiO2 
 PCOD9080276
Probable space group: P -1
;
_chemical_formula_sum "Si O2"
_cell_formula_units_Z 16
_cell_length_a 9.994516
_cell_length_b 14.262959
_cell_length_c 11.929499
_cell_angle_alpha 123.504255
_cell_angle_beta 87.768021
_cell_angle_gamma 137.259654
_cell_volume 733.337836
_symmetry_space_group_name_H-M "P -1"
_symmetry_group_IT_number 2
_symmetry_cell_setting 'triclinic'
loop_
_space_group_symop_operation_xyz
x,y,z
-x,-y,-z
loop_
_atom_site_type_symbol
_atom_site_label
_atom_site_fract_x
_atom_site_fract_y
_atom_site_fract_z
Si Si1 0.355104 0.118410 0.164716
Si Si2 0.809844 0.207027 0.147975
Si Si3 0.620958 0.130300 0.321921
Si Si4 0.518745 0.458763 0.656386
Si Si5 0.877652 0.820918 0.696815
Si Si6 0.693749 0.341433 0.658819
Si Si7 0.540515 0.701350 0.943564
Si Si8 0.297776 0.683182 0.103078
O O1 0.498533 0.148123 0.271705
O O2 0.222021 0.128149 0.230015
O O3 0.521005 0.282964 0.163338
O O4 0.148092 0.887594 0.961335
O O5 0.850203 0.259397 0.313322
O O6 0.998173 0.416778 0.206673
O O7 0.500000 0.000000 0.000000
O O8 0.654117 0.203669 0.492339
O O9 0.447990 0.894772 0.180875
O O10 0.720215 0.626542 0.658146
O O11 0.236735 0.277740 0.489033
O O12 0.561718 0.361895 0.631249
O O13 0.557503 0.581881 0.832284
O O14 0.184198 0.050754 0.857599
O O15 0.609700 0.265042 0.738286
O O16 0.340794 0.600844 0.975959
O O17 0.000000 0.500000 0.000000
#
# Coordination Sequence:
#
# PCOD9080276 Si02
#       8
#     2   2   2   2   2   2   2   2
#     4  10  18  38  68  97 132 164 221 279 336 387
#     4  10  20  36  65  98 126 172 224 267 331 391
#     4  11  23  42  67  96 132 178 223 279 333 398
#     4  10  22  41  69 104 131 170 223 284 342 388
#     4  10  20  40  68 105 134 165 223 289 335 393
#     4  12  24  44  65  98 138 174 221 284 336 398
#     4  11  23  42  68  99 135 178 221 277 337 398
#     4  12  28  47  64  93 140 185 223 264 341 413
#
# _framework density 21.818045999999999
#
# number of rings (size 3 to 8) (size 9 to 14) (size 15 to 20)
#    0.000    1.250    2.500    5.250    1.750    0.500 
#    4.500    0.625    0.000    0.000    0.000    0.000 
#    0.000    0.000    0.000    0.000    0.000    0.000 
#
# Total GULP energy -89300.430562 kJ/mol
# GULP energy per Si atom -5581.276910 kJ/mol
# Density = 2.176839 g / cm^3
# Si number density = 21.818046 Si / 1000 Ang^3
#
#
#
# Elastic Constant Matrix: (Units=GPa)
#
#
# Indices 1 2 3 4 5 6 
#
# 1 77.0706 27.3230 27.6582 -4.9149 -11.1462 2.1241
# 2 27.3230 72.7692 13.4649 -17.9644 -4.0650 5.2910
# 3 27.6582 13.4649 84.6167 -16.4641 -9.1692 5.7661
# 4 -4.9149 -17.9644 -16.4641 29.6099 3.7054 -5.3869
# 5 -11.1462 -4.0650 -9.1692 3.7054 36.7410 -4.3340
# 6 2.1241 5.2910 5.7661 -5.3869 -4.3340 34.1615
#
#
#
# Elastic Compliance Matrix: (Units=1/GPa)
#
#
# Indices 1 2 3 4 5 6 
#
# 1 0.017351 -0.006448 -0.005100 -0.004233 0.003774 0.000592
# 2 -0.006448 0.018642 0.001235 0.010829 -0.000806 -0.001090
# 3 -0.005100 0.001235 0.015050 0.007913 0.001431 -0.000985
# 4 -0.004233 0.010829 0.007913 0.045054 -0.002174 0.004079
# 5 0.003774 -0.000806 0.001431 -0.002174 0.029205 0.003011
# 6 0.000592 -0.001090 -0.000985 0.004079 0.003011 0.030596
#
#
# Mechanical properties :
#
#
# Convention : Reuss Voigt Hill
#
# Bulk Modulus (GPa) = 32.87620 41.26097 37.06858
# Shear Modulus (GPa) = 26.78599 31.16984 28.97791
#
# Velocity S-wave (km/s) = 3.50765 3.78382 3.64835
# Velocity P-wave (km/s) = 5.61301 6.16783 5.89695
#
# Compressibility (1/GPa) = 0.03041714
#
# Stress axis : x y z
#
# Youngs Moduli (GPa) = 57.63333 53.64140 66.44333
#
# Poissons Ratio (x) = 0.34589 0.33888
# Poissons Ratio (y) = 0.37164 -0.08207
# Poissons Ratio (z) = 0.29394 -0.06626
#
# Static dielectric constant tensor:
#      x y z
#    x 1.862370 -0.007410 0.039000 
#    y -0.007410 1.775610 -0.018190 
#    z 0.039000 -0.018190 1.887600 
# 
# From -- ./inp_files/434228.got.cif
#   From: 2010.05.17/outbox.cif.g08.bks.cpg/sg2_218_cif.got.tgz:434228.got - 2010.06.03 11:33:40.
