data_PCOD9080691
_publ_section_title
;
Structure prediction by ZEFSAII (Michael W. Deem and Ramdas Pophale) SiO2 
 PCOD9080691
Probable space group: P -1
;
_chemical_formula_sum "Si O2"
_cell_formula_units_Z 16
_cell_length_a 9.157491
_cell_length_b 20.189471
_cell_length_c 21.833367
_cell_angle_alpha 19.045256
_cell_angle_beta 37.323383
_cell_angle_gamma 49.269123
_cell_volume 691.031621
_symmetry_space_group_name_H-M "P -1"
_symmetry_group_IT_number 2
_symmetry_cell_setting 'triclinic'
loop_
_space_group_symop_operation_xyz
x,y,z
-x,-y,-z
loop_
_atom_site_type_symbol
_atom_site_label
_atom_site_fract_x
_atom_site_fract_y
_atom_site_fract_z
Si Si1 0.382805 0.589131 0.155401
Si Si2 0.178606 0.460232 0.586330
Si Si3 0.795134 0.028513 0.392827
Si Si4 0.045065 0.969244 0.786197
Si Si5 0.563951 0.278307 0.838875
Si Si6 0.802219 0.448065 0.168783
Si Si7 0.264562 0.089502 0.942469
Si Si8 0.577746 0.937590 0.677163
O O1 0.446039 0.712867 0.092666
O O2 0.509101 0.419121 0.270014
O O3 0.061136 0.510207 0.327199
O O4 0.535283 0.748033 0.907166
O O5 0.208190 0.494776 0.473002
O O6 0.139352 0.208623 0.836020
O O7 0.461573 0.680204 0.324655
O O8 0.753851 0.948771 0.547666
O O9 0.858845 0.903300 0.424324
O O10 0.500000 0.000000 0.500000
O O11 0.021670 0.306219 0.069981
O O12 0.731594 0.769140 0.047066
O O13 0.958881 0.046970 0.809869
O O14 0.275374 0.897194 0.790820
O O15 0.627256 0.073487 0.978742
O O16 0.728784 0.191433 0.438888
O O17 0.000000 0.500000 0.000000
#
# Coordination Sequence:
#
# PCOD9080691 Si02
#       8
#     2   2   2   2   2   2   2   2
#     4  12  24  41  64 100 127 169 210 263 322 375
#     4  10  22  40  62  92 130 172 212 265 311 368
#     4   9  19  40  69  90 122 163 204 258 321 375
#     4  10  18  41  63  92 124 169 205 260 318 367
#     4  11  24  39  63  92 132 168 218 261 309 378
#     4  10  23  42  65  95 125 164 207 264 321 375
#     4  10  22  40  64  93 129 170 220 259 306 379
#     4  10  23  40  68  92 129 164 209 263 317 387
#
# _framework density 23.153787000000001
#
# number of rings (size 3 to 8) (size 9 to 14) (size 15 to 20)
#    0.000    1.750    2.500    1.875    3.500    3.500 
#    2.250    0.000    0.000    7.500    0.000    0.000 
#    0.000    0.000    0.000    0.000    0.000    0.000 
#
# Total GULP energy -89133.501520 kJ/mol
# GULP energy per Si atom -5570.843845 kJ/mol
# Density = 2.310109 g / cm^3
# Si number density = 23.153787 Si / 1000 Ang^3
#
#
#
# Elastic Constant Matrix: (Units=GPa)
#
#
# Indices 1 2 3 4 5 6 
#
# 1 65.1537 19.2255 35.0720 2.8368 8.5031 6.3558
# 2 19.2255 107.7987 15.3975 21.6644 1.8031 14.2771
# 3 35.0720 15.3975 88.6749 11.5357 9.9510 4.6450
# 4 2.8368 21.6644 11.5357 35.1719 -4.4435 2.9407
# 5 8.5031 1.8031 9.9510 -4.4435 34.3437 17.3781
# 6 6.3558 14.2771 4.6450 2.9407 17.3781 39.5481
#
#
#
# Elastic Compliance Matrix: (Units=1/GPa)
#
#
# Indices 1 2 3 4 5 6 
#
# 1 0.020579 -0.002954 -0.007681 0.002465 -0.002090 -0.000604
# 2 -0.002954 0.011566 0.000064 -0.006447 0.001164 -0.003740
# 3 -0.007681 0.000064 0.015331 -0.005079 -0.003978 0.001537
# 4 0.002465 -0.006447 -0.005079 0.035089 0.007434 -0.003348
# 5 -0.002090 0.001164 -0.003978 0.007434 0.040859 -0.018124
# 6 -0.000604 -0.003740 0.001537 -0.003348 -0.018124 0.034765
#
#
# Mechanical properties :
#
#
# Convention : Reuss Voigt Hill
#
# Bulk Modulus (GPa) = 37.97352 44.55747 41.26549
# Shear Modulus (GPa) = 26.58054 34.60822 30.59438
#
# Velocity S-wave (km/s) = 3.39189 3.87034 3.63899
# Velocity P-wave (km/s) = 5.63703 6.26567 5.95964
#
# Compressibility (1/GPa) = 0.02633414
#
# Stress axis : x y z
#
# Youngs Moduli (GPa) = 48.59385 86.46243 65.22899
#
# Poissons Ratio (x) = 0.25537 0.50101
# Poissons Ratio (y) = 0.14352 -0.00417
# Poissons Ratio (z) = 0.37324 -0.00552
#
# Static dielectric constant tensor:
#      x y z
#    x 1.999420 0.052420 -0.055750 
#    y 0.052420 1.899800 -0.036460 
#    z -0.055750 -0.036460 1.963650 
# 
# From -- ./inp_files/591589.got.cif
#   From: 2010.05.17/outbox.cif.g08.bks.cpg/sg2_296_cif.got.tgz:591589.got - 2010.06.03 11:33:40.
