data_PCOD9080626
_publ_section_title
;
Structure prediction by ZEFSAII (Michael W. Deem and Ramdas Pophale) SiO2 
 PCOD9080626
Probable space group: P -1
;
_chemical_formula_sum "Si O2"
_cell_formula_units_Z 16
_cell_length_a 17.428234
_cell_length_b 23.446206
_cell_length_c 15.252476
_cell_angle_alpha 161.442188
_cell_angle_beta 150.763002
_cell_angle_gamma 21.740123
_cell_volume 733.033324
_symmetry_space_group_name_H-M "P -1"
_symmetry_group_IT_number 2
_symmetry_cell_setting 'triclinic'
loop_
_space_group_symop_operation_xyz
x,y,z
-x,-y,-z
loop_
_atom_site_type_symbol
_atom_site_label
_atom_site_fract_x
_atom_site_fract_y
_atom_site_fract_z
Si Si1 0.175333 0.617950 0.344286
Si Si2 0.404832 0.776469 0.903317
Si Si3 0.556321 0.539044 0.020609
Si Si4 0.756588 0.717909 0.573335
Si Si5 0.767672 0.242187 0.126033
Si Si6 0.951954 0.051994 0.631679
Si Si7 0.284207 0.100194 0.026539
Si Si8 0.254317 0.370428 0.232252
O O1 0.283577 0.704697 0.629559
O O2 0.357292 0.403184 0.151879
O O3 0.131913 0.508685 0.221255
O O4 0.004107 0.837919 0.431129
O O5 0.374136 0.760656 0.951293
O O6 0.300982 0.041049 0.163263
O O7 0.653074 0.657899 0.315333
O O8 0.500000 0.500000 0.000000
O O9 0.342362 0.702123 0.993879
O O10 0.722476 0.294863 0.777399
O O11 0.685296 0.768744 0.678597
O O12 0.000000 0.500000 0.500000
O O13 0.771074 0.441060 0.455118
O O14 0.000000 0.000000 0.000000
O O15 0.111548 0.091101 0.874635
O O16 0.000000 0.000000 0.500000
O O17 0.215520 0.230102 0.052923
O O18 0.502642 0.833987 0.848240
#
# Coordination Sequence:
#
# PCOD9080626 Si02
#       8
#     2   2   2   2   2   2   2   2
#     4  10  18  40  67 100 127 179 228 283 351 416
#     4  10  20  38  69  95 132 178 229 282 341 416
#     4  12  28  45  68 106 143 184 238 291 353 429
#     4  12  23  41  70 100 139 185 232 283 352 422
#     4  11  26  43  68  99 140 187 227 288 355 415
#     4  12  24  43  72  97 137 183 244 290 352 419
#     4  11  21  41  69 102 134 187 226 291 349 415
#     4  10  22  39  70 100 136 177 239 282 350 417
#
# _framework density 21.827110999999999
#
# number of rings (size 3 to 8) (size 9 to 14) (size 15 to 20)
#    0.000    1.000    3.750    3.750    7.000    1.500 
#    0.000    1.875    0.000    0.000    0.000    0.000 
#    0.000    0.000    0.000    0.000    0.000    0.000 
#
# Total GULP energy -89429.658206 kJ/mol
# GULP energy per Si atom -5589.353638 kJ/mol
# Density = 2.177743 g / cm^3
# Si number density = 21.827111 Si / 1000 Ang^3
#
#
#
# Elastic Constant Matrix: (Units=GPa)
#
#
# Indices 1 2 3 4 5 6 
#
# 1 97.5141 23.9501 18.2464 7.6426 -1.0524 37.1662
# 2 23.9501 111.3260 51.7067 14.3623 -10.5453 27.0411
# 3 18.2464 51.7067 98.6803 26.6126 -16.5592 5.0560
# 4 7.6426 14.3623 26.6126 33.0989 7.8522 -6.5495
# 5 -1.0524 -10.5453 -16.5592 7.8522 41.0681 4.1562
# 6 37.1662 27.0411 5.0560 -6.5495 4.1562 43.3945
#
#
#
# Elastic Compliance Matrix: (Units=1/GPa)
#
#
# Indices 1 2 3 4 5 6 
#
# 1 0.017544 0.002518 -0.000170 -0.009803 0.004776 -0.018512
# 2 0.002518 0.015133 -0.005359 -0.006282 0.004237 -0.012317
# 3 -0.000170 -0.005359 0.018757 -0.015299 0.009300 -0.001900
# 4 -0.009803 -0.006282 -0.015299 0.057529 -0.021546 0.024839
# 5 0.004776 0.004237 0.009300 -0.021546 0.034888 -0.014407
# 6 -0.018512 -0.012317 -0.001900 0.024839 -0.014407 0.051925
#
#
# Mechanical properties :
#
#
# Convention : Reuss Voigt Hill
#
# Bulk Modulus (GPa) = 22.02020 55.03630 38.52825
# Shear Modulus (GPa) = 23.04833 37.75344 30.40089
#
# Velocity S-wave (km/s) = 3.25306 4.16343 3.73608
# Velocity P-wave (km/s) = 4.92141 6.95569 6.02502
#
# Compressibility (1/GPa) = 0.04541285
#
# Stress axis : x y z
#
# Youngs Moduli (GPa) = 57.00057 66.07872 53.31298
#
# Poissons Ratio (x) = -0.16641 0.00905
# Poissons Ratio (y) = -0.14354 0.28571
# Poissons Ratio (z) = 0.00968 0.35413
#
# Static dielectric constant tensor:
#      x y z
#    x 1.928390 -0.004100 0.031270 
#    y -0.004100 1.909720 -0.102910 
#    z 0.031270 -0.102910 1.856990 
# 
# From -- ./inp_files/539310.got.cif
#   From: 2010.05.17/outbox.cif.g08.bks.cpg/sg2_270_cif.got.tgz:539310.got - 2010.06.03 11:33:40.
