data_PCOD9080880
_publ_section_title
;
Structure prediction by ZEFSAII (Michael W. Deem and Ramdas Pophale) SiO2 
 PCOD9080880
Probable space group: P -1
;
_chemical_formula_sum "Si O2"
_cell_formula_units_Z 16
_cell_length_a 10.596448
_cell_length_b 20.746732
_cell_length_c 8.782415
_cell_angle_alpha 63.541796
_cell_angle_beta 100.115589
_cell_angle_gamma 151.267019
_cell_volume 719.774086
_symmetry_space_group_name_H-M "P -1"
_symmetry_group_IT_number 2
_symmetry_cell_setting 'triclinic'
loop_
_space_group_symop_operation_xyz
x,y,z
-x,-y,-z
loop_
_atom_site_type_symbol
_atom_site_label
_atom_site_fract_x
_atom_site_fract_y
_atom_site_fract_z
Si Si1 0.574923 0.027706 0.227343
Si Si2 0.686939 0.744852 0.611746
Si Si3 0.918615 0.486694 0.252192
Si Si4 0.752285 0.231349 0.793474
Si Si5 0.673229 0.558145 0.334607
Si Si6 0.034481 0.625751 0.805753
Si Si7 0.442816 0.404693 0.974817
Si Si8 0.272746 0.969397 0.452260
O O1 0.502140 0.921248 0.219660
O O2 0.783464 0.105752 0.327303
O O3 0.292291 0.924048 0.362359
O O4 0.699443 0.154283 0.012715
O O5 0.436293 0.680132 0.604357
O O6 0.535223 0.601226 0.640384
O O7 0.681042 0.722944 0.813445
O O8 0.035396 0.914508 0.453167
O O9 0.986400 0.440042 0.269886
O O10 0.148356 0.639878 0.261012
O O11 0.972078 0.556129 0.030003
O O12 0.047126 0.347243 0.658237
O O13 0.500000 0.500000 0.500000
O O14 0.762821 0.669675 0.125514
O O15 0.381206 0.827776 0.671627
O O16 0.764505 0.545414 0.823601
O O17 0.500000 0.500000 0.000000
#
# Coordination Sequence:
#
# PCOD9080880 Si02
#       8
#     2   2   2   2   2   2   2   2
#     4  10  22  31  54  82 115 138 176 233 284 311
#     4   9  19  33  52  77 106 141 177 225 266 314
#     4   9  19  38  56  77 107 150 189 213 267 328
#     4  10  19  37  52  79 111 148 177 221 275 332
#     4  10  19  29  52  76 109 138 176 225 270 319
#     4  10  20  34  57  82 108 146 184 224 261 327
#     4   9  19  32  52  78 109 138 178 217 274 315
#     4  11  21  32  54  86 112 135 183 233 271 319
#
# _framework density 22.229196999999999
#
# number of rings (size 3 to 8) (size 9 to 14) (size 15 to 20)
#    0.000    2.250    1.250    2.250    8.750    0.500 
#    0.000    0.625    0.000    0.000    0.000    4.375 
#    0.000    0.000    0.000    0.000    0.000    0.000 
#
# Total GULP energy -89219.626438 kJ/mol
# GULP energy per Si atom -5576.226652 kJ/mol
# Density = 2.217860 g / cm^3
# Si number density = 22.229197 Si / 1000 Ang^3
#
#
#
# Elastic Constant Matrix: (Units=GPa)
#
#
# Indices 1 2 3 4 5 6 
#
# 1 103.3116 41.6118 24.2735 -0.6971 -40.4737 -13.0677
# 2 41.6118 82.2712 11.7304 -1.6350 -18.8330 -24.7678
# 3 24.2735 11.7304 59.6286 3.8886 -22.1824 -0.4978
# 4 -0.6971 -1.6350 3.8886 32.0267 3.9775 -12.1877
# 5 -40.4737 -18.8330 -22.1824 3.9775 37.6963 6.2141
# 6 -13.0677 -24.7678 -0.4978 -12.1877 6.2141 28.6009
#
#
#
# Elastic Compliance Matrix: (Units=1/GPa)
#
#
# Indices 1 2 3 4 5 6 
#
# 1 0.018847 -0.006044 0.000400 -0.002854 0.018041 -0.001752
# 2 -0.006044 0.021428 -0.002817 0.009129 -0.001702 0.020006
# 3 0.000400 -0.002817 0.023159 -0.008039 0.014902 -0.008517
# 4 -0.002854 0.009129 -0.008039 0.044975 -0.012657 0.028377
# 5 0.018041 -0.001702 0.014902 -0.012657 0.056922 -0.010733
# 6 -0.001752 0.020006 -0.008517 0.028377 -0.010733 0.065764
#
#
# Mechanical properties :
#
#
# Convention : Reuss Voigt Hill
#
# Bulk Modulus (GPa) = 21.49971 44.49362 32.99667
# Shear Modulus (GPa) = 18.97397 30.83782 24.90590
#
# Velocity S-wave (km/s) = 2.92475 3.72864 3.35089
# Velocity P-wave (km/s) = 4.59329 6.21260 5.46327
#
# Compressibility (1/GPa) = 0.04651226
#
# Stress axis : x y z
#
# Youngs Moduli (GPa) = 53.05914 46.66832 43.18044
#
# Poissons Ratio (x) = 0.28205 -0.01726
# Poissons Ratio (y) = 0.32067 0.12163
# Poissons Ratio (z) = -0.02121 0.13145
#
# Static dielectric constant tensor:
#      x y z
#    x 1.846340 0.021380 0.016380 
#    y 0.021380 1.895020 -0.043050 
#    z 0.016380 -0.043050 1.912680 
# 
# From -- ./inp_files/185850.got.cif
#   From: 2010.05.17/outbox.cif.g08.bks.cpg/sg2_93_cif.got.tgz:185850.got - 2010.06.03 11:33:40.
