data_PCOD9080139
_publ_section_title
;
Structure prediction by ZEFSAII (Michael W. Deem and Ramdas Pophale) SiO2 
 PCOD9080139
Probable space group: P -1
;
_chemical_formula_sum "Si O2"
_cell_formula_units_Z 14
_cell_length_a 10.493734
_cell_length_b 8.312204
_cell_length_c 8.962068
_cell_angle_alpha 72.456515
_cell_angle_beta 101.391690
_cell_angle_gamma 65.617732
_cell_volume 630.513718
_symmetry_space_group_name_H-M "P -1"
_symmetry_group_IT_number 2
_symmetry_cell_setting 'triclinic'
loop_
_space_group_symop_operation_xyz
x,y,z
-x,-y,-z
loop_
_atom_site_type_symbol
_atom_site_label
_atom_site_fract_x
_atom_site_fract_y
_atom_site_fract_z
Si Si1 0.090025 0.293888 0.914272
Si Si2 0.962490 0.392841 0.391645
Si Si3 0.133069 0.095447 0.283787
Si Si4 0.284822 0.660475 0.498405
Si Si5 0.453828 0.650334 0.812956
Si Si6 0.259366 0.543872 0.202690
Si Si7 0.175265 0.902257 0.867920
O O1 0.129836 0.444466 0.803525
O O2 0.908409 0.419754 0.851984
O O3 0.129551 0.112155 0.865621
O O4 0.153054 0.199941 0.115162
O O5 0.864364 0.310832 0.463490
O O6 0.000000 0.500000 0.500000
O O7 0.106324 0.219408 0.392024
O O8 0.975066 0.096540 0.221178
O O9 0.259776 0.871673 0.391258
O O10 0.410321 0.571039 0.679004
O O11 0.302401 0.543519 0.384888
O O12 0.607251 0.641566 0.800036
O O13 0.302429 0.836986 0.787852
O O14 0.500000 0.500000 0.000000
O O15 0.238731 0.739359 0.060256
#
# Coordination Sequence:
#
# PCOD9080139 Si02
#       7
#     2   2   2   2   2   2   2
#     4  11  21  39  64  93 127 157 197 254 312 362
#     4  12  24  35  58  99 131 154 194 260 311 357
#     4  11  21  38  62  94 118 159 208 252 299 357
#     4  12  21  39  64  92 120 158 210 253 300 357
#     4  10  23  36  61  93 120 158 211 255 293 355
#     4  10  19  37  61  91 122 157 203 248 298 360
#     4  10  18  38  64  91 118 157 209 249 295 361
#
# _framework density 22.204117
#
# number of rings (size 3 to 8) (size 9 to 14) (size 15 to 20)
#    0.000    1.143    5.714    2.143    2.000    0.000 
#    0.000    0.000    0.000    8.571    0.000    0.000 
#    0.000    0.000    0.000    0.000    0.000    0.000 
#
# Total GULP energy -78229.685187 kJ/mol
# GULP energy per Si atom -5587.834656 kJ/mol
# Density = 2.215358 g / cm^3
# Si number density = 22.204117 Si / 1000 Ang^3
#
#
#
# Elastic Constant Matrix: (Units=GPa)
#
#
# Indices 1 2 3 4 5 6 
#
# 1 28.6483 -1.4925 22.6295 -3.4215 -12.7267 -7.3674
# 2 -1.4925 52.0176 11.2932 0.0839 -15.4002 7.1808
# 3 22.6295 11.2932 130.4715 6.5779 -7.5435 2.2871
# 4 -3.4215 0.0839 6.5779 25.8168 -2.0355 -2.8913
# 5 -12.7267 -15.4002 -7.5435 -2.0355 33.2576 6.1484
# 6 -7.3674 7.1808 2.2871 -2.8913 6.1484 23.4297
#
#
#
# Elastic Compliance Matrix: (Units=1/GPa)
#
#
# Indices 1 2 3 4 5 6 
#
# 1 0.058604 0.008957 -0.010530 0.013604 0.022720 0.012427
# 2 0.008957 0.026318 -0.002808 0.002119 0.016793 -0.009121
# 3 -0.010530 -0.002808 0.009856 -0.004479 -0.002769 -0.003239
# 4 0.013604 0.002119 -0.004479 0.043037 0.006382 0.007702
# 5 0.022720 0.016793 -0.002769 0.006382 0.048069 -0.009559
# 6 0.012427 -0.009121 -0.003239 0.007702 -0.009559 0.053159
#
#
# Mechanical properties :
#
#
# Convention : Reuss Voigt Hill
#
# Bulk Modulus (GPa) = 11.62558 30.66643 21.14600
# Shear Modulus (GPa) = 18.08467 28.41465 23.24966
#
# Velocity S-wave (km/s) = 2.85699 3.58117 3.23938
# Velocity P-wave (km/s) = 4.01626 5.56245 4.85135
#
# Compressibility (1/GPa) = 0.08601723
#
# Stress axis : x y z
#
# Youngs Moduli (GPa) = 17.06367 37.99637 101.45776
#
# Poissons Ratio (x) = -0.34032 1.06833
# Poissons Ratio (y) = -0.15283 0.28484
# Poissons Ratio (z) = 0.17968 0.10668
#
# Static dielectric constant tensor:
#      x y z
#    x 1.847860 -0.038600 0.025500 
#    y -0.038600 1.814270 0.007890 
#    z 0.025500 0.007890 1.859020 
# 
# From -- ./inp_files/184905.got.cif
#   From: 2010.05.17/outbox.cif.g08.bks.cpg/sg2_93_cif.got.tgz:184905.got - 2010.06.03 11:33:40.
