data_PCOD9080783
_publ_section_title
;
Structure prediction by ZEFSAII (Michael W. Deem and Ramdas Pophale) SiO2 
 PCOD9080783
Probable space group: P -1
;
_chemical_formula_sum "Si O2"
_cell_formula_units_Z 12
_cell_length_a 11.178812
_cell_length_b 11.251414
_cell_length_c 16.704880
_cell_angle_alpha 154.561805
_cell_angle_beta 149.535708
_cell_angle_gamma 43.666935
_cell_volume 442.728104
_symmetry_space_group_name_H-M "P -1"
_symmetry_group_IT_number 2
_symmetry_cell_setting 'triclinic'
loop_
_space_group_symop_operation_xyz
x,y,z
-x,-y,-z
loop_
_atom_site_type_symbol
_atom_site_label
_atom_site_fract_x
_atom_site_fract_y
_atom_site_fract_z
Si Si1 0.016121 0.231984 0.403280
Si Si2 0.408955 0.653563 0.178034
Si Si3 0.723512 0.956027 0.338308
Si Si4 0.434642 0.756647 0.429392
Si Si5 0.857133 0.563597 0.633744
Si Si6 0.233294 0.076449 0.068186
O O1 0.918436 0.280229 0.463688
O O2 0.858771 0.967913 0.102378
O O3 0.000000 0.500000 0.500000
O O4 0.299109 0.255844 0.586489
O O5 0.643041 0.610089 0.072130
O O6 0.313608 0.616396 0.191914
O O7 0.364550 0.942798 0.292904
O O8 0.720343 0.129406 0.524323
O O9 0.510511 0.051246 0.222489
O O10 0.000000 0.000000 0.500000
O O11 0.599869 0.570007 0.449677
O O12 0.074373 0.816130 0.873824
O O13 0.822597 0.643591 0.753863
#
# Coordination Sequence:
#
# PCOD9080783 Si02
#       6
#     2   2   2   2   2   2
#     4  10  15  28  51  79 100 125 173 224 257 295
#     4  11  20  34  55  86 107 132 174 231 270 299
#     4  11  22  36  53  76 113 149 174 205 259 337
#     4  10  21  34  55  85 107 131 176 230 273 293
#     4   9  15  28  50  77 100 124 169 229 253 294
#     4   9  16  28  49  76  96 126 180 213 252 288
#
# _framework density 27.104671
#
# number of rings (size 3 to 8) (size 9 to 14) (size 15 to 20)
#    0.000    2.000    6.667    0.500    0.000    0.667 
#    0.000    0.000    0.000    2.000    0.000    0.000 
#    0.000    0.000    0.000    0.000    0.000    0.000 
#
# Total GULP energy -67137.843245 kJ/mol
# GULP energy per Si atom -5594.820270 kJ/mol
# Density = 2.704298 g / cm^3
# Si number density = 27.104671 Si / 1000 Ang^3
#
#
#
# Elastic Constant Matrix: (Units=GPa)
#
#
# Indices 1 2 3 4 5 6 
#
# 1 144.7328 49.4600 81.8762 2.7108 -30.4774 -57.2662
# 2 49.4600 77.9422 29.3188 -1.4907 -8.3515 -30.7991
# 3 81.8762 29.3188 121.8849 5.6074 -15.7708 -25.4223
# 4 2.7108 -1.4907 5.6074 39.6463 -16.6892 -6.4983
# 5 -30.4774 -8.3515 -15.7708 -16.6892 51.1128 11.3827
# 6 -57.2662 -30.7991 -25.4223 -6.4983 11.3827 59.4274
#
#
#
# Elastic Compliance Matrix: (Units=1/GPa)
#
#
# Indices 1 2 3 4 5 6 
#
# 1 0.019349 -0.003181 -0.008966 0.004828 0.007081 0.012332
# 2 -0.003181 0.017555 -0.000957 0.001979 0.000023 0.005835
# 3 -0.008966 -0.000957 0.013712 -0.002467 -0.001346 -0.003282
# 4 0.004828 0.001979 -0.002467 0.031018 0.011264 0.005857
# 5 0.007081 0.000023 -0.001346 0.011264 0.026516 0.002412
# 6 0.012332 0.005835 -0.003282 0.005857 0.002412 0.030510
#
#
# Mechanical properties :
#
#
# Convention : Reuss Voigt Hill
#
# Bulk Modulus (GPa) = 40.97021 73.98557 57.47789
# Shear Modulus (GPa) = 28.90121 42.29763 35.59942
#
# Velocity S-wave (km/s) = 3.26894 3.95464 3.62802
# Velocity P-wave (km/s) = 5.42184 6.94318 6.22913
#
# Compressibility (1/GPa) = 0.02440798
#
# Stress axis : x y z
#
# Youngs Moduli (GPa) = 51.68311 56.96468 72.92748
#
# Poissons Ratio (x) = 0.18122 0.65386
# Poissons Ratio (y) = 0.16442 0.06977
# Poissons Ratio (z) = 0.46338 0.05450
#
# Static dielectric constant tensor:
#      x y z
#    x 2.202350 0.064130 -0.031550 
#    y 0.064130 2.134490 0.057770 
#    z -0.031550 0.057770 2.148940 
# 
# From -- ./inp_files/334638.got.cif
#   From: 2010.05.17/outbox.cif.g08.bks.cpg/sg2_168_cif.got.tgz:334638.got - 2010.06.03 11:33:40.
