data_PCOD9080865
_publ_section_title
;
Structure prediction by ZEFSAII (Michael W. Deem and Ramdas Pophale) SiO2 
 PCOD9080865
Probable space group: P -1
;
_chemical_formula_sum "Si O2"
_cell_formula_units_Z 16
_cell_length_a 9.015849
_cell_length_b 25.136526
_cell_length_c 16.529227
_cell_angle_alpha 166.757400
_cell_angle_beta 133.996428
_cell_angle_gamma 41.746804
_cell_volume 558.932665
_symmetry_space_group_name_H-M "P -1"
_symmetry_group_IT_number 2
_symmetry_cell_setting 'triclinic'
loop_
_space_group_symop_operation_xyz
x,y,z
-x,-y,-z
loop_
_atom_site_type_symbol
_atom_site_label
_atom_site_fract_x
_atom_site_fract_y
_atom_site_fract_z
Si Si1 0.629784 0.470694 0.117829
Si Si2 0.844067 0.160268 0.589806
Si Si3 0.862471 0.867915 0.012804
Si Si4 0.844634 0.877271 0.567898
Si Si5 0.761381 0.694526 0.107080
Si Si6 0.617907 0.510371 0.642824
Si Si7 0.550317 0.660923 0.529527
Si Si8 0.884047 0.799664 0.646289
O O1 0.376859 0.600126 0.176890
O O2 0.609940 0.431379 0.147426
O O3 0.728493 0.689842 0.472283
O O4 0.784185 0.224055 0.756597
O O5 0.861672 0.916603 0.181433
O O6 0.059413 0.207789 0.715547
O O7 0.633014 0.107522 0.248108
O O8 0.065855 0.909497 0.106858
O O9 0.791121 0.654267 0.634641
O O10 0.761095 0.895189 0.654770
O O11 0.085009 0.611629 0.271976
O O12 0.708194 0.815169 0.353887
O O13 0.571954 0.725941 0.013852
O O14 0.500000 0.500000 0.500000
O O15 0.569920 0.314497 0.392863
O O16 0.876643 0.449221 0.632149
O O17 0.000000 0.000000 0.000000
#
# Coordination Sequence:
#
# PCOD9080865 Si02
#       8
#     2   2   2   2   2   2   2   2
#     4  10  19  29  49  85 114 136 173 236 292 321
#     4   9  17  28  47  79 116 137 169 231 292 327
#     4   9  16  28  50  79 110 133 176 233 284 316
#     4   9  15  27  51  80 109 134 178 235 280 310
#     4   9  16  30  52  78 106 143 191 227 266 329
#     4  11  23  39  57  78 112 158 191 217 271 353
#     4  10  19  31  51  79 109 144 181 226 278 336
#     4  11  21  34  56  90 117 139 182 242 286 321
#
# _framework density 28.625985
#
# number of rings (size 3 to 8) (size 9 to 14) (size 15 to 20)
#    0.000    2.250    5.000    0.750    5.250    0.000 
#    0.000    0.625    0.000    3.750    0.000    0.000 
#    0.000    0.000    0.000    0.000    0.000    0.000 
#
# Total GULP energy -89357.294522 kJ/mol
# GULP energy per Si atom -5584.830908 kJ/mol
# Density = 2.856083 g / cm^3
# Si number density = 28.625985 Si / 1000 Ang^3
#
#
#
# Elastic Constant Matrix: (Units=GPa)
#
#
# Indices 1 2 3 4 5 6 
#
# 1 108.8411 45.0645 0.7903 -18.2927 16.8877 14.2203
# 2 45.0645 155.8978 34.1798 -52.6332 10.4963 27.9048
# 3 0.7903 34.1798 91.1521 -47.5483 22.3737 9.6626
# 4 -18.2927 -52.6332 -47.5483 67.0184 -1.2156 -7.7132
# 5 16.8877 10.4963 22.3737 -1.2156 47.1075 -13.1502
# 6 14.2203 27.9048 9.6626 -7.7132 -13.1502 45.4897
#
#
#
# Elastic Compliance Matrix: (Units=1/GPa)
#
#
# Indices 1 2 3 4 5 6 
#
# 1 0.012936 -0.001376 0.006470 0.006174 -0.008951 -0.006115
# 2 -0.001376 0.010816 0.002556 0.009090 -0.004731 -0.006574
# 3 0.006470 0.002556 0.026439 0.020959 -0.017930 -0.010836
# 4 0.006174 0.009090 0.020959 0.037135 -0.016116 -0.010320
# 5 -0.008951 -0.004731 -0.017930 -0.016116 0.038597 0.017934
# 6 -0.006115 -0.006574 -0.010836 -0.010320 0.017934 0.033663
#
#
# Mechanical properties :
#
#
# Convention : Reuss Voigt Hill
#
# Bulk Modulus (GPa) = 15.26953 57.32889 36.29921
# Shear Modulus (GPa) = 30.09932 50.31357 40.20644
#
# Velocity S-wave (km/s) = 3.24615 4.19694 3.75179
# Velocity P-wave (km/s) = 4.40406 6.59971 5.61034
#
# Compressibility (1/GPa) = 0.06548990
#
# Stress axis : x y z
#
# Youngs Moduli (GPa) = 77.30381 92.45628 37.82354
#
# Poissons Ratio (x) = 0.12723 -0.24472
# Poissons Ratio (y) = 0.10638 -0.09667
# Poissons Ratio (z) = -0.50015 -0.23631
#
# Static dielectric constant tensor:
#      x y z
#    x 2.185310 -0.020470 -0.108230 
#    y -0.020470 2.256650 0.129070 
#    z -0.108230 0.129070 2.534170 
# 
# From -- ./inp_files/271062.got.cif
#   From: 2010.05.17/outbox.cif.g08.bks.cpg/sg2_136_cif.got.tgz:271062.got - 2010.06.03 11:33:40.
