data_PCOD9080329
_publ_section_title
;
Structure prediction by ZEFSAII (Michael W. Deem and Ramdas Pophale) SiO2 
 PCOD9080329
Probable space group: P -1
;
_chemical_formula_sum "Si O2"
_cell_formula_units_Z 16
_cell_length_a 20.441483
_cell_length_b 21.142882
_cell_length_c 11.172365
_cell_angle_alpha 146.530285
_cell_angle_beta 44.749575
_cell_angle_gamma 160.638904
_cell_volume 801.134052
_symmetry_space_group_name_H-M "P -1"
_symmetry_group_IT_number 2
_symmetry_cell_setting 'triclinic'
loop_
_space_group_symop_operation_xyz
x,y,z
-x,-y,-z
loop_
_atom_site_type_symbol
_atom_site_label
_atom_site_fract_x
_atom_site_fract_y
_atom_site_fract_z
Si Si1 0.062150 0.889319 0.774095
Si Si2 0.642003 0.918715 0.749713
Si Si3 0.323498 0.391025 0.276427
Si Si4 0.365681 0.679339 0.312171
Si Si5 0.816625 0.194769 0.392392
Si Si6 0.571788 0.750102 0.325540
Si Si7 0.115943 0.473488 0.092022
Si Si8 0.438811 0.015350 0.829189
O O1 0.216959 0.033504 0.686965
O O2 0.038373 0.749743 0.665402
O O3 0.193409 0.131354 0.062546
O O4 0.851346 0.713221 0.712966
O O5 0.480500 0.633288 0.545393
O O6 0.616450 0.894111 0.600291
O O7 0.570176 0.946373 0.965444
O O8 0.894638 0.181133 0.862334
O O9 0.486663 0.551660 0.205866
O O10 0.384051 0.590985 0.233700
O O11 0.180112 0.478055 0.136414
O O12 0.590524 0.928573 0.337871
O O13 0.377941 0.814250 0.577547
O O14 0.908241 0.419607 0.670010
O O15 0.736976 0.114837 0.232729
O O16 0.323464 0.701570 0.092997
#
# Coordination Sequence:
#
# PCOD9080329 Si02
#       8
#     2   2   2   2   2   2   2   2
#     4  10  18  39  57  71 100 137 181 216 244 303
#     4  10  22  31  49  84 106 136 165 208 272 297
#     4   9  22  34  53  79  97 138 176 213 260 296
#     4   8  16  34  55  75 103 143 175 199 248 313
#     4   8  17  33  58  77  95 144 179 203 249 305
#     4   9  20  34  53  81 101 131 174 214 253 305
#     4   9  18  35  54  76 109 136 166 209 258 303
#     4   9  18  34  51  76 112 135 167 209 248 316
#
# _framework density 19.971686999999999
#
# number of rings (size 3 to 8) (size 9 to 14) (size 15 to 20)
#    0.750    2.250    0.000    1.875    1.750    4.500 
#    2.250    2.500    0.000    6.750    0.000    0.000 
#    0.000    0.000    0.000    0.000    0.000    0.000 
#
# Total GULP energy -89106.320068 kJ/mol
# GULP energy per Si atom -5569.145004 kJ/mol
# Density = 1.992623 g / cm^3
# Si number density = 19.971687 Si / 1000 Ang^3
#
#
#
# Elastic Constant Matrix: (Units=GPa)
#
#
# Indices 1 2 3 4 5 6 
#
# 1 51.1214 12.1412 11.5672 10.2092 -1.7899 5.0265
# 2 12.1412 85.8528 18.0446 8.7527 0.2219 4.9199
# 3 11.5672 18.0446 4.0163 24.5299 -16.0251 18.1235
# 4 10.2092 8.7527 24.5299 34.7391 8.6075 1.6020
# 5 -1.7899 0.2219 -16.0251 8.6075 -1.3186 7.7028
# 6 5.0265 4.9199 18.1235 1.6020 7.7028 18.9091
#
#
#
# Elastic Compliance Matrix: (Units=1/GPa)
#
#
# Indices 1 2 3 4 5 6 
#
# 1 0.022282 -0.001499 -0.005741 -0.003391 0.005515 -0.001990
# 2 -0.001499 0.012792 -0.002673 -0.002290 0.006127 -0.002670
# 3 -0.005741 -0.002673 0.011986 0.005242 -0.047587 0.009675
# 4 -0.003391 -0.002290 0.005242 0.022954 0.017276 -0.012509
# 5 0.005515 0.006127 -0.047587 0.017276 0.049199 0.021044
# 6 -0.001990 -0.002670 0.009675 -0.012509 0.021044 0.037323
#
#
# Mechanical properties :
#
#
# Convention : Reuss Voigt Hill
#
# Bulk Modulus (GPa) = 36.71909 24.94405 30.83157
# Shear Modulus (GPa) = 26.96262 17.08173 22.02218
#
# Velocity S-wave (km/s) = 3.67828 2.92772 3.32425
# Velocity P-wave (km/s) = 6.03864 4.89342 5.49594
#
# Compressibility (1/GPa) = 0.02723379
#
# Stress axis : x y z
#
# Youngs Moduli (GPa) = 44.87840 78.17205 83.43138
#
# Poissons Ratio (x) = 0.11717 0.47902
# Poissons Ratio (y) = 0.06727 0.22302
# Poissons Ratio (z) = 0.25767 0.20896
#
# Static dielectric constant tensor:
#      x y z
#    x 1.715260 -0.017210 -0.031030 
#    y -0.017210 1.779020 -0.007500 
#    z -0.031030 -0.007500 1.719950 
# 
# From -- ./inp_files/472946.got.cif
#   From: 2010.05.17/outbox.cif.g08.bks.cpg/sg2_237_cif.got.tgz:472946.got - 2010.06.03 11:33:40.
