data_PCOD9080427
_publ_section_title
;
Structure prediction by ZEFSAII (Michael W. Deem and Ramdas Pophale) SiO2 
 PCOD9080427
Probable space group: P -1
;
_chemical_formula_sum "Si O2"
_cell_formula_units_Z 16
_cell_length_a 10.691186
_cell_length_b 14.164454
_cell_length_c 12.150048
_cell_angle_alpha 151.886654
_cell_angle_beta 119.377092
_cell_angle_gamma 78.042505
_cell_volume 631.410310
_symmetry_space_group_name_H-M "P -1"
_symmetry_group_IT_number 2
_symmetry_cell_setting 'triclinic'
loop_
_space_group_symop_operation_xyz
x,y,z
-x,-y,-z
loop_
_atom_site_type_symbol
_atom_site_label
_atom_site_fract_x
_atom_site_fract_y
_atom_site_fract_z
Si Si1 0.361295 0.760781 0.879338
Si Si2 0.302753 0.404072 0.308749
Si Si3 0.295944 0.431687 0.705071
Si Si4 0.748335 0.987006 0.258657
Si Si5 0.069945 0.510085 0.212737
Si Si6 0.045213 0.698570 0.630020
Si Si7 0.278832 0.964522 0.474877
Si Si8 0.531554 0.286902 0.720154
O O1 0.275495 0.505374 0.513673
O O2 0.349243 0.673167 0.909322
O O3 0.248877 0.872108 0.919797
O O4 0.555496 0.921210 0.085773
O O5 0.500000 0.500000 0.500000
O O6 0.244534 0.518628 0.309969
O O7 0.210095 0.132554 0.945411
O O8 0.433301 0.361116 0.672618
O O9 0.100806 0.243918 0.387675
O O10 0.326645 0.503229 0.921541
O O11 0.888584 0.268820 0.616979
O O12 0.729425 0.891391 0.276888
O O13 0.029406 0.576878 0.381561
O O14 0.914392 0.244841 0.849892
O O15 0.000000 0.500000 0.500000
O O16 0.376869 0.833436 0.416448
O O17 0.381316 0.109127 0.559312
#
# Coordination Sequence:
#
# PCOD9080427 Si02
#       8
#     2   2   2   2   2   2   2   2
#     4   9  19  39  67  95 130 164 208 263 322 382
#     4   9  22  41  60  89 125 163 214 263 306 379
#     4  10  18  39  64  98 120 163 208 266 324 379
#     4  11  23  41  64  90 129 176 211 256 325 373
#     4  11  23  41  62  93 130 168 218 260 313 385
#     4   9  19  36  65  91 124 163 202 259 320 370
#     4  11  23  42  60  92 128 170 213 265 320 377
#     4  10  22  37  66  92 127 160 213 267 319 381
#
# _framework density 25.3401
#
# number of rings (size 3 to 8) (size 9 to 14) (size 15 to 20)
#    0.000    2.000    2.500    0.375    0.000    8.000 
#    0.000    1.250    0.000    5.250    0.000    0.000 
#    0.000    0.000    0.000    0.000    0.000    0.000 
#
# Total GULP energy -89212.007240 kJ/mol
# GULP energy per Si atom -5575.750453 kJ/mol
# Density = 2.528243 g / cm^3
# Si number density = 25.340100 Si / 1000 Ang^3
#
#
#
# Elastic Constant Matrix: (Units=GPa)
#
#
# Indices 1 2 3 4 5 6 
#
# 1 77.5230 31.7976 13.2372 -7.0103 6.0415 -12.7247
# 2 31.7976 76.2627 10.4529 -16.9574 11.0641 -16.4432
# 3 13.2372 10.4529 78.4457 -0.1360 2.5637 0.1778
# 4 -7.0103 -16.9574 -0.1360 19.6502 2.0017 5.1906
# 5 6.0415 11.0641 2.5637 2.0017 32.6719 -9.0343
# 6 -12.7247 -16.4432 0.1778 5.1906 -9.0343 47.2658
#
#
#
# Elastic Compliance Matrix: (Units=1/GPa)
#
#
# Indices 1 2 3 4 5 6 
#
# 1 0.016033 -0.005903 -0.001917 0.000045 -0.000203 0.002226
# 2 -0.005903 0.020735 -0.001550 0.015658 -0.006004 0.002763
# 3 -0.001917 -0.001550 0.013288 -0.001633 -0.000337 -0.000990
# 4 0.000045 0.015658 -0.001633 0.066462 -0.010306 -0.003803
# 5 -0.000203 -0.006004 -0.000337 -0.010306 0.034901 0.005661
# 6 0.002226 0.002763 -0.000990 -0.003803 0.005661 0.024221
#
#
# Mechanical properties :
#
#
# Convention : Reuss Voigt Hill
#
# Bulk Modulus (GPa) = 31.93213 38.13409 35.03311
# Shear Modulus (GPa) = 24.41191 31.70050 28.05621
#
# Velocity S-wave (km/s) = 3.10719 3.54079 3.33105
# Velocity P-wave (km/s) = 5.04991 5.63895 5.35254
#
# Compressibility (1/GPa) = 0.03131642
#
# Stress axis : x y z
#
# Youngs Moduli (GPa) = 62.37047 48.22866 75.25511
#
# Poissons Ratio (x) = 0.28468 0.14429
# Poissons Ratio (y) = 0.36815 0.11663
# Poissons Ratio (z) = 0.11958 0.07474
#
# Static dielectric constant tensor:
#      x y z
#    x 2.072290 -0.033130 0.010220 
#    y -0.033130 2.031680 0.006430 
#    z 0.010220 0.006430 2.081960 
# 
# From -- ./inp_files/434383.got.cif
#   From: 2010.05.17/outbox.cif.g08.bks.cpg/sg2_218_cif.got.tgz:434383.got - 2010.06.03 11:33:40.
