data_PCOD9080288
_publ_section_title
;
Structure prediction by ZEFSAII (Michael W. Deem and Ramdas Pophale) SiO2 
 PCOD9080288
Probable space group: P -1
;
_chemical_formula_sum "Si O2"
_cell_formula_units_Z 15
_cell_length_a 10.486595
_cell_length_b 19.291252
_cell_length_c 15.109312
_cell_angle_alpha 20.694598
_cell_angle_beta 134.485645
_cell_angle_gamma 144.941355
_cell_volume 587.773470
_symmetry_space_group_name_H-M "P -1"
_symmetry_group_IT_number 2
_symmetry_cell_setting 'triclinic'
loop_
_space_group_symop_operation_xyz
x,y,z
-x,-y,-z
loop_
_atom_site_type_symbol
_atom_site_label
_atom_site_fract_x
_atom_site_fract_y
_atom_site_fract_z
Si Si1 0.252940 0.420340 0.451070
Si Si2 0.738100 0.133358 0.013079
Si Si3 0.000000 0.500000 0.000000
Si Si4 0.785374 0.897041 0.904377
Si Si5 0.375501 0.219667 0.237984
Si Si6 0.850599 0.800439 0.531972
Si Si7 0.486522 0.011746 0.675102
Si Si8 0.851347 0.534620 0.325537
O O1 0.500000 0.500000 0.500000
O O2 0.236332 0.641356 0.193795
O O3 0.197717 0.325978 0.436662
O O4 0.045371 0.168322 0.705322
O O5 0.965576 0.269950 0.896176
O O6 0.500000 0.000000 0.000000
O O7 0.731568 0.931566 0.311087
O O8 0.166254 0.410445 0.165689
O O9 0.781059 0.244611 0.146791
O O10 0.680068 0.830901 0.832067
O O11 0.637287 0.924057 0.864718
O O12 0.780331 0.665231 0.196263
O O13 0.509262 0.123167 0.454420
O O14 0.500000 0.500000 0.000000
O O15 0.126523 0.043498 0.377317
O O16 0.623483 0.269802 0.490886
O O17 0.000000 0.500000 0.500000
#
# Coordination Sequence:
#
# PCOD9080288 Si02
#       8
#     2   2   1   2   2   2   2   2
#     4  11  21  39  69 100 132 175 226 283 339 417
#     4  12  22  42  71 101 136 185 231 285 348 413
#     4  10  26  46  64 100 138 188 224 296 344 416
#     4  11  22  40  66  99 126 175 226 272 348 405
#     4  10  18  38  69  91 124 161 218 282 328 404
#     4  10  22  42  64  96 137 170 232 275 343 413
#     4  11  23  44  66  93 138 177 227 283 345 409
#     4  12  26  44  67 105 142 179 231 290 352 415
#
# _framework density 25.520036999999999
#
# number of rings (size 3 to 8) (size 9 to 14) (size 15 to 20)
#    0.000    1.067    6.667    0.400    0.000    3.733 
#    0.000    1.333    0.000    0.000    0.000    0.000 
#    0.000    0.000    0.000    0.000    0.000    0.000 
#
# Total GULP energy -83597.249273 kJ/mol
# GULP energy per Si atom -5573.149952 kJ/mol
# Density = 2.546195 g / cm^3
# Si number density = 25.520037 Si / 1000 Ang^3
#
#
#
# Elastic Constant Matrix: (Units=GPa)
#
#
# Indices 1 2 3 4 5 6 
#
# 1 61.1802 16.3652 37.4147 -12.5650 8.8357 22.5959
# 2 16.3652 117.1820 75.2019 -28.3341 -1.2355 21.9034
# 3 37.4147 75.2019 174.8202 -5.2999 45.8392 15.6006
# 4 -12.5650 -28.3341 -5.2999 68.8911 13.0694 3.3475
# 5 8.8357 -1.2355 45.8392 13.0694 50.9310 0.6471
# 6 22.5959 21.9034 15.6006 3.3475 0.6471 34.4649
#
#
#
# Elastic Compliance Matrix: (Units=1/GPa)
#
#
# Indices 1 2 3 4 5 6 
#
# 1 0.027637 0.005674 -0.006091 0.008052 -0.000991 -0.019732
# 2 0.005674 0.017424 -0.009028 0.006940 0.005929 -0.011492
# 3 -0.006091 -0.009028 0.013273 -0.001982 -0.010652 0.004115
# 4 0.008052 0.006940 -0.001982 0.020049 -0.004454 -0.010656
# 5 -0.000991 0.005929 -0.010652 -0.004454 0.030660 0.001560
# 6 -0.019732 -0.011492 0.004115 -0.010656 0.001560 0.048398
#
#
# Mechanical properties :
#
#
# Convention : Reuss Voigt Hill
#
# Bulk Modulus (GPa) = 25.35282 67.90508 46.62895
# Shear Modulus (GPa) = 26.38816 45.80412 36.09614
#
# Velocity S-wave (km/s) = 3.21910 4.24114 3.76496
# Velocity P-wave (km/s) = 4.87574 7.11683 6.10009
#
# Compressibility (1/GPa) = 0.03944335
#
# Stress axis : x y z
#
# Youngs Moduli (GPa) = 36.18389 57.39236 75.34034
#
# Poissons Ratio (x) = -0.32564 0.45889
# Poissons Ratio (y) = -0.20531 0.68019
# Poissons Ratio (z) = 0.22039 0.51815
#
# Static dielectric constant tensor:
#      x y z
#    x 1.524980 -0.625410 0.103590 
#    y -0.625410 1.260470 0.253920 
#    z 0.103590 0.253920 2.033180 
# 
# From -- ./inp_files/570696.got.cif
#   From: 2010.05.17/outbox.cif.g08.bks.cpg/sg2_286_cif.got.tgz:570696.got - 2010.06.03 11:33:40.
