data_PCOD9080780
_publ_section_title
;
Structure prediction by ZEFSAII (Michael W. Deem and Ramdas Pophale) SiO2 
 PCOD9080780
Probable space group: P -1
;
_chemical_formula_sum "Si O2"
_cell_formula_units_Z 16
_cell_length_a 11.429318
_cell_length_b 9.589393
_cell_length_c 16.190699
_cell_angle_alpha 36.821508
_cell_angle_beta 138.765251
_cell_angle_gamma 126.429086
_cell_volume 700.853756
_symmetry_space_group_name_H-M "P -1"
_symmetry_group_IT_number 2
_symmetry_cell_setting 'triclinic'
loop_
_space_group_symop_operation_xyz
x,y,z
-x,-y,-z
loop_
_atom_site_type_symbol
_atom_site_label
_atom_site_fract_x
_atom_site_fract_y
_atom_site_fract_z
Si Si1 0.950289 0.691794 0.652709
Si Si2 0.985357 0.746494 0.329533
Si Si3 0.157080 0.813842 0.153103
Si Si4 0.739172 0.789888 0.320367
Si Si5 0.671936 0.000547 0.446980
Si Si6 0.533540 0.924512 0.870033
Si Si7 0.349949 0.740157 0.464606
Si Si8 0.752556 0.476987 0.213424
O O1 0.142518 0.129952 0.416765
O O2 0.156736 0.659291 0.751309
O O3 0.908749 0.438144 0.786163
O O4 0.857973 0.751620 0.485611
O O5 0.850471 0.869283 0.262368
O O6 0.900763 0.652054 0.244593
O O7 0.000000 0.500000 0.500000
O O8 0.178353 0.852273 0.368448
O O9 0.274441 0.760349 0.321943
O O10 0.289792 0.923456 0.106472
O O11 0.000000 0.000000 0.000000
O O12 0.649807 0.535180 0.382076
O O13 0.594108 0.986642 0.168797
O O14 0.562161 0.014060 0.296134
O O15 0.704422 0.274422 0.348178
O O16 0.540042 0.864518 0.503112
O O17 0.591560 0.655842 0.028747
#
# Coordination Sequence:
#
# PCOD9080780 Si02
#       8
#     2   2   2   2   2   2   2   2
#     4  10  18  33  53  76 105 134 169 205 254 306
#     4  10  18  35  57  72  99 133 180 215 242 294
#     4  10  15  28  51  78 102 128 168 212 251 298
#     4   9  18  34  55  77  95 133 177 216 246 288
#     4  10  22  33  51  78 111 133 162 207 258 314
#     4  10  20  32  52  79 108 130 165 213 260 300
#     4   9  17  33  52  74  99 137 166 208 255 297
#     4  12  20  34  51  80 104 139 167 203 259 306
#
# _framework density 22.8293
#
# number of rings (size 3 to 8) (size 9 to 14) (size 15 to 20)
#    0.000    2.000    5.000    1.500    0.000    3.500 
#    0.000    2.500    0.000    0.750    0.000    0.000 
#    0.000    1.250    0.000    0.000    0.000    0.000 
#
# Total GULP energy -89173.891109 kJ/mol
# GULP energy per Si atom -5573.368194 kJ/mol
# Density = 2.277734 g / cm^3
# Si number density = 22.829300 Si / 1000 Ang^3
#
#
#
# Elastic Constant Matrix: (Units=GPa)
#
#
# Indices 1 2 3 4 5 6 
#
# 1 158.0512 51.6817 40.8442 -17.6840 41.5071 26.2548
# 2 51.6817 82.2898 21.3671 -19.2819 9.2623 35.7425
# 3 40.8442 21.3671 98.8857 -29.6908 37.2287 6.4920
# 4 -17.6840 -19.2819 -29.6908 26.3365 0.6744 -7.5704
# 5 41.5071 9.2623 37.2287 0.6744 43.6737 2.0009
# 6 26.2548 35.7425 6.4920 -7.5704 2.0009 30.3541
#
#
#
# Elastic Compliance Matrix: (Units=1/GPa)
#
#
# Indices 1 2 3 4 5 6 
#
# 1 0.011616 -0.002498 0.004353 0.009909 -0.014161 -0.004632
# 2 -0.002498 0.030073 0.003408 0.015806 -0.005794 -0.029656
# 3 0.004353 0.003408 0.033717 0.043782 -0.034193 -0.001815
# 4 0.009909 0.015806 0.043782 0.104856 -0.051389 -0.007008
# 5 -0.014161 -0.005794 -0.034193 -0.051389 0.067107 0.009144
# 6 -0.004632 -0.029656 -0.001815 -0.007008 0.009144 0.069909
#
#
# Mechanical properties :
#
#
# Convention : Reuss Voigt Hill
#
# Bulk Modulus (GPa) = 11.63733 63.00142 37.31937
# Shear Modulus (GPa) = 14.90777 35.09511 25.00144
#
# Velocity S-wave (km/s) = 2.55818 3.92507 3.31289
# Velocity P-wave (km/s) = 3.71945 6.94250 5.56923
#
# Compressibility (1/GPa) = 0.08593037
#
# Stress axis : x y z
#
# Youngs Moduli (GPa) = 86.08632 33.25278 29.65888
#
# Poissons Ratio (x) = 0.08306 -0.12909
# Poissons Ratio (y) = 0.21503 -0.10107
# Poissons Ratio (z) = -0.37469 -0.11332
#
# Static dielectric constant tensor:
#      x y z
#    x 1.979050 -0.042620 0.009600 
#    y -0.042620 1.978500 0.049990 
#    z 0.009600 0.049990 1.859580 
# 
# From -- ./inp_files/333747.got.cif
#   From: 2010.05.17/outbox.cif.g08.bks.cpg/sg2_167_cif.got.tgz:333747.got - 2010.06.03 11:33:40.
