data_PCOD9080050
_publ_section_title
;
Structure prediction by ZEFSAII (Michael W. Deem and Ramdas Pophale) SiO2 
 PCOD9080050
Probable space group: P -1
;
_chemical_formula_sum "Si O2"
_cell_formula_units_Z 12
_cell_length_a 7.192664
_cell_length_b 6.817493
_cell_length_c 17.205469
_cell_angle_alpha 94.994747
_cell_angle_beta 90.913122
_cell_angle_gamma 138.391414
_cell_volume 553.909313
_symmetry_space_group_name_H-M "P -1"
_symmetry_group_IT_number 2
_symmetry_cell_setting 'triclinic'
loop_
_space_group_symop_operation_xyz
x,y,z
-x,-y,-z
loop_
_atom_site_type_symbol
_atom_site_label
_atom_site_fract_x
_atom_site_fract_y
_atom_site_fract_z
Si Si1 0.807344 0.656422 0.493039
Si Si2 0.827939 0.125794 0.825548
Si Si3 0.512311 0.889351 0.281865
Si Si4 0.369566 0.413487 0.788878
Si Si5 0.017668 0.504923 0.375187
Si Si6 0.202742 0.256490 0.947226
O O1 0.500000 0.500000 0.500000
O O2 0.852455 0.554987 0.414349
O O3 0.907648 0.595726 0.561718
O O4 0.000000 0.000000 0.500000
O O5 0.646270 0.164207 0.798546
O O6 0.068967 0.276747 0.767322
O O7 0.016527 0.289527 0.910944
O O8 0.613235 0.768854 0.817116
O O9 0.540580 0.677255 0.274588
O O10 0.313671 0.797346 0.348211
O O11 0.813222 0.231283 0.304041
O O12 0.286519 0.232728 0.862658
O O13 0.500000 0.500000 0.000000
O O14 0.000000 0.000000 0.000000
#
# Coordination Sequence:
#
# PCOD9080050 Si02
#       6
#     2   2   2   2   2   2
#     4  11  24  45  66  92 126 161 210 243 300 366
#     4  10  22  38  60  87 123 158 204 253 303 366
#     4  12  24  41  62  93 128 159 204 251 312 355
#     4  10  22  38  60  87 123 158 204 253 303 366
#     4  11  26  40  64  95 124 161 204 257 292 363
#     4  10  18  38  62  84 120 161 202 255 304 352
#
# _framework density 21.664196
#
# number of rings (size 3 to 8) (size 9 to 14) (size 15 to 20)
#    1.000    0.333    1.667    4.000    0.000   10.667 
#    0.000    1.667    0.000    0.000    0.000    0.000 
#    0.000    0.000    0.000    0.000    0.000    0.000 
#
# Total GULP energy -66858.013071 kJ/mol
# GULP energy per Si atom -5571.501089 kJ/mol
# Density = 2.161489 g / cm^3
# Si number density = 21.664196 Si / 1000 Ang^3
#
#
#
# Elastic Constant Matrix: (Units=GPa)
#
#
# Indices 1 2 3 4 5 6 
#
# 1 105.9847 32.1269 6.9660 3.0363 -5.0921 13.6682
# 2 32.1269 112.0383 -3.4100 -8.1900 -6.3752 24.5942
# 3 6.9660 -3.4100 26.6881 -10.9533 0.3752 1.8464
# 4 3.0363 -8.1900 -10.9533 26.6908 4.2621 0.4474
# 5 -5.0921 -6.3752 0.3752 4.2621 36.9741 -3.3939
# 6 13.6682 24.5942 1.8464 0.4474 -3.3939 37.7107
#
#
#
# Elastic Compliance Matrix: (Units=1/GPa)
#
#
# Indices 1 2 3 4 5 6 
#
# 1 0.011158 -0.003289 -0.005134 -0.004587 0.001416 -0.001466
# 2 -0.003289 0.012053 0.005516 0.006424 0.000186 -0.006998
# 3 -0.005134 0.005516 0.049396 0.023164 -0.003362 -0.004733
# 4 -0.004587 0.006424 0.023164 0.050507 -0.006022 -0.004802
# 5 0.001416 0.000186 -0.003362 -0.006022 0.028198 0.002139
# 6 -0.001466 -0.006998 -0.004733 -0.004802 0.002139 0.032094
#
#
# Mechanical properties :
#
#
# Convention : Reuss Voigt Hill
#
# Bulk Modulus (GPa) = 14.97103 35.11964 25.04534
# Shear Modulus (GPa) = 23.64251 34.21034 28.92643
#
# Velocity S-wave (km/s) = 3.30709 3.97812 3.65803
# Velocity P-wave (km/s) = 4.63767 6.11120 5.42470
#
# Compressibility (1/GPa) = 0.06679565
#
# Stress axis : x y z
#
# Youngs Moduli (GPa) = 89.62060 82.96788 20.24444
#
# Poissons Ratio (x) = 0.27286 0.10393
# Poissons Ratio (y) = 0.29473 -0.11168
# Poissons Ratio (z) = 0.46007 -0.45769
#
# Static dielectric constant tensor:
#      x y z
#    x 1.793480 -0.010610 0.015180 
#    y -0.010610 1.743160 -0.019710 
#    z 0.015180 -0.019710 1.863440 
# 
# From -- ./inp_files/8515.got.cif
#   From: 2010.05.17/outbox.cif.g08.bks.cpg/sg2_5_cif.got.tgz:8515.got - 2010.06.03 11:33:40.
