data_PCOD9080462
_publ_section_title
;
Structure prediction by ZEFSAII (Michael W. Deem and Ramdas Pophale) SiO2 
 PCOD9080462
Probable space group: P -1
;
_chemical_formula_sum "Si O2"
_cell_formula_units_Z 16
_cell_length_a 11.553863
_cell_length_b 8.886288
_cell_length_c 9.726444
_cell_angle_alpha 59.180518
_cell_angle_beta 119.487791
_cell_angle_gamma 100.425792
_cell_volume 743.113450
_symmetry_space_group_name_H-M "P -1"
_symmetry_group_IT_number 2
_symmetry_cell_setting 'triclinic'
loop_
_space_group_symop_operation_xyz
x,y,z
-x,-y,-z
loop_
_atom_site_type_symbol
_atom_site_label
_atom_site_fract_x
_atom_site_fract_y
_atom_site_fract_z
Si Si1 0.013404 0.314655 0.173083
Si Si2 0.700271 0.841924 0.670379
Si Si3 0.434027 0.658981 0.982217
Si Si4 0.707983 0.769007 0.034505
Si Si5 0.248392 0.767235 0.428238
Si Si6 0.123140 0.916436 0.016556
Si Si7 0.836235 0.372538 0.302179
Si Si8 0.487580 0.434427 0.371005
O O1 0.955350 0.343882 0.277339
O O2 0.165874 0.234536 0.291951
O O3 0.930832 0.185935 0.094352
O O4 0.000000 0.500000 0.000000
O O5 0.579935 0.747823 0.581059
O O6 0.696996 0.051175 0.576007
O O7 0.704593 0.782260 0.860230
O O8 0.555364 0.782551 0.994398
O O9 0.412549 0.576931 0.158229
O O10 0.500000 0.500000 0.000000
O O11 0.291479 0.711058 0.804303
O O12 0.788680 0.579440 0.198642
O O13 0.788144 0.930792 0.050509
O O14 0.204927 0.790921 0.234081
O O15 0.136254 0.720573 0.491725
O O16 0.365356 0.611714 0.581848
O O17 0.000000 0.000000 0.000000
O O18 0.500000 0.500000 0.500000
#
# Coordination Sequence:
#
# PCOD9080462 Si02
#       8
#     2   2   2   2   2   2   2   2
#     4  12  23  42  71  91 128 181 223 255 324 400
#     4  11  22  43  67  91 133 176 213 266 330 387
#     4  10  18  39  67  89 129 172 216 257 325 390
#     4  10  18  40  70  87 124 175 217 258 322 388
#     4  11  24  41  68  96 131 168 219 265 332 378
#     4  11  23  44  64  97 130 169 217 268 327 385
#     4  11  21  41  68  97 128 179 219 258 327 394
#     4  12  24  40  67 102 129 162 223 279 321 384
#
# _framework density 21.531033999999998
#
# number of rings (size 3 to 8) (size 9 to 14) (size 15 to 20)
#    0.000    1.000    8.750    0.375    3.500    1.500 
#    2.250    3.125    0.000    0.000    0.000    0.000 
#    0.000    0.000    0.000    0.000    0.000    0.000 
#
# Total GULP energy -89430.283593 kJ/mol
# GULP energy per Si atom -5589.392725 kJ/mol
# Density = 2.148203 g / cm^3
# Si number density = 21.531034 Si / 1000 Ang^3
#
#
#
# Elastic Constant Matrix: (Units=GPa)
#
#
# Indices 1 2 3 4 5 6 
#
# 1 85.9977 3.6693 4.1949 -6.6518 -14.2484 -5.3016
# 2 3.6693 39.1848 2.6839 -6.5299 -16.8067 4.1654
# 3 4.1949 2.6839 51.7191 -6.1005 -21.2610 -4.4794
# 4 -6.6518 -6.5299 -6.1005 19.1537 2.0982 -5.1567
# 5 -14.2484 -16.8067 -21.2610 2.0982 38.4468 -2.9658
# 6 -5.3016 4.1654 -4.4794 -5.1567 -2.9658 27.1621
#
#
#
# Elastic Compliance Matrix: (Units=1/GPa)
#
#
# Indices 1 2 3 4 5 6 
#
# 1 0.013538 0.002581 0.003323 0.007116 0.007982 0.005017
# 2 0.002581 0.035580 0.007993 0.013667 0.020274 0.001174
# 3 0.003323 0.007993 0.029731 0.013509 0.021139 0.009199
# 4 0.007116 0.013667 0.013509 0.066348 0.013665 0.015609
# 5 0.007982 0.020274 0.021139 0.013665 0.049541 0.009939
# 6 0.005017 0.001174 0.009199 0.015609 0.009939 0.043181
#
#
# Mechanical properties :
#
#
# Convention : Reuss Voigt Hill
#
# Bulk Modulus (GPa) = 9.37725 21.99976 15.68850
# Shear Modulus (GPa) = 20.35221 28.04276 24.19748
#
# Velocity S-wave (km/s) = 3.07783 3.61284 3.35601
# Velocity P-wave (km/s) = 4.12254 5.25770 4.72434
#
# Compressibility (1/GPa) = 0.10664113
#
# Stress axis : x y z
#
# Youngs Moduli (GPa) = 73.86516 28.10604 33.63497
#
# Poissons Ratio (x) = -0.07253 -0.11177
# Poissons Ratio (y) = -0.19062 -0.26883
# Poissons Ratio (z) = -0.24546 -0.22464
#
# Static dielectric constant tensor:
#      x y z
#    x 1.782490 0.039650 0.032770 
#    y 0.039650 1.781000 -0.024070 
#    z 0.032770 -0.024070 1.806050 
# 
# From -- ./inp_files/216410.got.cif
#   From: 2010.05.17/outbox.cif.g08.bks.cpg/sg2_109_cif.got.tgz:216410.got - 2010.06.03 11:33:40.
