data_PCOD9080405
_publ_section_title
;
Structure prediction by ZEFSAII (Michael W. Deem and Ramdas Pophale) SiO2 
 PCOD9080405
Probable space group: P -1
;
_chemical_formula_sum "Si O2"
_cell_formula_units_Z 16
_cell_length_a 9.758100
_cell_length_b 14.672921
_cell_length_c 13.320681
_cell_angle_alpha 147.424912
_cell_angle_beta 110.100690
_cell_angle_gamma 93.604491
_cell_volume 691.369687
_symmetry_space_group_name_H-M "P -1"
_symmetry_group_IT_number 2
_symmetry_cell_setting 'triclinic'
loop_
_space_group_symop_operation_xyz
x,y,z
-x,-y,-z
loop_
_atom_site_type_symbol
_atom_site_label
_atom_site_fract_x
_atom_site_fract_y
_atom_site_fract_z
Si Si1 0.389630 0.518472 0.159250
Si Si2 0.299540 0.522470 0.372762
Si Si3 0.980048 0.294336 0.757718
Si Si4 0.223774 0.994864 0.380634
Si Si5 0.427686 0.129951 0.079258
Si Si6 0.953805 0.482287 0.218976
Si Si7 0.030108 0.987658 0.809633
Si Si8 0.669604 0.479051 0.279110
O O1 0.337373 0.538281 0.277554
O O2 0.498497 0.427354 0.118509
O O3 0.553251 0.771263 0.380996
O O4 0.184092 0.357999 0.895867
O O5 0.509595 0.715397 0.661898
O O6 0.152678 0.561966 0.392061
O O7 0.166915 0.255779 0.127859
O O8 0.972869 0.323829 0.666102
O O9 0.802834 0.062359 0.561389
O O10 0.000000 0.500000 0.000000
O O11 0.069489 0.017581 0.323256
O O12 0.154523 0.766543 0.094248
O O13 0.563606 0.316501 0.197713
O O14 0.195413 0.972108 0.842008
O O15 0.500000 0.000000 0.000000
O O16 0.796293 0.442401 0.216390
O O17 0.831736 0.759444 0.605323
#
# Coordination Sequence:
#
# PCOD9080405 Si02
#       8
#     2   2   2   2   2   2   2   2
#     4  11  21  40  66  92 122 165 214 248 301 377
#     4  11  22  43  66  89 123 172 213 250 307 368
#     4  10  18  39  63  92 128 158 208 258 298 370
#     4   9  20  38  66  90 120 166 209 252 301 372
#     4  12  26  41  64  94 129 160 207 261 318 367
#     4  10  22  40  62  93 130 161 201 263 315 354
#     4  10  21  44  63  88 125 166 208 256 298 371
#     4  11  25  43  62  94 130 161 205 262 315 366
#
# _framework density 23.142465999999999
#
# number of rings (size 3 to 8) (size 9 to 14) (size 15 to 20)
#    0.000    1.500    5.000    1.125    1.750    5.000 
#    2.250    2.500    0.000    0.000    0.000    0.000 
#    0.000    0.000    0.000    0.000    0.000    0.000 
#
# Total GULP energy -89445.110402 kJ/mol
# GULP energy per Si atom -5590.319400 kJ/mol
# Density = 2.308979 g / cm^3
# Si number density = 23.142466 Si / 1000 Ang^3
#
#
#
# Elastic Constant Matrix: (Units=GPa)
#
#
# Indices 1 2 3 4 5 6 
#
# 1 109.5064 21.7824 12.8223 2.1355 11.2283 -27.2632
# 2 21.7824 90.3837 31.2441 26.1736 8.7229 -13.0632
# 3 12.8223 31.2441 73.7880 14.4203 4.5343 -1.8330
# 4 2.1355 26.1736 14.4203 38.7024 6.2512 2.0848
# 5 11.2283 8.7229 4.5343 6.2512 23.8475 8.3693
# 6 -27.2632 -13.0632 -1.8330 2.0848 8.3693 29.1695
#
#
#
# Elastic Compliance Matrix: (Units=1/GPa)
#
#
# Indices 1 2 3 4 5 6 
#
# 1 0.015101 0.000759 -0.001761 0.000522 -0.013577 0.018201
# 2 0.000759 0.017689 -0.005034 -0.009554 -0.007255 0.011080
# 3 -0.001761 -0.005034 0.016348 -0.002639 0.001330 -0.003066
# 4 0.000522 -0.009554 -0.002639 0.034076 -0.003267 -0.005455
# 5 -0.013577 -0.007255 0.001330 -0.003267 0.063455 -0.033829
# 6 0.018201 0.011080 -0.003066 -0.005455 -0.033829 0.066159
#
#
# Mechanical properties :
#
#
# Convention : Reuss Voigt Hill
#
# Bulk Modulus (GPa) = 26.97862 45.04175 36.01019
# Shear Modulus (GPa) = 21.07440 32.19919 26.63679
#
# Velocity S-wave (km/s) = 3.02095 3.73412 3.39631
# Velocity P-wave (km/s) = 4.88376 6.17225 5.56542
#
# Compressibility (1/GPa) = 0.03706639
#
# Stress axis : x y z
#
# Youngs Moduli (GPa) = 66.22284 56.53114 61.17034
#
# Poissons Ratio (x) = -0.04293 0.10773
# Poissons Ratio (y) = -0.05029 0.30793
# Poissons Ratio (z) = 0.11663 0.28458
#
# Static dielectric constant tensor:
#      x y z
#    x 1.878880 -0.014470 -0.060090 
#    y -0.014470 1.847330 -0.006680 
#    z -0.060090 -0.006680 1.891310 
# 
# From -- ./inp_files/505938.got.cif
#   From: 2010.05.17/outbox.cif.g08.bks.cpg/sg2_253_cif.got.tgz:505938.got - 2010.06.03 11:33:40.
