data_PCOD9080784
_publ_section_title
;
Structure prediction by ZEFSAII (Michael W. Deem and Ramdas Pophale) SiO2 
 PCOD9080784
Probable space group: P -1
;
_chemical_formula_sum "Si O2"
_cell_formula_units_Z 16
_cell_length_a 15.634213
_cell_length_b 13.231604
_cell_length_c 13.114391
_cell_angle_alpha 157.260656
_cell_angle_beta 80.733090
_cell_angle_gamma 108.655334
_cell_volume 924.682656
_symmetry_space_group_name_H-M "P -1"
_symmetry_group_IT_number 2
_symmetry_cell_setting 'triclinic'
loop_
_space_group_symop_operation_xyz
x,y,z
-x,-y,-z
loop_
_atom_site_type_symbol
_atom_site_label
_atom_site_fract_x
_atom_site_fract_y
_atom_site_fract_z
Si Si1 0.247357 0.220688 0.456924
Si Si2 0.544428 0.352668 0.208201
Si Si3 0.431911 0.699144 0.600186
Si Si4 0.901500 0.428661 0.394559
Si Si5 0.062590 0.351493 0.633059
Si Si6 0.904851 0.925664 0.379903
Si Si7 0.221379 0.223938 0.225219
Si Si8 0.838237 0.298655 0.876047
O O1 0.347128 0.506929 0.725928
O O2 0.152481 0.267243 0.544301
O O3 0.243769 0.173406 0.291788
O O4 0.243624 0.946550 0.265911
O O5 0.500219 0.580861 0.422966
O O6 0.555074 0.313585 0.291406
O O7 0.470475 0.040167 0.887280
O O8 0.320671 0.471781 0.390661
O O9 0.924320 0.478295 0.315717
O O10 0.855880 0.645583 0.635113
O O11 0.000000 0.500000 0.500000
O O12 0.823514 0.092227 0.112182
O O13 0.076469 0.559607 0.922114
O O14 0.958693 0.067367 0.395873
O O15 0.856832 0.115170 0.613593
O O16 0.836900 0.581466 0.087123
O O17 0.000000 0.000000 0.500000
#
# Coordination Sequence:
#
# PCOD9080784 Si02
#       8
#     2   2   2   2   2   2   2   2
#     4  10  19  27  45  65  93 123 152 184 216 262
#     4   9  18  26  41  63  86 113 153 180 211 254
#     4   9  17  30  42  59  84 117 150 183 212 263
#     4  11  22  34  49  68  88 117 158 199 228 254
#     4  10  20  31  45  62  91 124 157 183 221 263
#     4  10  19  27  43  61  86 118 162 175 212 266
#     4  10  20  33  48  62  88 122 155 186 229 264
#     4  11  18  29  42  65  87 122 157 178 211 265
#
# _framework density 17.303234
#
# number of rings (size 3 to 8) (size 9 to 14) (size 15 to 20)
#    0.000    2.000    3.750    2.625    1.750    3.000 
#    0.000    0.000    0.000    0.000    0.000    0.000 
#    0.000    0.000    0.000   22.500    0.000    1.250 
#
# Total GULP energy -89092.673948 kJ/mol
# GULP energy per Si atom -5568.292122 kJ/mol
# Density = 1.726385 g / cm^3
# Si number density = 17.303234 Si / 1000 Ang^3
#
#
#
# Elastic Constant Matrix: (Units=GPa)
#
#
# Indices 1 2 3 4 5 6 
#
# 1 38.5730 24.6544 19.6515 6.2308 0.4944 8.1503
# 2 24.6544 41.3596 33.0795 19.5646 1.8715 11.9129
# 3 19.6515 33.0795 103.6461 28.7319 -11.0679 5.2892
# 4 6.2308 19.5646 28.7319 21.5193 5.3730 2.4103
# 5 0.4944 1.8715 -11.0679 5.3730 24.3416 0.8409
# 6 8.1503 11.9129 5.2892 2.4103 0.8409 13.2992
#
#
#
# Elastic Compliance Matrix: (Units=1/GPa)
#
#
# Indices 1 2 3 4 5 6 
#
# 1 0.048926 -0.039668 -0.006661 0.032536 -0.008252 0.002823
# 2 -0.039668 0.095809 0.001772 -0.075620 0.012640 -0.049311
# 3 -0.006661 0.001772 0.020946 -0.031652 0.016549 -0.001145
# 4 0.032536 -0.075620 -0.031652 0.155302 -0.044730 0.035068
# 5 -0.008252 0.012640 0.016549 -0.044730 0.057966 -0.008406
# 6 0.002823 -0.049311 -0.001145 0.035068 -0.008406 0.112265
#
#
# Mechanical properties :
#
#
# Convention : Reuss Voigt Hill
#
# Bulk Modulus (GPa) = 13.06052 37.59441 25.32747
# Shear Modulus (GPa) = 8.25285 18.91155 13.58220
#
# Velocity S-wave (km/s) = 2.18630 3.30956 2.80474
# Velocity P-wave (km/s) = 3.73331 6.03144 5.01577
#
# Compressibility (1/GPa) = 0.07656663
#
# Stress axis : x y z
#
# Youngs Moduli (GPa) = 20.43883 10.43739 47.74279
#
# Poissons Ratio (x) = 0.41403 0.31800
# Poissons Ratio (y) = 0.81077 -0.08459
# Poissons Ratio (z) = 0.13614 -0.01849
#
# Static dielectric constant tensor:
#      x y z
#    x 1.587820 0.035740 -0.019940 
#    y 0.035740 1.647530 0.042030 
#    z -0.019940 0.042030 1.649090 
# 
# From -- ./inp_files/533520.got.cif
#   From: 2010.05.17/outbox.cif.g08.bks.cpg/sg2_267_cif.got.tgz:533520.got - 2010.06.03 11:33:40.
