data_PCOD9080226
_publ_section_title
;
Structure prediction by ZEFSAII (Michael W. Deem and Ramdas Pophale) SiO2 
 PCOD9080226
Probable space group: P -1
;
_chemical_formula_sum "Si O2"
_cell_formula_units_Z 15
_cell_length_a 8.921255
_cell_length_b 8.509166
_cell_length_c 9.098067
_cell_angle_alpha 79.147885
_cell_angle_beta 105.913505
_cell_angle_gamma 101.649069
_cell_volume 643.998229
_symmetry_space_group_name_H-M "P -1"
_symmetry_group_IT_number 2
_symmetry_cell_setting 'triclinic'
loop_
_space_group_symop_operation_xyz
x,y,z
-x,-y,-z
loop_
_atom_site_type_symbol
_atom_site_label
_atom_site_fract_x
_atom_site_fract_y
_atom_site_fract_z
Si Si1 0.419955 0.717478 0.985172
Si Si2 0.500000 0.500000 0.500000
Si Si3 0.386571 0.118310 0.511351
Si Si4 0.217126 0.965774 0.786178
Si Si5 0.660646 0.547588 0.223560
Si Si6 0.113346 0.227577 0.244703
Si Si7 0.856574 0.431701 0.860953
Si Si8 0.920392 0.766085 0.115785
O O1 0.350590 0.881980 0.917917
O O2 0.410305 0.618448 0.848301
O O3 0.584869 0.697860 0.105032
O O4 0.299824 0.609694 0.081003
O O5 0.483302 0.298934 0.518550
O O6 0.617890 0.526029 0.383129
O O7 0.238551 0.127948 0.362557
O O8 0.500000 0.000000 0.500000
O O9 0.302535 0.052199 0.652533
O O10 0.066343 0.825213 0.740066
O O11 0.125735 0.083163 0.837548
O O12 0.838238 0.604228 0.207921
O O13 0.165905 0.416519 0.271146
O O14 0.123592 0.220607 0.070459
O O15 0.899689 0.267728 0.833784
O O16 0.000000 0.500000 0.000000
#
# Coordination Sequence:
#
# PCOD9080226 Si02
#       8
#     2   1   2   2   2   2   2   2
#     4  11  22  39  71  99 131 182 228 286 345 415
#     4  12  26  50  66 100 146 182 230 288 342 420
#     4  12  29  49  71 101 144 190 231 284 356 414
#     4  12  24  44  67 103 144 177 227 292 350 411
#     4  11  23  41  69  98 133 180 234 280 345 410
#     4  11  23  45  72  99 140 181 228 288 348 418
#     4  10  18  38  66  97 128 171 223 277 343 398
#     4  11  22  41  67 104 131 173 231 284 339 409
#
# _framework density 23.291990999999999
#
# number of rings (size 3 to 8) (size 9 to 14) (size 15 to 20)
#    0.000    0.800    6.667    2.400    3.733    1.600 
#    2.400    0.667    0.000    0.000    0.000    0.000 
#    0.000    0.000    0.000    0.000    0.000    0.000 
#
# Total GULP energy -83563.285297 kJ/mol
# GULP energy per Si atom -5570.885686 kJ/mol
# Density = 2.323898 g / cm^3
# Si number density = 23.291991 Si / 1000 Ang^3
#
#
#
# Elastic Constant Matrix: (Units=GPa)
#
#
# Indices 1 2 3 4 5 6 
#
# 1 72.3851 32.4231 30.8108 -5.8610 -11.3778 -23.3083
# 2 32.4231 132.4934 45.9655 -10.7670 -17.8458 -28.2211
# 3 30.8108 45.9655 66.9740 -10.7048 -22.3424 0.3714
# 4 -5.8610 -10.7670 -10.7048 32.1063 -4.8156 -11.1744
# 5 -11.3778 -17.8458 -22.3424 -4.8156 31.4657 -10.3009
# 6 -23.3083 -28.2211 0.3714 -11.1744 -10.3009 49.8773
#
#
#
# Elastic Compliance Matrix: (Units=1/GPa)
#
#
# Indices 1 2 3 4 5 6 
#
# 1 0.024591 0.003310 -0.007278 0.011773 0.013578 0.018860
# 2 0.003310 0.014117 -0.006024 0.009885 0.011046 0.014075
# 3 -0.007278 -0.006024 0.028491 0.007527 0.014573 -0.002326
# 4 0.011773 0.009885 0.007527 0.054646 0.033455 0.030191
# 5 0.013578 0.011046 0.014573 0.033455 0.069674 0.034371
# 6 0.018860 0.014075 -0.002326 0.030191 0.034371 0.050706
#
#
# Mechanical properties :
#
#
# Convention : Reuss Voigt Hill
#
# Bulk Modulus (GPa) = 21.18007 54.47236 37.82622
# Shear Modulus (GPa) = 17.98900 33.53339 25.76119
#
# Velocity S-wave (km/s) = 2.78209 3.79845 3.32928
# Velocity P-wave (km/s) = 4.40829 6.53262 5.57262
#
# Compressibility (1/GPa) = 0.04721420
#
# Stress axis : x y z
#
# Youngs Moduli (GPa) = 40.66574 70.83835 35.09858
#
# Poissons Ratio (x) = -0.23447 0.25544
# Poissons Ratio (y) = -0.13460 0.21145
# Poissons Ratio (z) = 0.29596 0.42675
#
# Static dielectric constant tensor:
#      x y z
#    x 1.893840 0.039450 0.098290 
#    y 0.039450 1.968410 0.024130 
#    z 0.098290 0.024130 1.907690 
# 
# From -- ./inp_files/154053.got.cif
#   From: 2010.05.17/outbox.cif.g08.bks.cpg/sg2_78_cif.got.tgz:154053.got - 2010.06.03 11:33:40.
