data_PCOD9080751
_publ_section_title
;
Structure prediction by ZEFSAII (Michael W. Deem and Ramdas Pophale) SiO2 
 PCOD9080751
Probable space group: P -1
;
_chemical_formula_sum "Si O2"
_cell_formula_units_Z 16
_cell_length_a 10.306229
_cell_length_b 12.570451
_cell_length_c 6.180133
_cell_angle_alpha 89.998813
_cell_angle_beta 51.481500
_cell_angle_gamma 89.996227
_cell_volume 626.442565
_symmetry_space_group_name_H-M "P -1"
_symmetry_group_IT_number 2
_symmetry_cell_setting 'triclinic'
loop_
_space_group_symop_operation_xyz
x,y,z
-x,-y,-z
loop_
_atom_site_type_symbol
_atom_site_label
_atom_site_fract_x
_atom_site_fract_y
_atom_site_fract_z
Si Si1 0.436885 0.749990 0.816643
Si Si2 0.160587 0.564660 0.113265
Si Si3 0.339472 0.977720 0.313817
Si Si4 0.453829 0.749988 0.310094
Si Si5 0.829720 0.871346 0.205620
Si Si6 0.829692 0.628650 0.205619
Si Si7 0.660548 0.477717 0.686182
Si Si8 0.160565 0.935333 0.113325
O O1 0.523161 0.749981 0.487462
O O2 0.310390 0.649284 0.940727
O O3 0.514717 0.749986 0.986340
O O4 0.310404 0.850719 0.940726
O O5 0.169736 0.541471 0.358032
O O6 0.001728 0.609430 0.155816
O O7 0.192728 0.450712 0.970744
O O8 0.366024 0.865354 0.403519
O O9 0.169756 0.958553 0.358030
O O10 0.309038 0.081927 0.487857
O O11 0.500000 0.000000 0.000000
O O12 0.366000 0.634641 0.403542
O O13 0.837501 0.750001 0.128817
O O14 0.001716 0.890517 0.155949
O O15 0.807389 0.950733 0.029188
O O16 0.690985 0.581929 0.512158
O O17 0.500000 0.500000 0.000000
#
# Coordination Sequence:
#
# PCOD9080751 Si02
#       8
#     2   2   2   2   2   2   2   2
#     4  10  18  42  69  97 132 180 233 274 352 417
#     4  10  22  43  65  97 129 177 224 288 348 407
#     4  11  25  43  65  95 137 181 229 282 349 417
#     4  10  22  42  67  97 134 188 225 282 348 421
#     4  11  23  41  66  97 133 172 234 285 347 411
#     4  11  23  41  66  97 133 172 234 285 347 411
#     4  11  25  43  65  95 137 181 229 282 349 417
#     4  10  22  43  65  97 129 177 224 288 348 407
#
# _framework density 25.541046000000001
#
# number of rings (size 3 to 8) (size 9 to 14) (size 15 to 20)
#    0.000    1.500    3.750    0.750    1.750    2.000 
#    0.000    0.000    0.000    0.000    0.000    0.000 
#    0.000    0.000    0.000    0.000    0.000    0.000 
#
# Total GULP energy -89216.963895 kJ/mol
# GULP energy per Si atom -5576.060243 kJ/mol
# Density = 2.548291 g / cm^3
# Si number density = 25.541046 Si / 1000 Ang^3
#
#
#
# Elastic Constant Matrix: (Units=GPa)
#
#
# Indices 1 2 3 4 5 6 
#
# 1 92.3500 27.9416 12.4820 -0.0512 21.0035 -0.0491
# 2 27.9416 212.6154 17.2385 0.0295 9.7647 0.0855
# 3 12.4820 17.2385 73.9888 0.0191 20.4737 0.0449
# 4 -0.0512 0.0295 0.0191 35.1550 0.0520 18.5569
# 5 21.0035 9.7647 20.4737 0.0520 37.0502 0.0934
# 6 -0.0491 0.0855 0.0449 18.5569 0.0934 19.2764
#
#
#
# Elastic Compliance Matrix: (Units=1/GPa)
#
#
# Indices 1 2 3 4 5 6 
#
# 1 0.012812 -0.001371 0.000080 -0.000016 -0.006946 0.000088
# 2 -0.001371 0.004959 -0.000918 0.000014 -0.000022 -0.000036
# 3 0.000080 -0.000918 0.016128 0.000001 -0.008716 0.000008
# 4 -0.000016 0.000014 0.000001 0.057834 0.000065 -0.055676
# 5 -0.006946 -0.000022 -0.008716 0.000065 0.035751 -0.000233
# 6 0.000088 -0.000036 0.000008 -0.055676 -0.000233 0.105476
#
#
# Mechanical properties :
#
#
# Convention : Reuss Voigt Hill
#
# Bulk Modulus (GPa) = 33.92035 54.91980 44.42008
# Shear Modulus (GPa) = 20.22610 39.71580 29.97095
#
# Velocity S-wave (km/s) = 2.81713 3.94760 3.42927
# Velocity P-wave (km/s) = 4.88786 6.50594 5.75407
#
# Compressibility (1/GPa) = 0.02948083
#
# Stress axis : x y z
#
# Youngs Moduli (GPa) = 78.05013 201.65374 62.00557
#
# Poissons Ratio (x) = 0.27652 -0.00497
# Poissons Ratio (y) = 0.10703 0.05691
# Poissons Ratio (z) = -0.00625 0.18509
#
# Static dielectric constant tensor:
#      x y z
#    x 2.013500 -0.006520 -0.038320 
#    y -0.006520 19.373640 -0.005470 
#    z -0.038320 -0.005470 2.167030 
# 
# From -- ./inp_files/70305.got.cif
#   From: 2010.05.17/outbox.cif.g08.bks.cpg/sg2_36_cif.got.tgz:70305.got - 2010.06.03 11:33:40.
