data_PCOD9080765
_publ_section_title
;
Structure prediction by ZEFSAII (Michael W. Deem and Ramdas Pophale) SiO2 
 PCOD9080765
Probable space group: P -1
;
_chemical_formula_sum "Si O2"
_cell_formula_units_Z 12
_cell_length_a 10.339361
_cell_length_b 10.063490
_cell_length_c 14.316363
_cell_angle_alpha 140.425401
_cell_angle_beta 137.478761
_cell_angle_gamma 67.878163
_cell_volume 574.459653
_symmetry_space_group_name_H-M "P -1"
_symmetry_group_IT_number 2
_symmetry_cell_setting 'triclinic'
loop_
_space_group_symop_operation_xyz
x,y,z
-x,-y,-z
loop_
_atom_site_type_symbol
_atom_site_label
_atom_site_fract_x
_atom_site_fract_y
_atom_site_fract_z
Si Si1 0.395757 0.908974 0.568576
Si Si2 0.138521 0.015639 0.173235
Si Si3 0.504703 0.422800 0.853158
Si Si4 0.103310 0.858535 0.536383
Si Si5 0.091040 0.320787 0.476311
Si Si6 0.956024 0.503569 0.120835
O O1 0.609173 0.880181 0.659116
O O2 0.430317 0.144904 0.663992
O O3 0.179496 0.692184 0.299428
O O4 0.337906 0.941064 0.662915
O O5 0.101394 0.175066 0.315181
O O6 0.075177 0.757077 0.039659
O O7 0.000000 0.000000 0.000000
O O8 0.328923 0.457274 0.719365
O O9 0.500000 0.500000 0.000000
O O10 0.986067 0.590898 0.292643
O O11 0.056866 0.854250 0.616912
O O12 0.000000 0.000000 0.500000
O O13 0.257414 0.473120 0.006483
O O14 0.000000 0.500000 0.500000
#
# Coordination Sequence:
#
# PCOD9080765 Si02
#       6
#     2   2   2   2   2   2
#     4   9  21  41  72  94 133 176 232 276 336 403
#     4  11  25  44  65  96 144 188 218 277 360 405
#     4  11  19  39  73  98 130 180 225 280 343 401
#     4  10  18  43  70  97 132 175 223 280 332 399
#     4  12  25  42  69 106 138 177 232 287 341 411
#     4   9  20  39  70  93 129 178 226 273 343 395
#
# _framework density 20.889195000000001
#
# number of rings (size 3 to 8) (size 9 to 14) (size 15 to 20)
#    1.000    0.667    3.333    1.000    2.333    3.333 
#    0.000   10.000    0.000    0.000    0.000    0.000 
#    0.000    0.000    0.000    0.000    0.000    0.000 
#
# Total GULP energy -66948.761765 kJ/mol
# GULP energy per Si atom -5579.063480 kJ/mol
# Density = 2.084165 g / cm^3
# Si number density = 20.889195 Si / 1000 Ang^3
#
#
#
# Elastic Constant Matrix: (Units=GPa)
#
#
# Indices 1 2 3 4 5 6 
#
# 1 161.7883 76.2090 62.4797 -4.9904 1.2027 -23.1776
# 2 76.2090 132.7305 60.2345 -14.2656 0.0378 -28.0956
# 3 62.4797 60.2345 110.6211 -0.8977 8.4166 -18.3939
# 4 -4.9904 -14.2656 -0.8977 29.8669 0.2711 -1.5596
# 5 1.2027 0.0378 8.4166 0.2711 50.0565 1.2801
# 6 -23.1776 -28.0956 -18.3939 -1.5596 1.2801 33.8629
#
#
#
# Elastic Compliance Matrix: (Units=1/GPa)
#
#
# Indices 1 2 3 4 5 6 
#
# 1 0.009287 -0.003629 -0.003008 -0.000186 0.000243 0.001694
# 2 -0.003629 0.013638 -0.004243 0.006129 0.000583 0.006787
# 3 -0.003008 -0.004243 0.013491 -0.002012 -0.002227 0.001741
# 4 -0.000186 0.006129 -0.002012 0.036608 -0.000002 0.005551
# 5 0.000243 0.000583 -0.002227 -0.000002 0.020380 -0.001330
# 6 0.001694 0.006787 0.001741 0.005551 -0.001330 0.037574
#
#
# Mechanical properties :
#
#
# Convention : Reuss Voigt Hill
#
# Bulk Modulus (GPa) = 68.22046 89.22068 78.72057
# Shear Modulus (GPa) = 31.72145 36.50506 34.11325
#
# Velocity S-wave (km/s) = 3.90110 4.18491 4.04549
# Velocity P-wave (km/s) = 7.28152 8.13360 7.71933
#
# Compressibility (1/GPa) = 0.01465836
#
# Stress axis : x y z
#
# Youngs Moduli (GPa) = 107.67892 73.32336 74.12080
#
# Poissons Ratio (x) = 0.26606 0.22294
# Poissons Ratio (y) = 0.39072 0.31448
# Poissons Ratio (z) = 0.32387 0.31109
#
# Static dielectric constant tensor:
#      x y z
#    x 1.785650 0.015340 0.004030 
#    y 0.015340 1.732590 -0.000100 
#    z 0.004030 -0.000100 1.805880 
# 
# From -- ./inp_files/513882.got.cif
#   From: 2010.05.17/outbox.cif.g08.bks.cpg/sg2_257_cif.got.tgz:513882.got - 2010.06.03 11:33:40.
