data_PCOD9080195
_publ_section_title
;
Structure prediction by ZEFSAII (Michael W. Deem and Ramdas Pophale) SiO2 
 PCOD9080195
Probable space group: P -1
;
_chemical_formula_sum "Si O2"
_cell_formula_units_Z 15
_cell_length_a 13.190845
_cell_length_b 12.121207
_cell_length_c 17.971968
_cell_angle_alpha 148.403311
_cell_angle_beta 23.289596
_cell_angle_gamma 146.254168
_cell_volume 578.257991
_symmetry_space_group_name_H-M "P -1"
_symmetry_group_IT_number 2
_symmetry_cell_setting 'triclinic'
loop_
_space_group_symop_operation_xyz
x,y,z
-x,-y,-z
loop_
_atom_site_type_symbol
_atom_site_label
_atom_site_fract_x
_atom_site_fract_y
_atom_site_fract_z
Si Si1 0.743052 0.872520 0.916204
Si Si2 0.085338 0.842406 0.524085
Si Si3 0.526552 0.143235 0.489380
Si Si4 0.500000 0.500000 0.500000
Si Si5 0.642369 0.883876 0.746196
Si Si6 0.748528 0.453307 0.088140
Si Si7 0.021195 0.684009 0.906441
Si Si8 0.125889 0.369358 0.181823
O O1 0.902061 0.802474 0.699590
O O2 0.694302 0.703067 0.918852
O O3 0.477938 0.930084 0.100146
O O4 0.921277 0.099214 0.958415
O O5 0.927292 0.945834 0.628189
O O6 0.122702 0.617582 0.338086
O O7 0.357418 0.996626 0.455372
O O8 0.408087 0.356412 0.696344
O O9 0.833500 0.229188 0.317177
O O10 0.500000 0.000000 0.500000
O O11 0.611959 0.699274 0.598051
O O12 0.305666 0.640678 0.672671
O O13 0.559085 0.237681 0.123511
O O14 0.000000 0.500000 0.000000
O O15 0.883367 0.480536 0.932956
O O16 0.843431 0.691349 0.959002
#
# Coordination Sequence:
#
# PCOD9080195 Si02
#       8
#     2   2   2   1   2   2   2   2
#     4  11  23  40  72 105 142 189 238 292 367 422
#     4  12  23  44  73 111 140 189 247 296 354 432
#     4  12  25  44  71 108 143 192 239 291 363 432
#     4  10  18  38  66 104 138 190 228 292 370 410
#     4  11  23  42  74 108 144 187 243 301 355 434
#     4  12  21  41  71 104 139 191 240 286 356 434
#     4  11  22  41  69 104 145 192 235 290 369 420
#     4  12  25  45  73 106 152 187 238 303 359 428
#
# _framework density 25.939978
#
# number of rings (size 3 to 8) (size 9 to 14) (size 15 to 20)
#    0.000    0.533    8.000    1.200    0.000    0.000 
#    0.000    1.333    0.000   13.600    0.000    0.000 
#    0.000    0.000    0.000    0.000    0.000    0.000 
#
# Total GULP energy -83909.684396 kJ/mol
# GULP energy per Si atom -5593.978960 kJ/mol
# Density = 2.588094 g / cm^3
# Si number density = 25.939978 Si / 1000 Ang^3
#
#
#
# Elastic Constant Matrix: (Units=GPa)
#
#
# Indices 1 2 3 4 5 6 
#
# 1 182.7619 48.6055 60.0886 8.8231 -25.0689 4.4952
# 2 48.6055 89.9988 18.1304 0.9128 -16.5837 13.8259
# 3 60.0886 18.1304 67.7328 14.3275 -26.6769 0.0581
# 4 8.8231 0.9128 14.3275 25.0775 -1.4669 -0.6368
# 5 -25.0689 -16.5837 -26.6769 -1.4669 57.9267 9.2726
# 6 4.4952 13.8259 0.0581 -0.6368 9.2726 50.4325
#
#
#
# Elastic Compliance Matrix: (Units=1/GPa)
#
#
# Indices 1 2 3 4 5 6 
#
# 1 0.008585 -0.003347 -0.007197 0.001187 -0.000572 0.000281
# 2 -0.003347 0.014110 0.000467 0.000495 0.003492 -0.004206
# 3 -0.007197 0.000467 0.027477 -0.012659 0.009583 -0.001440
# 4 0.001187 0.000495 -0.012659 0.046458 -0.004179 0.001128
# 5 -0.000572 0.003492 0.009583 -0.004179 0.023159 -0.005228
# 6 0.000281 -0.004206 -0.001440 0.001128 -0.005228 0.021934
#
#
# Mechanical properties :
#
#
# Convention : Reuss Voigt Hill
#
# Bulk Modulus (GPa) = 33.31447 66.01581 49.66514
# Shear Modulus (GPa) = 29.08942 40.93192 35.01067
#
# Velocity S-wave (km/s) = 3.35238 3.97665 3.67778
# Velocity P-wave (km/s) = 5.27782 6.82566 6.10103
#
# Compressibility (1/GPa) = 0.03001699
#
# Stress axis : x y z
#
# Youngs Moduli (GPa) = 116.47612 70.87398 36.39392
#
# Poissons Ratio (x) = 0.23725 0.26193
# Poissons Ratio (y) = 0.38990 -0.01700
# Poissons Ratio (z) = 0.83829 -0.03310
#
# Static dielectric constant tensor:
#      x y z
#    x 2.044650 -0.084600 0.825590 
#    y -0.084600 2.211150 -3.097520 
#    z 0.825590 -3.097520 48.205070 
# 
# From -- ./inp_files/569236.got.cif
#   From: 2010.05.17/outbox.cif.g08.bks.cpg/sg2_285_cif.got.tgz:569236.got - 2010.06.03 11:33:40.
