data_PCOD9080468
_publ_section_title
;
Structure prediction by ZEFSAII (Michael W. Deem and Ramdas Pophale) SiO2 
 PCOD9080468
Probable space group: P -1
;
_chemical_formula_sum "Si O2"
_cell_formula_units_Z 14
_cell_length_a 8.603775
_cell_length_b 14.268475
_cell_length_c 11.510679
_cell_angle_alpha 152.394129
_cell_angle_beta 92.433561
_cell_angle_gamma 79.773132
_cell_volume 623.620777
_symmetry_space_group_name_H-M "P -1"
_symmetry_group_IT_number 2
_symmetry_cell_setting 'triclinic'
loop_
_space_group_symop_operation_xyz
x,y,z
-x,-y,-z
loop_
_atom_site_type_symbol
_atom_site_label
_atom_site_fract_x
_atom_site_fract_y
_atom_site_fract_z
Si Si1 0.418038 0.957100 0.723327
Si Si2 0.733464 0.999125 0.673588
Si Si3 0.918366 0.219917 0.090778
Si Si4 0.348790 0.708521 0.227360
Si Si5 0.991202 0.761374 0.258768
Si Si6 0.789097 0.211260 0.323531
Si Si7 0.145998 0.388212 0.142122
O O1 0.356169 0.841694 0.488517
O O2 0.375805 0.844265 0.712303
O O3 0.604167 0.937516 0.682462
O O4 0.307097 0.201259 0.980964
O O5 0.815608 0.149044 0.910715
O O6 0.647058 0.137590 0.712008
O O7 0.873439 0.796944 0.405353
O O8 0.811562 0.280457 0.269463
O O9 0.067814 0.007629 0.889012
O O10 0.000869 0.388073 0.227189
O O11 0.182204 0.644258 0.149045
O O12 0.500000 0.500000 0.000000
O O13 0.911939 0.679008 0.057006
O O14 0.000000 0.000000 0.500000
O O15 0.815117 0.391988 0.606587
#
# Coordination Sequence:
#
# PCOD9080468 Si02
#       7
#     2   2   2   2   2   2   2
#     4  11  24  40  61  97 141 168 218 277 323 391
#     4  11  22  42  68  93 136 182 202 277 339 379
#     4  10  21  45  67  94 136 168 228 278 317 389
#     4  11  23  39  67  99 132 169 219 271 333 390
#     4  10  18  39  67  95 130 168 217 267 331 387
#     4  10  24  40  68 100 125 181 225 267 326 390
#     4  11  20  41  70  94 131 174 223 270 332 384
#
# _framework density 22.449542000000001
#
# number of rings (size 3 to 8) (size 9 to 14) (size 15 to 20)
#    0.000    1.429    5.714    1.714    2.000    1.714 
#    0.000    2.857    0.000    0.000    0.000    0.000 
#    0.000    0.000    0.000    0.000    0.000    0.000 
#
# Total GULP energy -78325.304346 kJ/mol
# GULP energy per Si atom -5594.664596 kJ/mol
# Density = 2.239845 g / cm^3
# Si number density = 22.449542 Si / 1000 Ang^3
#
#
#
# Elastic Constant Matrix: (Units=GPa)
#
#
# Indices 1 2 3 4 5 6 
#
# 1 133.8208 26.0391 20.5947 8.2977 -28.0122 41.2519
# 2 26.0391 43.9914 11.8923 -3.2821 -11.5499 23.5789
# 3 20.5947 11.8923 61.5141 3.5720 -6.0987 11.4537
# 4 8.2977 -3.2821 3.5720 28.6301 6.0445 -0.7599
# 5 -28.0122 -11.5499 -6.0987 6.0445 32.9265 0.2347
# 6 41.2519 23.5789 11.4537 -0.7599 0.2347 41.2798
#
#
#
# Elastic Compliance Matrix: (Units=1/GPa)
#
#
# Indices 1 2 3 4 5 6 
#
# 1 0.016967 0.004708 -0.000671 -0.008548 0.017671 -0.019716
# 2 0.004708 0.039523 -0.002418 -0.000998 0.017795 -0.026729
# 3 -0.000671 -0.002418 0.017918 -0.002916 0.002456 -0.002987
# 4 -0.008548 -0.000998 -0.002916 0.041280 -0.015817 0.010771
# 5 0.017671 0.017795 0.002456 -0.015817 0.055213 -0.029110
# 6 -0.019716 -0.026729 -0.002987 0.010771 -0.029110 0.060388
#
#
# Mechanical properties :
#
#
# Convention : Reuss Voigt Hill
#
# Bulk Modulus (GPa) = 12.87915 39.59759 26.23837
# Shear Modulus (GPa) = 19.69036 32.62063 26.15550
#
# Velocity S-wave (km/s) = 2.96479 3.81604 3.41703
# Velocity P-wave (km/s) = 4.17964 6.09040 5.22314
#
# Compressibility (1/GPa) = 0.07764488
#
# Stress axis : x y z
#
# Youngs Moduli (GPa) = 58.93910 25.30203 55.81082
#
# Poissons Ratio (x) = -0.11912 0.03746
# Poissons Ratio (y) = -0.27749 0.13495
# Poissons Ratio (z) = 0.03956 0.06118
#
# Static dielectric constant tensor:
#      x y z
#    x 1.831380 0.032350 -0.032650 
#    y 0.032350 1.897370 0.007320 
#    z -0.032650 0.007320 1.804410 
# 
# From -- ./inp_files/315871.got.cif
#   From: 2010.05.17/outbox.cif.g08.bks.cpg/sg2_158_cif.got.tgz:315871.got - 2010.06.03 11:33:40.
