data_PCOD9080093
_publ_section_title
;
Structure prediction by ZEFSAII (Michael W. Deem and Ramdas Pophale) SiO2 
 PCOD9080093
Probable space group: P -1
;
_chemical_formula_sum "Si O2"
_cell_formula_units_Z 16
_cell_length_a 11.082479
_cell_length_b 17.103966
_cell_length_c 8.982394
_cell_angle_alpha 131.222552
_cell_angle_beta 74.825976
_cell_angle_gamma 66.087000
_cell_volume 748.157147
_symmetry_space_group_name_H-M "P -1"
_symmetry_group_IT_number 2
_symmetry_cell_setting 'triclinic'
loop_
_space_group_symop_operation_xyz
x,y,z
-x,-y,-z
loop_
_atom_site_type_symbol
_atom_site_label
_atom_site_fract_x
_atom_site_fract_y
_atom_site_fract_z
Si Si1 0.711687 0.816566 0.646454
Si Si2 0.847312 0.522546 0.414296
Si Si3 0.823064 0.646667 0.117458
Si Si4 0.765368 0.145300 0.821184
Si Si5 0.306487 0.572849 0.824012
Si Si6 0.658685 0.607337 0.886220
Si Si7 0.019496 0.166764 0.475300
Si Si8 0.664108 0.370359 0.653120
O O1 0.766371 0.679560 0.554920
O O2 0.682569 0.808131 0.471009
O O3 0.885631 0.790614 0.567500
O O4 0.500000 0.000000 0.000000
O O5 0.737256 0.490546 0.353686
O O6 0.797578 0.564524 0.656590
O O7 0.073478 0.362670 0.066168
O O8 0.708749 0.626066 0.051927
O O9 0.000000 0.500000 0.000000
O O10 0.796152 0.031638 0.784508
O O11 0.699735 0.306037 0.089392
O O12 0.584605 0.229143 0.871632
O O13 0.000000 0.000000 0.500000
O O14 0.526883 0.403431 0.617715
O O15 0.128908 0.698856 0.169647
O O16 0.715766 0.449046 0.671418
O O17 0.872690 0.198401 0.450683
O O18 0.500000 0.500000 0.000000
#
# Coordination Sequence:
#
# PCOD9080093 Si02
#       8
#     2   2   2   2   2   2   2   2
#     4  11  23  39  64  92 130 172 210 263 331 383
#     4  11  22  39  66  99 130 162 221 273 316 388
#     4  10  22  40  67  92 122 170 216 266 321 380
#     4   9  20  38  61  90 131 173 205 260 321 382
#     4   9  19  36  64  94 121 171 214 260 320 374
#     4  11  22  39  66  96 127 167 221 269 315 382
#     4  10  18  38  63  88 130 168 212 264 319 376
#     4   9  19  32  62  97 120 165 221 259 308 381
#
# _framework density 21.38588
#
# number of rings (size 3 to 8) (size 9 to 14) (size 15 to 20)
#    0.000    2.000    1.250    3.375    5.250    2.000 
#    0.000    2.500   16.500    3.750    0.000    0.000 
#    0.000    0.000    0.000    0.000    0.000    0.000 
#
# Total GULP energy -89194.972067 kJ/mol
# GULP energy per Si atom -5574.685754 kJ/mol
# Density = 2.133720 g / cm^3
# Si number density = 21.385880 Si / 1000 Ang^3
#
#
#
# Elastic Constant Matrix: (Units=GPa)
#
#
# Indices 1 2 3 4 5 6 
#
# 1 97.9868 33.7714 22.9874 -0.9852 8.1185 -7.9429
# 2 33.7714 82.1652 29.8600 1.7464 0.6127 -0.5614
# 3 22.9874 29.8600 79.8527 -15.4366 -2.6993 -4.1184
# 4 -0.9852 1.7464 -15.4366 38.5926 3.6025 -5.6450
# 5 8.1185 0.6127 -2.6993 3.6025 27.3224 -3.3194
# 6 -7.9429 -0.5614 -4.1184 -5.6450 -3.3194 44.9052
#
#
#
# Elastic Compliance Matrix: (Units=1/GPa)
#
#
# Indices 1 2 3 4 5 6 
#
# 1 0.012651 -0.004464 -0.001937 0.000354 -0.003681 0.001777
# 2 -0.004464 0.016018 -0.005388 -0.003269 0.000691 -0.001443
# 3 -0.001937 -0.005388 0.016613 0.006993 0.001673 0.002116
# 4 0.000354 -0.003269 0.006993 0.029737 -0.002752 0.004198
# 5 -0.003681 0.000691 0.001673 -0.002752 0.038450 0.002007
# 6 0.001777 -0.001443 0.002116 0.004198 0.002007 0.023436
#
#
# Mechanical properties :
#
#
# Convention : Reuss Voigt Hill
#
# Bulk Modulus (GPa) = 46.07394 48.13804 47.10599
# Shear Modulus (GPa) = 29.81231 33.72308 31.76770
#
# Velocity S-wave (km/s) = 3.73771 3.97531 3.85834
# Velocity P-wave (km/s) = 6.34178 6.60522 6.47484
#
# Compressibility (1/GPa) = 0.02170424
#
# Stress axis : x y z
#
# Youngs Moduli (GPa) = 79.04587 62.43080 60.19421
#
# Poissons Ratio (x) = 0.27867 0.11661
# Poissons Ratio (y) = 0.35284 0.32431
# Poissons Ratio (z) = 0.15312 0.33636
#
# Static dielectric constant tensor:
#      x y z
#    x 1.833690 0.008030 -0.023310 
#    y 0.008030 1.810830 -0.015410 
#    z -0.023310 -0.015410 1.858020 
# 
# From -- ./inp_files/279852.got.cif
#   From: 2010.05.17/outbox.cif.g08.bks.cpg/sg2_140_cif.got.tgz:279852.got - 2010.06.03 11:33:40.
