data_PCOD9080138
_publ_section_title
;
Structure prediction by ZEFSAII (Michael W. Deem and Ramdas Pophale) SiO2 
 PCOD9080138
Probable space group: P -1
;
_chemical_formula_sum "Si O2"
_cell_formula_units_Z 16
_cell_length_a 9.770324
_cell_length_b 10.957385
_cell_length_c 18.850376
_cell_angle_alpha 131.939316
_cell_angle_beta 33.243474
_cell_angle_gamma 121.080225
_cell_volume 818.394987
_symmetry_space_group_name_H-M "P -1"
_symmetry_group_IT_number 2
_symmetry_cell_setting 'triclinic'
loop_
_space_group_symop_operation_xyz
x,y,z
-x,-y,-z
loop_
_atom_site_type_symbol
_atom_site_label
_atom_site_fract_x
_atom_site_fract_y
_atom_site_fract_z
Si Si1 0.891276 0.313539 0.403460
Si Si2 0.802863 0.227312 0.659264
Si Si3 0.349085 0.075798 0.315892
Si Si4 0.705540 0.983598 0.841185
Si Si5 0.671767 0.326956 0.350963
Si Si6 0.837345 0.548400 0.861150
Si Si7 0.362385 0.647877 0.008736
Si Si8 0.345014 0.535521 0.301395
O O1 0.768768 0.278996 0.368783
O O2 0.683671 0.395412 0.580368
O O3 0.088283 0.451082 0.364432
O O4 0.059741 0.149605 0.293750
O O5 0.876567 0.372535 0.734910
O O6 0.648031 0.311056 0.694196
O O7 0.057940 0.142176 0.481447
O O8 0.644096 0.105610 0.723914
O O9 0.519600 0.191692 0.328642
O O10 0.404529 0.075762 0.208402
O O11 0.773717 0.168092 0.865134
O O12 0.500000 0.000000 0.000000
O O13 0.500000 0.500000 0.500000
O O14 0.917871 0.359010 0.212533
O O15 0.613404 0.646053 0.949399
O O16 0.770394 0.492826 0.947482
O O17 0.440758 0.595412 0.874164
#
# Coordination Sequence:
#
# PCOD9080138 Si02
#       8
#     2   2   2   2   2   2   2   2
#     4  11  22  37  63  96 129 159 213 265 317 374
#     4  10  18  38  64  91 117 164 218 254 294 381
#     4  11  23  36  65  95 124 161 209 262 317 368
#     4  12  22  38  62  96 128 168 209 262 311 380
#     4  12  23  40  64  99 129 163 208 275 319 369
#     4  10  19  38  64  91 125 163 221 256 308 368
#     4  10  20  36  66  91 121 168 218 258 297 381
#     4  10  19  37  65  89 118 167 217 254 299 379
#
# _framework density 19.550463000000001
#
# number of rings (size 3 to 8) (size 9 to 14) (size 15 to 20)
#    0.000    1.250    7.500    0.000    1.750    0.000 
#    0.000    3.125    0.000    1.500    0.000    0.000 
#    0.000    0.000    0.000    0.000    0.000    0.000 
#
# Total GULP energy -89257.536963 kJ/mol
# GULP energy per Si atom -5578.596060 kJ/mol
# Density = 1.950597 g / cm^3
# Si number density = 19.550463 Si / 1000 Ang^3
#
#
#
# Elastic Constant Matrix: (Units=GPa)
#
#
# Indices 1 2 3 4 5 6 
#
# 1 90.6442 53.7351 33.3340 0.1433 20.0580 -3.3014
# 2 53.7351 97.1289 28.1088 3.3808 0.8968 -5.0529
# 3 33.3340 28.1088 85.2326 -4.3355 27.7610 -3.3528
# 4 0.1433 3.3808 -4.3355 32.4496 -8.9698 -2.8175
# 5 20.0580 0.8968 27.7610 -8.9698 35.2972 3.9352
# 6 -3.3014 -5.0529 -3.3528 -2.8175 3.9352 28.1805
#
#
#
# Elastic Compliance Matrix: (Units=1/GPa)
#
#
# Indices 1 2 3 4 5 6 
#
# 1 0.020236 -0.010724 -0.000703 -0.002064 -0.011394 0.001749
# 2 -0.010724 0.017465 -0.004582 0.000190 0.009296 0.000051
# 3 -0.000703 -0.004582 0.018309 -0.000787 -0.014442 0.003212
# 4 -0.002064 0.000190 -0.000787 0.033651 0.010155 0.001645
# 5 -0.011394 0.009296 -0.014442 0.010155 0.049317 -0.007258
# 6 0.001749 0.000051 0.003212 0.001645 -0.007258 0.037260
#
#
# Mechanical properties :
#
#
# Convention : Reuss Voigt Hill
#
# Bulk Modulus (GPa) = 41.67998 55.92905 48.80452
# Shear Modulus (GPa) = 23.12121 29.70732 26.41427
#
# Velocity S-wave (km/s) = 3.44269 3.90233 3.67969
# Velocity P-wave (km/s) = 6.09658 6.99813 6.56286
#
# Compressibility (1/GPa) = 0.02399233
#
# Stress axis : x y z
#
# Youngs Moduli (GPa) = 49.41686 57.25876 54.61887
#
# Poissons Ratio (x) = 0.61404 0.03839
# Poissons Ratio (y) = 0.52994 0.25025
# Poissons Ratio (z) = 0.03473 0.26235
#
# Static dielectric constant tensor:
#      x y z
#    x 1.666640 -0.034120 0.011500 
#    y -0.034120 1.700570 0.008940 
#    z 0.011500 0.008940 1.776670 
# 
# From -- ./inp_files/558596.got.cif
#   From: 2010.05.17/outbox.cif.g08.bks.cpg/sg2_280_cif.got.tgz:558596.got - 2010.06.03 11:33:40.
