data_PCOD9080396
_publ_section_title
;
Structure prediction by ZEFSAII (Michael W. Deem and Ramdas Pophale) SiO2 
 PCOD9080396
Probable space group: P -1
;
_chemical_formula_sum "Si O2"
_cell_formula_units_Z 16
_cell_length_a 12.003192
_cell_length_b 8.812761
_cell_length_c 10.682054
_cell_angle_alpha 70.940831
_cell_angle_beta 51.016175
_cell_angle_gamma 49.982200
_cell_volume 666.879638
_symmetry_space_group_name_H-M "P -1"
_symmetry_group_IT_number 2
_symmetry_cell_setting 'triclinic'
loop_
_space_group_symop_operation_xyz
x,y,z
-x,-y,-z
loop_
_atom_site_type_symbol
_atom_site_label
_atom_site_fract_x
_atom_site_fract_y
_atom_site_fract_z
Si Si1 0.565351 0.019147 0.792102
Si Si2 0.386687 0.228102 0.620696
Si Si3 0.249439 0.786692 0.339858
Si Si4 0.953472 0.050540 0.299190
Si Si5 0.402769 0.579439 0.913741
Si Si6 0.698551 0.066238 0.267580
Si Si7 0.952723 0.402608 0.166014
Si Si8 0.252957 0.341907 0.100442
O O1 0.538550 0.088204 0.651682
O O2 0.697803 0.060102 0.748683
O O3 0.644065 0.789911 0.814500
O O4 0.375321 0.172622 0.952933
O O5 0.495075 0.197510 0.429264
O O6 0.258021 0.451226 0.701257
O O7 0.270270 0.142716 0.722028
O O8 0.155642 0.829989 0.528553
O O9 0.435303 0.570131 0.255530
O O10 0.117624 0.842788 0.300827
O O11 0.834124 0.040135 0.284074
O O12 0.009234 0.182780 0.162931
O O13 0.309441 0.806129 0.877660
O O14 0.500000 0.500000 0.000000
O O15 0.266456 0.520913 0.020651
O O16 0.058049 0.399386 0.212887
O O17 0.000000 0.500000 0.000000
#
# Coordination Sequence:
#
# PCOD9080396 Si02
#       8
#     2   2   2   2   2   2   2   2
#     4  10  18  39  63  87 123 162 211 250 304 377
#     4  11  24  41  64  90 128 168 210 263 313 375
#     4  10  22  40  67  94 120 167 209 266 311 366
#     4  11  23  41  66  96 128 159 215 262 314 374
#     4  11  24  42  63  92 130 168 212 257 319 379
#     4  11  25  43  63  93 127 172 211 260 318 373
#     4  12  23  37  60  95 127 162 207 258 312 371
#     4  10  21  36  61  90 121 166 206 254 308 369
#
# _framework density 23.992335000000001
#
# number of rings (size 3 to 8) (size 9 to 14) (size 15 to 20)
#    0.000    1.250    3.750    2.250    1.750    3.000 
#    0.000    1.875    0.000    6.000    0.000    0.000 
#    0.000    0.000    0.000    0.000    0.000    0.000 
#
# Total GULP energy -89444.544331 kJ/mol
# GULP energy per Si atom -5590.284021 kJ/mol
# Density = 2.393773 g / cm^3
# Si number density = 23.992335 Si / 1000 Ang^3
#
#
#
# Elastic Constant Matrix: (Units=GPa)
#
#
# Indices 1 2 3 4 5 6 
#
# 1 122.0624 15.6880 0.1083 -22.7031 -6.7905 -9.4974
# 2 15.6880 81.9771 22.4765 -24.1461 -1.3068 -5.6402
# 3 0.1083 22.4765 54.5336 -17.8475 -2.5480 -1.3086
# 4 -22.7031 -24.1461 -17.8475 44.0848 0.3554 -1.1277
# 5 -6.7905 -1.3068 -2.5480 0.3554 29.8979 -5.8859
# 6 -9.4974 -5.6402 -1.3086 -1.1277 -5.8859 22.5150
#
#
#
# Elastic Compliance Matrix: (Units=1/GPa)
#
#
# Indices 1 2 3 4 5 6 
#
# 1 0.009973 -0.000361 0.002391 0.006018 0.003457 0.005461
# 2 -0.000361 0.015710 -0.004082 0.006865 0.000992 0.004149
# 3 0.002391 -0.004082 0.022921 0.008316 0.002700 0.002441
# 4 0.006018 0.006865 0.008316 0.033069 0.003418 0.007292
# 5 0.003457 0.000992 0.002700 0.003418 0.036757 0.011644
# 6 0.005461 0.004149 0.002441 0.007292 0.011644 0.051309
#
#
# Mechanical properties :
#
#
# Convention : Reuss Voigt Hill
#
# Bulk Modulus (GPa) = 22.47098 37.23541 29.85319
# Shear Modulus (GPa) = 26.50049 33.98621 30.24335
#
# Velocity S-wave (km/s) = 3.32707 3.76778 3.55426
# Velocity P-wave (km/s) = 4.91380 5.87211 5.41420
#
# Compressibility (1/GPa) = 0.04450184
#
# Stress axis : x y z
#
# Youngs Moduli (GPa) = 100.26717 63.65405 43.62771
#
# Poissons Ratio (x) = 0.02296 -0.10432
# Poissons Ratio (y) = 0.03616 0.17808
# Poissons Ratio (z) = -0.23975 0.25982
#
# Static dielectric constant tensor:
#      x y z
#    x 1.958680 -0.020930 0.017540 
#    y -0.020930 1.914240 -0.021270 
#    z 0.017540 -0.021270 1.959030 
# 
# From -- ./inp_files/223239.got.cif
#   From: 2010.05.17/outbox.cif.g08.bks.cpg/sg2_112_cif.got.tgz:223239.got - 2010.06.03 11:33:40.
