data_PCOD9080393
_publ_section_title
;
Structure prediction by ZEFSAII (Michael W. Deem and Ramdas Pophale) SiO2 
 PCOD9080393
Probable space group: P -1
;
_chemical_formula_sum "Si O2"
_cell_formula_units_Z 16
_cell_length_a 7.410132
_cell_length_b 8.333849
_cell_length_c 15.693309
_cell_angle_alpha 113.150114
_cell_angle_beta 48.711669
_cell_angle_gamma 101.143565
_cell_volume 666.497032
_symmetry_space_group_name_H-M "P -1"
_symmetry_group_IT_number 2
_symmetry_cell_setting 'triclinic'
loop_
_space_group_symop_operation_xyz
x,y,z
-x,-y,-z
loop_
_atom_site_type_symbol
_atom_site_label
_atom_site_fract_x
_atom_site_fract_y
_atom_site_fract_z
Si Si1 0.972127 0.336211 0.297029
Si Si2 0.436365 0.380672 0.690827
Si Si3 0.297091 0.137919 0.555454
Si Si4 0.638613 0.210434 0.927545
Si Si5 0.637391 0.626819 0.557843
Si Si6 0.130428 0.048064 0.058389
Si Si7 0.951110 0.172713 0.443538
Si Si8 0.412758 0.555352 0.164892
O O1 0.988407 0.221167 0.182164
O O2 0.185408 0.464219 0.254209
O O3 0.748334 0.467138 0.429339
O O4 0.004892 0.192365 0.331247
O O5 0.245367 0.282241 0.675624
O O6 0.470760 0.562209 0.670098
O O7 0.695748 0.272972 0.570647
O O8 0.419330 0.390715 0.798779
O O9 0.437666 0.218429 0.451169
O O10 0.500000 0.000000 0.500000
O O11 0.077335 0.031248 0.572938
O O12 0.677973 0.283803 0.835045
O O13 0.825709 0.101419 0.911552
O O14 0.402991 0.101231 0.968526
O O15 0.560122 0.394650 0.037329
O O16 0.857370 0.712444 0.551121
O O17 0.000000 0.000000 0.000000
#
# Coordination Sequence:
#
# PCOD9080393 Si02
#       8
#     2   2   2   2   2   2   2   2
#     4  10  20  36  63  87 112 155 201 246 294 363
#     4  10  19  36  59  84 118 159 194 239 302 359
#     4  10  23  35  48  84 130 154 193 252 293 346
#     4   9  22  40  63  91 121 154 208 260 298 374
#     4  11  19  37  61  84 116 162 206 237 291 375
#     4  10  22  43  63  90 125 157 198 258 319 357
#     4  10  19  37  57  87 117 151 202 241 288 363
#     4  10  18  39  63  86 117 158 204 246 307 359
#
# _framework density 24.006105999999999
#
# number of rings (size 3 to 8) (size 9 to 14) (size 15 to 20)
#    0.000    2.000    2.500    1.500    0.000    3.000 
#    4.500    5.625    0.000    0.000    0.000    0.000 
#    0.000    0.000    0.000    0.000    0.000    0.000 
#
# Total GULP energy -89254.033591 kJ/mol
# GULP energy per Si atom -5578.377099 kJ/mol
# Density = 2.395147 g / cm^3
# Si number density = 24.006106 Si / 1000 Ang^3
#
#
#
# Elastic Constant Matrix: (Units=GPa)
#
#
# Indices 1 2 3 4 5 6 
#
# 1 114.5174 50.7554 36.8148 9.0726 34.4430 0.4409
# 2 50.7554 146.0095 25.0014 -15.9438 17.8102 3.0287
# 3 36.8148 25.0014 70.0376 -0.6918 25.1854 -0.9480
# 4 9.0726 -15.9438 -0.6918 25.4104 -5.9133 3.1778
# 5 34.4430 17.8102 25.1854 -5.9133 43.1045 5.2260
# 6 0.4409 3.0287 -0.9480 3.1778 5.2260 34.2939
#
#
#
# Elastic Compliance Matrix: (Units=1/GPa)
#
#
# Indices 1 2 3 4 5 6 
#
# 1 0.016252 -0.005197 -0.002707 -0.012142 -0.011289 0.003021
# 2 -0.005197 0.009602 -0.001544 0.008677 0.002522 -0.002012
# 3 -0.002707 -0.001544 0.019559 -0.001888 -0.009163 0.002283
# 4 -0.012142 0.008677 -0.001888 0.053705 0.015559 -0.008010
# 5 -0.011289 0.002522 -0.009163 0.015559 0.039613 -0.007809
# 6 0.003021 -0.002012 0.002283 -0.008010 -0.007809 0.031294
#
#
# Mechanical properties :
#
#
# Convention : Reuss Voigt Hill
#
# Bulk Modulus (GPa) = 37.71305 61.74530 49.72918
# Shear Modulus (GPa) = 25.28325 35.09461 30.18893
#
# Velocity S-wave (km/s) = 3.24883 3.82763 3.55005
# Velocity P-wave (km/s) = 5.46050 6.73133 6.12894
#
# Compressibility (1/GPa) = 0.02651602
#
# Stress axis : x y z
#
# Youngs Moduli (GPa) = 61.53195 104.15018 51.12648
#
# Poissons Ratio (x) = 0.54131 0.13839
# Poissons Ratio (y) = 0.31981 0.07894
# Poissons Ratio (z) = 0.16656 0.16081
#
# Static dielectric constant tensor:
#      x y z
#    x 2.042770 -0.019530 0.008900 
#    y -0.019530 1.957230 0.007460 
#    z 0.008900 0.007460 1.939790 
# 
# From -- ./inp_files/493353.got.cif
#   From: 2010.05.17/outbox.cif.g08.bks.cpg/sg2_247_cif.got.tgz:493353.got - 2010.06.03 11:33:40.
