data_PCOD9080416
_publ_section_title
;
Structure prediction by ZEFSAII (Michael W. Deem and Ramdas Pophale) SiO2 
 PCOD9080416
Probable space group: P -1
;
_chemical_formula_sum "Si O2"
_cell_formula_units_Z 16
_cell_length_a 6.767828
_cell_length_b 14.655373
_cell_length_c 17.492360
_cell_angle_alpha 150.451427
_cell_angle_beta 76.576008
_cell_angle_gamma 93.716700
_cell_volume 797.512557
_symmetry_space_group_name_H-M "P -1"
_symmetry_group_IT_number 2
_symmetry_cell_setting 'triclinic'
loop_
_space_group_symop_operation_xyz
x,y,z
-x,-y,-z
loop_
_atom_site_type_symbol
_atom_site_label
_atom_site_fract_x
_atom_site_fract_y
_atom_site_fract_z
Si Si1 0.746454 0.414764 0.895272
Si Si2 0.030568 0.245163 0.883556
Si Si3 0.693084 0.424266 0.738136
Si Si4 0.085670 0.551815 0.409733
Si Si5 0.347438 0.829800 0.573052
Si Si6 0.319258 0.777481 0.990389
Si Si7 0.361639 0.199525 0.333366
Si Si8 0.480753 0.221099 0.179752
O O1 0.757513 0.337320 0.751578
O O2 0.872165 0.270776 0.844068
O O3 0.500000 0.500000 0.000000
O O4 0.854952 0.588004 0.008625
O O5 0.888167 0.260297 0.983147
O O6 0.205007 0.040796 0.718837
O O7 0.888079 0.441371 0.679953
O O8 0.585739 0.292542 0.599774
O O9 0.523797 0.635081 0.910637
O O10 0.199582 0.713657 0.542395
O O11 0.242173 0.350585 0.276529
O O12 0.848710 0.621893 0.510923
O O13 0.528628 0.831730 0.617278
O O14 0.309339 0.000098 0.170059
O O15 0.365136 0.728396 0.860450
O O16 0.508862 0.239559 0.280964
O O17 0.500000 0.000000 0.000000
#
# Coordination Sequence:
#
# PCOD9080416 Si02
#       8
#     2   2   2   2   2   2   2   2
#     4  11  23  41  68  92 120 159 206 260 306 377
#     4  11  23  40  66  92 121 164 206 249 321 364
#     4   9  20  40  59  88 127 155 205 254 302 366
#     4   9  20  39  60  88 125 163 207 251 304 364
#     4  10  23  38  59  92 123 164 207 250 305 371
#     4  10  18  39  64  87 127 163 205 253 300 371
#     4  11  20  38  66  87 126 174 202 252 308 352
#     4   9  20  36  64  94 124 163 212 255 298 358
#
# _framework density 20.062380000000001
#
# number of rings (size 3 to 8) (size 9 to 14) (size 15 to 20)
#    0.750    1.250    2.500    1.125    0.000    2.000 
#    0.000    1.250    2.750    0.000    0.000    0.000 
#    0.000    0.000    0.000    0.000    0.000    0.000 
#
# Total GULP energy -89174.418554 kJ/mol
# GULP energy per Si atom -5573.401160 kJ/mol
# Density = 2.001672 g / cm^3
# Si number density = 20.062380 Si / 1000 Ang^3
#
#
#
# Elastic Constant Matrix: (Units=GPa)
#
#
# Indices 1 2 3 4 5 6 
#
# 1 46.3764 40.0210 25.9090 -5.5793 -0.3733 -10.1616
# 2 40.0210 94.8379 48.1196 -16.3306 -10.5954 -2.7589
# 3 25.9090 48.1196 94.0248 0.3476 -16.6024 -17.2680
# 4 -5.5793 -16.3306 0.3476 37.1182 -7.4755 -0.3264
# 5 -0.3733 -10.5954 -16.6024 -7.4755 17.4932 1.9497
# 6 -10.1616 -2.7589 -17.2680 -0.3264 1.9497 26.6083
#
#
#
# Elastic Compliance Matrix: (Units=1/GPa)
#
#
# Indices 1 2 3 4 5 6 
#
# 1 0.040859 -0.018394 -0.002193 -0.005034 -0.015993 0.013384
# 2 -0.018394 0.025129 -0.007230 0.011050 0.013802 -0.009987
# 3 -0.002193 -0.007230 0.018824 -0.001218 0.011832 0.009747
# 4 -0.005034 0.011050 -0.001218 0.035218 0.020776 -0.002657
# 5 -0.015993 0.013802 0.011832 0.020776 0.085628 -0.003017
# 6 0.013384 -0.009987 0.009747 -0.002657 -0.003017 0.048172
#
#
# Mechanical properties :
#
#
# Convention : Reuss Voigt Hill
#
# Bulk Modulus (GPa) = 34.27146 51.48205 42.87676
# Shear Modulus (GPa) = 15.66469 24.32326 19.99397
#
# Velocity S-wave (km/s) = 2.79731 3.48570 3.16031
# Velocity P-wave (km/s) = 5.24908 6.47432 5.89363
#
# Compressibility (1/GPa) = 0.02917880
#
# Stress axis : x y z
#
# Youngs Moduli (GPa) = 24.47426 39.79471 53.12471
#
# Poissons Ratio (x) = 0.73198 0.11649
# Poissons Ratio (y) = 0.45018 0.38408
# Poissons Ratio (z) = 0.05367 0.28771
#
# Static dielectric constant tensor:
#      x y z
#    x 1.704890 0.013690 0.010020 
#    y 0.013690 1.752430 -0.019170 
#    z 0.010020 -0.019170 1.698420 
# 
# From -- ./inp_files/550169.got.cif
#   From: 2010.05.17/outbox.cif.g08.bks.cpg/sg2_276_cif.got.tgz:550169.got - 2010.06.03 11:33:40.
