data_PCOD9080450
_publ_section_title
;
Structure prediction by ZEFSAII (Michael W. Deem and Ramdas Pophale) SiO2 
 PCOD9080450
Probable space group: P -1
;
_chemical_formula_sum "Si O2"
_cell_formula_units_Z 12
_cell_length_a 10.790593
_cell_length_b 6.969398
_cell_length_c 17.407729
_cell_angle_alpha 141.129859
_cell_angle_beta 139.200432
_cell_angle_gamma 49.116179
_cell_volume 529.996969
_symmetry_space_group_name_H-M "P -1"
_symmetry_group_IT_number 2
_symmetry_cell_setting 'triclinic'
loop_
_space_group_symop_operation_xyz
x,y,z
-x,-y,-z
loop_
_atom_site_type_symbol
_atom_site_label
_atom_site_fract_x
_atom_site_fract_y
_atom_site_fract_z
Si Si1 0.261131 0.228403 0.170836
Si Si2 0.470557 0.240481 0.129680
Si Si3 0.909888 0.688108 0.637492
Si Si4 0.488408 0.765168 0.493303
Si Si5 0.766534 0.703205 0.404711
Si Si6 0.872897 0.215055 0.904040
O O1 0.411308 0.084758 0.131270
O O2 0.352495 0.518161 0.334342
O O3 0.220434 0.990260 0.141982
O O4 0.053463 0.327865 0.064410
O O5 0.653039 0.416485 0.278568
O O6 0.291763 0.511334 0.113283
O O7 0.500000 0.000000 0.000000
O O8 0.710450 0.613147 0.555943
O O9 0.874836 0.766308 0.554677
O O10 0.085013 0.405360 0.627418
O O11 0.946440 0.982451 0.795961
O O12 0.500000 0.000000 0.500000
O O13 0.392289 0.992629 0.585700
#
# Coordination Sequence:
#
# PCOD9080450 Si02
#       6
#     2   2   2   2   2   2
#     4  11  24  44  66  98 135 175 224 273 328 400
#     4  12  23  41  68  96 132 180 217 277 337 388
#     4  10  19  38  65  91 132 171 212 273 324 383
#     4  10  18  39  66  91 132 167 211 273 324 383
#     4  10  20  37  64 101 128 161 232 268 314 408
#     4  11  25  43  67  97 134 180 221 270 336 395
#
# _framework density 22.641636999999999
#
# number of rings (size 3 to 8) (size 9 to 14) (size 15 to 20)
#    0.000    1.333    5.000    2.500    0.000    5.333 
#    0.000    0.833    0.000    0.000    0.000    0.000 
#    0.000    0.000    0.000    0.000    0.000    0.000 
#
# Total GULP energy -67068.447380 kJ/mol
# GULP energy per Si atom -5589.037282 kJ/mol
# Density = 2.259010 g / cm^3
# Si number density = 22.641637 Si / 1000 Ang^3
#
#
#
# Elastic Constant Matrix: (Units=GPa)
#
#
# Indices 1 2 3 4 5 6 
#
# 1 148.4197 62.8669 62.3723 23.6082 -3.7160 -30.7914
# 2 62.8669 61.9793 26.5244 4.7113 -1.0934 -27.6048
# 3 62.3723 26.5244 110.2521 10.5206 14.0860 -11.9791
# 4 23.6082 4.7113 10.5206 31.7072 -10.9767 -2.2792
# 5 -3.7160 -1.0934 14.0860 -10.9767 51.9162 9.6771
# 6 -30.7914 -27.6048 -11.9791 -2.2792 9.6771 54.9681
#
#
#
# Elastic Compliance Matrix: (Units=1/GPa)
#
#
# Indices 1 2 3 4 5 6 
#
# 1 0.015720 -0.012793 -0.005006 -0.007952 0.000366 0.000896
# 2 -0.012793 0.033097 -0.000003 0.004969 -0.001001 0.009837
# 3 -0.005006 -0.000003 0.012714 -0.001947 -0.004340 0.000648
# 4 -0.007952 0.004969 -0.001947 0.040323 0.009018 -0.002299
# 5 0.000366 -0.001001 -0.004340 0.009018 0.023277 -0.004968
# 6 0.000896 0.009837 0.000648 -0.002299 -0.004968 0.024555
#
#
# Mechanical properties :
#
#
# Convention : Reuss Voigt Hill
#
# Bulk Modulus (GPa) = 38.56871 69.35316 53.96094
# Shear Modulus (GPa) = 25.78216 38.97746 32.37981
#
# Velocity S-wave (km/s) = 3.37813 4.15359 3.78577
# Velocity P-wave (km/s) = 5.68217 7.32806 6.55696
#
# Compressibility (1/GPa) = 0.02592775
#
# Stress axis : x y z
#
# Youngs Moduli (GPa) = 63.61313 30.21383 78.65593
#
# Poissons Ratio (x) = 0.38651 0.39376
# Poissons Ratio (y) = 0.81378 0.00023
# Poissons Ratio (z) = 0.31845 0.00009
#
# Static dielectric constant tensor:
#      x y z
#    x 1.870160 -0.019020 -0.004130 
#    y -0.019020 1.906640 -0.047900 
#    z -0.004130 -0.047900 1.849920 
# 
# From -- ./inp_files/150009.got.cif
#   From: 2010.05.17/outbox.cif.g08.bks.cpg/sg2_76_cif.got.tgz:150009.got - 2010.06.03 11:33:40.
