data_PCOD9080502
_publ_section_title
;
Structure prediction by ZEFSAII (Michael W. Deem and Ramdas Pophale) SiO2 
 PCOD9080502
Probable space group: P -1
;
_chemical_formula_sum "Si O2"
_cell_formula_units_Z 12
_cell_length_a 13.654040
_cell_length_b 10.349822
_cell_length_c 13.552393
_cell_angle_alpha 33.604891
_cell_angle_beta 29.602158
_cell_angle_gamma 45.365487
_cell_volume 521.969991
_symmetry_space_group_name_H-M "P -1"
_symmetry_group_IT_number 2
_symmetry_cell_setting 'triclinic'
loop_
_space_group_symop_operation_xyz
x,y,z
-x,-y,-z
loop_
_atom_site_type_symbol
_atom_site_label
_atom_site_fract_x
_atom_site_fract_y
_atom_site_fract_z
Si Si1 0.055039 0.320175 0.781573
Si Si2 0.660092 0.391835 0.182129
Si Si3 0.438661 0.637671 0.064370
Si Si4 0.945196 0.113611 0.812334
Si Si5 0.975133 0.266801 0.325553
Si Si6 0.729874 0.073713 0.493157
O O1 0.108386 0.579590 0.610714
O O2 0.813391 0.292281 0.031813
O O3 0.073284 0.258984 0.690970
O O4 0.132733 0.125023 0.910261
O O5 0.479284 0.481751 0.223371
O O6 0.807393 0.600452 0.968029
O O7 0.615788 0.201128 0.426039
O O8 0.593497 0.866582 0.793235
O O9 0.500000 0.500000 0.000000
O O10 0.226909 0.736063 0.170813
O O11 0.087127 0.040614 0.647547
O O12 0.826884 0.258459 0.368825
O O13 0.000000 0.000000 0.500000
#
# Coordination Sequence:
#
# PCOD9080502 Si02
#       6
#     2   2   2   2   2   2
#     4   8  18  39  63  89 131 162 205 268 306 373
#     4   9  20  39  63  92 123 167 211 252 316 382
#     4  12  23  42  61  98 136 158 211 277 311 371
#     4  10  21  40  65  97 124 163 221 258 311 386
#     4  10  18  39  69  91 127 174 207 260 320 374
#     4  11  23  41  71  88 126 179 205 257 331 368
#
# _framework density 22.989827999999999
#
# number of rings (size 3 to 8) (size 9 to 14) (size 15 to 20)
#    1.000    1.000    3.333    0.500    0.000    1.333 
#    0.000    3.333    0.000    0.000    0.000    0.000 
#    0.000    0.000    0.000    0.000    0.000    0.000 
#
# Total GULP energy -67067.034418 kJ/mol
# GULP energy per Si atom -5588.919535 kJ/mol
# Density = 2.293750 g / cm^3
# Si number density = 22.989828 Si / 1000 Ang^3
#
#
#
# Elastic Constant Matrix: (Units=GPa)
#
#
# Indices 1 2 3 4 5 6 
#
# 1 121.8492 47.6190 31.8764 -8.2644 11.7421 -19.2866
# 2 47.6190 110.1311 35.2025 -24.9676 6.4027 -5.5901
# 3 31.8764 35.2025 -14.0201 1.6335 -33.5657 -12.3569
# 4 -8.2644 -24.9676 1.6335 26.5788 1.2591 2.0348
# 5 11.7421 6.4027 -33.5657 1.2591 17.5279 -12.4105
# 6 -19.2866 -5.5901 -12.3569 2.0348 -12.4105 59.5402
#
#
#
# Elastic Compliance Matrix: (Units=1/GPa)
#
#
# Indices 1 2 3 4 5 6 
#
# 1 0.010072 -0.005437 0.001922 -0.002444 0.001626 0.003573
# 2 -0.005437 0.012060 0.003517 0.009054 0.006068 0.001057
# 3 0.001922 0.003517 -0.006845 0.005602 -0.019415 -0.004706
# 4 -0.002444 0.009054 0.005602 0.044630 0.006612 0.001074
# 5 0.001626 0.006068 -0.019415 0.006612 0.016255 0.000229
# 6 0.003573 0.001057 -0.004706 0.001074 0.000229 0.017087
#
#
# Mechanical properties :
#
#
# Convention : Reuss Voigt Hill
#
# Bulk Modulus (GPa) = 65.39464 49.70624 57.55044
# Shear Modulus (GPa) = 50.83841 27.61352 39.22596
#
# Velocity S-wave (km/s) = 4.70759 3.46948 4.13514
# Velocity P-wave (km/s) = 7.61941 6.14147 6.92001
#
# Compressibility (1/GPa) = 0.01529177
#
# Stress axis : x y z
#
# Youngs Moduli (GPa) = 99.28736 82.91698 -146.09425
#
# Poissons Ratio (x) = 0.45078 0.28085
# Poissons Ratio (y) = 0.53978 0.51374
# Poissons Ratio (z) = -0.19087 -0.29158
#
# Static dielectric constant tensor:
#      x y z
#    x 1.888660 0.002080 -0.031980 
#    y 0.002080 1.834430 -0.014920 
#    z -0.031980 -0.014920 1.922070 
# 
# From -- ./inp_files/413921.got.cif
#   From: 2010.05.17/outbox.cif.g08.bks.cpg/sg2_207_cif.got.tgz:413921.got - 2010.06.03 11:33:40.
