data_PCOD9080824
_publ_section_title
;
Structure prediction by ZEFSAII (Michael W. Deem and Ramdas Pophale) SiO2 
 PCOD9080824
Probable space group: P -1
;
_chemical_formula_sum "Si O2"
_cell_formula_units_Z 16
_cell_length_a 11.184039
_cell_length_b 15.379356
_cell_length_c 18.809835
_cell_angle_alpha 29.843539
_cell_angle_beta 150.128679
_cell_angle_gamma 143.498286
_cell_volume 784.245448
_symmetry_space_group_name_H-M "P -1"
_symmetry_group_IT_number 2
_symmetry_cell_setting 'triclinic'
loop_
_space_group_symop_operation_xyz
x,y,z
-x,-y,-z
loop_
_atom_site_type_symbol
_atom_site_label
_atom_site_fract_x
_atom_site_fract_y
_atom_site_fract_z
Si Si1 0.339775 0.893851 0.248869
Si Si2 0.725757 0.667434 0.355973
Si Si3 0.364442 0.654977 0.294456
Si Si4 0.580618 0.072937 0.369391
Si Si5 0.706625 0.448422 0.375264
Si Si6 0.784898 0.722714 0.104765
Si Si7 0.814139 0.092702 0.625751
Si Si8 0.103862 0.547574 0.750602
O O1 0.384099 0.796805 0.268005
O O2 0.081038 0.785559 0.224201
O O3 0.547758 0.927729 0.392642
O O4 0.305115 0.094280 0.074789
O O5 0.515862 0.727783 0.250913
O O6 0.610059 0.500506 0.364280
O O7 0.895977 0.824259 0.285882
O O8 0.922491 0.601832 0.556713
O O9 0.500000 0.500000 0.500000
O O10 0.080806 0.553778 0.213132
O O11 0.736844 0.040147 0.542427
O O12 0.711705 0.266990 0.270348
O O13 0.306392 0.056864 0.273521
O O14 0.650539 0.589958 0.189331
O O15 0.678394 0.254635 0.463260
O O16 0.000000 0.500000 0.500000
O O17 0.766655 0.599465 0.113137
#
# Coordination Sequence:
#
# PCOD9080824 Si02
#       8
#     2   2   2   2   2   2   2   2
#     4  10  21  31  51  73 104 134 165 210 252 293
#     4   9  16  29  52  74  95 132 170 207 248 280
#     4   9  19  33  51  71 100 135 173 204 240 303
#     4  10  18  31  49  77 107 128 156 213 262 291
#     4  10  15  28  53  73  95 127 165 211 249 279
#     4  10  18  33  49  77 101 126 176 209 243 303
#     4   9  18  28  49  78 106 118 169 214 245 303
#     4   9  17  32  48  75 106 126 164 209 247 304
#
# _framework density 20.401775000000001
#
# number of rings (size 3 to 8) (size 9 to 14) (size 15 to 20)
#    0.000    2.500    3.750    1.500    3.500    0.500 
#    0.000    6.250    0.000    0.000    0.000    1.750 
#    0.000    0.000    0.000    0.000    0.000    0.000 
#
# Total GULP energy -89086.175669 kJ/mol
# GULP energy per Si atom -5567.885979 kJ/mol
# Density = 2.035534 g / cm^3
# Si number density = 20.401775 Si / 1000 Ang^3
#
#
#
# Elastic Constant Matrix: (Units=GPa)
#
#
# Indices 1 2 3 4 5 6 
#
# 1 126.5517 54.7079 16.7332 -10.2314 19.2528 4.6427
# 2 54.7079 134.6340 11.8487 -18.5152 9.9877 0.0366
# 3 16.7332 11.8487 30.1765 -13.8346 3.5521 0.2487
# 4 -10.2314 -18.5152 -13.8346 19.6806 -2.0124 -3.2338
# 5 19.2528 9.9877 3.5521 -2.0124 17.3855 -7.2514
# 6 4.6427 0.0366 0.2487 -3.2338 -7.2514 31.8146
#
#
#
# Elastic Compliance Matrix: (Units=1/GPa)
#
#
# Indices 1 2 3 4 5 6 
#
# 1 0.012121 -0.003974 -0.005059 -0.003075 -0.012500 -0.004887
# 2 -0.003974 0.010140 0.002603 0.009518 -0.000245 0.001460
# 3 -0.005059 0.002603 0.051856 0.036861 -0.000576 0.003946
# 4 -0.003075 0.009518 0.036861 0.086175 0.004527 0.009941
# 5 -0.012500 -0.000245 -0.000576 0.004527 0.080779 0.020701
# 6 -0.004887 0.001460 0.003946 0.009941 0.020701 0.037841
#
#
# Mechanical properties :
#
#
# Convention : Reuss Voigt Hill
#
# Bulk Modulus (GPa) = 16.32483 50.88243 33.60363
# Shear Modulus (GPa) = 16.01573 27.64762 21.83167
#
# Velocity S-wave (km/s) = 2.80485 3.68524 3.27477
# Velocity P-wave (km/s) = 4.30217 6.56524 5.55027
#
# Compressibility (1/GPa) = 0.06125639
#
# Stress axis : x y z
#
# Youngs Moduli (GPa) = 82.49892 98.61721 19.28423
#
# Poissons Ratio (x) = 0.39195 0.09756
# Poissons Ratio (y) = 0.32789 -0.05019
# Poissons Ratio (z) = 0.41735 -0.25668
#
# Static dielectric constant tensor:
#      x y z
#    x 1.821860 0.024440 -0.054000 
#    y 0.024440 1.810350 0.004580 
#    z -0.054000 0.004580 1.770110 
# 
# From -- ./inp_files/541870.got.cif
#   From: 2010.05.17/outbox.cif.g08.bks.cpg/sg2_271_cif.got.tgz:541870.got - 2010.06.03 11:33:40.
