data_PCOD9080056
_publ_section_title
;
Structure prediction by ZEFSAII (Michael W. Deem and Ramdas Pophale) SiO2 
 PCOD9080056
Probable space group: P -1
;
_chemical_formula_sum "Si O2"
_cell_formula_units_Z 16
_cell_length_a 13.103388
_cell_length_b 10.634672
_cell_length_c 16.978679
_cell_angle_alpha 47.197928
_cell_angle_beta 158.246879
_cell_angle_gamma 120.824087
_cell_volume 578.840940
_symmetry_space_group_name_H-M "P -1"
_symmetry_group_IT_number 2
_symmetry_cell_setting 'triclinic'
loop_
_space_group_symop_operation_xyz
x,y,z
-x,-y,-z
loop_
_atom_site_type_symbol
_atom_site_label
_atom_site_fract_x
_atom_site_fract_y
_atom_site_fract_z
Si Si1 0.160982 0.234644 0.610123
Si Si2 0.367475 0.037759 0.053939
Si Si3 0.495550 0.694732 0.861364
Si Si4 0.820766 0.747050 0.625411
Si Si5 0.005484 0.167964 0.127694
Si Si6 0.953602 0.694828 0.066075
Si Si7 0.356362 0.516035 0.560528
Si Si8 0.515490 0.393922 0.891135
O O1 0.416034 0.055078 0.825905
O O2 0.133216 0.408093 0.457232
O O3 0.867133 0.201135 0.428302
O O4 0.281855 0.302641 0.744783
O O5 0.541087 0.890614 0.312646
O O6 0.062409 0.013570 0.830524
O O7 0.646686 0.766228 0.008783
O O8 0.644935 0.744447 0.871261
O O9 0.513584 0.491399 0.930905
O O10 0.893692 0.525870 0.761082
O O11 0.134979 0.750257 0.816757
O O12 0.788604 0.805795 0.668281
O O13 0.677500 0.354966 0.827402
O O14 0.096863 0.177241 0.100199
O O15 0.196411 0.684049 0.312700
O O16 0.425261 0.543471 0.688658
#
# Coordination Sequence:
#
# PCOD9080056 Si02
#       8
#     2   2   2   2   2   2   2   2
#     4   9  18  40  61  79 119 157 189 239 284 338
#     4  11  22  40  59  86 119 156 189 238 292 345
#     4  11  23  35  57  89 123 149 192 239 291 343
#     4  10  18  38  62  86 109 154 201 234 281 348
#     4  10  20  37  62  84 119 147 197 242 281 339
#     4  11  20  36  60  90 112 155 195 239 287 337
#     4   8  17  34  60  84 108 149 192 239 279 329
#     4   8  18  37  59  84 114 145 197 243 276 332
#
# _framework density 27.641446999999999
#
# number of rings (size 3 to 8) (size 9 to 14) (size 15 to 20)
#    0.750    1.500    3.750    1.500    0.000    1.000 
#    2.250    1.250    0.000    0.000    0.000    0.000 
#    0.000    0.000    0.000    0.000    0.000    0.000 
#
# Total GULP energy -89522.243190 kJ/mol
# GULP energy per Si atom -5595.140199 kJ/mol
# Density = 2.757853 g / cm^3
# Si number density = 27.641447 Si / 1000 Ang^3
#
#
#
# Elastic Constant Matrix: (Units=GPa)
#
#
# Indices 1 2 3 4 5 6 
#
# 1 137.8020 75.5525 29.3480 5.7029 -24.6438 -22.8416
# 2 75.5525 110.2301 19.8138 13.6531 -7.3858 -30.0536
# 3 29.3480 19.8138 67.3650 10.4750 -25.5268 -10.5155
# 4 5.7029 13.6531 10.4750 46.0285 -12.3360 -6.0115
# 5 -24.6438 -7.3858 -25.5268 -12.3360 41.5345 18.5051
# 6 -22.8416 -30.0536 -10.5155 -6.0115 18.5051 42.0170
#
#
#
# Elastic Compliance Matrix: (Units=1/GPa)
#
#
# Indices 1 2 3 4 5 6 
#
# 1 0.013694 -0.009873 -0.000977 0.003224 0.008037 -0.002940
# 2 -0.009873 0.019566 -0.002972 -0.005320 -0.011146 0.012031
# 3 -0.000977 -0.002972 0.020590 -0.000679 0.012784 -0.003231
# 4 0.003224 -0.005320 -0.000679 0.025180 0.009223 -0.002682
# 5 0.008037 -0.011146 0.012784 0.009223 0.046096 -0.019386
# 6 -0.002940 0.012031 -0.003231 -0.002682 -0.019386 0.038153
#
#
# Mechanical properties :
#
#
# Convention : Reuss Voigt Hill
#
# Bulk Modulus (GPa) = 38.15889 62.75842 50.45866
# Shear Modulus (GPa) = 25.04283 38.62819 31.83551
#
# Velocity S-wave (km/s) = 3.01323 3.74234 3.39740
# Velocity P-wave (km/s) = 5.09323 6.43640 5.80380
#
# Compressibility (1/GPa) = 0.02620621
#
# Stress axis : x y z
#
# Youngs Moduli (GPa) = 73.02219 51.11025 48.56798
#
# Poissons Ratio (x) = 0.50462 0.04745
# Poissons Ratio (y) = 0.72095 0.14432
# Poissons Ratio (z) = 0.07135 0.15188
#
# Static dielectric constant tensor:
#      x y z
#    x 2.134950 0.039700 -0.018090 
#    y 0.039700 2.157100 -0.034230 
#    z -0.018090 -0.034230 2.153960 
# 
# From -- ./inp_files/426569.got.cif
#   From: 2010.05.17/outbox.cif.g08.bks.cpg/sg2_214_cif.got.tgz:426569.got - 2010.06.03 11:33:40.
