data_PCOD9080406
_publ_section_title
;
Structure prediction by ZEFSAII (Michael W. Deem and Ramdas Pophale) SiO2 
 PCOD9080406
Probable space group: P -1
;
_chemical_formula_sum "Si O2"
_cell_formula_units_Z 16
_cell_length_a 5.783606
_cell_length_b 29.833544
_cell_length_c 23.750364
_cell_angle_alpha 169.541045
_cell_angle_beta 87.114353
_cell_angle_gamma 92.666696
_cell_volume 742.873964
_symmetry_space_group_name_H-M "P -1"
_symmetry_group_IT_number 2
_symmetry_cell_setting 'triclinic'
loop_
_space_group_symop_operation_xyz
x,y,z
-x,-y,-z
loop_
_atom_site_type_symbol
_atom_site_label
_atom_site_fract_x
_atom_site_fract_y
_atom_site_fract_z
Si Si1 0.905321 0.209163 0.329035
Si Si2 0.313657 0.209031 0.244643
Si Si3 0.398546 0.387250 0.231579
Si Si4 0.242394 0.052312 0.594645
Si Si5 0.958926 0.458379 0.751983
Si Si6 0.114094 0.954158 0.676747
Si Si7 0.255434 0.806186 0.106123
Si Si8 0.580188 0.225122 0.647661
O O1 0.771586 0.396205 0.519952
O O2 0.863617 0.309030 0.515095
O O3 0.165782 0.237078 0.338361
O O4 0.835837 0.927029 0.969142
O O5 0.427224 0.471913 0.555034
O O6 0.500000 0.000000 0.000000
O O7 0.544208 0.303654 0.071709
O O8 0.252357 0.147885 0.953260
O O9 0.500000 0.000000 0.500000
O O10 0.246535 0.877742 0.433891
O O11 0.216886 0.336690 0.966976
O O12 0.000000 0.000000 0.500000
O O13 0.022759 0.250160 0.539466
O O14 0.167223 0.616740 0.919596
O O15 0.296917 0.808044 0.454836
O O16 0.952761 0.114565 0.835124
O O17 0.360136 0.047232 0.430984
O O18 0.500000 0.500000 0.000000
#
# Coordination Sequence:
#
# PCOD9080406 Si02
#       8
#     2   2   2   2   2   2   2   2
#     4  10  19  37  65  97 133 176 223 279 344 419
#     4   9  18  33  65 100 130 174 223 274 346 414
#     4  10  18  39  63  93 133 174 226 280 342 410
#     4  12  27  47  72 107 141 188 242 302 360 429
#     4  12  23  44  69  99 138 182 238 283 357 423
#     4  11  24  40  65  98 130 182 231 289 345 425
#     4  11  22  44  66  95 133 184 226 286 350 414
#     4  11  25  46  69  96 140 182 234 297 361 424
#
# _framework density 21.537973000000001
#
# number of rings (size 3 to 8) (size 9 to 14) (size 15 to 20)
#    0.000    1.250    3.750    2.250    1.750    0.500 
#    9.000    0.625    0.000   10.500    0.000    0.000 
#    0.000    0.000    0.000    0.000    0.000    0.000 
#
# Total GULP energy -89283.571904 kJ/mol
# GULP energy per Si atom -5580.223244 kJ/mol
# Density = 2.148895 g / cm^3
# Si number density = 21.537973 Si / 1000 Ang^3
#
#
#
# Elastic Constant Matrix: (Units=GPa)
#
#
# Indices 1 2 3 4 5 6 
#
# 1 78.9618 14.7405 43.5528 -1.5803 10.9871 9.4849
# 2 14.7405 52.6517 40.7798 6.5710 16.7813 4.9706
# 3 43.5528 40.7798 151.8876 -2.4488 22.9859 0.9717
# 4 -1.5803 6.5710 -2.4488 41.1410 8.0588 5.4722
# 5 10.9871 16.7813 22.9859 8.0588 41.3634 -11.3548
# 6 9.4849 4.9706 0.9717 5.4722 -11.3548 27.5648
#
#
#
# Elastic Compliance Matrix: (Units=1/GPa)
#
#
# Indices 1 2 3 4 5 6 
#
# 1 0.016528 0.000611 -0.004036 0.002397 -0.005125 -0.008242
# 2 0.000611 0.027813 -0.006067 -0.001597 -0.010207 -0.008899
# 3 -0.004036 -0.006067 0.009672 0.001615 -0.001867 0.001052
# 4 0.002397 -0.001597 0.001615 0.027821 -0.009004 -0.009826
# 5 -0.005125 -0.010207 -0.001867 -0.009004 0.038299 0.021234
# 6 -0.008242 -0.008899 0.001052 -0.009826 0.021234 0.051379
#
#
# Mechanical properties :
#
#
# Convention : Reuss Voigt Hill
#
# Bulk Modulus (GPa) = 28.54790 53.51637 41.03214
# Shear Modulus (GPa) = 24.73145 34.30904 29.52024
#
# Velocity S-wave (km/s) = 3.39229 3.99551 3.70620
# Velocity P-wave (km/s) = 5.35042 6.79610 6.11612
#
# Compressibility (1/GPa) = 0.03502884
#
# Stress axis : x y z
#
# Youngs Moduli (GPa) = 60.50470 35.95429 103.39106
#
# Poissons Ratio (x) = -0.02198 0.41733
# Poissons Ratio (y) = -0.03700 0.62727
# Poissons Ratio (z) = 0.24422 0.21813
#
# Static dielectric constant tensor:
#      x y z
#    x 1.859010 -0.005340 0.052350 
#    y -0.005340 1.790400 -0.040550 
#    z 0.052350 -0.040550 1.808420 
# 
# From -- ./inp_files/126379.got.cif
#   From: 2010.05.17/outbox.cif.g08.bks.cpg/sg2_64_cif.got.tgz:126379.got - 2010.06.03 11:33:40.
