data_PCOD9080544
_publ_section_title
;
Structure prediction by ZEFSAII (Michael W. Deem and Ramdas Pophale) SiO2 
 PCOD9080544
Probable space group: P -1
;
_chemical_formula_sum "Si O2"
_cell_formula_units_Z 15
_cell_length_a 5.550768
_cell_length_b 21.013709
_cell_length_c 8.931360
_cell_angle_alpha 36.627946
_cell_angle_beta 75.258578
_cell_angle_gamma 89.653230
_cell_volume 564.520104
_symmetry_space_group_name_H-M "P -1"
_symmetry_group_IT_number 2
_symmetry_cell_setting 'triclinic'
loop_
_space_group_symop_operation_xyz
x,y,z
-x,-y,-z
loop_
_atom_site_type_symbol
_atom_site_label
_atom_site_fract_x
_atom_site_fract_y
_atom_site_fract_z
Si Si1 0.796862 0.392473 0.397717
Si Si2 0.196158 0.044027 0.519438
Si Si3 0.500000 0.000000 0.000000
Si Si4 0.627358 0.139602 0.025398
Si Si5 0.142727 0.406711 0.754234
Si Si6 0.798115 0.881366 0.316677
Si Si7 0.322421 0.356419 0.303819
Si Si8 0.593606 0.387626 0.878508
O O1 0.824767 0.498617 0.300295
O O2 0.551251 0.379303 0.349172
O O3 0.089813 0.409935 0.250599
O O4 0.728144 0.272919 0.722924
O O5 0.456552 0.112079 0.256986
O O6 0.149444 0.122291 0.509876
O O7 0.182123 0.930722 0.827249
O O8 0.000000 0.000000 0.500000
O O9 0.518036 0.894129 0.301132
O O10 0.492534 0.074650 0.015647
O O11 0.347489 0.345576 0.882563
O O12 0.251933 0.481606 0.447464
O O13 0.831879 0.337561 0.927398
O O14 0.836029 0.777927 0.422374
O O15 0.000000 0.000000 0.000000
O O16 0.524751 0.620285 0.922943
#
# Coordination Sequence:
#
# PCOD9080544 Si02
#       8
#     2   2   1   2   2   2   2   2
#     4  12  26  42  69 102 138 175 227 287 341 402
#     4  10  22  39  60  90 126 179 230 282 329 412
#     4  10  18  40  62  78 134 172 212 270 334 388
#     4  10  22  38  61  93 127 176 229 274 340 400
#     4  10  23  46  72  97 139 179 213 295 343 411
#     4  11  23  39  64  91 135 181 222 283 344 394
#     4  12  26  43  68 105 133 178 234 278 335 421
#     4  10  23  46  71 101 134 178 229 267 362 411
#
# _framework density 26.571242000000002
#
# number of rings (size 3 to 8) (size 9 to 14) (size 15 to 20)
#    0.000    1.333    1.333    4.000    3.733    3.200 
#    0.000    1.333    0.000    0.000    0.000    0.000 
#    0.000    0.000    0.000    0.000    0.000    0.000 
#
# Total GULP energy -83670.009779 kJ/mol
# GULP energy per Si atom -5578.000652 kJ/mol
# Density = 2.651076 g / cm^3
# Si number density = 26.571242 Si / 1000 Ang^3
#
#
#
# Elastic Constant Matrix: (Units=GPa)
#
#
# Indices 1 2 3 4 5 6 
#
# 1 177.1708 37.6111 32.5944 18.8341 7.6745 2.8023
# 2 37.6111 135.5197 27.8689 9.9632 0.4630 8.2677
# 3 32.5944 27.8689 130.3227 17.2905 -10.5937 6.4479
# 4 18.8341 9.9632 17.2905 58.4359 -4.8406 10.1212
# 5 7.6745 0.4630 -10.5937 -4.8406 39.1600 17.4982
# 6 2.8023 8.2677 6.4479 10.1212 17.4982 38.7305
#
#
#
# Elastic Compliance Matrix: (Units=1/GPa)
#
#
# Indices 1 2 3 4 5 6 
#
# 1 0.006505 -0.001482 -0.001354 -0.001975 -0.002669 0.001793
# 2 -0.001482 0.008154 -0.001217 -0.000224 0.000564 -0.001627
# 3 -0.001354 -0.001217 0.008851 -0.001260 0.003596 -0.002411
# 4 -0.001975 -0.000224 -0.001260 0.019934 0.005841 -0.007448
# 5 -0.002669 0.000564 0.003596 0.005841 0.035915 -0.018278
# 6 0.001793 -0.001627 -0.002411 -0.007448 -0.018278 0.036643
#
#
# Mechanical properties :
#
#
# Convention : Reuss Voigt Hill
#
# Bulk Modulus (GPa) = 64.91477 71.01800 67.96639
# Shear Modulus (GPa) = 38.68700 50.26121 44.47410
#
# Velocity S-wave (km/s) = 3.81986 4.35393 4.09561
# Velocity P-wave (km/s) = 6.62862 7.21533 6.92819
#
# Compressibility (1/GPa) = 0.01540481
#
# Stress axis : x y z
#
# Youngs Moduli (GPa) = 153.72487 122.63308 112.98467
#
# Poissons Ratio (x) = 0.18175 0.15294
# Poissons Ratio (y) = 0.22783 0.13750
# Poissons Ratio (z) = 0.20809 0.14925
#
# Static dielectric constant tensor:
#      x y z
#    x 2.432080 0.139290 -0.038270 
#    y 0.139290 2.182140 0.032610 
#    z -0.038270 0.032610 2.113810 
# 
# From -- ./inp_files/49577.got.cif
#   From: 2010.05.17/outbox.cif.g08.bks.cpg/sg2_25_cif.got.tgz:49577.got - 2010.06.03 11:33:40.
