data_PCOD9080807
_publ_section_title
;
Structure prediction by ZEFSAII (Michael W. Deem and Ramdas Pophale) SiO2 
 PCOD9080807
Probable space group: P -1
;
_chemical_formula_sum "Si O2"
_cell_formula_units_Z 16
_cell_length_a 27.245240
_cell_length_b 10.899663
_cell_length_c 25.259616
_cell_angle_alpha 35.216215
_cell_angle_beta 10.922968
_cell_angle_gamma 35.257274
_cell_volume 812.529831
_symmetry_space_group_name_H-M "P -1"
_symmetry_group_IT_number 2
_symmetry_cell_setting 'triclinic'
loop_
_space_group_symop_operation_xyz
x,y,z
-x,-y,-z
loop_
_atom_site_type_symbol
_atom_site_label
_atom_site_fract_x
_atom_site_fract_y
_atom_site_fract_z
Si Si1 0.334885 0.362674 0.852441
Si Si2 0.275637 0.406991 0.302258
Si Si3 0.487696 0.020621 0.284295
Si Si4 0.128163 0.470059 0.790357
Si Si5 0.842135 0.774742 0.616299
Si Si6 0.048580 0.145699 0.074935
Si Si7 0.006325 0.171174 0.353711
Si Si8 0.642493 0.163423 0.826867
O O1 0.417269 0.147894 0.804828
O O2 0.594292 0.476454 0.544024
O O3 0.201853 0.299427 0.069822
O O4 0.105097 0.508205 0.012650
O O5 0.146098 0.267608 0.443877
O O6 0.064278 0.609482 0.467275
O O7 0.401774 0.252250 0.268466
O O8 0.500000 0.500000 0.000000
O O9 0.219869 0.951710 0.615702
O O10 0.720786 0.003139 0.086253
O O11 0.035649 0.658152 0.864377
O O12 0.148670 0.250156 0.879150
O O13 0.577659 0.720811 0.942718
O O14 0.867985 0.024312 0.510684
O O15 0.799511 0.287255 0.574121
O O16 0.169516 0.990302 0.280292
O O17 0.500000 0.000000 0.000000
#
# Coordination Sequence:
#
# PCOD9080807 Si02
#       8
#     2   2   2   2   2   2   2   2
#     4  10  19  28  50  72 102 129 174 208 259 311
#     4  11  23  33  49  74 105 141 181 216 252 296
#     4  10  20  30  49  68  99 140 174 210 247 316
#     4   9  18  30  46  70  97 133 162 220 255 308
#     4  10  21  34  51  68 106 140 177 217 254 300
#     4   9  18  32  46  66  98 133 175 203 262 310
#     4  10  20  33  51  76 100 141 174 213 260 312
#     4   9  19  34  52  70 101 138 172 215 260 306
#
# _framework density 19.691585
#
# number of rings (size 3 to 8) (size 9 to 14) (size 15 to 20)
#    0.000    2.250    0.000    3.000   12.250    3.000 
#    0.000    0.000    0.000    0.000    0.000    0.000 
#    0.000    6.000    0.000    0.000    0.000    0.000 
#
# Total GULP energy -89241.345553 kJ/mol
# GULP energy per Si atom -5577.584097 kJ/mol
# Density = 1.964677 g / cm^3
# Si number density = 19.691585 Si / 1000 Ang^3
#
#
#
# Elastic Constant Matrix: (Units=GPa)
#
#
# Indices 1 2 3 4 5 6 
#
# 1 50.9223 19.8061 24.7172 0.5388 3.2703 -17.2090
# 2 19.8061 46.8934 29.3278 5.5348 8.4707 -26.3410
# 3 24.7172 29.3278 147.1522 4.8198 20.2882 -23.8360
# 4 0.5388 5.5348 4.8198 27.7578 -9.1111 -2.2997
# 5 3.2703 8.4707 20.2882 -9.1111 35.4110 -3.2860
# 6 -17.2090 -26.3410 -23.8360 -2.2997 -3.2860 29.5865
#
#
#
# Elastic Compliance Matrix: (Units=1/GPa)
#
#
# Indices 1 2 3 4 5 6 
#
# 1 0.025517 -0.004782 -0.002097 0.002033 0.001366 0.009205
# 2 -0.004782 0.047502 -0.001122 -0.009153 -0.009212 0.036872
# 3 -0.002097 -0.001122 0.008789 -0.002507 -0.004835 0.004131
# 4 0.002033 -0.009153 -0.002507 0.042496 0.013989 -0.004129
# 5 0.001366 -0.009212 -0.004835 0.013989 0.036111 -0.006205
# 6 0.009205 0.036872 0.004131 -0.004129 -0.006205 0.074298
#
#
# Mechanical properties :
#
#
# Convention : Reuss Voigt Hill
#
# Bulk Modulus (GPa) = 15.19599 43.63002 29.41301
# Shear Modulus (GPa) = 18.33843 29.95887 24.14865
#
# Velocity S-wave (km/s) = 3.05500 3.90475 3.50572
# Velocity P-wave (km/s) = 4.49197 6.52183 5.59964
#
# Compressibility (1/GPa) = 0.06580681
#
# Stress axis : x y z
#
# Youngs Moduli (GPa) = 39.18942 21.05162 113.77408
#
# Poissons Ratio (x) = 0.10068 0.23858
# Poissons Ratio (y) = 0.18742 0.12761
# Poissons Ratio (z) = 0.08218 0.02361
#
# Static dielectric constant tensor:
#      x y z
#    x 1.755370 0.036310 -0.038400 
#    y 0.036310 1.692640 -0.012690 
#    z -0.038400 -0.012690 1.747190 
# 
# From -- ./inp_files/66818.got.cif
#   From: 2010.05.17/outbox.cif.g08.bks.cpg/sg2_34_cif.got.tgz:66818.got - 2010.06.03 11:33:40.
