data_PCOD9080320
_publ_section_title
;
Structure prediction by ZEFSAII (Michael W. Deem and Ramdas Pophale) SiO2 
 PCOD9080320
Probable space group: P -1
;
_chemical_formula_sum "Si O2"
_cell_formula_units_Z 16
_cell_length_a 8.477877
_cell_length_b 23.945321
_cell_length_c 10.272197
_cell_angle_alpha 151.269407
_cell_angle_beta 52.313898
_cell_angle_gamma 137.714532
_cell_volume 669.912664
_symmetry_space_group_name_H-M "P -1"
_symmetry_group_IT_number 2
_symmetry_cell_setting 'triclinic'
loop_
_space_group_symop_operation_xyz
x,y,z
-x,-y,-z
loop_
_atom_site_type_symbol
_atom_site_label
_atom_site_fract_x
_atom_site_fract_y
_atom_site_fract_z
Si Si1 0.980337 0.846081 0.767506
Si Si2 0.626019 0.801766 0.350247
Si Si3 0.745638 0.186153 0.877468
Si Si4 0.152604 0.475870 0.184462
Si Si5 0.931648 0.381851 0.690007
Si Si6 0.527841 0.016019 0.866518
Si Si7 0.676833 0.691317 0.372285
Si Si8 0.718065 0.904180 0.237238
O O1 0.939307 0.700077 0.533483
O O2 0.828271 0.811830 0.643410
O O3 0.260659 0.937014 0.783924
O O4 0.892617 0.904172 0.042794
O O5 0.344070 0.723189 0.351846
O O6 0.692152 0.746772 0.330269
O O7 0.696525 0.809507 0.179434
O O8 0.698228 0.958162 0.645751
O O9 0.653893 0.155323 0.008532
O O10 0.542335 0.167345 0.843348
O O11 0.780633 0.059766 0.559489
O O12 0.966037 0.341329 0.080796
O O13 0.042505 0.554045 0.333628
O O14 0.406067 0.591317 0.348833
O O15 0.221785 0.407059 0.892684
O O16 0.000000 0.500000 0.000000
O O17 0.500000 0.000000 0.000000
#
# Coordination Sequence:
#
# PCOD9080320 Si02
#       8
#     2   2   2   2   2   2   2   2
#     4  11  24  42  74 106 135 174 246 292 339 407
#     4   9  21  41  65  96 138 178 232 273 353 407
#     4  10  23  44  71  98 142 187 227 280 361 420
#     4  10  21  41  69  98 141 186 229 273 356 419
#     4  10  18  38  72  91 134 189 226 276 340 413
#     4  10  24  44  70 100 137 184 227 287 351 413
#     4  10  22  39  73 105 131 184 234 291 333 413
#     4  10  23  42  70 106 137 182 229 297 346 408
#
# _framework density 23.883711000000002
#
# number of rings (size 3 to 8) (size 9 to 14) (size 15 to 20)
#    0.000    2.000    1.250    0.750    7.000    2.500 
#    0.000    5.625    5.500    0.000    0.000    0.000 
#    0.000    0.000    0.000    0.000    0.000    0.000 
#
# Total GULP energy -89291.490676 kJ/mol
# GULP energy per Si atom -5580.718167 kJ/mol
# Density = 2.382935 g / cm^3
# Si number density = 23.883711 Si / 1000 Ang^3
#
#
#
# Elastic Constant Matrix: (Units=GPa)
#
#
# Indices 1 2 3 4 5 6 
#
# 1 113.4342 62.5430 46.4343 12.8570 -8.7071 -23.3728
# 2 62.5430 137.9509 56.6300 30.1921 9.8471 -32.8474
# 3 46.4343 56.6300 65.1832 13.8595 2.6742 -16.9847
# 4 12.8570 30.1921 13.8595 41.3375 7.2723 -4.4147
# 5 -8.7071 9.8471 2.6742 7.2723 41.9038 -4.3019
# 6 -23.3728 -32.8474 -16.9847 -4.4147 -4.3019 30.8103
#
#
#
# Elastic Compliance Matrix: (Units=1/GPa)
#
#
# Indices 1 2 3 4 5 6 
#
# 1 0.014584 -0.002973 -0.006647 -0.000452 0.004727 0.004825
# 2 -0.002973 0.015275 -0.007413 -0.006510 -0.001704 0.008773
# 3 -0.006647 -0.007413 0.027299 -0.001310 -0.000971 0.001780
# 4 -0.000452 -0.006510 -0.001310 0.029786 -0.004092 -0.004309
# 5 0.004727 -0.001704 -0.000971 -0.004092 0.026465 0.004343
# 6 0.004825 0.008773 0.001780 -0.004309 0.004343 0.046440
#
#
# Mechanical properties :
#
#
# Convention : Reuss Voigt Hill
#
# Bulk Modulus (GPa) = 43.30403 71.97588 57.63995
# Shear Modulus (GPa) = 24.80019 32.87438 28.83728
#
# Velocity S-wave (km/s) = 3.22587 3.71406 3.47854
# Velocity P-wave (km/s) = 5.66088 6.97092 6.34977
#
# Compressibility (1/GPa) = 0.02309254
#
# Stress axis : x y z
#
# Youngs Moduli (GPa) = 68.56830 65.46579 36.63150
#
# Poissons Ratio (x) = 0.19462 0.24348
# Poissons Ratio (y) = 0.20385 0.27155
# Poissons Ratio (z) = 0.45576 0.48530
#
# Static dielectric constant tensor:
#      x y z
#    x 2.016950 -0.026190 -0.057710 
#    y -0.026190 2.003210 -0.065970 
#    z -0.057710 -0.065970 2.108760 
# 
# From -- ./inp_files/389440.got.cif
#   From: 2010.05.17/outbox.cif.g08.bks.cpg/sg2_195_cif.got.tgz:389440.got - 2010.06.03 11:33:40.
