data_PCOD9080202
_publ_section_title
;
Structure prediction by ZEFSAII (Michael W. Deem and Ramdas Pophale) SiO2 
 PCOD9080202
Probable space group: P -1
;
_chemical_formula_sum "Si O2"
_cell_formula_units_Z 16
_cell_length_a 11.383270
_cell_length_b 10.384829
_cell_length_c 18.772485
_cell_angle_alpha 126.249339
_cell_angle_beta 147.726867
_cell_angle_gamma 75.568139
_cell_volume 776.902993
_symmetry_space_group_name_H-M "P -1"
_symmetry_group_IT_number 2
_symmetry_cell_setting 'triclinic'
loop_
_space_group_symop_operation_xyz
x,y,z
-x,-y,-z
loop_
_atom_site_type_symbol
_atom_site_label
_atom_site_fract_x
_atom_site_fract_y
_atom_site_fract_z
Si Si1 0.905652 0.905839 0.572919
Si Si2 0.489087 0.610729 0.172240
Si Si3 0.091829 0.264368 0.339342
Si Si4 0.778349 0.437838 0.200017
Si Si5 0.639547 0.469298 0.628169
Si Si6 0.956868 0.306312 0.722043
Si Si7 0.902638 0.107278 0.031946
Si Si8 0.393239 0.076102 0.783165
O O1 0.600456 0.720875 0.339671
O O2 0.004289 0.876754 0.688707
O O3 0.916528 0.101323 0.639523
O O4 0.100497 0.920375 0.614667
O O5 0.629581 0.500503 0.193473
O O6 0.599512 0.790781 0.232115
O O7 0.175701 0.452075 0.941426
O O8 0.417663 0.404271 0.552793
O O9 0.983264 0.399646 0.327782
O O10 0.993963 0.145251 0.174582
O O11 0.916243 0.593466 0.256834
O O12 0.554976 0.231265 0.980676
O O13 0.500000 0.500000 0.500000
O O14 0.691780 0.303777 0.591695
O O15 0.935300 0.674454 0.848131
O O16 0.582085 0.008180 0.834155
O O17 0.000000 0.000000 0.000000
#
# Coordination Sequence:
#
# PCOD9080202 Si02
#       8
#     2   2   2   2   2   2   2   2
#     4  12  25  38  64  98 137 164 208 267 328 383
#     4  11  21  38  63  98 124 171 218 254 322 381
#     4  10  24  42  59  98 130 170 209 262 331 374
#     4  10  18  38  66  87 125 166 215 263 316 372
#     4  10  19  41  65  86 123 169 210 261 317 373
#     4  11  20  41  66  89 126 169 213 268 309 378
#     4  10  21  39  68  95 118 168 224 263 308 386
#     4  10  19  38  62  94 123 166 214 267 314 372
#
# _framework density 20.594591000000001
#
# number of rings (size 3 to 8) (size 9 to 14) (size 15 to 20)
#    0.000    1.500    7.500    1.125    0.000    6.000 
#    2.250    0.625    0.000    0.000    0.000    0.000 
#    0.000    0.000    0.000    0.000    0.000    0.000 
#
# Total GULP energy -89256.346694 kJ/mol
# GULP energy per Si atom -5578.521668 kJ/mol
# Density = 2.054772 g / cm^3
# Si number density = 20.594591 Si / 1000 Ang^3
#
#
#
# Elastic Constant Matrix: (Units=GPa)
#
#
# Indices 1 2 3 4 5 6 
#
# 1 43.0227 50.3495 25.4054 -13.4004 1.0799 -11.3410
# 2 50.3495 121.0791 35.8042 -21.1086 -6.9955 -16.6644
# 3 25.4054 35.8042 63.5216 -18.7977 1.2523 -9.4416
# 4 -13.4004 -21.1086 -18.7977 19.8904 -8.7846 7.4017
# 5 1.0799 -6.9955 1.2523 -8.7846 20.2053 0.3669
# 6 -11.3410 -16.6644 -9.4416 7.4017 0.3669 23.0252
#
#
#
# Elastic Compliance Matrix: (Units=1/GPa)
#
#
# Indices 1 2 3 4 5 6 
#
# 1 0.053075 -0.018611 -0.009213 0.000026 -0.008862 0.009027
# 2 -0.018611 0.019142 0.000695 0.014544 0.013901 0.000075
# 3 -0.009213 0.000695 0.025543 0.023190 0.009253 -0.001163
# 4 0.000026 0.014544 0.023190 0.119498 0.055900 -0.019256
# 5 -0.008862 0.013901 0.009253 0.055900 0.078685 -0.009733
# 6 0.009027 0.000075 -0.001163 -0.019256 -0.009733 0.053800
#
#
# Mechanical properties :
#
#
# Convention : Reuss Voigt Hill
#
# Bulk Modulus (GPa) = 22.98748 50.08240 36.53494
# Shear Modulus (GPa) = 11.94743 20.36181 16.15462
#
# Velocity S-wave (km/s) = 2.41119 3.14777 2.80377
# Velocity P-wave (km/s) = 4.35177 6.13044 5.31602
#
# Compressibility (1/GPa) = 0.04350195
#
# Stress axis : x y z
#
# Youngs Moduli (GPa) = 18.84138 52.24165 39.15014
#
# Poissons Ratio (x) = 0.97229 0.36067
# Poissons Ratio (y) = 0.35066 -0.02722
# Poissons Ratio (z) = 0.17358 -0.03632
#
# Static dielectric constant tensor:
#      x y z
#    x 1.754780 -0.011360 0.012000 
#    y -0.011360 1.735410 -0.014260 
#    z 0.012000 -0.014260 1.819280 
# 
# From -- ./inp_files/559214.got.cif
#   From: 2010.05.17/outbox.cif.g08.bks.cpg/sg2_280_cif.got.tgz:559214.got - 2010.06.03 11:33:40.
