data_PCOD9080215
_publ_section_title
;
Structure prediction by ZEFSAII (Michael W. Deem and Ramdas Pophale) SiO2 
 PCOD9080215
Probable space group: P -1
;
_chemical_formula_sum "Si O2"
_cell_formula_units_Z 14
_cell_length_a 9.872010
_cell_length_b 6.945663
_cell_length_c 9.190035
_cell_angle_alpha 87.612921
_cell_angle_beta 112.885120
_cell_angle_gamma 109.516443
_cell_volume 544.349950
_symmetry_space_group_name_H-M "P -1"
_symmetry_group_IT_number 2
_symmetry_cell_setting 'triclinic'
loop_
_space_group_symop_operation_xyz
x,y,z
-x,-y,-z
loop_
_atom_site_type_symbol
_atom_site_label
_atom_site_fract_x
_atom_site_fract_y
_atom_site_fract_z
Si Si1 0.448501 0.129187 0.748180
Si Si2 0.172379 0.234235 0.499109
Si Si3 0.036870 0.399075 0.702656
Si Si4 0.274847 0.621597 0.329914
Si Si5 0.174604 0.334384 0.055385
Si Si6 0.589893 0.830315 0.955234
Si Si7 0.079025 0.856226 0.811897
O O1 0.281266 0.126976 0.624235
O O2 0.560589 0.221635 0.654766
O O3 0.482297 0.255347 0.913991
O O4 0.477836 0.922709 0.816853
O O5 0.110524 0.359747 0.586920
O O6 0.269979 0.414265 0.419191
O O7 0.024180 0.080724 0.355389
O O8 0.077905 0.639323 0.752635
O O9 0.848468 0.300868 0.640131
O O10 0.117946 0.320734 0.868639
O O11 0.198782 0.547305 0.140781
O O12 0.036015 0.183875 0.097383
O O13 0.339433 0.297579 0.117945
O O14 0.748866 0.011399 0.069054
#
# Coordination Sequence:
#
# PCOD9080215 Si02
#       7
#     2   2   2   2   2   2   2
#     4  11  23  41  59  90 127 162 197 249 304 361
#     4  10  21  41  67  91 119 154 210 252 302 346
#     4  10  18  38  66  92 115 156 209 254 292 352
#     4  10  21  38  65  90 121 154 204 255 301 351
#     4  10  19  37  63  92 116 160 210 246 291 357
#     4  11  23  39  60  89 129 162 200 241 304 366
#     4  10  21  38  64  91 121 157 203 254 295 360
#
# _framework density 25.718751000000001
#
# number of rings (size 3 to 8) (size 9 to 14) (size 15 to 20)
#    0.000    2.000    1.429    6.000    0.000    1.143 
#    5.143    2.857   12.571    0.000    0.000    0.000 
#    0.000    0.000    0.000    0.000    0.000    0.000 
#
# Total GULP energy -78298.093830 kJ/mol
# GULP energy per Si atom -5592.720988 kJ/mol
# Density = 2.566021 g / cm^3
# Si number density = 25.718751 Si / 1000 Ang^3
#
#
#
# Elastic Constant Matrix: (Units=GPa)
#
#
# Indices 1 2 3 4 5 6 
#
# 1 163.0254 44.5584 39.0105 -22.8022 -3.2724 -10.9704
# 2 44.5584 59.9042 23.7582 -2.6761 -3.4399 -6.0480
# 3 39.0105 23.7582 131.5405 -18.0969 -5.4635 -12.0042
# 4 -22.8022 -2.6761 -18.0969 31.7713 -10.6383 -5.8040
# 5 -3.2724 -3.4399 -5.4635 -10.6383 51.9917 -11.1400
# 6 -10.9704 -6.0480 -12.0042 -5.8040 -11.1400 33.6437
#
#
#
# Elastic Compliance Matrix: (Units=1/GPa)
#
#
# Indices 1 2 3 4 5 6 
#
# 1 0.009158 -0.005860 -0.000130 0.007620 0.002605 0.004063
# 2 -0.005860 0.022014 -0.002706 -0.003760 0.000136 0.000477
# 3 -0.000130 -0.002706 0.009791 0.007422 0.003519 0.005410
# 4 0.007620 -0.003760 0.007422 0.049100 0.014883 0.017855
# 5 0.002605 0.000136 0.003519 0.014883 0.025648 0.013190
# 6 0.004063 0.000477 0.005410 0.017855 0.013190 0.040512
#
#
# Mechanical properties :
#
#
# Convention : Reuss Voigt Hill
#
# Bulk Modulus (GPa) = 42.42870 63.23603 52.83237
# Shear Modulus (GPa) = 27.55242 39.95755 33.75499
#
# Velocity S-wave (km/s) = 3.27662 3.94589 3.62673
# Velocity P-wave (km/s) = 5.55410 6.73803 6.17450
#
# Compressibility (1/GPa) = 0.02356895
#
# Stress axis : x y z
#
# Youngs Moduli (GPa) = 109.18893 45.42627 102.13827
#
# Poissons Ratio (x) = 0.26622 0.01331
# Poissons Ratio (y) = 0.63989 0.27640
# Poissons Ratio (z) = 0.01423 0.12293
#
# Static dielectric constant tensor:
#      x y z
#    x 2.050390 0.034340 -0.009270 
#    y 0.034340 2.128760 -0.054720 
#    z -0.009270 -0.054720 2.001460 
# 
# From -- ./inp_files/154342.got.cif
#   From: 2010.05.17/outbox.cif.g08.bks.cpg/sg2_78_cif.got.tgz:154342.got - 2010.06.03 11:33:40.
