data_PCOD9080995
_publ_section_title
;
Structure prediction by ZEFSAII (Michael W. Deem and Ramdas Pophale) SiO2 
 PCOD9080995
Probable space group: P -1
;
_chemical_formula_sum "Si O2"
_cell_formula_units_Z 16
_cell_length_a 9.665676
_cell_length_b 16.505633
_cell_length_c 14.929044
_cell_angle_alpha 34.257977
_cell_angle_beta 29.990871
_cell_angle_gamma 42.640992
_cell_volume 668.527010
_symmetry_space_group_name_H-M "P -1"
_symmetry_group_IT_number 2
_symmetry_cell_setting 'triclinic'
loop_
_space_group_symop_operation_xyz
x,y,z
-x,-y,-z
loop_
_atom_site_type_symbol
_atom_site_label
_atom_site_fract_x
_atom_site_fract_y
_atom_site_fract_z
Si Si1 0.131821 0.654701 0.575920
Si Si2 0.458894 0.356673 0.074467
Si Si3 0.595991 0.821624 0.912280
Si Si4 0.029013 0.160110 0.740027
Si Si5 0.536860 0.621215 0.663847
Si Si6 0.603106 0.577203 0.238360
Si Si7 0.397655 0.846334 0.383417
Si Si8 0.031978 0.845623 0.005749
O O1 0.376758 0.619970 0.400930
O O2 0.169366 0.531220 0.743640
O O3 0.189764 0.795433 0.471860
O O4 0.830043 0.654980 0.702325
O O5 0.417792 0.250765 0.109942
O O6 0.743993 0.285665 0.022387
O O7 0.463170 0.516246 0.883468
O O8 0.660564 0.985246 0.720116
O O9 0.758534 0.709130 0.989117
O O10 0.288508 0.819560 0.130177
O O11 0.207247 0.297435 0.513823
O O12 0.131116 0.005117 0.781183
O O13 0.996413 0.144833 0.879595
O O14 0.551756 0.504588 0.680137
O O15 0.391496 0.755408 0.562924
O O16 0.709731 0.822996 0.185207
#
# Coordination Sequence:
#
# PCOD9080995 Si02
#       8
#     2   2   2   2   2   2   2   2
#     4  10  21  36  50  70 104 137 167 204 246 291
#     4  10  19  30  51  80 104 125 162 213 251 286
#     4   9  18  32  54  79  98 124 169 211 247 296
#     4   8  14  28  51  76 101 127 160 204 251 300
#     4   9  17  29  52  76  99 129 165 201 246 292
#     4   9  20  35  50  67  99 140 172 198 240 302
#     4   9  18  32  53  76 100 133 166 200 248 303
#     4   8  15  29  49  77 103 123 159 209 251 292
#
# _framework density 23.933215000000001
#
# number of rings (size 3 to 8) (size 9 to 14) (size 15 to 20)
#    0.000    3.000    0.000    2.250    0.000   14.500 
#    0.000    1.250    0.000   30.000    0.000    0.000 
#    0.000    2.000    0.000    0.000    0.000    0.000 
#
# Total GULP energy -89110.094462 kJ/mol
# GULP energy per Si atom -5569.380904 kJ/mol
# Density = 2.387874 g / cm^3
# Si number density = 23.933215 Si / 1000 Ang^3
#
#
#
# Elastic Constant Matrix: (Units=GPa)
#
#
# Indices 1 2 3 4 5 6 
#
# 1 57.6079 29.0988 17.6868 -3.8804 -13.4503 -4.1208
# 2 29.0988 84.4440 88.9522 -24.5940 4.8599 10.3326
# 3 17.6868 88.9522 17.4143 -23.5752 -68.2285 -38.0096
# 4 -3.8804 -24.5940 -23.5752 40.5157 -10.3546 -5.8747
# 5 -13.4503 4.8599 -68.2285 -10.3546 10.5039 -7.4715
# 6 -4.1208 10.3326 -38.0096 -5.8747 -7.4715 1.4676
#
#
#
# Elastic Compliance Matrix: (Units=1/GPa)
#
#
# Indices 1 2 3 4 5 6 
#
# 1 0.020414 -0.003925 -0.003366 -0.002360 0.001728 -0.002867
# 2 -0.003925 0.014652 0.000737 0.012528 0.010161 0.006790
# 3 -0.003366 0.000737 0.001601 -0.002386 -0.005986 -0.013192
# 4 -0.002360 0.012528 -0.002386 0.031727 0.005384 -0.002215
# 5 0.001728 0.010161 -0.005986 0.005384 0.031755 -0.038499
# 6 -0.002867 0.006790 -0.013192 -0.002215 -0.038499 0.078993
#
#
# Mechanical properties :
#
#
# Convention : Reuss Voigt Hill
#
# Bulk Modulus (GPa) = 42.44634 47.88243 45.16438
# Shear Modulus (GPa) = 24.98706 12.07933 18.53319
#
# Velocity S-wave (km/s) = 3.23465 2.24901 2.78577
# Velocity P-wave (km/s) = 5.63245 5.17631 5.40919
#
# Compressibility (1/GPa) = 0.02355916
#
# Stress axis : x y z
#
# Youngs Moduli (GPa) = 48.98552 68.25137 624.50568
#
# Poissons Ratio (x) = 0.26789 2.10197
# Poissons Ratio (y) = 0.19227 -0.46019
# Poissons Ratio (z) = 0.16488 -0.05029
#
# Static dielectric constant tensor:
#      x y z
#    x 1.975480 -0.098520 0.002320 
#    y -0.098520 1.986200 -0.002020 
#    z 0.002320 -0.002020 1.978000 
# 
# From -- ./inp_files/570232.got.cif
#   From: 2010.05.17/outbox.cif.g08.bks.cpg/sg2_286_cif.got.tgz:570232.got - 2010.06.03 11:33:40.
