data_PCOD9080652
_publ_section_title
;
Structure prediction by ZEFSAII (Michael W. Deem and Ramdas Pophale) SiO2 
 PCOD9080652
Probable space group: P -1
;
_chemical_formula_sum "Si O2"
_cell_formula_units_Z 10
_cell_length_a 10.915980
_cell_length_b 5.254838
_cell_length_c 7.798692
_cell_angle_alpha 88.455325
_cell_angle_beta 117.747490
_cell_angle_gamma 91.993036
_cell_volume 395.636250
_symmetry_space_group_name_H-M "P -1"
_symmetry_group_IT_number 2
_symmetry_cell_setting 'triclinic'
loop_
_space_group_symop_operation_xyz
x,y,z
-x,-y,-z
loop_
_atom_site_type_symbol
_atom_site_label
_atom_site_fract_x
_atom_site_fract_y
_atom_site_fract_z
Si Si1 0.659471 0.322782 0.766797
Si Si2 0.108018 0.290280 0.523384
Si Si3 0.210242 0.161989 0.239115
Si Si4 0.799714 0.028372 0.118878
Si Si5 0.408267 0.311183 0.828268
O O1 0.679844 0.605649 0.709245
O O2 0.507057 0.252474 0.734646
O O3 0.715472 0.106515 0.681039
O O4 0.763007 0.292979 0.001419
O O5 0.107470 0.223094 0.323579
O O6 0.115039 0.042507 0.657553
O O7 0.263190 0.412039 0.659033
O O8 0.000000 0.500000 0.500000
O O9 0.146406 0.128473 0.007598
O O10 0.648952 0.914903 0.082440
O O11 0.500000 0.500000 0.000000
#
# Coordination Sequence:
#
# PCOD9080652 Si02
#       5
#     2   2   2   2   2
#     4  10  19  41  65 102 125 171 218 278 325 380
#     4  10  23  43  64  97 134 176 217 268 332 396
#     4  10  22  41  66  99 130 170 220 275 324 390
#     4   8  21  38  64  94 131 169 212 269 327 385
#     4  10  18  40  68  96 132 170 219 270 329 386
#
# _framework density 25.275741
#
# number of rings (size 3 to 8) (size 9 to 14) (size 15 to 20)
#    2.400    0.000    2.000    0.600    0.000    2.400 
#    7.200    2.000    0.000    0.000    0.000    0.000 
#    0.000    0.000    0.000    0.000    0.000    0.000 
#
# Total GULP energy -55781.183955 kJ/mol
# GULP energy per Si atom -5578.118395 kJ/mol
# Density = 2.521821 g / cm^3
# Si number density = 25.275741 Si / 1000 Ang^3
#
#
#
# Elastic Constant Matrix: (Units=GPa)
#
#
# Indices 1 2 3 4 5 6 
#
# 1 120.2515 15.1731 31.6906 4.3660 -11.5233 -28.4967
# 2 15.1731 72.7003 7.1780 -0.3744 -1.6823 -11.0968
# 3 31.6906 7.1780 124.5198 3.3367 -3.4126 -10.2871
# 4 4.3660 -0.3744 3.3367 27.7281 -9.2929 -6.4475
# 5 -11.5233 -1.6823 -3.4126 -9.2929 48.7020 1.8356
# 6 -28.4967 -11.0968 -10.2871 -6.4475 1.8356 53.0416
#
#
#
# Elastic Compliance Matrix: (Units=1/GPa)
#
#
# Indices 1 2 3 4 5 6 
#
# 1 0.010373 -0.001155 -0.002122 0.000474 0.002172 0.004903
# 2 -0.001155 0.014418 -0.000356 0.001095 0.000317 0.002449
# 3 -0.002122 -0.000356 0.008639 -0.000636 -0.000045 0.000385
# 4 0.000474 0.001095 -0.000636 0.039742 0.007503 0.004932
# 5 0.002172 0.000317 -0.000045 0.007503 0.022435 0.001360
# 6 0.004903 0.002449 0.000385 0.004932 0.001360 0.022627
#
#
# Mechanical properties :
#
#
# Convention : Reuss Voigt Hill
#
# Bulk Modulus (GPa) = 38.21647 47.28389 42.75018
# Shear Modulus (GPa) = 37.25220 43.45633 40.35427
#
# Velocity S-wave (km/s) = 3.84322 4.15093 4.00003
# Velocity P-wave (km/s) = 5.90308 6.45922 6.18740
#
# Compressibility (1/GPa) = 0.02616673
#
# Stress axis : x y z
#
# Youngs Moduli (GPa) = 96.40051 69.35788 115.75444
#
# Poissons Ratio (x) = 0.08007 0.24559
# Poissons Ratio (y) = 0.11130 0.04117
# Poissons Ratio (z) = 0.20453 0.02467
#
# Static dielectric constant tensor:
#      x y z
#    x 2.032640 0.043950 0.048730 
#    y 0.043950 1.984960 0.062520 
#    z 0.048730 0.062520 2.114680 
# 
# From -- ./inp_files/26197.got.cif
#   From: 2010.05.17/outbox.cif.g08.bks.cpg/sg2_14_cif.got.tgz:26197.got - 2010.06.03 11:33:40.
