data_PCOD9080039
_publ_section_title
;
Structure prediction by ZEFSAII (Michael W. Deem and Ramdas Pophale) SiO2 
 PCOD9080039
Probable space group: P -1
;
_chemical_formula_sum "Si O2"
_cell_formula_units_Z 16
_cell_length_a 9.185034
_cell_length_b 12.583170
_cell_length_c 7.216110
_cell_angle_alpha 125.502349
_cell_angle_beta 105.542601
_cell_angle_gamma 59.011295
_cell_volume 581.479119
_symmetry_space_group_name_H-M "P -1"
_symmetry_group_IT_number 2
_symmetry_cell_setting 'triclinic'
loop_
_space_group_symop_operation_xyz
x,y,z
-x,-y,-z
loop_
_atom_site_type_symbol
_atom_site_label
_atom_site_fract_x
_atom_site_fract_y
_atom_site_fract_z
Si Si1 0.364087 0.857175 0.313277
Si Si2 0.548316 0.191376 0.276246
Si Si3 0.009675 0.636435 0.541596
Si Si4 0.742974 0.656007 0.183632
Si Si5 0.078381 0.115820 0.619144
Si Si6 0.238346 0.113942 0.055441
Si Si7 0.340357 0.479002 0.302637
Si Si8 0.262783 0.627034 0.082825
O O1 0.380056 0.828310 0.512817
O O2 0.559985 0.798842 0.265400
O O3 0.307757 0.737837 0.098464
O O4 0.219079 0.023812 0.414290
O O5 0.381319 0.164577 0.202227
O O6 0.489562 0.349434 0.329065
O O7 0.680175 0.060464 0.059279
O O8 0.888153 0.677417 0.358958
O O9 0.930974 0.776904 0.788669
O O10 0.000000 0.500000 0.500000
O O11 0.200435 0.592241 0.504357
O O12 0.765139 0.595506 0.920248
O O13 0.743874 0.514814 0.149427
O O14 0.908524 0.268489 0.755934
O O15 0.195236 0.124464 0.834250
O O16 0.000000 0.000000 0.500000
O O17 0.393797 0.544159 0.211810
#
# Coordination Sequence:
#
# PCOD9080039 Si02
#       8
#     2   2   2   2   2   2   2   2
#     4  10  18  38  62  80 111 150 195 225 274 342
#     4  10  20  37  56  84 111 147 189 235 275 337
#     4  12  20  36  58  82 114 152 189 232 276 339
#     4  10  21  35  54  87 112 149 188 232 280 326
#     4   9  19  36  60  86 109 145 190 233 273 339
#     4  10  20  34  62  80 109 149 193 227 280 331
#     4  10  23  36  53  85 121 145 185 238 280 325
#     4   9  21  35  58  82 116 148 184 230 287 320
#
# _framework density 27.516034999999999
#
# number of rings (size 3 to 8) (size 9 to 14) (size 15 to 20)
#    0.750    1.250    2.500    1.500    0.000    0.500 
#    2.250    0.625    0.000    2.250    0.000    0.000 
#    0.000    0.000    0.000    0.000    0.000    0.000 
#
# Total GULP energy -89417.160656 kJ/mol
# GULP energy per Si atom -5588.572541 kJ/mol
# Density = 2.745341 g / cm^3
# Si number density = 27.516035 Si / 1000 Ang^3
#
#
#
# Elastic Constant Matrix: (Units=GPa)
#
#
# Indices 1 2 3 4 5 6 
#
# 1 98.3870 6.5417 26.3830 24.7525 -8.3305 -19.1944
# 2 6.5417 89.5586 -1.0552 26.2831 -7.7578 -18.9618
# 3 26.3830 -1.0552 98.5458 15.3522 -16.6959 -23.8602
# 4 24.7525 26.2831 15.3522 53.6054 -17.2804 -12.7783
# 5 -8.3305 -7.7578 -16.6959 -17.2804 55.8709 15.4301
# 6 -19.1944 -18.9618 -23.8602 -12.7783 15.4301 36.6598
#
#
#
# Elastic Compliance Matrix: (Units=1/GPa)
#
#
# Indices 1 2 3 4 5 6 
#
# 1 0.012737 0.001640 -0.001520 -0.005475 -0.001467 0.005237
# 2 0.001640 0.014848 0.002621 -0.007274 -0.001459 0.008323
# 3 -0.001520 0.002621 0.012996 -0.002051 0.001237 0.007783
# 4 -0.005475 -0.007274 -0.002051 0.027077 0.006255 -0.001159
# 5 -0.001467 -0.001459 0.001237 0.006255 0.021926 -0.007766
# 6 0.005237 0.008323 0.007783 -0.001159 -0.007766 0.042255
#
#
# Mechanical properties :
#
#
# Convention : Reuss Voigt Hill
#
# Bulk Modulus (GPa) = 21.70922 38.91449 30.31185
# Shear Modulus (GPa) = 35.28290 46.20202 40.74246
#
# Velocity S-wave (km/s) = 3.58476 4.10212 3.85214
# Velocity P-wave (km/s) = 5.00408 6.05060 5.55205
#
# Compressibility (1/GPa) = 0.04606338
#
# Stress axis : x y z
#
# Youngs Moduli (GPa) = 78.50887 67.35125 76.94606
#
# Poissons Ratio (x) = -0.11047 0.11697
# Poissons Ratio (y) = -0.12877 -0.20168
# Poissons Ratio (z) = 0.11934 -0.17653
#
# Static dielectric constant tensor:
#      x y z
#    x 2.176210 0.103840 0.022280 
#    y 0.103840 2.323120 0.001250 
#    z 0.022280 0.001250 2.160640 
# 
# From -- ./inp_files/271119.got.cif
#   From: 2010.05.17/outbox.cif.g08.bks.cpg/sg2_136_cif.got.tgz:271119.got - 2010.06.03 11:33:40.
