data_PCOD9080609
_publ_section_title
;
Structure prediction by ZEFSAII (Michael W. Deem and Ramdas Pophale) SiO2 
 PCOD9080609
Probable space group: P -1
;
_chemical_formula_sum "Si O2"
_cell_formula_units_Z 12
_cell_length_a 14.775948
_cell_length_b 8.901434
_cell_length_c 8.428147
_cell_angle_alpha 133.627909
_cell_angle_beta 118.155676
_cell_angle_gamma 42.798655
_cell_volume 543.830661
_symmetry_space_group_name_H-M "P -1"
_symmetry_group_IT_number 2
_symmetry_cell_setting 'triclinic'
loop_
_space_group_symop_operation_xyz
x,y,z
-x,-y,-z
loop_
_atom_site_type_symbol
_atom_site_label
_atom_site_fract_x
_atom_site_fract_y
_atom_site_fract_z
Si Si1 0.743570 0.477264 0.695278
Si Si2 0.302316 0.890076 0.551922
Si Si3 0.413849 0.895944 0.964867
Si Si4 0.739760 0.293607 0.216555
Si Si5 0.389015 0.178717 0.675842
Si Si6 0.957387 0.789111 0.209147
O O1 0.702575 0.454246 0.469337
O O2 0.903836 0.280584 0.686000
O O3 0.687494 0.777878 0.894822
O O4 0.691867 0.356943 0.676556
O O5 0.320246 0.046157 0.553274
O O6 0.157763 0.082296 0.658885
O O7 0.409321 0.807761 0.719145
O O8 0.536438 0.837080 0.116261
O O9 0.356873 0.779136 0.937343
O O10 0.715820 0.506121 0.227484
O O11 0.883801 0.004344 0.160242
O O12 0.500000 0.000000 0.500000
O O13 0.000000 0.500000 0.000000
#
# Coordination Sequence:
#
# PCOD9080609 Si02
#       6
#     2   2   2   2   2   2
#     4  10  18  40  66  88 117 159 207 251 296 358
#     4  10  23  38  64  94 116 164 208 240 302 363
#     4  10  20  41  64  86 119 166 206 244 298 358
#     4  10  21  37  63  90 119 163 197 248 312 345
#     4  12  24  42  58  90 135 159 196 253 305 357
#     4  10  18  40  68  89 117 156 208 253 295 362
#
# _framework density 22.065691999999999
#
# number of rings (size 3 to 8) (size 9 to 14) (size 15 to 20)
#    0.000    2.000    5.000    3.000    0.000    0.667 
#    6.000    4.167    0.000    0.000    0.000    0.000 
#    0.000    0.000    0.000    0.000    0.000    0.000 
#
# Total GULP energy -66959.409599 kJ/mol
# GULP energy per Si atom -5579.950800 kJ/mol
# Density = 2.201547 g / cm^3
# Si number density = 22.065692 Si / 1000 Ang^3
#
#
#
# Elastic Constant Matrix: (Units=GPa)
#
#
# Indices 1 2 3 4 5 6 
#
# 1 149.3063 66.6881 35.6551 7.6291 36.8523 17.4040
# 2 66.6881 135.4532 14.8065 22.3253 8.3778 11.0906
# 3 35.6551 14.8065 84.0351 20.9009 19.7538 -6.7040
# 4 7.6291 22.3253 20.9009 32.0527 -0.4272 6.1304
# 5 36.8523 8.3778 19.7538 -0.4272 38.9317 9.5542
# 6 17.4040 11.0906 -6.7040 6.1304 9.5542 31.9915
#
#
#
# Elastic Compliance Matrix: (Units=1/GPa)
#
#
# Indices 1 2 3 4 5 6 
#
# 1 0.012102 -0.005425 -0.003795 0.004058 -0.007314 -0.004092
# 2 -0.005425 0.010968 0.001974 -0.007726 0.001546 0.000581
# 3 -0.003795 0.001974 0.020627 -0.016345 -0.010409 0.011944
# 4 0.004058 -0.007726 -0.016345 0.049385 0.010472 -0.015545
# 5 -0.007314 0.001546 -0.010409 0.010472 0.040849 -0.012944
# 6 -0.004092 0.000581 0.011944 -0.015545 -0.012944 0.042630
#
#
# Mechanical properties :
#
#
# Convention : Reuss Voigt Hill
#
# Bulk Modulus (GPa) = 34.24203 67.01045 50.62624
# Shear Modulus (GPa) = 24.90187 37.37151 31.13669
#
# Velocity S-wave (km/s) = 3.36301 4.11986 3.76052
# Velocity P-wave (km/s) = 5.53459 7.28461 6.46905
#
# Compressibility (1/GPa) = 0.02920387
#
# Stress axis : x y z
#
# Youngs Moduli (GPa) = 82.63303 91.17642 48.47974
#
# Poissons Ratio (x) = 0.49460 0.18400
# Poissons Ratio (y) = 0.44826 -0.09568
# Poissons Ratio (z) = 0.31362 -0.17995
#
# Static dielectric constant tensor:
#      x y z
#    x 1.867000 0.010420 -0.016770 
#    y 0.010420 1.856870 0.031670 
#    z -0.016770 0.031670 1.851210 
# 
# From -- ./inp_files/296943.got.cif
#   From: 2010.05.17/outbox.cif.g08.bks.cpg/sg2_149_cif.got.tgz:296943.got - 2010.06.03 11:33:40.
