data_PCOD9080657
_publ_section_title
;
Structure prediction by ZEFSAII (Michael W. Deem and Ramdas Pophale) SiO2 
 PCOD9080657
Probable space group: P -1
;
_chemical_formula_sum "Si O2"
_cell_formula_units_Z 12
_cell_length_a 8.939495
_cell_length_b 11.363103
_cell_length_c 9.358604
_cell_angle_alpha 104.609063
_cell_angle_beta 135.296872
_cell_angle_gamma 100.931824
_cell_volume 543.823028
_symmetry_space_group_name_H-M "P -1"
_symmetry_group_IT_number 2
_symmetry_cell_setting 'triclinic'
loop_
_space_group_symop_operation_xyz
x,y,z
-x,-y,-z
loop_
_atom_site_type_symbol
_atom_site_label
_atom_site_fract_x
_atom_site_fract_y
_atom_site_fract_z
Si Si1 0.752012 0.419604 0.709610
Si Si2 0.574265 0.131963 0.350338
Si Si3 0.061357 0.191369 0.530498
Si Si4 0.827107 0.880399 0.141234
Si Si5 0.089042 0.888888 0.059988
Si Si6 0.756185 0.614193 0.548057
O O1 0.652648 0.254181 0.559855
O O2 0.788952 0.491372 0.599800
O O3 0.530960 0.429558 0.637419
O O4 0.000000 0.500000 0.000000
O O5 0.807015 0.148126 0.428243
O O6 0.382544 0.976256 0.244746
O O7 0.407575 0.149663 0.121794
O O8 0.246964 0.207487 0.788574
O O9 0.159107 0.327548 0.536149
O O10 0.990562 0.050420 0.346157
O O11 0.001213 0.848411 0.150727
O O12 0.930366 0.750220 0.811742
O O13 0.000000 0.000000 0.000000
#
# Coordination Sequence:
#
# PCOD9080657 Si02
#       6
#     2   2   2   2   2   2
#     4  11  26  44  66  91 123 175 221 250 310 386
#     4  11  22  41  66  95 129 163 214 263 310 372
#     4  11  23  37  66 101 129 162 202 265 327 369
#     4  10  21  39  61  98 132 161 202 259 320 370
#     4  10  18  40  69  90 124 167 208 261 313 363
#     4  11  23  45  65  90 133 164 208 271 310 367
#
# _framework density 22.065999999999999
#
# number of rings (size 3 to 8) (size 9 to 14) (size 15 to 20)
#    0.000    1.333    6.667    0.500    2.333    2.667 
#    3.000    1.667    0.000    0.000    0.000    0.000 
#    0.000    0.000    0.000    0.000    0.000    0.000 
#
# Total GULP energy -67085.223734 kJ/mol
# GULP energy per Si atom -5590.435311 kJ/mol
# Density = 2.201578 g / cm^3
# Si number density = 22.066000 Si / 1000 Ang^3
#
#
#
# Elastic Constant Matrix: (Units=GPa)
#
#
# Indices 1 2 3 4 5 6 
#
# 1 60.3381 1.8723 19.0732 -17.7606 0.7453 15.8771
# 2 1.8723 62.2941 17.7373 -15.1147 2.7013 18.1405
# 3 19.0732 17.7373 124.0673 -13.2150 3.3613 8.1598
# 4 -17.7606 -15.1147 -13.2150 31.2555 6.6613 -4.6124
# 5 0.7453 2.7013 3.3613 6.6613 26.8192 -6.2071
# 6 15.8771 18.1405 8.1598 -4.6124 -6.2071 33.2576
#
#
#
# Elastic Compliance Matrix: (Units=1/GPa)
#
#
# Indices 1 2 3 4 5 6 
#
# 1 0.027098 0.009760 -0.002163 0.018843 -0.010079 -0.016997
# 2 0.009760 0.026245 -0.001931 0.017108 -0.011136 -0.018207
# 3 -0.002163 -0.001931 0.008912 0.001879 -0.001350 -0.000092
# 4 0.018843 0.017108 0.001879 0.053672 -0.019271 -0.014941
# 5 -0.010079 -0.011136 -0.001350 -0.019271 0.047681 0.017443
# 6 -0.016997 -0.018207 -0.000092 -0.014941 0.017443 0.049320
#
#
# Mechanical properties :
#
#
# Convention : Reuss Voigt Hill
#
# Bulk Modulus (GPa) = 13.58943 36.00722 24.79832
# Shear Modulus (GPa) = 22.11171 32.13424 27.12297
#
# Velocity S-wave (km/s) = 3.16899 3.82026 3.50976
# Velocity P-wave (km/s) = 4.42288 5.98436 5.26187
#
# Compressibility (1/GPa) = 0.07358661
#
# Stress axis : x y z
#
# Youngs Moduli (GPa) = 36.90329 38.10206 112.21398
#
# Poissons Ratio (x) = -0.37189 0.24273
# Poissons Ratio (y) = -0.36019 0.21671
# Poissons Ratio (z) = 0.07983 0.07358
#
# Static dielectric constant tensor:
#      x y z
#    x 1.817950 0.014280 0.018570 
#    y 0.014280 1.867940 -0.047790 
#    z 0.018570 -0.047790 1.820780 
# 
# From -- ./inp_files/176899.got.cif
#   From: 2010.05.17/outbox.cif.g08.bks.cpg/sg2_89_cif.got.tgz:176899.got - 2010.06.03 11:33:40.
