data_PCOD9080604
_publ_section_title
;
Structure prediction by ZEFSAII (Michael W. Deem and Ramdas Pophale) SiO2 
 PCOD9080604
Probable space group: P -1
;
_chemical_formula_sum "Si O2"
_cell_formula_units_Z 16
_cell_length_a 11.301939
_cell_length_b 12.836937
_cell_length_c 5.339798
_cell_angle_alpha 92.265754
_cell_angle_beta 108.649578
_cell_angle_gamma 110.292250
_cell_volume 678.538530
_symmetry_space_group_name_H-M "P -1"
_symmetry_group_IT_number 2
_symmetry_cell_setting 'triclinic'
loop_
_space_group_symop_operation_xyz
x,y,z
-x,-y,-z
loop_
_atom_site_type_symbol
_atom_site_label
_atom_site_fract_x
_atom_site_fract_y
_atom_site_fract_z
Si Si1 0.462707 0.896376 0.651121
Si Si2 0.713731 0.061233 0.087941
Si Si3 0.079256 0.286425 0.753865
Si Si4 0.891393 0.374018 0.413905
Si Si5 0.168639 0.719283 0.128764
Si Si6 0.869222 0.924056 0.048850
Si Si7 0.380554 0.380231 0.934409
Si Si8 0.386383 0.245206 0.422304
O O1 0.491671 0.798637 0.519897
O O2 0.500000 0.000000 0.500000
O O3 0.580988 0.947590 0.942844
O O4 0.324995 0.878226 0.700185
O O5 0.754095 0.150526 0.892878
O O6 0.825108 0.008674 0.193245
O O7 0.102337 0.171241 0.785942
O O8 0.228991 0.379964 0.839140
O O9 0.980468 0.294817 0.469868
O O10 0.988570 0.298189 0.926567
O O11 0.806784 0.339293 0.607901
O O12 0.000000 0.500000 0.500000
O O13 0.812589 0.349378 0.101318
O O14 0.751727 0.859697 0.758638
O O15 0.000000 0.000000 0.000000
O O16 0.381750 0.300734 0.691294
O O17 0.500000 0.500000 0.000000
O O18 0.400485 0.329196 0.208552
#
# Coordination Sequence:
#
# PCOD9080604 Si02
#       8
#     2   2   2   2   2   2   2   2
#     4  10  24  41  64  92 137 180 219 269 330 402
#     4  10  22  40  62  95 135 176 219 267 330 411
#     4   9  23  36  67  93 133 162 218 269 328 398
#     4  10  22  42  62  89 130 167 211 272 333 384
#     4  10  22  40  63  94 127 166 213 268 328 397
#     4  10  18  40  66 103 135 177 212 271 346 407
#     4  11  24  46  68  96 130 176 231 285 339 384
#     4  10  25  43  68  99 133 174 227 278 328 408
#
# _framework density 23.580089999999998
#
# number of rings (size 3 to 8) (size 9 to 14) (size 15 to 20)
#    0.750    1.250    1.250    0.750   12.250    0.000 
#    2.250    3.125    0.000    0.000    0.000    0.000 
#    0.000    0.000    0.000    0.000    0.000    0.000 
#
# Total GULP energy -89297.899408 kJ/mol
# GULP energy per Si atom -5581.118713 kJ/mol
# Density = 2.352642 g / cm^3
# Si number density = 23.580090 Si / 1000 Ang^3
#
#
#
# Elastic Constant Matrix: (Units=GPa)
#
#
# Indices 1 2 3 4 5 6 
#
# 1 132.3508 31.0429 20.4292 -2.6035 -20.3614 16.6780
# 2 31.0429 66.8137 17.2932 8.9046 -6.4895 27.9844
# 3 20.4292 17.2932 106.4371 -1.5178 -34.3605 4.5483
# 4 -2.6035 8.9046 -1.5178 28.5872 5.4166 -0.6752
# 5 -20.3614 -6.4895 -34.3605 5.4166 32.4578 -0.6120
# 6 16.6780 27.9844 4.5483 -0.6752 -0.6120 45.3522
#
#
#
# Elastic Compliance Matrix: (Units=1/GPa)
#
#
# Indices 1 2 3 4 5 6 
#
# 1 0.009334 -0.003577 0.000696 0.000892 0.005705 -0.001205
# 2 -0.003577 0.024133 -0.002386 -0.008519 0.001223 -0.013447
# 3 0.000696 -0.002386 0.014727 -0.001403 0.015783 -0.000068
# 4 0.000892 -0.008519 -0.001403 0.039499 -0.009117 0.005534
# 5 0.005705 0.001223 0.015783 -0.009117 0.052790 -0.003859
# 6 -0.001205 -0.013447 -0.000068 0.005534 -0.003859 0.030827
#
#
# Mechanical properties :
#
#
# Convention : Reuss Voigt Hill
#
# Bulk Modulus (GPa) = 26.55423 49.23691 37.89557
# Shear Modulus (GPa) = 25.72031 37.06853 31.39442
#
# Velocity S-wave (km/s) = 3.30625 3.96918 3.65279
# Velocity P-wave (km/s) = 5.08535 6.47548 5.82206
#
# Compressibility (1/GPa) = 0.03765879
#
# Stress axis : x y z
#
# Youngs Moduli (GPa) = 107.13061 41.43756 67.90027
#
# Poissons Ratio (x) = 0.14822 -0.04723
# Poissons Ratio (y) = 0.38320 0.16204
# Poissons Ratio (z) = -0.07452 0.09889
#
# Static dielectric constant tensor:
#      x y z
#    x 1.927240 0.014800 0.051010 
#    y 0.014800 1.896600 0.053340 
#    z 0.051010 0.053340 2.004710 
# 
# From -- ./inp_files/70698.got.cif
#   From: 2010.05.17/outbox.cif.g08.bks.cpg/sg2_36_cif.got.tgz:70698.got - 2010.06.03 11:33:40.
