data_PCOD9080204
_publ_section_title
;
Structure prediction by ZEFSAII (Michael W. Deem and Ramdas Pophale) SiO2 
 PCOD9080204
Probable space group: P -1
;
_chemical_formula_sum "Si O2"
_cell_formula_units_Z 16
_cell_length_a 14.894418
_cell_length_b 8.518055
_cell_length_c 10.572561
_cell_angle_alpha 109.846063
_cell_angle_beta 43.246847
_cell_angle_gamma 89.114677
_cell_volume 789.333083
_symmetry_space_group_name_H-M "P -1"
_symmetry_group_IT_number 2
_symmetry_cell_setting 'triclinic'
loop_
_space_group_symop_operation_xyz
x,y,z
-x,-y,-z
loop_
_atom_site_type_symbol
_atom_site_label
_atom_site_fract_x
_atom_site_fract_y
_atom_site_fract_z
Si Si1 0.497166 0.819943 0.023778
Si Si2 0.776721 0.635675 0.548263
Si Si3 0.024714 0.229702 0.459823
Si Si4 0.397723 0.706656 0.698059
Si Si5 0.787500 0.022521 0.249925
Si Si6 0.397667 0.083059 0.405623
Si Si7 0.768170 0.199618 0.847023
Si Si8 0.055227 0.765166 0.744540
O O1 0.361200 0.785693 0.108544
O O2 0.482104 0.883537 0.201132
O O3 0.641199 0.659799 0.782606
O O4 0.500000 0.000000 0.000000
O O5 0.889377 0.669253 0.531948
O O6 0.720794 0.789879 0.538953
O O7 0.845442 0.435922 0.363564
O O8 0.875000 0.278585 0.699419
O O9 0.991792 0.260904 0.354518
O O10 0.130569 0.015217 0.301301
O O11 0.500000 0.500000 0.500000
O O12 0.495864 0.817773 0.657245
O O13 0.294591 0.815788 0.719992
O O14 0.302965 0.718985 0.923391
O O15 0.680952 0.943771 0.397782
O O16 0.856603 0.107150 0.308579
O O17 0.917493 0.866667 0.000759
#
# Coordination Sequence:
#
# PCOD9080204 Si02
#       8
#     2   2   2   2   2   2   2   2
#     4  10  18  38  66  89 119 162 206 264 317 359
#     4  11  22  40  69  94 125 165 208 271 315 365
#     4  11  22  39  67  96 127 160 212 263 318 374
#     4  12  24  43  65  91 129 169 212 259 312 378
#     4  11  26  42  62  89 129 177 205 255 311 381
#     4  11  22  42  67  92 125 164 218 255 317 377
#     4  11  21  39  68  93 122 167 210 260 321 372
#     4  11  25  43  60  92 134 165 210 257 317 375
#
# _framework density 20.270275999999999
#
# number of rings (size 3 to 8) (size 9 to 14) (size 15 to 20)
#    0.000    1.000    6.250    2.250    1.750    1.500 
#    2.250    1.250    0.000    0.000    0.000    0.000 
#    0.000    0.000    0.000    0.000    0.000    0.000 
#
# Total GULP energy -89407.695999 kJ/mol
# GULP energy per Si atom -5587.981000 kJ/mol
# Density = 2.022414 g / cm^3
# Si number density = 20.270276 Si / 1000 Ang^3
#
#
#
# Elastic Constant Matrix: (Units=GPa)
#
#
# Indices 1 2 3 4 5 6 
#
# 1 58.9831 -16.6286 6.8212 13.6463 -0.1242 6.5046
# 2 -16.6286 -11.4289 24.2431 26.4393 5.4619 -15.3065
# 3 6.8212 24.2431 138.2689 16.4714 -2.6951 -4.9446
# 4 13.6463 26.4393 16.4714 25.9827 -0.8327 -1.6480
# 5 -0.1242 5.4619 -2.6951 -0.8327 25.9037 -4.3780
# 6 6.5046 -15.3065 -4.9446 -1.6480 -4.3780 6.8765
#
#
#
# Elastic Compliance Matrix: (Units=1/GPa)
#
#
# Indices 1 2 3 4 5 6 
#
# 1 0.021744 -0.004961 -0.000641 -0.008532 -0.005554 -0.037653
# 2 -0.004961 -0.014004 0.000037 0.015354 -0.000474 -0.023075
# 3 -0.000641 0.000037 0.008043 -0.004324 0.001799 0.006581
# 4 -0.008532 0.015354 -0.004324 0.033509 0.005962 0.050964
# 5 -0.005554 -0.000474 0.001799 0.005962 0.045077 0.035622
# 6 -0.037653 -0.023075 0.006581 0.050964 0.035622 0.169300
#
#
# Mechanical properties :
#
#
# Convention : Reuss Voigt Hill
#
# Bulk Modulus (GPa) = 214.98214 23.85493 119.41854
# Shear Modulus (GPa) = 18.09296 23.17842 20.63569
#
# Velocity S-wave (km/s) = 2.99086 3.38519 3.19412
# Velocity P-wave (km/s) = 10.87267 5.20320 8.52316
#
# Compressibility (1/GPa) = 0.00465155
#
# Stress axis : x y z
#
# Youngs Moduli (GPa) = 45.98961 -71.40616 124.33142
#
# Poissons Ratio (x) = -0.35424 0.07973
# Poissons Ratio (y) = 0.22815 -0.00456
# Poissons Ratio (z) = 0.02949 0.00262
#
# Static dielectric constant tensor:
#      x y z
#    x 1.737950 -0.017950 -0.008350 
#    y -0.017950 1.723810 0.003660 
#    z -0.008350 0.003660 1.724310 
# 
# From -- ./inp_files/277555.got.cif
#   From: 2010.05.17/outbox.cif.g08.bks.cpg/sg2_139_cif.got.tgz:277555.got - 2010.06.03 11:33:40.
