data_PCOD9080521
_publ_section_title
;
Structure prediction by ZEFSAII (Michael W. Deem and Ramdas Pophale) SiO2 
 PCOD9080521
Probable space group: P -1
;
_chemical_formula_sum "Si O2"
_cell_formula_units_Z 15
_cell_length_a 19.971110
_cell_length_b 8.319610
_cell_length_c 10.346450
_cell_angle_alpha 123.038813
_cell_angle_beta 34.594097
_cell_angle_gamma 137.518152
_cell_volume 650.520648
_symmetry_space_group_name_H-M "P -1"
_symmetry_group_IT_number 2
_symmetry_cell_setting 'triclinic'
loop_
_space_group_symop_operation_xyz
x,y,z
-x,-y,-z
loop_
_atom_site_type_symbol
_atom_site_label
_atom_site_fract_x
_atom_site_fract_y
_atom_site_fract_z
Si Si1 0.349398 0.271789 0.570590
Si Si2 0.137276 0.246718 0.096388
Si Si3 0.566781 0.374504 0.621405
Si Si4 0.546878 0.974919 0.584890
Si Si5 0.756885 0.239710 0.891340
Si Si6 0.500000 0.000000 0.000000
Si Si7 0.354017 0.468554 0.101013
Si Si8 0.885453 0.945346 0.547207
O O1 0.500000 0.500000 0.500000
O O2 0.339910 0.377414 0.498785
O O3 0.387847 0.082301 0.422325
O O4 0.211650 0.188275 0.842928
O O5 0.139341 0.469897 0.143734
O O6 0.248597 0.350913 0.088816
O O7 0.976622 0.026079 0.304779
O O8 0.631217 0.248881 0.531040
O O9 0.459969 0.389387 0.888097
O O10 0.460540 0.169866 0.590624
O O11 0.376099 0.853345 0.836163
O O12 0.666933 0.152783 0.862773
O O13 0.836651 0.116495 0.724259
O O14 0.449764 0.753882 0.056235
O O15 0.251950 0.330272 0.327652
O O16 0.000000 0.000000 0.500000
#
# Coordination Sequence:
#
# PCOD9080521 Si02
#       8
#     2   2   2   2   2   1   2   2
#     4  10  15  28  48  77 117 135 171 233 290 341
#     4  10  18  32  52  80 119 144 174 229 298 348
#     4  10  17  28  51  80 113 136 176 244 288 341
#     4  10  18  28  53  82 115 139 172 250 290 341
#     4  11  19  37  52  84 117 146 197 220 288 345
#     4  10  24  34  60  74 110 166 192 242 258 332
#     4  10  18  36  50  81 113 143 195 223 285 337
#     4  10  22  33  54  79 120 151 176 238 288 358
#
# _framework density 23.058454000000001
#
# number of rings (size 3 to 8) (size 9 to 14) (size 15 to 20)
#    0.000    1.867    6.667    1.200    0.000    0.533 
#    0.000    0.000    0.000    0.000    0.000    7.467 
#    0.000    0.133    0.000    0.000    0.000    0.000 
#
# Total GULP energy -83571.377181 kJ/mol
# GULP energy per Si atom -5571.425145 kJ/mol
# Density = 2.300597 g / cm^3
# Si number density = 23.058454 Si / 1000 Ang^3
#
#
#
# Elastic Constant Matrix: (Units=GPa)
#
#
# Indices 1 2 3 4 5 6 
#
# 1 71.6058 35.4609 24.4528 3.8374 1.8731 -32.2058
# 2 35.4609 135.8995 63.0271 -0.1748 -4.5182 -49.9844
# 3 24.4528 63.0271 143.2262 -9.2354 19.9754 -24.6365
# 4 3.8374 -0.1748 -9.2354 37.4746 -17.5750 -2.6399
# 5 1.8731 -4.5182 19.9754 -17.5750 40.1699 -0.1702
# 6 -32.2058 -49.9844 -24.6365 -2.6399 -0.1702 54.8982
#
#
#
# Elastic Compliance Matrix: (Units=1/GPa)
#
#
# Indices 1 2 3 4 5 6 
#
# 1 0.019441 -0.000937 -0.001152 -0.002222 -0.001369 0.009924
# 2 -0.000937 0.013514 -0.004644 0.001937 0.004762 0.009779
# 3 -0.001152 -0.004644 0.009891 -0.000035 -0.005404 -0.000484
# 4 -0.002222 0.001937 -0.000035 0.034255 0.015335 0.002139
# 5 -0.001369 0.004762 -0.005404 0.015335 0.034899 0.001953
# 6 0.009924 0.009779 -0.000484 0.002139 0.001953 0.032832
#
#
# Mechanical properties :
#
#
# Convention : Reuss Voigt Hill
#
# Bulk Modulus (GPa) = 34.03765 66.29034 50.16399
# Shear Modulus (GPa) = 29.74570 41.69459 35.72014
#
# Velocity S-wave (km/s) = 3.59557 4.25692 3.94015
# Velocity P-wave (km/s) = 5.65960 7.27826 6.51936
#
# Compressibility (1/GPa) = 0.02937924
#
# Stress axis : x y z
#
# Youngs Moduli (GPa) = 51.43754 73.99656 101.10670
#
# Poissons Ratio (x) = 0.06932 0.11650
# Poissons Ratio (y) = 0.04819 0.46956
# Poissons Ratio (z) = 0.05927 0.34366
#
# Static dielectric constant tensor:
#      x y z
#    x 1.940800 0.007200 -0.009560 
#    y 0.007200 1.907640 0.011610 
#    z -0.009560 0.011610 1.843300 
# 
# From -- ./inp_files/263150.got.cif
#   From: 2010.05.17/outbox.cif.g08.bks.cpg/sg2_132_cif.got.tgz:263150.got - 2010.06.03 11:33:40.
