data_PCOD9080553
_publ_section_title
;
Structure prediction by ZEFSAII (Michael W. Deem and Ramdas Pophale) SiO2 
 PCOD9080553
Probable space group: P -1
;
_chemical_formula_sum "Si O2"
_cell_formula_units_Z 15
_cell_length_a 9.486293
_cell_length_b 12.918273
_cell_length_c 18.341615
_cell_angle_alpha 53.132960
_cell_angle_beta 138.242122
_cell_angle_gamma 93.144555
_cell_volume 809.405653
_symmetry_space_group_name_H-M "P -1"
_symmetry_group_IT_number 2
_symmetry_cell_setting 'triclinic'
loop_
_space_group_symop_operation_xyz
x,y,z
-x,-y,-z
loop_
_atom_site_type_symbol
_atom_site_label
_atom_site_fract_x
_atom_site_fract_y
_atom_site_fract_z
Si Si1 0.315885 0.286788 0.366732
Si Si2 0.966200 0.999714 0.673612
Si Si3 0.653874 0.362338 0.307463
Si Si4 0.724377 0.021222 0.067082
Si Si5 0.656890 0.594658 0.316590
Si Si6 0.158126 0.700902 0.757647
Si Si7 0.590174 0.411338 0.492903
Si Si8 0.000000 0.500000 0.000000
O O1 0.664999 0.078947 0.567828
O O2 0.367375 0.399193 0.380572
O O3 0.135619 0.391822 0.177524
O O4 0.111276 0.282663 0.337794
O O5 0.842437 0.188120 0.510761
O O6 0.235939 0.913515 0.871027
O O7 0.069692 0.861373 0.706812
O O8 0.650688 0.505820 0.280405
O O9 0.814313 0.282929 0.324098
O O10 0.306873 0.459752 0.126867
O O11 0.067813 0.808174 0.276591
O O12 0.500000 0.000000 0.000000
O O13 0.587746 0.178957 0.886756
O O14 0.587838 0.531394 0.384550
O O15 0.000000 0.500000 0.500000
O O16 0.500000 0.500000 0.000000
O O17 0.500000 0.500000 0.500000
#
# Coordination Sequence:
#
# PCOD9080553 Si02
#       8
#     2   2   2   2   2   2   2   1
#     4  10  22  41  62  91 135 170 215 268 335 391
#     4  10  22  42  62  89 133 174 211 270 333 396
#     4  11  22  41  63  95 131 170 222 267 334 392
#     4  11  22  43  69  96 127 171 224 270 328 403
#     4  12  23  43  73  93 129 180 218 272 343 395
#     4  12  23  35  62  99 124 166 224 267 319 393
#     4  11  25  45  66  98 136 170 224 282 331 393
#     4  10  18  40  62  86 130 166 206 260 330 384
#
# _framework density 18.532117
#
# number of rings (size 3 to 8) (size 9 to 14) (size 15 to 20)
#    0.000    1.067    6.667    1.600    1.867    1.600 
#    2.400    0.000    0.000    0.000    0.000    0.000 
#    0.000    0.000    0.000    0.000    0.000    0.000 
#
# Total GULP energy -83502.430461 kJ/mol
# GULP energy per Si atom -5566.828697 kJ/mol
# Density = 1.848994 g / cm^3
# Si number density = 18.532117 Si / 1000 Ang^3
#
#
#
# Elastic Constant Matrix: (Units=GPa)
#
#
# Indices 1 2 3 4 5 6 
#
# 1 115.2753 59.3918 31.6381 8.9474 3.3124 2.2798
# 2 59.3918 107.9003 42.7608 7.2920 2.5608 2.2596
# 3 31.6381 42.7608 105.9880 8.3730 -14.3354 14.0055
# 4 8.9474 7.2920 8.3730 37.8797 6.7956 -0.5494
# 5 3.3124 2.5608 -14.3354 6.7956 22.4878 4.0050
# 6 2.2798 2.2596 14.0055 -0.5494 4.0050 33.7496
#
#
#
# Elastic Compliance Matrix: (Units=1/GPa)
#
#
# Indices 1 2 3 4 5 6 
#
# 1 0.012349 -0.006130 -0.001408 -0.001107 -0.001746 0.000350
# 2 -0.006130 0.014651 -0.005005 0.000570 -0.004494 0.002053
# 3 -0.001408 -0.005005 0.014956 -0.004444 0.012970 -0.007388
# 4 -0.001107 0.000570 -0.004444 0.029819 -0.012430 0.003841
# 5 -0.001746 -0.004494 0.012970 -0.012430 0.059438 -0.012219
# 6 0.000350 0.002053 -0.007388 0.003841 -0.012219 0.034047
#
#
# Mechanical properties :
#
#
# Convention : Reuss Voigt Hill
#
# Bulk Modulus (GPa) = 59.27863 66.30498 62.79180
# Shear Modulus (GPa) = 25.51417 31.84830 28.68123
#
# Velocity S-wave (km/s) = 3.71449 4.15003 3.93829
# Velocity P-wave (km/s) = 7.10303 7.66941 7.39164
#
# Compressibility (1/GPa) = 0.01686948
#
# Stress axis : x y z
#
# Youngs Moduli (GPa) = 80.97854 68.25575 66.86243
#
# Poissons Ratio (x) = 0.41843 0.09413
# Poissons Ratio (y) = 0.49643 0.33464
# Poissons Ratio (z) = 0.11400 0.34162
#
# Static dielectric constant tensor:
#      x y z
#    x 1.577430 0.035870 -0.016200 
#    y 0.035870 1.631150 -0.009250 
#    z -0.016200 -0.009250 1.638200 
# 
# From -- ./inp_files/293431.got.cif
#   From: 2010.05.17/outbox.cif.g08.bks.cpg/sg2_147_cif.got.tgz:293431.got - 2010.06.03 11:33:40.
