data_PCOD9080593
_publ_section_title
;
Structure prediction by ZEFSAII (Michael W. Deem and Ramdas Pophale) SiO2 
 PCOD9080593
Probable space group: P -1
;
_chemical_formula_sum "Si O2"
_cell_formula_units_Z 14
_cell_length_a 13.078288
_cell_length_b 7.864931
_cell_length_c 9.263300
_cell_angle_alpha 114.778945
_cell_angle_beta 110.874572
_cell_angle_gamma 56.505415
_cell_volume 711.533000
_symmetry_space_group_name_H-M "P -1"
_symmetry_group_IT_number 2
_symmetry_cell_setting 'triclinic'
loop_
_space_group_symop_operation_xyz
x,y,z
-x,-y,-z
loop_
_atom_site_type_symbol
_atom_site_label
_atom_site_fract_x
_atom_site_fract_y
_atom_site_fract_z
Si Si1 0.385785 0.217382 0.465737
Si Si2 0.841949 0.856209 0.721441
Si Si3 0.480728 0.364689 0.313850
Si Si4 0.317092 0.645761 0.753605
Si Si5 0.972654 0.053826 0.339149
Si Si6 0.974944 0.225060 0.992002
Si Si7 0.293216 0.653900 0.077523
O O1 0.253760 0.221061 0.405147
O O2 0.420741 0.243127 0.327759
O O3 0.370872 0.413239 0.626971
O O4 0.500000 0.000000 0.500000
O O5 0.934803 0.863162 0.649261
O O6 0.756752 0.100755 0.815257
O O7 0.928827 0.726314 0.854783
O O8 0.500000 0.500000 0.500000
O O9 0.613009 0.243185 0.256560
O O10 0.388454 0.510122 0.194948
O O11 0.169870 0.776003 0.700210
O O12 0.342109 0.625873 0.929527
O O13 0.000000 0.000000 0.500000
O O14 0.997769 0.844069 0.184468
O O15 0.829779 0.378306 0.995570
O O16 0.000000 0.000000 0.000000
#
# Coordination Sequence:
#
# PCOD9080593 Si02
#       7
#     2   2   2   2   2   2   2
#     4  11  26  41  56  85 127 159 194 249 305 339
#     4  10  19  40  62  84 127 151 188 250 304 344
#     4  10  23  37  61  85 113 160 207 237 289 354
#     4  11  21  40  63  90 117 156 206 240 289 363
#     4  10  20  33  65  98 112 150 201 245 288 354
#     4   8  16  34  59  85 118 145 189 235 300 346
#     4  10  18  40  65  88 111 158 205 243 287 358
#
# _framework density 19.675826000000001
#
# number of rings (size 3 to 8) (size 9 to 14) (size 15 to 20)
#    0.000    2.286    4.286    2.143   10.000    0.571 
#    0.000    5.000    0.000    0.000    0.000    0.000 
#    0.000    0.000    0.000    0.000    0.000    0.000 
#
# Total GULP energy -78044.944750 kJ/mol
# GULP energy per Si atom -5574.638911 kJ/mol
# Density = 1.963104 g / cm^3
# Si number density = 19.675826 Si / 1000 Ang^3
#
#
#
# Elastic Constant Matrix: (Units=GPa)
#
#
# Indices 1 2 3 4 5 6 
#
# 1 131.2820 33.4175 51.0116 -18.8090 -14.3573 -21.1903
# 2 33.4175 26.9859 25.8786 -8.6618 -10.7811 -7.7266
# 3 51.0116 25.8786 133.2207 -38.3730 -29.1026 -7.5257
# 4 -18.8090 -8.6618 -38.3730 26.1534 -7.0973 -1.2141
# 5 -14.3573 -10.7811 -29.1026 -7.0973 39.5255 -1.3230
# 6 -21.1903 -7.7266 -7.5257 -1.2141 -1.3230 17.8337
#
#
#
# Elastic Compliance Matrix: (Units=1/GPa)
#
#
# Indices 1 2 3 4 5 6 
#
# 1 0.014229 -0.006839 0.004205 0.017718 0.010172 0.017679
# 2 -0.006839 0.074917 0.013214 0.051304 0.038105 0.036227
# 3 0.004205 0.013214 0.039571 0.080726 0.049989 0.036624
# 4 0.017718 0.051304 0.080726 0.224688 0.123622 0.101815
# 5 0.010172 0.038105 0.049989 0.123622 0.100588 0.065570
# 6 0.017679 0.036227 0.036624 0.101815 0.065570 0.120027
#
#
# Mechanical properties :
#
#
# Convention : Reuss Voigt Hill
#
# Bulk Modulus (GPa) = 6.67219 56.90043 31.78631
# Shear Modulus (GPa) = 8.29436 28.78125 18.53781
#
# Velocity S-wave (km/s) = 2.05540 3.82877 3.07279
# Velocity P-wave (km/s) = 3.00521 6.96618 5.36465
#
# Compressibility (1/GPa) = 0.14987574
#
# Stress axis : x y z
#
# Youngs Moduli (GPa) = 70.27942 13.34814 25.27095
#
# Poissons Ratio (x) = 0.09129 -0.10625
# Poissons Ratio (y) = 0.48067 -0.33394
# Poissons Ratio (z) = -0.29550 -0.17639
#
# Static dielectric constant tensor:
#      x y z
#    x 1.761440 0.014670 0.018270 
#    y 0.014670 1.683570 0.005060 
#    z 0.018270 0.005060 1.711140 
# 
# From -- ./inp_files/188133.got.cif
#   From: 2010.05.17/outbox.cif.g08.bks.cpg/sg2_95_cif.got.tgz:188133.got - 2010.06.03 11:33:40.
