data_PCOD9080379
_publ_section_title
;
Structure prediction by ZEFSAII (Michael W. Deem and Ramdas Pophale) SiO2 
 PCOD9080379
Probable space group: P -1
;
_chemical_formula_sum "Si O2"
_cell_formula_units_Z 16
_cell_length_a 13.632876
_cell_length_b 9.300792
_cell_length_c 7.353990
_cell_angle_alpha 126.395445
_cell_angle_beta 120.955276
_cell_angle_gamma 85.053988
_cell_volume 610.422536
_symmetry_space_group_name_H-M "P -1"
_symmetry_group_IT_number 2
_symmetry_cell_setting 'triclinic'
loop_
_space_group_symop_operation_xyz
x,y,z
-x,-y,-z
loop_
_atom_site_type_symbol
_atom_site_label
_atom_site_fract_x
_atom_site_fract_y
_atom_site_fract_z
Si Si1 0.511331 0.221493 0.691539
Si Si2 0.668421 0.625485 0.542148
Si Si3 0.955568 0.019166 0.673242
Si Si4 0.699372 0.262033 0.398210
Si Si5 0.759512 0.243606 0.057624
Si Si6 0.860303 0.630720 0.978609
Si Si7 0.870721 0.646057 0.439488
Si Si8 0.693427 0.979734 0.461823
O O1 0.444416 0.301613 0.535580
O O2 0.500000 0.000000 0.500000
O O3 0.417006 0.207571 0.755082
O O4 0.650194 0.318810 0.935621
O O5 0.627001 0.401324 0.371730
O O6 0.764533 0.663818 0.491653
O O7 0.752375 0.703434 0.854828
O O8 0.025108 0.240355 0.930366
O O9 0.813033 0.968585 0.477985
O O10 0.000000 0.000000 0.500000
O O11 0.971122 0.855587 0.698088
O O12 0.725177 0.165914 0.168237
O O13 0.645872 0.119307 0.399595
O O14 0.820889 0.415099 0.708373
O O15 0.870413 0.434134 0.326838
O O16 0.750977 0.081777 0.783731
O O17 0.861029 0.628011 0.194692
#
# Coordination Sequence:
#
# PCOD9080379 Si02
#       8
#     2   2   2   2   2   2   2   2
#     4  10  22  40  64  92 126 167 204 256 316 362
#     4   9  19  40  60  90 122 161 211 248 301 372
#     4  10  22  40  64  94 123 169 205 251 318 370
#     4   9  21  38  64  93 123 163 211 253 304 375
#     4  10  21  41  64  88 128 163 207 254 309 369
#     4   9  20  39  61  89 124 160 206 254 301 368
#     4  10  18  39  62  90 122 164 202 251 308 362
#     4  11  21  44  63  91 131 160 204 264 307 363
#
# _framework density 26.211352999999999
#
# number of rings (size 3 to 8) (size 9 to 14) (size 15 to 20)
#    0.750    1.500    2.500    0.000    0.000    3.500 
#    9.000   10.000    0.000    0.000    0.000    0.000 
#    0.000    0.000    0.000    0.000    0.000    0.000 
#
# Total GULP energy -89107.153378 kJ/mol
# GULP energy per Si atom -5569.197086 kJ/mol
# Density = 2.615170 g / cm^3
# Si number density = 26.211353 Si / 1000 Ang^3
#
#
#
# Elastic Constant Matrix: (Units=GPa)
#
#
# Indices 1 2 3 4 5 6 
#
# 1 75.1782 -5.9243 14.4704 -6.6455 -4.2514 7.8003
# 2 -5.9243 75.7124 -11.2770 -3.9691 -5.8879 14.1490
# 3 14.4704 -11.2770 54.1058 -11.2655 -11.8098 2.8094
# 4 -6.6455 -3.9691 -11.2655 28.8605 8.9006 -2.0818
# 5 -4.2514 -5.8879 -11.8098 8.9006 51.7477 -4.1757
# 6 7.8003 14.1490 2.8094 -2.0818 -4.1757 37.2390
#
#
#
# Elastic Compliance Matrix: (Units=1/GPa)
#
#
# Indices 1 2 3 4 5 6 
#
# 1 0.014510 0.001413 -0.002964 0.002130 0.000049 -0.003228
# 2 0.001413 0.015378 0.004176 0.003077 0.001799 -0.006080
# 3 -0.002964 0.004176 0.022644 0.007371 0.003985 -0.001815
# 4 0.002130 0.003077 0.007371 0.039851 -0.004685 -0.000469
# 5 0.000049 0.001799 0.003985 -0.004685 0.021340 0.001136
# 6 -0.003228 -0.006080 -0.001815 -0.000469 0.001136 0.030078
#
#
# Mechanical properties :
#
#
# Convention : Reuss Voigt Hill
#
# Bulk Modulus (GPa) = 17.30661 22.17049 19.73855
# Shear Modulus (GPa) = 31.68318 37.41794 34.55056
#
# Velocity S-wave (km/s) = 3.48049 3.78239 3.63458
# Velocity P-wave (km/s) = 4.77167 5.24900 5.01601
#
# Compressibility (1/GPa) = 0.05778138
#
# Stress axis : x y z
#
# Youngs Moduli (GPa) = 68.91994 65.02837 44.16105
#
# Poissons Ratio (x) = -0.09185 0.13090
# Poissons Ratio (y) = -0.09735 -0.18443
# Poissons Ratio (z) = 0.20429 -0.27159
#
# Static dielectric constant tensor:
#      x y z
#    x 2.155830 -0.089470 0.038800 
#    y -0.089470 2.206820 0.040250 
#    z 0.038800 0.040250 2.192510 
# 
# From -- ./inp_files/308635.got.cif
#   From: 2010.05.17/outbox.cif.g08.bks.cpg/sg2_155_cif.got.tgz:308635.got - 2010.06.03 11:33:40.
