data_PCOD9080121
_publ_section_title
;
Structure prediction by ZEFSAII (Michael W. Deem and Ramdas Pophale) SiO2 
 PCOD9080121
Probable space group: P -1
;
_chemical_formula_sum "Si O2"
_cell_formula_units_Z 16
_cell_length_a 20.159280
_cell_length_b 15.570605
_cell_length_c 25.042199
_cell_angle_alpha 160.491716
_cell_angle_beta 15.283250
_cell_angle_gamma 152.888785
_cell_volume 675.375329
_symmetry_space_group_name_H-M "P -1"
_symmetry_group_IT_number 2
_symmetry_cell_setting 'triclinic'
loop_
_space_group_symop_operation_xyz
x,y,z
-x,-y,-z
loop_
_atom_site_type_symbol
_atom_site_label
_atom_site_fract_x
_atom_site_fract_y
_atom_site_fract_z
Si Si1 0.381153 0.321844 0.745982
Si Si2 0.656305 0.892623 0.762057
Si Si3 0.009925 0.812893 0.832099
Si Si4 0.168793 0.718358 0.319666
Si Si5 0.086192 0.058050 0.688709
Si Si6 0.344228 0.493091 0.764817
Si Si7 0.518370 0.648558 0.916788
Si Si8 0.079950 0.866866 0.697965
O O1 0.682336 0.285734 0.475913
O O2 0.249875 0.507756 0.908483
O O3 0.286933 0.051906 0.656884
O O4 0.339905 0.470194 0.921225
O O5 0.951467 0.866966 0.533818
O O6 0.602279 0.602852 0.623526
O O7 0.534935 0.093041 0.927065
O O8 0.500000 0.000000 0.000000
O O9 0.879930 0.572369 0.805543
O O10 0.906006 0.925538 0.920453
O O11 0.000000 0.000000 0.000000
O O12 0.435652 0.708016 0.076398
O O13 0.136446 0.856106 0.482757
O O14 0.331635 0.195285 0.585693
O O15 0.005245 0.945655 0.741463
O O16 0.857192 0.298960 0.990904
O O17 0.791907 0.444198 0.583570
#
# Coordination Sequence:
#
# PCOD9080121 Si02
#       8
#     2   2   2   2   2   2   2   2
#     4  10  18  38  64  87 120 158 206 257 310 353
#     4  12  20  39  66  92 117 156 216 266 302 354
#     4  11  21  37  63  96 123 153 207 263 307 358
#     4  12  23  38  61  95 124 162 210 259 306 361
#     4  10  23  39  64  88 129 167 205 241 318 379
#     4  10  20  40  65  88 117 166 206 253 305 370
#     4  11  22  36  60  95 124 155 209 261 308 356
#     4  10  22  39  60  89 125 169 198 249 317 375
#
# _framework density 23.690532000000001
#
# number of rings (size 3 to 8) (size 9 to 14) (size 15 to 20)
#    0.000    1.250    3.750    4.125    0.000    1.000 
#    0.000    1.875    0.000    0.000    0.000    0.000 
#    0.000    0.000    0.000    0.000    0.000    0.000 
#
# Total GULP energy -89368.838163 kJ/mol
# GULP energy per Si atom -5585.552385 kJ/mol
# Density = 2.363661 g / cm^3
# Si number density = 23.690532 Si / 1000 Ang^3
#
#
#
# Elastic Constant Matrix: (Units=GPa)
#
#
# Indices 1 2 3 4 5 6 
#
# 1 150.6728 37.2047 38.2523 18.0368 26.3215 -35.6498
# 2 37.2047 103.0632 22.0991 32.6267 16.9030 -20.7657
# 3 38.2523 22.0991 59.8565 8.1385 28.4518 -15.5685
# 4 18.0368 32.6267 8.1385 37.8223 -1.3844 2.6493
# 5 26.3215 16.9030 28.4518 -1.3844 31.2903 4.5644
# 6 -35.6498 -20.7657 -15.5685 2.6493 4.5644 55.9869
#
#
#
# Elastic Compliance Matrix: (Units=1/GPa)
#
#
# Indices 1 2 3 4 5 6 
#
# 1 0.012224 0.004066 0.004741 -0.011951 -0.019177 0.012739
# 2 0.004066 0.022511 0.011352 -0.026129 -0.029649 0.017749
# 3 0.004741 0.011352 0.047893 -0.026370 -0.058714 0.026582
# 4 -0.011951 -0.026129 -0.026370 0.064650 0.055709 -0.032235
# 5 -0.019177 -0.029649 -0.058714 0.055709 0.127628 -0.052576
# 6 0.012739 0.017749 0.026582 -0.032235 -0.052576 0.045759
#
#
# Mechanical properties :
#
#
# Convention : Reuss Voigt Hill
#
# Bulk Modulus (GPa) = 8.13356 56.52274 32.32815
# Shear Modulus (GPa) = 15.56030 39.42232 27.49131
#
# Velocity S-wave (km/s) = 2.56562 4.08371 3.41021
# Velocity P-wave (km/s) = 3.49532 6.79309 5.40201
#
# Compressibility (1/GPa) = 0.12294739
#
# Stress axis : x y z
#
# Youngs Moduli (GPa) = 81.80403 44.42251 20.87967
#
# Poissons Ratio (x) = -0.18063 -0.09898
# Poissons Ratio (y) = -0.33262 -0.23704
# Poissons Ratio (z) = -0.38781 -0.50430
#
# Static dielectric constant tensor:
#      x y z
#    x 2.041350 0.055390 -0.061510 
#    y 0.055390 1.929360 -0.003820 
#    z -0.061510 -0.003820 1.913920 
# 
# From -- ./inp_files/428449.got.cif
#   From: 2010.05.17/outbox.cif.g08.bks.cpg/sg2_215_cif.got.tgz:428449.got - 2010.06.03 11:33:40.
