data_PCOD9080338
_publ_section_title
;
Structure prediction by ZEFSAII (Michael W. Deem and Ramdas Pophale) SiO2 
 PCOD9080338
Probable space group: P -1
;
_chemical_formula_sum "Si O2"
_cell_formula_units_Z 16
_cell_length_a 8.280002
_cell_length_b 9.085233
_cell_length_c 19.895713
_cell_angle_alpha 37.198227
_cell_angle_beta 56.357865
_cell_angle_gamma 63.769546
_cell_volume 753.298294
_symmetry_space_group_name_H-M "P -1"
_symmetry_group_IT_number 2
_symmetry_cell_setting 'triclinic'
loop_
_space_group_symop_operation_xyz
x,y,z
-x,-y,-z
loop_
_atom_site_type_symbol
_atom_site_label
_atom_site_fract_x
_atom_site_fract_y
_atom_site_fract_z
Si Si1 0.036090 0.220239 0.113311
Si Si2 0.104403 0.873806 0.961166
Si Si3 0.219710 0.486104 0.477079
Si Si4 0.413645 0.225562 0.715775
Si Si5 0.264506 0.187960 0.335899
Si Si6 0.703855 0.631547 0.889109
Si Si7 0.353615 0.999903 0.663625
Si Si8 0.862679 0.365648 0.406295
O O1 0.017121 0.087088 0.094136
O O2 0.852195 0.124602 0.232005
O O3 0.223182 0.210365 0.121469
O O4 0.000000 0.500000 0.000000
O O5 0.313113 0.002154 0.857135
O O6 0.142076 0.590769 0.069099
O O7 0.000000 0.000000 0.000000
O O8 0.373732 0.685923 0.344955
O O9 0.188114 0.530402 0.547133
O O10 0.000000 0.500000 0.500000
O O11 0.316731 0.220991 0.540624
O O12 0.268747 0.457403 0.673250
O O13 0.416820 0.133488 0.670617
O O14 0.287582 0.232038 0.234154
O O15 0.479332 0.199197 0.314314
O O16 0.090630 0.361902 0.337580
O O17 0.201776 0.915671 0.472207
O O18 0.500000 0.500000 0.000000
#
# Coordination Sequence:
#
# PCOD9080338 Si02
#       8
#     2   2   2   2   2   2   2   2
#     4   9  20  37  59  90 119 158 205 252 300 370
#     4  10  21  39  64  90 120 162 204 256 314 365
#     4  11  22  36  57  86 117 156 207 248 302 369
#     4  10  18  39  59  82 120 160 205 240 304 370
#     4  11  20  36  59  86 118 154 200 248 311 360
#     4  11  23  38  62  90 121 163 210 252 310 374
#     4  10  19  36  61  81 113 160 200 246 298 369
#     4  10  21  36  58  85 117 156 194 252 304 360
#
# _framework density 21.239923999999998
#
# number of rings (size 3 to 8) (size 9 to 14) (size 15 to 20)
#    0.000    1.750    2.500    3.750    1.750    0.000 
#    0.000    6.250    0.000    0.000    0.000    0.000 
#    0.000    0.000    0.000    0.000    0.000    0.000 
#
# Total GULP energy -89196.409168 kJ/mol
# GULP energy per Si atom -5574.775573 kJ/mol
# Density = 2.119158 g / cm^3
# Si number density = 21.239924 Si / 1000 Ang^3
#
#
#
# Elastic Constant Matrix: (Units=GPa)
#
#
# Indices 1 2 3 4 5 6 
#
# 1 103.5975 22.9255 32.1636 -6.1465 -26.4812 -14.2563
# 2 22.9255 66.0835 10.7829 4.1539 -1.0338 -21.4102
# 3 32.1636 10.7829 78.8249 -12.4170 -9.5286 3.4864
# 4 -6.1465 4.1539 -12.4170 29.1583 -9.7441 1.9513
# 5 -26.4812 -1.0338 -9.5286 -9.7441 35.9228 -8.0319
# 6 -14.2563 -21.4102 3.4864 1.9513 -8.0319 27.4263
#
#
#
# Elastic Compliance Matrix: (Units=1/GPa)
#
#
# Indices 1 2 3 4 5 6 
#
# 1 0.017862 -0.001300 -0.004632 0.006662 0.016675 0.013268
# 2 -0.001300 0.022574 -0.004220 -0.006183 0.000965 0.018206
# 3 -0.004632 -0.004220 0.016885 0.007772 0.001254 -0.008034
# 4 0.006662 -0.006183 0.007772 0.046364 0.019377 0.000025
# 5 0.016675 0.000965 0.001254 0.019377 0.050838 0.022772
# 6 0.013268 0.018206 -0.008034 0.000025 0.022772 0.065259
#
#
# Mechanical properties :
#
#
# Convention : Reuss Voigt Hill
#
# Bulk Modulus (GPa) = 27.01485 42.24999 34.63242
# Shear Modulus (GPa) = 19.80783 30.67708 25.24245
#
# Velocity S-wave (km/s) = 3.05712 3.80453 3.45112
# Velocity P-wave (km/s) = 5.02074 6.26373 5.67636
#
# Compressibility (1/GPa) = 0.03701668
#
# Stress axis : x y z
#
# Youngs Moduli (GPa) = 55.98419 44.29863 59.22401
#
# Poissons Ratio (x) = 0.05759 0.27434
# Poissons Ratio (y) = 0.07278 0.24993
# Poissons Ratio (z) = 0.25933 0.18694
#
# Static dielectric constant tensor:
#      x y z
#    x 1.907050 -0.033410 -0.000600 
#    y -0.033410 1.811370 -0.024110 
#    z -0.000600 -0.024110 1.816990 
# 
# From -- ./inp_files/200137.got.cif
#   From: 2010.05.17/outbox.cif.g08.bks.cpg/sg2_101_cif.got.tgz:200137.got - 2010.06.03 11:33:40.
