data_PCOD9080503
_publ_section_title
;
Structure prediction by ZEFSAII (Michael W. Deem and Ramdas Pophale) SiO2 
 PCOD9080503
Probable space group: P -1
;
_chemical_formula_sum "Si O2"
_cell_formula_units_Z 16
_cell_length_a 10.799792
_cell_length_b 8.560340
_cell_length_c 7.990255
_cell_angle_alpha 70.471693
_cell_angle_beta 83.492153
_cell_angle_gamma 61.722463
_cell_volume 612.220099
_symmetry_space_group_name_H-M "P -1"
_symmetry_group_IT_number 2
_symmetry_cell_setting 'triclinic'
loop_
_space_group_symop_operation_xyz
x,y,z
-x,-y,-z
loop_
_atom_site_type_symbol
_atom_site_label
_atom_site_fract_x
_atom_site_fract_y
_atom_site_fract_z
Si Si1 0.807438 0.962798 0.459312
Si Si2 0.500452 0.194859 0.408086
Si Si3 0.186052 0.258516 0.929437
Si Si4 0.822318 0.270595 0.514453
Si Si5 0.855491 0.062418 0.092972
Si Si6 0.948367 0.632569 0.719679
Si Si7 0.325010 0.585483 0.175345
Si Si8 0.580391 0.631477 0.270516
O O1 0.823864 0.757665 0.564180
O O2 0.659551 0.108996 0.350725
O O3 0.821340 0.072204 0.577968
O O4 0.906055 0.974303 0.298605
O O5 0.398535 0.360903 0.242327
O O6 0.475806 0.274739 0.572779
O O7 0.500000 0.000000 0.500000
O O8 0.322626 0.287877 0.860743
O O9 0.052880 0.412306 0.785719
O O10 0.215122 0.053002 0.944573
O O11 0.125504 0.308555 0.109498
O O12 0.787109 0.350678 0.677978
O O13 0.686728 0.418771 0.378195
O O14 0.947783 0.283840 0.389893
O O15 0.761723 0.286104 0.011120
O O16 0.000000 0.000000 0.000000
O O17 0.450689 0.635214 0.186102
#
# Coordination Sequence:
#
# PCOD9080503 Si02
#       8
#     2   2   2   2   2   2   2   2
#     4  12  22  39  61  95 129 173 215 268 330 390
#     4  11  23  41  65 103 135 168 218 270 339 400
#     4  10  23  43  64  98 128 173 225 274 332 392
#     4  10  18  39  69  93 121 165 225 266 320 395
#     4  12  27  42  63  95 136 176 224 275 340 390
#     4  10  22  39  67  93 126 167 223 279 319 385
#     4  11  22  44  70  95 132 179 219 273 331 397
#     4  10  20  42  70  94 131 175 224 267 324 405
#
# _framework density 26.134391999999998
#
# number of rings (size 3 to 8) (size 9 to 14) (size 15 to 20)
#    0.000    1.250    2.500    4.125    0.000    2.500 
#    2.250    0.000    0.000    0.000    0.000    0.000 
#    0.000    0.000    0.000    0.000    0.000    0.000 
#
# Total GULP energy -89434.920150 kJ/mol
# GULP energy per Si atom -5589.682509 kJ/mol
# Density = 2.607491 g / cm^3
# Si number density = 26.134392 Si / 1000 Ang^3
#
#
#
# Elastic Constant Matrix: (Units=GPa)
#
#
# Indices 1 2 3 4 5 6 
#
# 1 86.0526 21.6252 21.9600 -10.6206 -26.1504 -4.4622
# 2 21.6252 89.0607 34.0625 -29.8221 -1.0924 -12.9678
# 3 21.9600 34.0625 141.1465 -24.9383 -8.4886 -15.0118
# 4 -10.6206 -29.8221 -24.9383 54.1584 -12.8625 -0.0892
# 5 -26.1504 -1.0924 -8.4886 -12.8625 43.2852 -6.8905
# 6 -4.4622 -12.9678 -15.0118 -0.0892 -6.8905 37.3400
#
#
#
# Elastic Compliance Matrix: (Units=1/GPa)
#
#
# Indices 1 2 3 4 5 6 
#
# 1 0.016533 -0.001542 -0.000181 0.005171 0.012024 0.003599
# 2 -0.001542 0.015698 -0.001379 0.008306 0.002489 0.005192
# 3 -0.000181 -0.001379 0.008748 0.004035 0.003351 0.003644
# 4 0.005171 0.008306 0.004035 0.029263 0.014061 0.007790
# 5 0.012024 0.002489 0.003351 0.014061 0.036936 0.010498
# 6 0.003599 0.005192 0.003644 0.007790 0.010498 0.032435
#
#
# Mechanical properties :
#
#
# Convention : Reuss Voigt Hill
#
# Bulk Modulus (GPa) = 28.75601 52.39503 40.57552
# Shear Modulus (GPa) = 31.76457 42.86420 37.31439
#
# Velocity S-wave (km/s) = 3.49009 4.05426 3.78271
# Velocity P-wave (km/s) = 5.22187 6.48135 5.88540
#
# Compressibility (1/GPa) = 0.03477534
#
# Stress axis : x y z
#
# Youngs Moduli (GPa) = 60.48466 63.70188 114.31469
#
# Poissons Ratio (x) = 0.09825 0.02064
# Poissons Ratio (y) = 0.09329 0.15763
# Poissons Ratio (z) = 0.01092 0.08784
#
# Static dielectric constant tensor:
#      x y z
#    x 2.397920 -0.082810 0.045970 
#    y -0.082810 2.060410 -0.016990 
#    z 0.045970 -0.016990 2.063110 
# 
# From -- ./inp_files/242550.got.cif
#   From: 2010.05.17/outbox.cif.g08.bks.cpg/sg2_122_cif.got.tgz:242550.got - 2010.06.03 11:33:40.
