data_PCOD9080207
_publ_section_title
;
Structure prediction by ZEFSAII (Michael W. Deem and Ramdas Pophale) SiO2 
 PCOD9080207
Probable space group: P -1
;
_chemical_formula_sum "Si O2"
_cell_formula_units_Z 15
_cell_length_a 7.514255
_cell_length_b 13.064652
_cell_length_c 9.187806
_cell_angle_alpha 97.093946
_cell_angle_beta 128.963510
_cell_angle_gamma 87.575038
_cell_volume 695.230030
_symmetry_space_group_name_H-M "P -1"
_symmetry_group_IT_number 2
_symmetry_cell_setting 'triclinic'
loop_
_space_group_symop_operation_xyz
x,y,z
-x,-y,-z
loop_
_atom_site_type_symbol
_atom_site_label
_atom_site_fract_x
_atom_site_fract_y
_atom_site_fract_z
Si Si1 0.000000 0.000000 0.500000
Si Si2 0.032490 0.557270 0.179753
Si Si3 0.591747 0.307535 0.491735
Si Si4 0.749131 0.379282 0.136482
Si Si5 0.969519 0.233087 0.447020
Si Si6 0.492938 0.251210 0.746804
Si Si7 0.617380 0.900209 0.099410
Si Si8 0.331216 0.306170 0.083418
O O1 0.028794 0.890110 0.586832
O O2 0.868482 0.933154 0.291788
O O3 0.894631 0.485158 0.211302
O O4 0.286481 0.585739 0.370869
O O5 0.908219 0.662872 0.099226
O O6 0.000000 0.500000 0.000000
O O7 0.542678 0.242812 0.600909
O O8 0.369176 0.315875 0.277008
O O9 0.779275 0.259464 0.473666
O O10 0.524161 0.383716 0.123044
O O11 0.896264 0.293006 0.275016
O O12 0.653276 0.336710 0.925331
O O13 0.224936 0.275071 0.627691
O O14 0.512267 0.147358 0.832831
O O15 0.619128 0.808149 0.967543
O O16 0.500000 0.000000 0.000000
#
# Coordination Sequence:
#
# PCOD9080207 Si02
#       8
#     1   2   2   2   2   2   2   2
#     4  10  18  38  66  90 118 158 200 254 312 366
#     4  12  24  38  61  90 126 166 212 257 305 365
#     4  11  23  41  62  91 125 162 209 260 306 369
#     4  10  21  41  60  87 122 166 209 254 307 366
#     4  10  23  40  64  91 124 161 206 258 313 373
#     4  10  21  38  64  89 124 163 204 254 312 371
#     4  10  20  40  67  92 121 161 204 256 317 373
#     4  10  24  40  62  91 124 163 209 257 308 376
#
# _framework density 21.575592
#
# number of rings (size 3 to 8) (size 9 to 14) (size 15 to 20)
#    0.000    1.600    1.333    5.200    1.867    3.733 
#    0.000    6.000    0.000    8.000    0.000    0.000 
#    0.000    0.000    0.000    0.000    0.000    0.000 
#
# Total GULP energy -83518.452357 kJ/mol
# GULP energy per Si atom -5567.896824 kJ/mol
# Density = 2.152649 g / cm^3
# Si number density = 21.575592 Si / 1000 Ang^3
#
#
#
# Elastic Constant Matrix: (Units=GPa)
#
#
# Indices 1 2 3 4 5 6 
#
# 1 47.4051 13.1733 19.1560 -8.8152 -13.8576 6.5586
# 2 13.1733 92.4612 40.9824 -7.9752 -3.4059 3.0581
# 3 19.1560 40.9824 145.0232 -8.5824 -9.6755 9.5659
# 4 -8.8152 -7.9752 -8.5824 37.3892 -0.8263 1.5000
# 5 -13.8576 -3.4059 -9.6755 -0.8263 34.0943 -6.8522
# 6 6.5586 3.0581 9.5659 1.5000 -6.8522 18.8181
#
#
#
# Elastic Compliance Matrix: (Units=1/GPa)
#
#
# Indices 1 2 3 4 5 6 
#
# 1 0.026901 -0.002073 -0.001645 0.005941 0.009344 -0.005274
# 2 -0.002073 0.012659 -0.003250 0.001454 -0.000458 0.000035
# 3 -0.001645 -0.003250 0.008335 0.000967 0.000809 -0.002918
# 4 0.005941 0.001454 0.000967 0.028903 0.002708 -0.004116
# 5 0.009344 -0.000458 0.000809 0.002708 0.035187 0.009003
# 6 -0.005274 0.000035 -0.002918 -0.004116 0.009003 0.060063
#
#
# Mechanical properties :
#
#
# Convention : Reuss Voigt Hill
#
# Bulk Modulus (GPa) = 29.44683 47.94585 38.69634
# Shear Modulus (GPa) = 25.34166 32.16551 28.75358
#
# Velocity S-wave (km/s) = 3.43089 3.86531 3.65456
# Velocity P-wave (km/s) = 5.41964 6.49549 5.98180
#
# Compressibility (1/GPa) = 0.03395951
#
# Stress axis : x y z
#
# Youngs Moduli (GPa) = 37.17290 78.99725 119.97750
#
# Poissons Ratio (x) = 0.16373 0.19734
# Poissons Ratio (y) = 0.07705 0.38996
# Poissons Ratio (z) = 0.06114 0.25676
#
# Static dielectric constant tensor:
#      x y z
#    x 1.830170 -0.002160 0.012100 
#    y -0.002160 1.782340 -0.022680 
#    z 0.012100 -0.022680 1.815640 
# 
# From -- ./inp_files/188917.got.cif
#   From: 2010.05.17/outbox.cif.g08.bks.cpg/sg2_95_cif.got.tgz:188917.got - 2010.06.03 11:33:40.
