data_PCOD9080300
_publ_section_title
;
Structure prediction by ZEFSAII (Michael W. Deem and Ramdas Pophale) SiO2 
 PCOD9080300
Probable space group: P -1
;
_chemical_formula_sum "Si O2"
_cell_formula_units_Z 16
_cell_length_a 9.607190
_cell_length_b 8.629512
_cell_length_c 12.227882
_cell_angle_alpha 70.996102
_cell_angle_beta 62.536614
_cell_angle_gamma 116.072471
_cell_volume 604.951525
_symmetry_space_group_name_H-M "P -1"
_symmetry_group_IT_number 2
_symmetry_cell_setting 'triclinic'
loop_
_space_group_symop_operation_xyz
x,y,z
-x,-y,-z
loop_
_atom_site_type_symbol
_atom_site_label
_atom_site_fract_x
_atom_site_fract_y
_atom_site_fract_z
Si Si1 0.110861 0.368145 0.591700
Si Si2 0.235746 0.219200 0.412633
Si Si3 0.661462 0.192168 0.735145
Si Si4 0.112083 0.155329 0.080810
Si Si5 0.458413 0.658450 0.082321
Si Si6 0.628977 0.034128 0.552283
Si Si7 0.024763 0.404724 0.182729
Si Si8 0.129665 0.346069 0.817366
O O1 0.174663 0.241446 0.548964
O O2 0.205683 0.560769 0.423698
O O3 0.849076 0.217401 0.718789
O O4 0.239925 0.483649 0.632395
O O5 0.341778 0.429891 0.246325
O O6 0.383036 0.168862 0.387077
O O7 0.000000 0.000000 0.500000
O O8 0.506848 0.164044 0.886853
O O9 0.559070 0.041549 0.696697
O O10 0.311932 0.244413 0.064662
O O11 0.217464 0.319448 0.897464
O O12 0.978063 0.208293 0.171022
O O13 0.005071 0.908000 0.131081
O O14 0.283911 0.589951 0.072608
O O15 0.883587 0.268593 0.376690
O O16 0.500000 0.000000 0.500000
O O17 0.970189 0.550727 0.131937
#
# Coordination Sequence:
#
# PCOD9080300 Si02
#       8
#     2   2   2   2   2   2   2   2
#     4  10  18  38  70  89 127 175 209 275 339 397
#     4  11  21  38  65 101 134 168 214 281 347 399
#     4  10  19  39  64  98 131 159 216 274 340 407
#     4  11  28  45  66 100 137 184 240 271 324 404
#     4  11  24  43  68  99 135 175 226 279 333 406
#     4  12  25  39  67 107 132 170 222 277 353 410
#     4  12  23  48  71  94 139 181 227 282 336 398
#     4  11  24  45  69  93 134 187 225 278 340 385
#
# _framework density 26.448398999999998
#
# number of rings (size 3 to 8) (size 9 to 14) (size 15 to 20)
#    0.000    1.000    5.000    2.250    1.750    3.500 
#    2.250    2.500    0.000    0.000    0.000    0.000 
#    0.000    0.000    0.000    0.000    0.000    0.000 
#
# Total GULP energy -89387.406977 kJ/mol
# GULP energy per Si atom -5586.712936 kJ/mol
# Density = 2.638820 g / cm^3
# Si number density = 26.448399 Si / 1000 Ang^3
#
#
#
# Elastic Constant Matrix: (Units=GPa)
#
#
# Indices 1 2 3 4 5 6 
#
# 1 87.3728 44.2922 3.5562 -4.1470 14.0713 -17.4441
# 2 44.2922 150.3932 25.1327 17.3146 -6.8919 -37.9635
# 3 3.5562 25.1327 65.7468 -4.0846 10.8129 -10.2492
# 4 -4.1470 17.3146 -4.0846 39.1748 -11.6273 6.4053
# 5 14.0713 -6.8919 10.8129 -11.6273 34.6738 0.4997
# 6 -17.4441 -37.9635 -10.2492 6.4053 0.4997 44.8492
#
#
#
# Elastic Compliance Matrix: (Units=1/GPa)
#
#
# Indices 1 2 3 4 5 6 
#
# 1 0.015665 -0.005010 0.002806 0.001472 -0.007768 0.002370
# 2 -0.005010 0.011661 -0.003895 -0.006403 0.003304 0.007909
# 3 0.002806 -0.003895 0.018083 0.001513 -0.007071 0.001790
# 4 0.001472 -0.006403 0.001513 0.032797 0.008790 -0.009284
# 5 -0.007768 0.003304 -0.007071 0.008790 0.037853 -0.003518
# 6 0.002370 0.007909 0.001790 -0.009284 -0.003518 0.031688
#
#
# Mechanical properties :
#
#
# Convention : Reuss Voigt Hill
#
# Bulk Modulus (GPa) = 30.10966 49.94167 40.02567
# Shear Modulus (GPa) = 29.23770 39.10833 34.17302
#
# Velocity S-wave (km/s) = 3.32846 3.84951 3.59843
# Velocity P-wave (km/s) = 5.11669 6.21949 5.69485
#
# Compressibility (1/GPa) = 0.03321193
#
# Stress axis : x y z
#
# Youngs Moduli (GPa) = 63.83814 85.75922 55.30145
#
# Poissons Ratio (x) = 0.42961 -0.15519
# Poissons Ratio (y) = 0.31980 0.21538
# Poissons Ratio (z) = -0.17914 0.33400
#
# Static dielectric constant tensor:
#      x y z
#    x 2.058030 0.005030 -0.019230 
#    y 0.005030 2.198990 -0.055390 
#    z -0.019230 -0.055390 2.111950 
# 
# From -- ./inp_files/245691.got.cif
#   From: 2010.05.17/outbox.cif.g08.bks.cpg/sg2_123_cif.got.tgz:245691.got - 2010.06.03 11:33:40.
