data_PCOD9080568
_publ_section_title
;
Structure prediction by ZEFSAII (Michael W. Deem and Ramdas Pophale) SiO2 
 PCOD9080568
Probable space group: P -1
;
_chemical_formula_sum "Si O2"
_cell_formula_units_Z 12
_cell_length_a 5.741482
_cell_length_b 14.537056
_cell_length_c 15.664816
_cell_angle_alpha 27.500654
_cell_angle_beta 119.376821
_cell_angle_gamma 106.358034
_cell_volume 486.320252
_symmetry_space_group_name_H-M "P -1"
_symmetry_group_IT_number 2
_symmetry_cell_setting 'triclinic'
loop_
_space_group_symop_operation_xyz
x,y,z
-x,-y,-z
loop_
_atom_site_type_symbol
_atom_site_label
_atom_site_fract_x
_atom_site_fract_y
_atom_site_fract_z
Si Si1 0.926377 0.714739 0.408619
Si Si2 0.565521 0.796135 0.925682
Si Si3 0.608119 0.170149 0.515758
Si Si4 0.783929 0.479665 0.715233
Si Si5 0.332329 0.481155 0.072056
Si Si6 0.592351 0.764692 0.148655
O O1 0.077842 0.840928 0.388715
O O2 0.182322 0.488087 0.614994
O O3 0.722849 0.632651 0.496317
O O4 0.751233 0.835935 0.194747
O O5 0.554269 0.968219 0.710452
O O6 0.339841 0.684757 0.960541
O O7 0.560725 0.870310 0.962464
O O8 0.879562 0.605023 0.133429
O O9 0.385448 0.373621 0.359326
O O10 0.530442 0.250402 0.339656
O O11 0.694386 0.279260 0.846058
O O12 0.500000 0.500000 0.000000
O O13 0.000000 0.500000 0.000000
#
# Coordination Sequence:
#
# PCOD9080568 Si02
#       6
#     2   2   2   2   2   2
#     4   9  18  35  63  97 135 179 221 270 330 403
#     4  11  24  43  68  98 135 176 224 281 344 410
#     4  11  24  43  68  98 135 176 224 281 344 410
#     4  10  18  40  63  94 138 181 220 275 327 402
#     4  12  27  50  74 100 137 177 234 301 354 414
#     4   9  18  35  63  97 135 179 221 270 330 403
#
# _framework density 24.675097000000001
#
# number of rings (size 3 to 8) (size 9 to 14) (size 15 to 20)
#    0.000    1.667    5.000    1.500    0.000    4.667 
#    0.000    1.667    0.000    0.000    0.000    0.000 
#    0.000    0.000    0.000    0.000    0.000    0.000 
#
# Total GULP energy -67077.475778 kJ/mol
# GULP energy per Si atom -5589.789648 kJ/mol
# Density = 2.461894 g / cm^3
# Si number density = 24.675097 Si / 1000 Ang^3
#
#
#
# Elastic Constant Matrix: (Units=GPa)
#
#
# Indices 1 2 3 4 5 6 
#
# 1 99.2357 25.1459 42.2497 21.0532 -15.6341 11.6171
# 2 25.1459 65.7336 47.0267 15.1517 -11.9889 9.6013
# 3 42.2497 47.0267 176.8571 24.3055 -33.5512 24.1462
# 4 21.0532 15.1517 24.3055 40.3852 1.8568 -6.2966
# 5 -15.6341 -11.9889 -33.5512 1.8568 45.7212 2.5626
# 6 11.6171 9.6013 24.1462 -6.2966 2.5626 31.0140
#
#
#
# Elastic Compliance Matrix: (Units=1/GPa)
#
#
# Indices 1 2 3 4 5 6 
#
# 1 0.013691 -0.001596 0.000117 -0.007892 0.005047 -0.006744
# 2 -0.001596 0.020668 -0.003004 -0.006033 0.003192 -0.004951
# 3 0.000117 -0.003004 0.009913 -0.006603 0.007286 -0.008774
# 4 -0.007892 -0.006033 -0.006603 0.038579 -0.011744 0.018767
# 5 0.005047 0.003192 0.007286 -0.011744 0.031015 -0.013499
# 6 -0.006744 -0.004951 -0.008774 0.018767 -0.013499 0.048059
#
#
# Mechanical properties :
#
#
# Convention : Reuss Voigt Hill
#
# Bulk Modulus (GPa) = 28.32423 63.40787 45.86605
# Shear Modulus (GPa) = 27.37326 38.58434 32.97880
#
# Velocity S-wave (km/s) = 3.33430 3.95865 3.65981
# Velocity P-wave (km/s) = 5.13100 6.82989 6.04047
#
# Compressibility (1/GPa) = 0.03530546
#
# Stress axis : x y z
#
# Youngs Moduli (GPa) = 73.04187 48.38289 100.88034
#
# Poissons Ratio (x) = 0.07722 -0.01177
# Poissons Ratio (y) = 0.11657 0.30304
# Poissons Ratio (z) = -0.00852 0.14534
#
# Static dielectric constant tensor:
#      x y z
#    x 2.029980 -0.081390 -0.011300 
#    y -0.081390 2.078350 -0.000700 
#    z -0.011300 -0.000700 2.034470 
# 
# From -- ./inp_files/46406.got.cif
#   From: 2010.05.17/outbox.cif.g08.bks.cpg/sg2_24_cif.got.tgz:46406.got - 2010.06.03 11:33:40.
