data_PCOD9080255
_publ_section_title
;
Structure prediction by ZEFSAII (Michael W. Deem and Ramdas Pophale) SiO2 
 PCOD9080255
Probable space group: P -1
;
_chemical_formula_sum "Si O2"
_cell_formula_units_Z 16
_cell_length_a 12.998174
_cell_length_b 23.685514
_cell_length_c 22.871156
_cell_angle_alpha 162.009757
_cell_angle_beta 37.106969
_cell_angle_gamma 152.991265
_cell_volume 923.078074
_symmetry_space_group_name_H-M "P -1"
_symmetry_group_IT_number 2
_symmetry_cell_setting 'triclinic'
loop_
_space_group_symop_operation_xyz
x,y,z
-x,-y,-z
loop_
_atom_site_type_symbol
_atom_site_label
_atom_site_fract_x
_atom_site_fract_y
_atom_site_fract_z
Si Si1 0.407399 0.952807 0.560691
Si Si2 0.206716 0.731656 0.201335
Si Si3 0.204344 0.015572 0.899607
Si Si4 0.842399 0.499661 0.501885
Si Si5 0.474127 0.258199 0.531492
Si Si6 0.127832 0.424219 0.234247
Si Si7 0.276187 0.500686 0.844169
Si Si8 0.912852 0.014519 0.201126
O O1 0.633783 0.153868 0.700007
O O2 0.223609 0.983124 0.683471
O O3 0.500000 0.000000 0.500000
O O4 0.262560 0.663620 0.364448
O O5 0.934470 0.597767 0.201051
O O6 0.335389 0.977154 0.341902
O O7 0.204486 0.543126 0.979709
O O8 0.069303 0.721468 0.661315
O O9 0.263885 0.108215 0.896517
O O10 0.455209 0.222960 0.023281
O O11 0.000000 0.000000 0.000000
O O12 0.604460 0.323166 0.474512
O O13 0.905624 0.366848 0.306850
O O14 0.867927 0.691942 0.634267
O O15 0.681198 0.458360 0.683378
O O16 0.306280 0.307729 0.649096
O O17 0.047301 0.170317 0.993189
#
# Coordination Sequence:
#
# PCOD9080255 Si02
#       8
#     2   2   2   2   2   2   2   2
#     4  10  20  35  48  67  98 133 179 218 236 274
#     4  10  22  31  48  71  99 142 166 189 251 303
#     4  10  15  28  47  70 103 131 149 194 246 290
#     4   9  18  26  44  73 105 127 153 201 243 300
#     4  11  17  29  45  72 104 132 158 189 245 310
#     4  10  17  28  47  69  98 125 162 206 249 296
#     4  11  18  33  46  68 110 134 155 199 244 309
#     4   9  17  30  45  73 100 124 158 200 257 287
#
# _framework density 17.333310999999998
#
# number of rings (size 3 to 8) (size 9 to 14) (size 15 to 20)
#    0.750    1.250    3.750    1.500    0.000    2.500 
#    0.000    0.000    0.000    0.000    0.000    7.875 
#    0.000   49.000    0.000    0.000    0.000    0.000 
#
# Total GULP energy -89085.292258 kJ/mol
# GULP energy per Si atom -5567.830766 kJ/mol
# Density = 1.729386 g / cm^3
# Si number density = 17.333311 Si / 1000 Ang^3
#
#
#
# Elastic Constant Matrix: (Units=GPa)
#
#
# Indices 1 2 3 4 5 6 
#
# 1 36.9506 35.8825 22.5898 -11.7865 -4.0271 -1.6984
# 2 35.8825 114.9860 41.7410 -21.0682 -2.8261 -7.7226
# 3 22.5898 41.7410 91.0735 -23.6515 -18.9874 -5.9786
# 4 -11.7865 -21.0682 -23.6515 29.1529 9.2825 3.2823
# 5 -4.0271 -2.8261 -18.9874 9.2825 18.1839 -1.6462
# 6 -1.6984 -7.7226 -5.9786 3.2823 -1.6462 27.2449
#
#
#
# Elastic Compliance Matrix: (Units=1/GPa)
#
#
# Indices 1 2 3 4 5 6 
#
# 1 0.041632 -0.010538 -0.004015 0.006166 0.000060 -0.002012
# 2 -0.010538 0.014222 -0.003931 0.004723 -0.006499 0.001550
# 3 -0.004015 -0.003931 0.018586 0.005360 0.015443 0.003001
# 4 0.006166 0.004723 0.005360 0.051018 -0.018744 -0.004380
# 5 0.000060 -0.006499 0.015443 -0.018744 0.080476 0.008671
# 6 -0.002012 0.001550 0.003001 -0.004380 0.008671 0.038728
#
#
# Mechanical properties :
#
#
# Convention : Reuss Voigt Hill
#
# Bulk Modulus (GPa) = 26.68611 49.27071 37.97841
# Shear Modulus (GPa) = 16.99986 24.43614 20.71800
#
# Velocity S-wave (km/s) = 3.13511 3.75878 3.46102
# Velocity P-wave (km/s) = 5.34177 6.87932 6.15871
#
# Compressibility (1/GPa) = 0.03747268
#
# Stress axis : x y z
#
# Youngs Moduli (GPa) = 24.01991 70.31383 53.80358
#
# Poissons Ratio (x) = 0.74098 0.21600
# Poissons Ratio (y) = 0.25313 0.21150
# Poissons Ratio (z) = 0.09643 0.27640
#
# Static dielectric constant tensor:
#      x y z
#    x 1.600760 0.019560 -0.052290 
#    y 0.019560 1.622480 0.011670 
#    z -0.052290 0.011670 1.661180 
# 
# From -- ./inp_files/596271.got.cif
#   From: 2010.05.17/outbox.cif.g08.bks.cpg/sg2_299_cif.got.tgz:596271.got - 2010.06.03 11:33:40.
