data_PCOD9080027
_publ_section_title
;
Structure prediction by ZEFSAII (Michael W. Deem and Ramdas Pophale) SiO2 
 PCOD9080027
Probable space group: P -1
;
_chemical_formula_sum "Si O2"
_cell_formula_units_Z 16
_cell_length_a 16.680245
_cell_length_b 18.699312
_cell_length_c 11.516279
_cell_angle_alpha 35.983119
_cell_angle_beta 129.441342
_cell_angle_gamma 156.997828
_cell_volume 724.744806
_symmetry_space_group_name_H-M "P -1"
_symmetry_group_IT_number 2
_symmetry_cell_setting 'triclinic'
loop_
_space_group_symop_operation_xyz
x,y,z
-x,-y,-z
loop_
_atom_site_type_symbol
_atom_site_label
_atom_site_fract_x
_atom_site_fract_y
_atom_site_fract_z
Si Si1 0.465425 0.133986 0.882979
Si Si2 0.376270 0.293141 0.492032
Si Si3 0.887142 0.191740 0.829771
Si Si4 0.138414 0.097879 0.770632
Si Si5 0.687970 0.064635 0.366922
Si Si6 0.301683 0.212682 0.258990
Si Si7 0.152646 0.640051 0.101914
Si Si8 0.705733 0.224419 0.488830
O O1 0.434521 0.211301 0.664294
O O2 0.724522 0.355397 0.832171
O O3 0.363233 0.076828 0.983184
O O4 0.299472 0.847771 0.069804
O O5 0.192019 0.129866 0.640218
O O6 0.615287 0.611228 0.327603
O O7 0.306622 0.244796 0.359686
O O8 0.833485 0.231451 0.627039
O O9 0.087191 0.459321 0.744986
O O10 0.953907 0.122420 0.963780
O O11 0.949681 0.005631 0.729718
O O12 0.884114 0.330347 0.282267
O O13 0.662730 0.894526 0.585765
O O14 0.445980 0.882018 0.401251
O O15 0.801698 0.216176 0.148243
O O16 0.500000 0.500000 0.000000
O O17 0.500000 0.000000 0.500000
#
# Coordination Sequence:
#
# PCOD9080027 Si02
#       8
#     2   2   2   2   2   2   2   2
#     4  10  18  38  61  91 117 158 203 260 313 359
#     4  10  22  42  66  91 123 168 219 263 310 371
#     4  10  22  39  62  87 121 161 209 250 303 370
#     4  10  23  43  64  92 123 170 218 261 308 368
#     4  11  22  39  58  95 121 158 204 251 311 374
#     4  12  25  42  63  93 134 170 210 259 317 383
#     4  10  20  34  63  90 122 149 197 260 316 358
#     4  11  23  41  61  90 127 162 201 252 314 377
#
# _framework density 22.076734999999999
#
# number of rings (size 3 to 8) (size 9 to 14) (size 15 to 20)
#    0.000    1.500    2.500    2.625    0.000    2.500 
#    0.000    0.000    0.000    0.000    0.000    0.000 
#    0.000    0.000    0.000    0.000    0.000    0.000 
#
# Total GULP energy -89302.335964 kJ/mol
# GULP energy per Si atom -5581.395998 kJ/mol
# Density = 2.202649 g / cm^3
# Si number density = 22.076735 Si / 1000 Ang^3
#
#
#
# Elastic Constant Matrix: (Units=GPa)
#
#
# Indices 1 2 3 4 5 6 
#
# 1 34.3898 15.5694 25.1382 1.5199 14.9997 5.0654
# 2 15.5694 82.1907 21.5978 0.3179 10.6780 7.7642
# 3 25.1382 21.5978 97.0892 1.4971 17.4747 5.5865
# 4 1.5199 0.3179 1.4971 32.3251 4.8047 -2.0798
# 5 14.9997 10.6780 17.4747 4.8047 22.2533 -5.0970
# 6 5.0654 7.7642 5.5865 -2.0798 -5.0970 37.3652
#
#
#
# Elastic Compliance Matrix: (Units=1/GPa)
#
#
# Indices 1 2 3 4 5 6 
#
# 1 0.048937 -0.003009 -0.006290 0.001760 -0.029028 -0.008930
# 2 -0.003009 0.013930 -0.001384 0.000530 -0.004334 -0.002841
# 3 -0.006290 -0.001384 0.013429 0.000491 -0.006131 -0.001676
# 4 0.001760 0.000530 0.000491 0.032133 -0.008723 0.000177
# 5 -0.029028 -0.004334 -0.006131 -0.008723 0.076890 0.015755
# 6 -0.008930 -0.002841 -0.001676 0.000177 0.015755 0.030974
#
#
# Mechanical properties :
#
#
# Convention : Reuss Voigt Hill
#
# Bulk Modulus (GPa) = 18.20536 37.58673 27.89605
# Shear Modulus (GPa) = 19.53363 28.47968 24.00665
#
# Velocity S-wave (km/s) = 2.97780 3.59560 3.30118
# Velocity P-wave (km/s) = 4.48189 5.85664 5.21476
#
# Compressibility (1/GPa) = 0.05492888
#
# Stress axis : x y z
#
# Youngs Moduli (GPa) = 20.43433 71.78726 74.46724
#
# Poissons Ratio (x) = 0.21603 0.46840
# Poissons Ratio (y) = 0.06149 0.10308
# Poissons Ratio (z) = 0.12853 0.09937
#
# Static dielectric constant tensor:
#      x y z
#    x 1.896500 -0.026710 -0.032340 
#    y -0.026710 1.802580 0.022610 
#    z -0.032340 0.022610 1.810950 
# 
# From -- ./inp_files/348354.got.cif
#   From: 2010.05.17/outbox.cif.g08.bks.cpg/sg2_175_cif.got.tgz:348354.got - 2010.06.03 11:33:40.
