data_PCOD9080775
_publ_section_title
;
Structure prediction by ZEFSAII (Michael W. Deem and Ramdas Pophale) SiO2 
 PCOD9080775
Probable space group: P -1
;
_chemical_formula_sum "Si O2"
_cell_formula_units_Z 15
_cell_length_a 17.491832
_cell_length_b 9.851072
_cell_length_c 8.123131
_cell_angle_alpha 71.660949
_cell_angle_beta 49.642951
_cell_angle_gamma 113.289024
_cell_volume 567.288297
_symmetry_space_group_name_H-M "P -1"
_symmetry_group_IT_number 2
_symmetry_cell_setting 'triclinic'
loop_
_space_group_symop_operation_xyz
x,y,z
-x,-y,-z
loop_
_atom_site_type_symbol
_atom_site_label
_atom_site_fract_x
_atom_site_fract_y
_atom_site_fract_z
Si Si1 0.276241 0.177952 0.331506
Si Si2 0.460733 0.701018 0.905857
Si Si3 0.970829 0.459067 0.864448
Si Si4 0.906757 0.132111 0.850439
Si Si5 0.913887 0.840303 0.852954
Si Si6 0.667075 0.958798 0.983600
Si Si7 0.256673 0.579299 0.950749
Si Si8 0.500000 0.000000 0.000000
O O1 0.354309 0.165413 0.366483
O O2 0.064652 0.922816 0.696173
O O3 0.358020 0.209369 0.035227
O O4 0.328413 0.405274 0.200073
O O5 0.419061 0.740087 0.783904
O O6 0.444434 0.794815 0.040623
O O7 0.146155 0.745728 0.445330
O O8 0.965743 0.297988 0.855066
O O9 0.792094 0.331366 0.106512
O O10 0.000000 0.500000 0.000000
O O11 0.726912 0.977750 0.072178
O O12 0.875138 0.926761 0.991284
O O13 0.079997 0.352645 0.402498
O O14 0.000000 0.000000 0.500000
O O15 0.752056 0.555700 0.121962
O O16 0.534654 0.930421 0.135556
#
# Coordination Sequence:
#
# PCOD9080775 Si02
#       8
#     2   2   2   2   2   2   2   1
#     4  10  17  28  47  79 108 129 160 215 263 307
#     4  10  18  27  46  78 109 130 160 209 267 310
#     4  11  22  33  49  75 108 141 176 213 255 307
#     4  10  17  29  53  73  99 128 173 214 262 295
#     4  10  15  28  51  77 100 130 167 217 266 301
#     4  10  18  33  51  75 103 134 170 219 257 306
#     4  10  17  33  55  74 101 137 172 216 261 304
#     4  10  20  28  48  78 110 128 170 208 260 304
#
# _framework density 26.441583999999999
#
# number of rings (size 3 to 8) (size 9 to 14) (size 15 to 20)
#    0.000    1.867    6.667    3.200    0.000    0.000 
#    0.000    0.667    0.000    7.200    0.000    0.933 
#    0.000    0.800    0.000    0.000    0.000    0.000 
#
# Total GULP energy -83650.569815 kJ/mol
# GULP energy per Si atom -5576.704654 kJ/mol
# Density = 2.638140 g / cm^3
# Si number density = 26.441584 Si / 1000 Ang^3
#
#
#
# Elastic Constant Matrix: (Units=GPa)
#
#
# Indices 1 2 3 4 5 6 
#
# 1 197.9735 54.0961 18.9496 6.6250 -24.4213 26.8020
# 2 54.0961 261.8020 17.6495 23.6839 -0.9201 -8.5854
# 3 18.9496 17.6495 49.4743 -4.5825 -5.6353 1.7184
# 4 6.6250 23.6839 -4.5825 23.9330 -1.4159 -12.3312
# 5 -24.4213 -0.9201 -5.6353 -1.4159 14.6532 -8.6884
# 6 26.8020 -8.5854 1.7184 -12.3312 -8.6884 43.6863
#
#
#
# Elastic Compliance Matrix: (Units=1/GPa)
#
#
# Indices 1 2 3 4 5 6 
#
# 1 0.007194 -0.001276 -0.001342 -0.002201 0.009157 -0.003411
# 2 -0.001276 0.004645 -0.001986 -0.004953 -0.003237 -0.000268
# 3 -0.001342 -0.001986 0.023317 0.009564 0.010025 0.004209
# 4 -0.002201 -0.004953 0.009564 0.060868 0.017876 0.020737
# 5 0.009157 -0.003237 0.010025 0.017876 0.099691 0.018224
# 6 -0.003411 -0.000268 0.004209 0.020737 0.018224 0.034243
#
#
# Mechanical properties :
#
#
# Convention : Reuss Voigt Hill
#
# Bulk Modulus (GPa) = 38.54271 76.73781 57.64026
# Shear Modulus (GPa) = 20.17625 44.35815 32.26720
#
# Velocity S-wave (km/s) = 2.76533 4.10028 3.49710
# Velocity P-wave (km/s) = 4.98039 7.17642 6.17679
#
# Compressibility (1/GPa) = 0.02594524
#
# Stress axis : x y z
#
# Youngs Moduli (GPa) = 139.01337 215.27064 42.88751
#
# Poissons Ratio (x) = 0.27479 0.05757
# Poissons Ratio (y) = 0.17745 0.08520
# Poissons Ratio (z) = 0.18659 0.42763
#
# Static dielectric constant tensor:
#      x y z
#    x 2.414870 0.015930 0.097200 
#    y 0.015930 2.009750 0.024300 
#    z 0.097200 0.024300 2.207370 
# 
# From -- ./inp_files/327535.got.cif
#   From: 2010.05.17/outbox.cif.g08.bks.cpg/sg2_164_cif.got.tgz:327535.got - 2010.06.03 11:33:40.
