data_PCOD9080289
_publ_section_title
;
Structure prediction by ZEFSAII (Michael W. Deem and Ramdas Pophale) SiO2 
 PCOD9080289
Probable space group: P -1
;
_chemical_formula_sum "Si O2"
_cell_formula_units_Z 16
_cell_length_a 15.943313
_cell_length_b 15.319770
_cell_length_c 9.387639
_cell_angle_alpha 141.510180
_cell_angle_beta 134.863635
_cell_angle_gamma 35.451718
_cell_volume 812.976981
_symmetry_space_group_name_H-M "P -1"
_symmetry_group_IT_number 2
_symmetry_cell_setting 'triclinic'
loop_
_space_group_symop_operation_xyz
x,y,z
-x,-y,-z
loop_
_atom_site_type_symbol
_atom_site_label
_atom_site_fract_x
_atom_site_fract_y
_atom_site_fract_z
Si Si1 0.839540 0.698541 0.920788
Si Si2 0.557157 0.908378 0.658216
Si Si3 0.947940 0.602662 0.420812
Si Si4 0.428264 0.820857 0.172572
Si Si5 0.901324 0.955225 0.901442
Si Si6 0.302590 0.257192 0.902152
Si Si7 0.884398 0.982265 0.257846
Si Si8 0.544638 0.319698 0.261799
O O1 0.681441 0.810647 0.798245
O O2 0.937575 0.522604 0.723559
O O3 0.810485 0.680378 0.025291
O O4 0.898754 0.814833 0.122375
O O5 0.543074 0.783155 0.381935
O O6 0.590073 0.021595 0.742303
O O7 0.401257 0.050452 0.726807
O O8 0.936581 0.775962 0.655792
O O9 0.791037 0.655481 0.242707
O O10 0.000000 0.500000 0.500000
O O11 0.270814 0.897219 0.146149
O O12 0.467968 0.676702 0.920709
O O13 0.916188 0.952271 0.087682
O O14 0.000000 0.000000 0.000000
O O15 0.422321 0.291739 0.125544
O O16 0.713468 0.155442 0.290000
O O17 0.000000 0.000000 0.500000
O O18 0.500000 0.500000 0.500000
#
# Coordination Sequence:
#
# PCOD9080289 Si02
#       8
#     2   2   2   2   2   2   2   2
#     4  12  24  41  66 102 134 166 226 279 328 391
#     4  10  18  38  69  91 125 164 221 272 324 385
#     4  12  25  43  69 100 131 172 228 272 325 390
#     4   9  18  37  63  91 119 171 216 260 325 377
#     4  11  23  43  65  95 130 175 216 270 328 395
#     4  11  24  41  69  96 128 173 222 274 327 390
#     4  11  25  42  61  95 136 178 212 270 339 398
#     4  10  23  40  65  91 131 173 217 269 334 394
#
# _framework density 19.680754
#
# number of rings (size 3 to 8) (size 9 to 14) (size 15 to 20)
#    0.000    1.250    6.250    0.750    7.000    2.000 
#    0.000    0.000    0.000    1.500    0.000    0.000 
#    0.000    0.000    0.000    0.000    0.000    0.000 
#
# Total GULP energy -89341.323112 kJ/mol
# GULP energy per Si atom -5583.832695 kJ/mol
# Density = 1.963596 g / cm^3
# Si number density = 19.680754 Si / 1000 Ang^3
#
#
#
# Elastic Constant Matrix: (Units=GPa)
#
#
# Indices 1 2 3 4 5 6 
#
# 1 124.2781 24.1951 57.6752 5.0024 -1.9561 -12.1589
# 2 24.1951 61.3155 48.3986 -13.0019 -7.4611 -9.1955
# 3 57.6752 48.3986 169.2057 -0.4636 1.6419 -9.2765
# 4 5.0024 -13.0019 -0.4636 44.7375 -8.2261 -5.9790
# 5 -1.9561 -7.4611 1.6419 -8.2261 24.4028 5.2742
# 6 -12.1589 -9.1955 -9.2765 -5.9790 5.2742 22.0400
#
#
#
# Elastic Compliance Matrix: (Units=1/GPa)
#
#
# Indices 1 2 3 4 5 6 
#
# 1 0.010025 -0.001600 -0.002763 -0.001271 -0.000689 0.003520
# 2 -0.001600 0.027201 -0.006868 0.011042 0.010638 0.008025
# 3 -0.002763 -0.006868 0.008821 -0.002317 -0.003600 -0.000444
# 4 -0.001271 0.011042 -0.002317 0.028852 0.011422 0.008024
# 5 -0.000689 0.010638 -0.003600 0.011422 0.049616 -0.006231
# 6 0.003520 0.008025 -0.000444 0.008024 -0.006231 0.054143
#
#
# Mechanical properties :
#
#
# Convention : Reuss Voigt Hill
#
# Bulk Modulus (GPa) = 42.40195 68.37079 55.38637
# Shear Modulus (GPa) = 23.92552 33.20476 28.56514
#
# Velocity S-wave (km/s) = 3.49044 4.11197 3.81389
# Velocity P-wave (km/s) = 6.15109 7.57362 6.89912
#
# Compressibility (1/GPa) = 0.02358382
#
# Stress axis : x y z
#
# Youngs Moduli (GPa) = 99.74985 36.76314 113.37165
#
# Poissons Ratio (x) = 0.05883 0.31327
# Poissons Ratio (y) = 0.15962 0.77864
# Poissons Ratio (z) = 0.27563 0.25249
#
# Static dielectric constant tensor:
#      x y z
#    x 1.714250 -0.027330 -0.011390 
#    y -0.027330 1.710110 -0.006040 
#    z -0.011390 -0.006040 1.694560 
# 
# From -- ./inp_files/269508.got.cif
#   From: 2010.05.17/outbox.cif.g08.bks.cpg/sg2_135_cif.got.tgz:269508.got - 2010.06.03 11:33:40.
