data_PCOD9080709
_publ_section_title
;
Structure prediction by ZEFSAII (Michael W. Deem and Ramdas Pophale) SiO2 
 PCOD9080709
Probable space group: P -1
;
_chemical_formula_sum "Si O2"
_cell_formula_units_Z 16
_cell_length_a 18.351963
_cell_length_b 10.063841
_cell_length_c 14.644477
_cell_angle_alpha 53.193767
_cell_angle_beta 148.142118
_cell_angle_gamma 146.649342
_cell_volume 725.831803
_symmetry_space_group_name_H-M "P -1"
_symmetry_group_IT_number 2
_symmetry_cell_setting 'triclinic'
loop_
_space_group_symop_operation_xyz
x,y,z
-x,-y,-z
loop_
_atom_site_type_symbol
_atom_site_label
_atom_site_fract_x
_atom_site_fract_y
_atom_site_fract_z
Si Si1 0.664472 0.224046 0.437377
Si Si2 0.560396 0.787794 0.167930
Si Si3 0.476362 0.778956 0.519688
Si Si4 0.506851 0.581108 0.874501
Si Si5 0.151228 0.630713 0.793133
Si Si6 0.379419 0.333877 0.533542
Si Si7 0.016236 0.022149 0.852750
Si Si8 0.992782 0.241580 0.910015
O O1 0.656043 0.264256 0.520254
O O2 0.587895 0.321520 0.269027
O O3 0.904520 0.395553 0.588754
O O4 0.502665 0.915548 0.399840
O O5 0.598293 0.652699 0.209093
O O6 0.536824 0.715638 0.279627
O O7 0.754196 0.098430 0.230379
O O8 0.344751 0.686400 0.944353
O O9 0.374285 0.506644 0.506382
O O10 0.728990 0.992399 0.732975
O O11 0.500000 0.500000 0.000000
O O12 0.755941 0.815616 0.012501
O O13 0.099590 0.516613 0.887812
O O14 0.500000 0.500000 0.500000
O O15 0.145159 0.059209 0.361156
O O16 0.044012 0.174724 0.903544
O O17 0.923169 0.770813 0.905973
#
# Coordination Sequence:
#
# PCOD9080709 Si02
#       8
#     2   2   2   2   2   2   2   2
#     4  10  22  43  69  93 133 178 217 267 339 387
#     4  11  24  47  66  95 137 171 231 272 322 400
#     4  10  20  41  66  99 132 168 218 275 329 391
#     4  12  26  46  68  96 134 185 224 264 329 405
#     4  10  23  41  71  96 128 184 211 278 339 380
#     4  12  23  39  69 104 130 168 222 278 333 386
#     4  11  22  37  68 100 125 171 222 271 323 388
#     4  10  18  41  68  92 133 167 219 268 327 385
#
# _framework density 22.043673999999999
#
# number of rings (size 3 to 8) (size 9 to 14) (size 15 to 20)
#    0.000    1.250    5.000    0.750    1.750    1.500 
#    6.750    1.875    0.000    0.000    0.000    0.000 
#    0.000    0.000    0.000    0.000    0.000    0.000 
#
# Total GULP energy -89185.125727 kJ/mol
# GULP energy per Si atom -5574.070358 kJ/mol
# Density = 2.199350 g / cm^3
# Si number density = 22.043674 Si / 1000 Ang^3
#
#
#
# Elastic Constant Matrix: (Units=GPa)
#
#
# Indices 1 2 3 4 5 6 
#
# 1 47.4194 19.7445 28.0939 -10.0186 1.4025 14.7348
# 2 19.7445 135.8646 38.6330 -24.4567 -6.2325 16.5168
# 3 28.0939 38.6330 99.7282 -33.8897 8.6636 0.3633
# 4 -10.0186 -24.4567 -33.8897 36.3958 3.9580 -1.3862
# 5 1.4025 -6.2325 8.6636 3.9580 27.3866 -3.8311
# 6 14.7348 16.5168 0.3633 -1.3862 -3.8311 21.4054
#
#
#
# Elastic Compliance Matrix: (Units=1/GPa)
#
#
# Indices 1 2 3 4 5 6 
#
# 1 0.034052 0.000636 -0.009485 0.000269 -0.002011 -0.024113
# 2 0.000636 0.009680 -0.002799 0.003630 0.001502 -0.007356
# 3 -0.009485 -0.002799 0.019357 0.014627 -0.007269 0.008007
# 4 0.000269 0.003630 0.014627 0.044675 -0.010584 -0.002235
# 5 -0.002011 0.001502 -0.007269 -0.010584 0.041787 0.007142
# 6 -0.024113 -0.007356 0.008007 -0.002235 0.007142 0.069989
#
#
# Mechanical properties :
#
#
# Convention : Reuss Voigt Hill
#
# Bulk Modulus (GPa) = 25.13071 50.66167 37.89619
# Shear Modulus (GPa) = 19.52355 30.14027 24.83191
#
# Velocity S-wave (km/s) = 2.97926 3.70171 3.35996
# Velocity P-wave (km/s) = 4.82284 6.42670 5.68165
#
# Compressibility (1/GPa) = 0.03979196
#
# Stress axis : x y z
#
# Youngs Moduli (GPa) = 29.36686 103.30141 51.66207
#
# Poissons Ratio (x) = -0.06570 0.49002
# Poissons Ratio (y) = -0.01868 0.14463
# Poissons Ratio (z) = 0.27855 0.28919
#
# Static dielectric constant tensor:
#      x y z
#    x 1.872980 -0.017060 0.035920 
#    y -0.017060 2.013890 0.036500 
#    z 0.035920 0.036500 1.887520 
# 
# From -- ./inp_files/541107.got.cif
#   From: 2010.05.17/outbox.cif.g08.bks.cpg/sg2_271_cif.got.tgz:541107.got - 2010.06.03 11:33:40.
