data_PCOD9080065
_publ_section_title
;
Structure prediction by ZEFSAII (Michael W. Deem and Ramdas Pophale) SiO2 
 PCOD9080065
Probable space group: P -1
;
_chemical_formula_sum "Si O2"
_cell_formula_units_Z 14
_cell_length_a 15.336014
_cell_length_b 5.655339
_cell_length_c 15.856625
_cell_angle_alpha 121.422040
_cell_angle_beta 35.156976
_cell_angle_gamma 109.924444
_cell_volume 665.466543
_symmetry_space_group_name_H-M "P -1"
_symmetry_group_IT_number 2
_symmetry_cell_setting 'triclinic'
loop_
_space_group_symop_operation_xyz
x,y,z
-x,-y,-z
loop_
_atom_site_type_symbol
_atom_site_label
_atom_site_fract_x
_atom_site_fract_y
_atom_site_fract_z
Si Si1 0.387147 0.390697 0.735672
Si Si2 0.179811 0.818052 0.078078
Si Si3 0.696965 0.591639 0.939649
Si Si4 0.334177 0.338139 0.401024
Si Si5 0.417270 0.164937 0.493603
Si Si6 0.838653 0.141655 0.404666
Si Si7 0.667620 0.249213 0.738902
O O1 0.518938 0.515653 0.706179
O O2 0.411267 0.385726 0.614771
O O3 0.424916 0.060919 0.668773
O O4 0.231277 0.587077 0.921513
O O5 0.227853 0.629290 0.089062
O O6 0.256705 0.096889 0.048179
O O7 0.000435 0.945545 0.245986
O O8 0.728208 0.437534 0.796190
O O9 0.513285 0.637455 0.109448
O O10 0.375267 0.251559 0.448235
O O11 0.172496 0.547266 0.566558
O O12 0.327496 0.075032 0.298160
O O13 0.276637 0.994415 0.589530
O O14 0.764906 0.216256 0.569639
#
# Coordination Sequence:
#
# PCOD9080065 Si02
#       7
#     2   2   2   2   2   2   2
#     4  10  20  38  64  91 126 160 219 264 315 371
#     4  12  26  43  62  99 134 168 207 269 318 381
#     4  11  26  43  68  95 126 168 222 263 317 369
#     4  10  18  38  62  90 119 168 209 265 307 385
#     4   9  20  38  64  93 119 168 214 260 316 381
#     4  10  24  39  62  91 133 168 209 257 327 381
#     4  10  23  42  67  90 125 168 218 266 312 379
#
# _framework density 21.037872
#
# number of rings (size 3 to 8) (size 9 to 14) (size 15 to 20)
#    0.000    1.714    1.429    3.000    6.000    2.857 
#    0.000    0.714    0.000    0.000    0.000    0.000 
#    0.000    0.000    0.000    0.000    0.000    0.000 
#
# Total GULP energy -77968.619632 kJ/mol
# GULP energy per Si atom -5569.187117 kJ/mol
# Density = 2.098999 g / cm^3
# Si number density = 21.037872 Si / 1000 Ang^3
#
#
#
# Elastic Constant Matrix: (Units=GPa)
#
#
# Indices 1 2 3 4 5 6 
#
# 1 53.7241 31.2848 52.1628 16.1678 9.8255 -10.3400
# 2 31.2848 60.9277 28.7097 16.6129 10.5469 -11.2474
# 3 52.1628 28.7097 156.2713 31.4546 2.7595 -9.5791
# 4 16.1678 16.6129 31.4546 32.9182 -5.9113 0.7741
# 5 9.8255 10.5469 2.7595 -5.9113 37.7034 13.2055
# 6 -10.3400 -11.2474 -9.5791 0.7741 13.2055 29.7846
#
#
#
# Elastic Compliance Matrix: (Units=1/GPa)
#
#
# Indices 1 2 3 4 5 6 
#
# 1 0.040723 -0.008954 -0.008820 -0.009920 -0.014066 0.014414
# 2 -0.008954 0.029348 0.001745 -0.014868 -0.013567 0.014937
# 3 -0.008820 0.001745 0.010451 -0.006651 -0.000466 0.001338
# 4 -0.009920 -0.014868 -0.006651 0.053926 0.023793 -0.023148
# 5 -0.014066 -0.013567 -0.000466 0.023793 0.049155 -0.032568
# 6 0.014414 0.014937 0.001338 -0.023148 -0.032568 0.059690
#
#
# Mechanical properties :
#
#
# Convention : Reuss Voigt Hill
#
# Bulk Modulus (GPa) = 20.63332 55.02640 37.82986
# Shear Modulus (GPa) = 17.15235 30.66562 23.90898
#
# Velocity S-wave (km/s) = 2.85846 3.82205 3.37482
# Velocity P-wave (km/s) = 4.55229 6.75944 5.76253
#
# Compressibility (1/GPa) = 0.04846530
#
# Stress axis : x y z
#
# Youngs Moduli (GPa) = 24.55632 34.07370 95.68082
#
# Poissons Ratio (x) = 0.30509 0.84386
# Poissons Ratio (y) = 0.21987 -0.16695
# Poissons Ratio (z) = 0.21658 -0.05945
#
# Static dielectric constant tensor:
#      x y z
#    x 1.731150 -0.017020 -0.005790 
#    y -0.017020 1.999450 -0.017960 
#    z -0.005790 -0.017960 1.766560 
# 
# From -- ./inp_files/32458.got.cif
#   From: 2010.05.17/outbox.cif.g08.bks.cpg/sg2_17_cif.got.tgz:32458.got - 2010.06.03 11:33:40.
