data_PCOD9080426
_publ_section_title
;
Structure prediction by ZEFSAII (Michael W. Deem and Ramdas Pophale) SiO2 
 PCOD9080426
Probable space group: P -1
;
_chemical_formula_sum "Si O2"
_cell_formula_units_Z 14
_cell_length_a 8.264510
_cell_length_b 14.397580
_cell_length_c 16.108192
_cell_angle_alpha 39.918209
_cell_angle_beta 40.915943
_cell_angle_gamma 34.398581
_cell_volume 653.746010
_symmetry_space_group_name_H-M "P -1"
_symmetry_group_IT_number 2
_symmetry_cell_setting 'triclinic'
loop_
_space_group_symop_operation_xyz
x,y,z
-x,-y,-z
loop_
_atom_site_type_symbol
_atom_site_label
_atom_site_fract_x
_atom_site_fract_y
_atom_site_fract_z
Si Si1 0.307216 0.282461 0.626666
Si Si2 0.849249 0.938469 0.415328
Si Si3 0.067896 0.612076 0.136640
Si Si4 0.349910 0.770549 0.825697
Si Si5 0.866781 0.485005 0.146842
Si Si6 0.244119 0.113182 0.332858
Si Si7 0.768567 0.380385 0.642284
O O1 0.182187 0.312694 0.747279
O O2 0.361488 0.430146 0.480048
O O3 0.036940 0.327150 0.638266
O O4 0.578780 0.078818 0.645611
O O5 0.912512 0.892877 0.518471
O O6 0.079916 0.768050 0.386581
O O7 0.500000 0.000000 0.500000
O O8 0.830865 0.103182 0.268939
O O9 0.970213 0.554136 0.134099
O O10 0.378086 0.427857 0.173859
O O11 0.148328 0.745120 0.983730
O O12 0.507810 0.850460 0.758007
O O13 0.503860 0.599797 0.215222
O O14 0.012835 0.278633 0.251199
O O15 0.000000 0.500000 0.000000
#
# Coordination Sequence:
#
# PCOD9080426 Si02
#       7
#     2   2   2   2   2   2   2
#     4  11  23  39  69 101 122 167 232 263 312 382
#     4  10  18  39  64  97 126 164 217 266 315 370
#     4  10  23  39  64  93 130 173 217 261 323 384
#     4   9  19  37  64  93 123 175 214 269 304 382
#     4  11  27  47  62  93 138 175 207 265 339 384
#     4  10  22  40  67  96 130 171 216 264 321 385
#     4  11  24  40  68  98 131 170 212 275 319 382
#
# _framework density 21.415044000000002
#
# number of rings (size 3 to 8) (size 9 to 14) (size 15 to 20)
#    0.000    1.714    2.857    2.571    8.000    4.571 
#    0.000    2.857    0.000    0.000    0.000    0.000 
#    0.000    0.000    0.000    0.000    0.000    0.000 
#
# Total GULP energy -78309.530999 kJ/mol
# GULP energy per Si atom -5593.537928 kJ/mol
# Density = 2.136630 g / cm^3
# Si number density = 21.415044 Si / 1000 Ang^3
#
#
#
# Elastic Constant Matrix: (Units=GPa)
#
#
# Indices 1 2 3 4 5 6 
#
# 1 39.8652 39.9467 44.7321 6.3561 7.8975 5.0613
# 2 39.9467 131.7034 91.6216 10.6447 18.6271 10.9192
# 3 44.7321 91.6216 166.3312 7.1532 16.9423 17.6824
# 4 6.3561 10.6447 7.1532 45.8408 2.8065 7.1893
# 5 7.8975 18.6271 16.9423 2.8065 39.0742 8.0322
# 6 5.0613 10.9192 17.6824 7.1893 8.0322 26.0115
#
#
#
# Elastic Compliance Matrix: (Units=1/GPa)
#
#
# Indices 1 2 3 4 5 6 
#
# 1 0.040569 -0.007204 -0.006744 -0.002960 -0.001856 0.001106
# 2 -0.007204 0.014097 -0.005531 -0.001313 -0.002873 0.000494
# 3 -0.006744 -0.005531 0.011293 0.001142 -0.000088 -0.004331
# 4 -0.002960 -0.001313 0.001142 0.023303 0.000328 -0.006191
# 5 -0.001856 -0.002873 -0.000088 0.000328 0.028869 -0.007378
# 6 0.001106 0.000494 -0.004331 -0.006191 -0.007378 0.044955
#
#
# Mechanical properties :
#
#
# Convention : Reuss Voigt Hill
#
# Bulk Modulus (GPa) = 37.03418 76.72230 56.87824
# Shear Modulus (GPa) = 23.69179 32.95860 28.32519
#
# Velocity S-wave (km/s) = 3.32974 3.92732 3.64081
# Velocity P-wave (km/s) = 5.66692 7.51460 6.65519
#
# Compressibility (1/GPa) = 0.02700208
#
# Stress axis : x y z
#
# Youngs Moduli (GPa) = 24.64940 70.93553 88.55103
#
# Poissons Ratio (x) = 0.51099 0.59715
# Poissons Ratio (y) = 0.17756 0.48982
# Poissons Ratio (z) = 0.16622 0.39238
#
# Static dielectric constant tensor:
#      x y z
#    x 1.833370 -0.037750 -0.024720 
#    y -0.037750 1.763560 -0.010650 
#    z -0.024720 -0.010650 1.758070 
# 
# From -- ./inp_files/180022.got.cif
#   From: 2010.05.17/outbox.cif.g08.bks.cpg/sg2_91_cif.got.tgz:180022.got - 2010.06.03 11:33:40.
