data_PCOD9080563
_publ_section_title
;
Structure prediction by ZEFSAII (Michael W. Deem and Ramdas Pophale) SiO2 
 PCOD9080563
Probable space group: P -1
;
_chemical_formula_sum "Si O2"
_cell_formula_units_Z 15
_cell_length_a 5.277521
_cell_length_b 18.030765
_cell_length_c 10.692715
_cell_angle_alpha 43.720523
_cell_angle_beta 57.888734
_cell_angle_gamma 62.752744
_cell_volume 590.916315
_symmetry_space_group_name_H-M "P -1"
_symmetry_group_IT_number 2
_symmetry_cell_setting 'triclinic'
loop_
_space_group_symop_operation_xyz
x,y,z
-x,-y,-z
loop_
_atom_site_type_symbol
_atom_site_label
_atom_site_fract_x
_atom_site_fract_y
_atom_site_fract_z
Si Si1 0.494990 0.772981 0.185186
Si Si2 0.637649 0.521574 0.073815
Si Si3 0.113850 0.209800 0.590873
Si Si4 0.771611 0.597691 0.498645
Si Si5 0.579897 0.244305 0.052500
Si Si6 0.000000 0.000000 0.000000
Si Si7 0.230179 0.097079 0.446979
Si Si8 0.110235 0.063319 0.173235
O O1 0.728757 0.679583 0.292445
O O2 0.244628 0.784068 0.343564
O O3 0.374143 0.735560 0.130646
O O4 0.569716 0.894102 0.986989
O O5 0.509988 0.453711 0.303797
O O6 0.500000 0.500000 0.000000
O O7 0.518571 0.645151 0.987453
O O8 0.000000 0.500000 0.000000
O O9 0.152816 0.324748 0.500953
O O10 0.260194 0.173994 0.465088
O O11 0.163259 0.114493 0.796697
O O12 0.000000 0.500000 0.500000
O O13 0.303221 0.170835 0.222859
O O14 0.870746 0.171230 0.122158
O O15 0.000377 0.017525 0.128024
O O16 0.500000 0.000000 0.500000
O O17 0.932226 0.035912 0.603076
#
# Coordination Sequence:
#
# PCOD9080563 Si02
#       8
#     2   2   2   2   2   1   2   2
#     4  12  24  42  76 107 144 191 256 318 382 460
#     4  12  31  53  80 113 157 206 263 329 395 468
#     4  11  23  44  70 106 143 189 250 312 380 459
#     4  12  28  49  78 110 150 202 260 327 395 466
#     4  11  24  47  70 103 150 195 252 308 392 457
#     4  10  18  40  62  98 146 178 234 310 378 442
#     4   9  22  43  70  95 148 197 243 308 383 474
#     4  10  21  42  67 105 141 192 237 311 378 458
#
# _framework density 25.384305999999999
#
# number of rings (size 3 to 8) (size 9 to 14) (size 15 to 20)
#    0.000    1.067    2.667    2.400    7.467    3.733 
#    0.000    0.000    0.000    0.000    0.000    0.000 
#    0.000    0.000    0.000    0.000    0.000    0.000 
#
# Total GULP energy -83650.175728 kJ/mol
# GULP energy per Si atom -5576.678382 kJ/mol
# Density = 2.532653 g / cm^3
# Si number density = 25.384306 Si / 1000 Ang^3
#
#
#
# Elastic Constant Matrix: (Units=GPa)
#
#
# Indices 1 2 3 4 5 6 
#
# 1 70.9807 35.2040 7.3073 0.2379 2.2141 12.1301
# 2 35.2040 200.7768 27.6572 -9.5008 -2.3562 9.5971
# 3 7.3073 27.6572 140.6770 -3.6441 -14.5686 5.2359
# 4 0.2379 -9.5008 -3.6441 49.5752 4.2834 3.5321
# 5 2.2141 -2.3562 -14.5686 4.2834 42.2160 3.9271
# 6 12.1301 9.5971 5.2359 3.5321 3.9271 19.3025
#
#
#
# Elastic Compliance Matrix: (Units=1/GPa)
#
#
# Indices 1 2 3 4 5 6 
#
# 1 0.016947 -0.002513 -0.000054 0.000117 -0.000188 -0.009369
# 2 -0.002513 0.005657 -0.000893 0.001105 0.000141 -0.001222
# 3 -0.000054 -0.000893 0.007665 0.000311 0.002773 -0.002222
# 4 0.000117 0.001105 0.000311 0.020840 -0.001560 -0.004203
# 5 -0.000188 0.000141 0.002773 -0.001560 0.025339 -0.005574
# 6 -0.009369 -0.001222 -0.002222 -0.004203 -0.005574 0.060808
#
#
# Mechanical properties :
#
#
# Convention : Reuss Voigt Hill
#
# Bulk Modulus (GPa) = 42.82883 61.41905 52.12394
# Shear Modulus (GPa) = 32.90394 45.03648 38.97021
#
# Velocity S-wave (km/s) = 3.60423 4.21668 3.92242
# Velocity P-wave (km/s) = 5.85059 6.92498 6.41033
#
# Compressibility (1/GPa) = 0.02334876
#
# Stress axis : x y z
#
# Youngs Moduli (GPa) = 59.00854 176.78407 130.46643
#
# Poissons Ratio (x) = 0.44423 0.00704
# Poissons Ratio (y) = 0.14828 0.11649
# Poissons Ratio (z) = 0.00319 0.15784
#
# Static dielectric constant tensor:
#      x y z
#    x 2.209350 -0.079310 -0.167720 
#    y -0.079310 2.022520 0.044080 
#    z -0.167720 0.044080 2.098470 
# 
# From -- ./inp_files/369290.got.cif
#   From: 2010.05.17/outbox.cif.g08.bks.cpg/sg2_185_cif.got.tgz:369290.got - 2010.06.03 11:33:40.
