data_PCOD9080484
_publ_section_title
;
Structure prediction by ZEFSAII (Michael W. Deem and Ramdas Pophale) SiO2 
 PCOD9080484
Probable space group: P -1
;
_chemical_formula_sum "Si O2"
_cell_formula_units_Z 16
_cell_length_a 9.024430
_cell_length_b 8.738959
_cell_length_c 16.612401
_cell_angle_alpha 81.908088
_cell_angle_beta 38.188063
_cell_angle_gamma 90.272538
_cell_volume 787.532371
_symmetry_space_group_name_H-M "P -1"
_symmetry_group_IT_number 2
_symmetry_cell_setting 'triclinic'
loop_
_space_group_symop_operation_xyz
x,y,z
-x,-y,-z
loop_
_atom_site_type_symbol
_atom_site_label
_atom_site_fract_x
_atom_site_fract_y
_atom_site_fract_z
Si Si1 0.541687 0.451091 0.116868
Si Si2 0.058832 0.315468 0.150840
Si Si3 0.159291 0.149684 0.266104
Si Si4 0.357847 0.057369 0.480964
Si Si5 0.490086 0.988707 0.251503
Si Si6 0.086668 0.764632 0.964185
Si Si7 0.462158 0.596492 0.588788
Si Si8 0.446528 0.349513 0.751557
O O1 0.292214 0.328013 0.217275
O O2 0.723773 0.350015 0.088922
O O3 0.492017 0.580627 0.191544
O O4 0.709274 0.541342 0.967304
O O5 0.992818 0.262851 0.092025
O O6 0.814304 0.365301 0.288871
O O7 0.133404 0.171949 0.179608
O O8 0.321563 0.043165 0.250842
O O9 0.889119 0.070109 0.413486
O O10 0.352870 0.236812 0.494264
O O11 0.500000 0.000000 0.500000
O O12 0.471163 0.064058 0.342379
O O13 0.437836 0.803010 0.299380
O O14 0.762965 0.060678 0.100194
O O15 0.845961 0.711523 0.123103
O O16 0.500000 0.500000 0.500000
O O17 0.508240 0.486940 0.651022
#
# Coordination Sequence:
#
# PCOD9080484 Si02
#       8
#     2   2   2   2   2   2   2   2
#     4  10  20  40  67  93 125 163 209 262 309 363
#     4  11  19  40  68  92 121 164 212 254 308 368
#     4  11  24  40  63  89 127 174 202 246 319 383
#     4  12  23  45  65  87 124 172 213 247 309 381
#     4  11  23  39  61  94 130 167 200 258 314 369
#     4  10  18  39  68  90 122 167 212 255 302 372
#     4  12  23  39  66  99 120 153 215 265 300 361
#     4  11  21  38  64  97 123 160 214 259 303 361
#
# _framework density 20.316623
#
# number of rings (size 3 to 8) (size 9 to 14) (size 15 to 20)
#    0.000    1.000    5.000    3.375    0.000    0.000 
#    2.250    3.750    0.000    0.000    0.000    0.000 
#    0.000    0.000    0.000    0.000    0.000    0.000 
#
# Total GULP energy -89215.084425 kJ/mol
# GULP energy per Si atom -5575.942777 kJ/mol
# Density = 2.027038 g / cm^3
# Si number density = 20.316623 Si / 1000 Ang^3
#
#
#
# Elastic Constant Matrix: (Units=GPa)
#
#
# Indices 1 2 3 4 5 6 
#
# 1 85.1744 18.5442 27.2671 -8.7241 -1.8521 -16.3622
# 2 18.5442 91.2661 18.3294 -16.3393 4.2319 -10.0448
# 3 27.2671 18.3294 74.4110 -23.4288 -1.0616 -0.5154
# 4 -8.7241 -16.3393 -23.4288 40.2440 8.1990 2.1454
# 5 -1.8521 4.2319 -1.0616 8.1990 35.1037 -19.9343
# 6 -16.3622 -10.0448 -0.5154 2.1454 -19.9343 26.7096
#
#
#
# Elastic Compliance Matrix: (Units=1/GPa)
#
#
# Indices 1 2 3 4 5 6 
#
# 1 0.018531 -0.001401 -0.007722 -0.005200 0.014627 0.022010
# 2 -0.001401 0.012588 -0.001285 0.004123 -0.001032 0.002750
# 3 -0.007722 -0.001285 0.020240 0.012362 -0.010119 -0.013368
# 4 -0.005200 0.004123 0.012362 0.037790 -0.020377 -0.019640
# 5 0.014627 -0.001032 -0.010119 -0.020377 0.068595 0.061208
# 6 0.022010 0.002750 -0.013368 -0.019640 0.061208 0.098959
#
#
# Mechanical properties :
#
#
# Convention : Reuss Voigt Hill
#
# Bulk Modulus (GPa) = 32.73973 42.12587 37.43280
# Shear Modulus (GPa) = 17.37916 32.85885 25.11901
#
# Velocity S-wave (km/s) = 2.92792 4.02598 3.52003
# Velocity P-wave (km/s) = 5.25167 6.51084 5.91486
#
# Compressibility (1/GPa) = 0.03054393
#
# Stress axis : x y z
#
# Youngs Moduli (GPa) = 53.96267 79.43869 49.40671
#
# Poissons Ratio (x) = 0.11132 0.38150
# Poissons Ratio (y) = 0.07562 0.06348
# Poissons Ratio (z) = 0.41668 0.10207
#
# Static dielectric constant tensor:
#      x y z
#    x 1.746290 -0.009870 -0.023970 
#    y -0.009870 1.741370 -0.021710 
#    z -0.023970 -0.021710 1.755050 
# 
# From -- ./inp_files/180481.got.cif
#   From: 2010.05.17/outbox.cif.g08.bks.cpg/sg2_91_cif.got.tgz:180481.got - 2010.06.03 11:33:40.
