data_PCOD9080992
_publ_section_title
;
Structure prediction by ZEFSAII (Michael W. Deem and Ramdas Pophale) SiO2 
 PCOD9080992
Probable space group: P -1
;
_chemical_formula_sum "Si O2"
_cell_formula_units_Z 16
_cell_length_a 24.366447
_cell_length_b 5.471742
_cell_length_c 10.809478
_cell_angle_alpha 119.450119
_cell_angle_beta 34.094147
_cell_angle_gamma 123.189524
_cell_volume 673.813383
_symmetry_space_group_name_H-M "P -1"
_symmetry_group_IT_number 2
_symmetry_cell_setting 'triclinic'
loop_
_space_group_symop_operation_xyz
x,y,z
-x,-y,-z
loop_
_atom_site_type_symbol
_atom_site_label
_atom_site_fract_x
_atom_site_fract_y
_atom_site_fract_z
Si Si1 0.288729 0.460798 0.745498
Si Si2 0.885433 0.779252 0.176211
Si Si3 0.051109 0.712785 0.130018
Si Si4 0.074175 0.836425 0.607538
Si Si5 0.622208 0.147613 0.096343
Si Si6 0.886945 0.025891 0.690152
Si Si7 0.673414 0.646845 0.970525
Si Si8 0.606586 0.937762 0.413534
O O1 0.181459 0.288258 0.839778
O O2 0.295269 0.641477 0.908654
O O3 0.346391 0.218870 0.606977
O O4 0.345325 0.715308 0.607677
O O5 0.843241 0.946847 0.403426
O O6 0.902903 0.465897 0.099474
O O7 0.000000 0.000000 0.000000
O O8 0.139819 0.867926 0.099893
O O9 0.995632 0.943893 0.242134
O O10 0.979488 0.456484 0.288852
O O11 0.106503 0.773982 0.393778
O O12 0.631484 0.306950 0.987693
O O13 0.513546 0.128941 0.355773
O O14 0.639348 0.831362 0.974748
O O15 0.000000 0.000000 0.500000
O O16 0.796230 0.737741 0.760565
O O17 0.630687 0.784910 0.204695
#
# Coordination Sequence:
#
# PCOD9080992 Si02
#       8
#     2   2   2   2   2   2   2   2
#     4  10  19  30  51  78 109 143 174 219 288 341
#     4  10  22  37  55  82 116 155 196 233 271 335
#     4  10  20  36  56  74 103 148 199 238 270 308
#     4  10  22  36  52  74 109 152 185 230 278 318
#     4  10  19  34  55  84 110 134 180 248 297 329
#     4  10  22  37  55  82 116 155 196 233 271 335
#     4  10  19  30  51  78 109 143 174 219 288 341
#     4  10  19  34  55  84 110 134 180 248 297 329
#
# _framework density 23.745446000000001
#
# number of rings (size 3 to 8) (size 9 to 14) (size 15 to 20)
#    0.000    2.000    0.000    6.000    0.000   16.000 
#    0.000    0.000    0.000    0.000    0.000    9.625 
#    0.000    0.000    0.000    0.000    0.000    0.000 
#
# Total GULP energy -89205.544124 kJ/mol
# GULP energy per Si atom -5575.346508 kJ/mol
# Density = 2.369140 g / cm^3
# Si number density = 23.745446 Si / 1000 Ang^3
#
#
#
# Elastic Constant Matrix: (Units=GPa)
#
#
# Indices 1 2 3 4 5 6 
#
# 1 92.6941 43.5618 21.7478 2.0281 -14.2965 -21.7270
# 2 43.5618 123.6892 21.8153 -12.9581 -6.2229 -42.9123
# 3 21.7478 21.8153 76.9192 -15.5859 -21.9527 -12.6342
# 4 2.0281 -12.9581 -15.5859 31.6030 -3.9686 5.9084
# 5 -14.2965 -6.2229 -21.9527 -3.9686 34.5462 3.0229
# 6 -21.7270 -42.9123 -12.6342 5.9084 3.0229 50.6470
#
#
#
# Elastic Compliance Matrix: (Units=1/GPa)
#
#
# Indices 1 2 3 4 5 6 
#
# 1 0.014377 -0.004055 -0.002444 -0.003859 0.003014 0.002393
# 2 -0.004055 0.013011 -0.000281 0.003840 0.000162 0.008757
# 3 -0.002444 -0.000281 0.019941 0.011174 0.012752 0.001623
# 4 -0.003859 0.003840 0.011174 0.040535 0.010939 -0.000997
# 5 0.003014 0.000162 0.012752 0.010939 0.039497 0.000977
# 6 0.002393 0.008757 0.001623 -0.000997 0.000977 0.028653
#
#
# Mechanical properties :
#
#
# Convention : Reuss Voigt Hill
#
# Bulk Modulus (GPa) = 29.61237 51.95027 40.78132
# Shear Modulus (GPa) = 27.64997 37.10442 32.37720
#
# Velocity S-wave (km/s) = 3.41608 3.95725 3.69658
# Velocity P-wave (km/s) = 5.29691 6.54257 5.95242
#
# Compressibility (1/GPa) = 0.03376967
#
# Stress axis : x y z
#
# Youngs Moduli (GPa) = 69.55394 76.85873 50.14684
#
# Poissons Ratio (x) = 0.31167 0.12255
# Poissons Ratio (y) = 0.28205 0.01409
# Poissons Ratio (z) = 0.16998 0.02160
#
# Static dielectric constant tensor:
#      x y z
#    x 2.003150 -0.026600 0.062000 
#    y -0.026600 2.015190 0.063800 
#    z 0.062000 0.063800 2.051190 
# 
# From -- ./inp_files/71262.got.cif
#   From: 2010.05.17/outbox.cif.g08.bks.cpg/sg2_36_cif.got.tgz:71262.got - 2010.06.03 11:33:40.
