data_PCOD9080057
_publ_section_title
;
Structure prediction by ZEFSAII (Michael W. Deem and Ramdas Pophale) SiO2 
 PCOD9080057
Probable space group: P -1
;
_chemical_formula_sum "Si O2"
_cell_formula_units_Z 16
_cell_length_a 11.617147
_cell_length_b 9.230213
_cell_length_c 18.410079
_cell_angle_alpha 135.406050
_cell_angle_beta 30.377575
_cell_angle_gamma 121.189305
_cell_volume 674.508053
_symmetry_space_group_name_H-M "P -1"
_symmetry_group_IT_number 2
_symmetry_cell_setting 'triclinic'
loop_
_space_group_symop_operation_xyz
x,y,z
-x,-y,-z
loop_
_atom_site_type_symbol
_atom_site_label
_atom_site_fract_x
_atom_site_fract_y
_atom_site_fract_z
Si Si1 0.745439 0.720502 0.067750
Si Si2 0.343328 0.282257 0.157873
Si Si3 0.030358 0.368501 0.598691
Si Si4 0.766633 0.130422 0.967533
Si Si5 0.693335 0.323690 0.875745
Si Si6 0.465144 0.874077 0.757635
Si Si7 0.189248 0.722795 0.735572
Si Si8 0.273310 0.075062 0.702394
O O1 0.698707 0.759411 0.191774
O O2 0.549899 0.900523 0.193904
O O3 0.770191 0.476339 0.947234
O O4 0.976724 0.778829 0.930906
O O5 0.157362 0.501111 0.311746
O O6 0.214215 0.095199 0.164631
O O7 0.521112 0.288300 0.128500
O O8 0.536018 0.198369 0.958056
O O9 0.275776 0.222151 0.385364
O O10 0.105171 0.544807 0.671542
O O11 0.905447 0.238338 0.674989
O O12 0.021588 0.173028 0.834869
O O13 0.722282 0.103679 0.067648
O O14 0.500000 0.500000 0.000000
O O15 0.407456 0.716863 0.670070
O O16 0.235107 0.879815 0.703305
O O17 0.500000 0.000000 0.500000
#
# Coordination Sequence:
#
# PCOD9080057 Si02
#       8
#     2   2   2   2   2   2   2   2
#     4  10  19  38  66  88 119 162 205 249 313 370
#     4  10  22  40  61  82 122 173 201 247 300 373
#     4  10  20  35  60  91 121 153 203 256 298 358
#     4  11  21  41  62  84 121 171 207 237 315 376
#     4   9  19  39  61  85 121 158 207 252 305 355
#     4  11  19  33  62  92 115 158 206 247 303 369
#     4  10  18  38  62  86 122 158 202 246 313 364
#     4  11  21  37  63  95 124 155 206 265 305 360
#
# _framework density 23.720991999999999
#
# number of rings (size 3 to 8) (size 9 to 14) (size 15 to 20)
#    0.000    1.750    3.750    2.625    0.000    2.500 
#    2.250   11.250    0.000    0.000    0.000    0.000 
#    0.000    0.000    0.000    0.000    0.000    0.000 
#
# Total GULP energy -89180.156002 kJ/mol
# GULP energy per Si atom -5573.759750 kJ/mol
# Density = 2.366700 g / cm^3
# Si number density = 23.720992 Si / 1000 Ang^3
#
#
#
# Elastic Constant Matrix: (Units=GPa)
#
#
# Indices 1 2 3 4 5 6 
#
# 1 130.2057 24.9893 49.7491 2.4831 -18.8817 -17.5636
# 2 24.9893 30.8546 17.5284 -6.1354 -4.6087 0.5102
# 3 49.7491 17.5284 141.8577 -18.0131 -16.3538 -10.9454
# 4 2.4831 -6.1354 -18.0131 23.0285 -5.0732 -0.9552
# 5 -18.8817 -4.6087 -16.3538 -5.0732 38.7974 7.0192
# 6 -17.5636 0.5102 -10.9454 -0.9552 7.0192 33.2952
#
#
#
# Elastic Compliance Matrix: (Units=1/GPa)
#
#
# Indices 1 2 3 4 5 6 
#
# 1 0.011452 -0.008390 -0.003097 -0.005318 0.001738 0.004633
# 2 -0.008390 0.042674 -0.000865 0.012073 0.003231 -0.005699
# 3 -0.003097 -0.000865 0.009817 0.008589 0.003448 0.001126
# 4 -0.005318 0.012073 0.008589 0.056091 0.009918 -0.000649
# 5 0.001738 0.003231 0.003448 0.009918 0.030505 -0.004146
# 6 0.004633 -0.005699 0.001126 -0.000649 -0.004146 0.033791
#
#
# Mechanical properties :
#
#
# Convention : Reuss Voigt Hill
#
# Bulk Modulus (GPa) = 25.48430 54.16130 39.82280
# Shear Modulus (GPa) = 22.51100 33.06763 27.78932
#
# Velocity S-wave (km/s) = 3.08391 3.73771 3.42644
# Velocity P-wave (km/s) = 4.84225 6.44279 5.69899
#
# Compressibility (1/GPa) = 0.03923984
#
# Stress axis : x y z
#
# Youngs Moduli (GPa) = 87.32093 23.43340 101.86192
#
# Poissons Ratio (x) = 0.19661 0.31546
# Poissons Ratio (y) = 0.73263 0.08808
# Poissons Ratio (z) = 0.27043 0.02026
#
# Static dielectric constant tensor:
#      x y z
#    x 2.001900 0.007940 -0.009630 
#    y 0.007940 1.974150 0.007840 
#    z -0.009630 0.007840 1.899720 
# 
# From -- ./inp_files/462175.got.cif
#   From: 2010.05.17/outbox.cif.g08.bks.cpg/sg2_232_cif.got.tgz:462175.got - 2010.06.03 11:33:40.
