data_PCOD9080615
_publ_section_title
;
Structure prediction by ZEFSAII (Michael W. Deem and Ramdas Pophale) SiO2 
 PCOD9080615
Probable space group: P -1
;
_chemical_formula_sum "Si O2"
_cell_formula_units_Z 13
_cell_length_a 7.561324
_cell_length_b 16.635329
_cell_length_c 7.329926
_cell_angle_alpha 121.414743
_cell_angle_beta 121.725704
_cell_angle_gamma 104.242603
_cell_volume 466.861961
_symmetry_space_group_name_H-M "P -1"
_symmetry_group_IT_number 2
_symmetry_cell_setting 'triclinic'
loop_
_space_group_symop_operation_xyz
x,y,z
-x,-y,-z
loop_
_atom_site_type_symbol
_atom_site_label
_atom_site_fract_x
_atom_site_fract_y
_atom_site_fract_z
Si Si1 0.314543 0.977838 0.198925
Si Si2 0.680938 0.724875 0.139776
Si Si3 0.966194 0.708454 0.567853
Si Si4 0.854154 0.634538 0.841844
Si Si5 0.170363 0.575602 0.410184
Si Si6 0.000000 0.000000 0.500000
Si Si7 0.347609 0.168754 0.226545
O O1 0.500000 0.000000 0.500000
O O2 0.448052 0.115980 0.347930
O O3 0.251855 0.871552 0.900794
O O4 0.975860 0.896635 0.970284
O O5 0.702215 0.676321 0.281978
O O6 0.831852 0.875173 0.411541
O O7 0.886836 0.731742 0.115066
O O8 0.353624 0.623885 0.757775
O O9 0.934842 0.684368 0.738094
O O10 0.001098 0.618708 0.387195
O O11 0.500000 0.500000 0.500000
O O12 0.987147 0.574920 0.886656
O O13 0.421041 0.674061 0.507826
O O14 0.274450 0.105565 0.911968
#
# Coordination Sequence:
#
# PCOD9080615 Si02
#       7
#     2   2   2   2   2   1   2
#     4  11  25  41  64 101 135 176 225 281 337 410
#     4  10  23  43  69  96 138 179 218 281 337 401
#     4  12  24  43  70 103 130 181 231 274 346 403
#     4  10  23  47  68  98 139 176 227 283 335 402
#     4  10  24  42  69 100 132 179 225 278 332 408
#     4  10  18  40  66  92 130 172 218 268 332 398
#     4  10  23  42  66  94 138 176 216 280 344 395
#
# _framework density 27.845488
#
# number of rings (size 3 to 8) (size 9 to 14) (size 15 to 20)
#    0.000    1.538    1.538    3.231    4.308    7.385 
#    0.000    4.615    0.000    0.000    0.000    0.000 
#    0.000    0.000    0.000    0.000    0.000    0.000 
#
# Total GULP energy -72618.911581 kJ/mol
# GULP energy per Si atom -5586.070122 kJ/mol
# Density = 2.778211 g / cm^3
# Si number density = 27.845488 Si / 1000 Ang^3
#
#
#
# Elastic Constant Matrix: (Units=GPa)
#
#
# Indices 1 2 3 4 5 6 
#
# 1 97.7240 25.3319 7.7880 -4.1311 -1.6755 -2.9643
# 2 25.3319 202.4070 40.3081 -13.3804 -3.3315 -13.6653
# 3 7.7880 40.3081 77.0459 -28.8964 -8.5846 -10.3134
# 4 -4.1311 -13.3804 -28.8964 57.7800 -3.6039 1.9692
# 5 -1.6755 -3.3315 -8.5846 -3.6039 24.3668 -3.7165
# 6 -2.9643 -13.6653 -10.3134 1.9692 -3.7165 38.1290
#
#
#
# Elastic Compliance Matrix: (Units=1/GPa)
#
#
# Indices 1 2 3 4 5 6 
#
# 1 0.010605 -0.001234 -0.000145 0.000426 0.000631 0.000382
# 2 -0.001234 0.005717 -0.002803 -0.000216 -0.000141 0.001192
# 3 -0.000145 -0.002803 0.019619 0.009533 0.008636 0.004640
# 4 0.000426 -0.000216 0.009533 0.022421 0.006988 0.002058
# 5 0.000631 -0.000141 0.008636 0.006988 0.046127 0.006470
# 6 0.000382 0.001192 0.004640 0.002058 0.006470 0.028463
#
#
# Mechanical properties :
#
#
# Convention : Reuss Voigt Hill
#
# Bulk Modulus (GPa) = 36.26266 58.22589 47.24428
# Shear Modulus (GPa) = 33.22072 44.30508 38.76290
#
# Velocity S-wave (km/s) = 3.45779 3.99319 3.73509
# Velocity P-wave (km/s) = 5.38450 6.49742 5.96696
#
# Compressibility (1/GPa) = 0.02757657
#
# Stress axis : x y z
#
# Youngs Moduli (GPa) = 94.29731 174.91227 50.97029
#
# Poissons Ratio (x) = 0.21583 0.00739
# Poissons Ratio (y) = 0.11636 0.14288
# Poissons Ratio (z) = 0.01368 0.49033
#
# Static dielectric constant tensor:
#      x y z
#    x 2.285610 0.031870 0.046500 
#    y 0.031870 1.884680 -0.212450 
#    z 0.046500 -0.212450 1.984090 
# 
# From -- ./inp_files/213410.got.cif
#   From: 2010.05.17/outbox.cif.g08.bks.cpg/sg2_107_cif.got.tgz:213410.got - 2010.06.03 11:33:40.
