data_PCOD9080644
_publ_section_title
;
Structure prediction by ZEFSAII (Michael W. Deem and Ramdas Pophale) SiO2 
 PCOD9080644
Probable space group: P -1
;
_chemical_formula_sum "Si O2"
_cell_formula_units_Z 16
_cell_length_a 8.174884
_cell_length_b 18.666410
_cell_length_c 12.006111
_cell_angle_alpha 126.185822
_cell_angle_beta 87.846620
_cell_angle_gamma 135.105359
_cell_volume 776.424563
_symmetry_space_group_name_H-M "P -1"
_symmetry_group_IT_number 2
_symmetry_cell_setting 'triclinic'
loop_
_space_group_symop_operation_xyz
x,y,z
-x,-y,-z
loop_
_atom_site_type_symbol
_atom_site_label
_atom_site_fract_x
_atom_site_fract_y
_atom_site_fract_z
Si Si1 0.814730 0.002868 0.035112
Si Si2 0.879884 0.344545 0.356919
Si Si3 0.972211 0.393735 0.842448
Si Si4 0.131200 0.394929 0.614691
Si Si5 0.189488 0.332018 0.207134
Si Si6 0.329935 0.018799 0.499096
Si Si7 0.933990 0.226582 0.874819
Si Si8 0.782679 0.052435 0.328768
O O1 0.457225 0.823860 0.844328
O O2 0.850909 0.037424 0.197409
O O3 0.960545 0.153353 0.102932
O O4 0.000000 0.000000 0.000000
O O5 0.000000 0.500000 0.500000
O O6 0.883324 0.315816 0.458943
O O7 0.110319 0.387439 0.320580
O O8 0.035256 0.346165 0.889748
O O9 0.165918 0.468879 0.793503
O O10 0.616328 0.214250 0.644967
O O11 0.000000 0.500000 0.000000
O O12 0.455775 0.535538 0.670948
O O13 0.001959 0.239049 0.508029
O O14 0.135035 0.317699 0.063660
O O15 0.091760 0.881146 0.283563
O O16 0.186441 0.983452 0.587174
O O17 0.500000 0.000000 0.500000
O O18 0.582787 0.089358 0.797425
#
# Coordination Sequence:
#
# PCOD9080644 Si02
#       8
#     2   2   2   2   2   2   2   2
#     4  12  26  44  68  97 129 172 222 271 330 394
#     4  12  27  43  65  96 132 174 218 273 331 389
#     4  10  21  36  64  97 127 167 219 273 321 382
#     4  12  23  41  67  94 133 174 218 268 326 388
#     4  12  26  40  67  98 134 172 219 273 324 395
#     4   8  16  34  62  86 112 164 212 247 313 382
#     4  10  19  40  63  94 118 173 217 257 327 384
#     4  10  18  40  68  86 123 170 215 259 321 381
#
# _framework density 20.607282000000001
#
# number of rings (size 3 to 8) (size 9 to 14) (size 15 to 20)
#    0.000    1.500    6.250    2.250    3.500    2.500 
#    0.000    0.000    0.000    1.500    0.000    0.000 
#    0.000    0.000    0.000    0.000    0.000    0.000 
#
# Total GULP energy -89309.129277 kJ/mol
# GULP energy per Si atom -5581.820580 kJ/mol
# Density = 2.056038 g / cm^3
# Si number density = 20.607282 Si / 1000 Ang^3
#
#
#
# Elastic Constant Matrix: (Units=GPa)
#
#
# Indices 1 2 3 4 5 6 
#
# 1 54.3115 28.1663 45.6765 -15.0219 -25.8061 13.0218
# 2 28.1663 84.9547 32.7424 -21.8442 -9.1048 12.3316
# 3 45.6765 32.7424 111.6820 -25.4370 -17.9922 8.8728
# 4 -15.0219 -21.8442 -25.4370 48.9775 -4.3420 -4.8404
# 5 -25.8061 -9.1048 -17.9922 -4.3420 26.1567 -3.4700
# 6 13.0218 12.3316 8.8728 -4.8404 -3.4700 20.5577
#
#
#
# Elastic Compliance Matrix: (Units=1/GPa)
#
#
# Indices 1 2 3 4 5 6 
#
# 1 0.066089 -0.004553 -0.011702 0.014960 0.055236 -0.021235
# 2 -0.004553 0.015646 -0.001304 0.004437 0.000148 -0.004869
# 3 -0.011702 -0.001304 0.014556 0.003550 -0.001056 0.002569
# 4 0.014960 0.004437 0.003550 0.030667 0.023508 -0.002481
# 5 0.055236 0.000148 -0.001056 0.023508 0.094205 -0.013185
# 6 -0.021235 -0.004869 0.002569 -0.002481 -0.013185 0.061097
#
#
# Mechanical properties :
#
#
# Convention : Reuss Voigt Hill
#
# Bulk Modulus (GPa) = 16.34639 51.56872 33.95756
# Shear Modulus (GPa) = 14.80297 28.76258 21.78278
#
# Velocity S-wave (km/s) = 2.68309 3.74002 3.25475
# Velocity P-wave (km/s) = 4.18905 6.61281 5.53522
#
# Compressibility (1/GPa) = 0.06117558
#
# Stress axis : x y z
#
# Youngs Moduli (GPa) = 15.13102 63.91232 68.69824
#
# Poissons Ratio (x) = 0.29097 0.80389
# Poissons Ratio (y) = 0.06889 0.08957
# Poissons Ratio (z) = 0.17706 0.08333
#
# Static dielectric constant tensor:
#      x y z
#    x 1.742230 -0.009720 0.011500 
#    y -0.009720 1.810030 -0.014290 
#    z 0.011500 -0.014290 1.771290 
# 
# From -- ./inp_files/405518.got.cif
#   From: 2010.05.17/outbox.cif.g08.bks.cpg/sg2_203_cif.got.tgz:405518.got - 2010.06.03 11:33:40.
