data_PCOD9080213
_publ_section_title
;
Structure prediction by ZEFSAII (Michael W. Deem and Ramdas Pophale) SiO2 
 PCOD9080213
Probable space group: P -1
;
_chemical_formula_sum "Si O2"
_cell_formula_units_Z 16
_cell_length_a 13.945494
_cell_length_b 13.270228
_cell_length_c 12.010430
_cell_angle_alpha 28.391360
_cell_angle_beta 55.356127
_cell_angle_gamma 44.049057
_cell_volume 720.979012
_symmetry_space_group_name_H-M "P -1"
_symmetry_group_IT_number 2
_symmetry_cell_setting 'triclinic'
loop_
_space_group_symop_operation_xyz
x,y,z
-x,-y,-z
loop_
_atom_site_type_symbol
_atom_site_label
_atom_site_fract_x
_atom_site_fract_y
_atom_site_fract_z
Si Si1 0.295862 0.909520 0.032740
Si Si2 0.063803 0.836410 0.229376
Si Si3 0.884725 0.269789 0.104466
Si Si4 0.600930 0.594129 0.863050
Si Si5 0.454172 0.111404 0.045575
Si Si6 0.124477 0.539968 0.849703
Si Si7 0.405208 0.116217 0.612675
Si Si8 0.070435 0.454471 0.735864
O O1 0.294579 0.045203 0.786806
O O2 0.196689 0.154634 0.939007
O O3 0.456806 0.762604 0.109366
O O4 0.221982 0.762557 0.210167
O O5 0.059287 0.592479 0.494073
O O6 0.976615 0.025534 0.204873
O O7 0.000000 0.000000 0.000000
O O8 0.727455 0.391065 0.052724
O O9 0.896723 0.253972 0.245395
O O10 0.106269 0.579524 0.690871
O O11 0.647170 0.647749 0.662556
O O12 0.525838 0.861552 0.717610
O O13 0.500000 0.500000 0.000000
O O14 0.287228 0.298958 0.990251
O O15 0.525944 0.889264 0.308865
O O16 0.500000 0.000000 0.000000
O O17 0.067512 0.541135 0.148341
O O18 0.000000 0.500000 0.000000
#
# Coordination Sequence:
#
# PCOD9080213 Si02
#       8
#     2   2   2   2   2   2   2   2
#     4   9  21  39  61  88 122 153 205 246 301 362
#     4  11  26  38  59  92 122 162 207 248 299 370
#     4  10  23  40  61  86 123 162 199 253 306 360
#     4  11  23  38  60  89 121 155 205 248 303 363
#     4  10  18  38  66  91 119 163 203 248 311 363
#     4  10  19  40  65  89 121 159 203 253 306 369
#     4   9  22  38  61  86 121 154 198 248 304 358
#     4  10  22  39  63  88 119 159 201 250 310 356
#
# _framework density 22.192046999999999
#
# number of rings (size 3 to 8) (size 9 to 14) (size 15 to 20)
#    0.750    1.250    2.500    0.000    5.250    2.500 
#    0.000    1.875    0.000    0.000    0.000    0.000 
#    0.000    0.000    0.000    0.000    0.000    0.000 
#
# Total GULP energy -89144.258295 kJ/mol
# GULP energy per Si atom -5571.516143 kJ/mol
# Density = 2.214154 g / cm^3
# Si number density = 22.192047 Si / 1000 Ang^3
#
#
#
# Elastic Constant Matrix: (Units=GPa)
#
#
# Indices 1 2 3 4 5 6 
#
# 1 116.5717 17.0155 13.8220 2.0776 4.3912 -12.2595
# 2 17.0155 105.9181 1.7937 -3.3713 8.8115 10.4535
# 3 13.8220 1.7937 44.6753 10.7570 6.8638 9.4343
# 4 2.0776 -3.3713 10.7570 26.2548 -0.4884 2.2669
# 5 4.3912 8.8115 6.8638 -0.4884 19.7764 12.1861
# 6 -12.2595 10.4535 9.4343 2.2669 12.1861 39.8629
#
#
#
# Elastic Compliance Matrix: (Units=1/GPa)
#
#
# Indices 1 2 3 4 5 6 
#
# 1 0.009979 -0.001791 -0.003609 -0.000080 -0.003545 0.005481
# 2 -0.001791 0.010250 0.000818 0.001300 -0.002785 -0.002655
# 3 -0.003609 0.000818 0.028182 -0.010799 -0.006238 -0.005473
# 4 -0.000080 0.001300 -0.010799 0.042952 0.005425 -0.001911
# 5 -0.003545 -0.002785 -0.006238 0.005425 0.067019 -0.019680
# 6 0.005481 -0.002655 -0.005473 -0.001911 -0.019680 0.034888
#
#
# Mechanical properties :
#
#
# Convention : Reuss Voigt Hill
#
# Bulk Modulus (GPa) = 25.47917 36.93639 31.20778
# Shear Modulus (GPa) = 23.20013 32.81440 28.00726
#
# Velocity S-wave (km/s) = 3.23681 3.84950 3.55638
# Velocity P-wave (km/s) = 5.04732 6.03642 5.56389
#
# Compressibility (1/GPa) = 0.03924775
#
# Stress axis : x y z
#
# Youngs Moduli (GPa) = 100.20993 97.55938 35.48370
#
# Poissons Ratio (x) = 0.17469 0.12806
# Poissons Ratio (y) = 0.17943 -0.02902
# Poissons Ratio (z) = 0.36166 -0.07980
#
# Static dielectric constant tensor:
#      x y z
#    x 1.822410 0.008100 0.015510 
#    y 0.008100 1.909470 -0.027510 
#    z 0.015510 -0.027510 1.894580 
# 
# From -- ./inp_files/450910.got.cif
#   From: 2010.05.17/outbox.cif.g08.bks.cpg/sg2_226_cif.got.tgz:450910.got - 2010.06.03 11:33:40.
