data_PCOD9080982
_publ_section_title
;
Structure prediction by ZEFSAII (Michael W. Deem and Ramdas Pophale) SiO2 
 PCOD9080982
Probable space group: P -1
;
_chemical_formula_sum "Si O2"
_cell_formula_units_Z 14
_cell_length_a 7.809184
_cell_length_b 13.551324
_cell_length_c 11.356650
_cell_angle_alpha 138.530330
_cell_angle_beta 82.615679
_cell_angle_gamma 64.129870
_cell_volume 461.712864
_symmetry_space_group_name_H-M "P -1"
_symmetry_group_IT_number 2
_symmetry_cell_setting 'triclinic'
loop_
_space_group_symop_operation_xyz
x,y,z
-x,-y,-z
loop_
_atom_site_type_symbol
_atom_site_label
_atom_site_fract_x
_atom_site_fract_y
_atom_site_fract_z
Si Si1 0.880711 0.742720 0.858015
Si Si2 0.828754 0.710798 0.558528
Si Si3 0.387706 0.804111 0.695788
Si Si4 0.036259 0.218578 0.763290
Si Si5 0.387631 0.267579 0.710865
Si Si6 0.680808 0.314199 0.159565
Si Si7 0.775653 0.034334 0.690554
O O1 0.868150 0.740435 0.715224
O O2 0.841593 0.596492 0.778791
O O3 0.977757 0.865518 0.994453
O O4 0.554743 0.044966 0.187745
O O5 0.762548 0.557621 0.423587
O O6 0.819078 0.860144 0.608456
O O7 0.409628 0.623716 0.466607
O O8 0.369831 0.766010 0.801244
O O9 0.193906 0.255209 0.722426
O O10 0.963944 0.164910 0.611924
O O11 0.305079 0.969334 0.594626
O O12 0.786768 0.469966 0.084447
O O13 0.500130 0.221191 0.791008
O O14 0.742426 0.197876 0.923909
#
# Coordination Sequence:
#
# PCOD9080982 Si02
#       7
#     2   2   2   2   2   2   2
#     4  10  20  35  47  65 102 147 178 221 266 313
#     4  10  21  33  49  73 100 142 187 220 269 313
#     4  10  20  35  47  65 102 147 178 221 266 313
#     4   8  16  32  51  78 113 138 165 221 284 330
#     4   8  16  32  51  78 113 138 165 221 284 330
#     4  10  21  33  49  73 100 142 187 220 269 313
#     4  10  19  30  50  82 104 136 184 228 263 328
#
# _framework density 30.321876
#
# number of rings (size 3 to 8) (size 9 to 14) (size 15 to 20)
#    0.857    1.714    1.429    0.857    0.000    2.286 
#    5.143    0.000    0.000    0.000    0.000   16.000 
#    0.000   27.429    0.000    0.000    0.000    0.000 
#
# Total GULP energy -78130.151849 kJ/mol
# GULP energy per Si atom -5580.725132 kJ/mol
# Density = 3.025286 g / cm^3
# Si number density = 30.321876 Si / 1000 Ang^3
#
#
#
# Elastic Constant Matrix: (Units=GPa)
#
#
# Indices 1 2 3 4 5 6 
#
# 1 101.3100 56.0150 49.9096 12.1853 28.7983 1.8656
# 2 56.0150 119.2029 94.9144 -8.9835 20.1049 -17.3289
# 3 49.9096 94.9144 349.7441 76.1682 21.0608 -7.3676
# 4 12.1853 -8.9835 76.1682 89.3596 -6.5540 19.7169
# 5 28.7983 20.1049 21.0608 -6.5540 49.0960 -0.4482
# 6 1.8656 -17.3289 -7.3676 19.7169 -0.4482 47.5122
#
#
#
# Elastic Compliance Matrix: (Units=1/GPa)
#
#
# Indices 1 2 3 4 5 6 
#
# 1 0.016291 -0.007855 0.001116 -0.004132 -0.007385 -0.001687
# 2 -0.007855 0.016618 -0.004692 0.006101 0.000658 0.003116
# 3 0.001116 -0.004692 0.005327 -0.005596 -0.001753 0.001377
# 4 -0.004132 0.006101 -0.005596 0.018872 0.004788 -0.006267
# 5 -0.007385 0.000658 -0.001753 0.004788 0.025808 -0.001485
# 6 -0.001687 0.003116 0.001377 -0.006267 -0.001485 0.025050
#
#
# Mechanical properties :
#
#
# Convention : Reuss Voigt Hill
#
# Bulk Modulus (GPa) = 65.04407 107.99279 86.51843
# Shear Modulus (GPa) = 36.77775 61.82144 49.29960
#
# Velocity S-wave (km/s) = 3.48647 4.52025 4.03659
# Velocity P-wave (km/s) = 6.14044 7.93324 7.09371
#
# Compressibility (1/GPa) = 0.01537419
#
# Stress axis : x y z
#
# Youngs Moduli (GPa) = 61.38215 60.17667 187.73812
#
# Poissons Ratio (x) = 0.47269 -0.20951
# Poissons Ratio (y) = 0.48216 0.88079
# Poissons Ratio (z) = -0.06850 0.28232
#
# Static dielectric constant tensor:
#      x y z
#    x 2.497780 -0.047870 -0.013250 
#    y -0.047870 2.160080 0.058950 
#    z -0.013250 0.058950 2.511160 
# 
# From -- ./inp_files/506816.got.cif
#   From: 2010.05.17/outbox.cif.g08.bks.cpg/sg2_254_cif.got.tgz:506816.got - 2010.06.03 11:33:40.
