data_PCOD9080551
_publ_section_title
;
Structure prediction by ZEFSAII (Michael W. Deem and Ramdas Pophale) SiO2 
 PCOD9080551
Probable space group: P -1
;
_chemical_formula_sum "Si O2"
_cell_formula_units_Z 13
_cell_length_a 9.462327
_cell_length_b 6.411861
_cell_length_c 12.190404
_cell_angle_alpha 76.593471
_cell_angle_beta 128.619956
_cell_angle_gamma 115.374267
_cell_volume 521.444438
_symmetry_space_group_name_H-M "P -1"
_symmetry_group_IT_number 2
_symmetry_cell_setting 'triclinic'
loop_
_space_group_symop_operation_xyz
x,y,z
-x,-y,-z
loop_
_atom_site_type_symbol
_atom_site_label
_atom_site_fract_x
_atom_site_fract_y
_atom_site_fract_z
Si Si1 0.202559 0.545512 0.769443
Si Si2 0.540841 0.030374 0.859576
Si Si3 0.174862 0.017215 0.449733
Si Si4 0.678566 0.909061 0.717310
Si Si5 0.394063 0.399435 0.680915
Si Si6 0.000000 0.500000 0.500000
Si Si7 0.893545 0.941658 0.137923
O O1 0.370832 0.789173 0.841220
O O2 0.240267 0.473951 0.667742
O O3 0.201937 0.338924 0.872242
O O4 0.984868 0.506949 0.635277
O O5 0.586657 0.014701 0.754274
O O6 0.477277 0.246773 0.816586
O O7 0.736666 0.044379 0.013333
O O8 0.307875 0.010331 0.411207
O O9 0.286215 0.236260 0.550361
O O10 0.115523 0.789487 0.520335
O O11 0.979677 0.014653 0.293290
O O12 0.563289 0.634588 0.700068
O O13 0.907888 0.972045 0.846421
#
# Coordination Sequence:
#
# PCOD9080551 Si02
#       7
#     2   2   2   2   2   1   2
#     4  10  22  40  62  88 121 149 204 245 292 347
#     4  11  21  40  64  85 120 161 193 240 301 346
#     4   9  20  39  59  90 115 153 199 240 292 343
#     4   9  22  40  60  86 123 154 200 240 287 354
#     4  11  22  38  62  88 122 156 192 246 294 350
#     4  10  18  40  62  86 112 158 194 242 292 342
#     4   9  21  39  62  87 119 158 198 242 291 349
#
# _framework density 24.930748000000001
#
# number of rings (size 3 to 8) (size 9 to 14) (size 15 to 20)
#    0.923    1.231    1.538    1.385    0.000    4.308 
#    2.769    1.538    6.769    0.000    0.000    0.000 
#    0.000    0.000    0.000    0.000    0.000    0.000 
#
# Total GULP energy -72542.104862 kJ/mol
# GULP energy per Si atom -5580.161912 kJ/mol
# Density = 2.487400 g / cm^3
# Si number density = 24.930748 Si / 1000 Ang^3
#
#
#
# Elastic Constant Matrix: (Units=GPa)
#
#
# Indices 1 2 3 4 5 6 
#
# 1 108.0488 64.8987 33.2207 0.9646 8.3879 11.3258
# 2 64.8987 122.1665 17.0682 -10.1113 3.7049 23.0501
# 3 33.2207 17.0682 89.4703 -17.6997 17.8482 -12.5657
# 4 0.9646 -10.1113 -17.6997 32.0865 -4.9946 4.4669
# 5 8.3879 3.7049 17.8482 -4.9946 45.4177 -1.0393
# 6 11.3258 23.0501 -12.5657 4.4669 -1.0393 41.8170
#
#
#
# Elastic Compliance Matrix: (Units=1/GPa)
#
#
# Indices 1 2 3 4 5 6 
#
# 1 0.016010 -0.008021 -0.005595 -0.006085 -0.000795 -0.000966
# 2 -0.008021 0.013971 0.000500 0.005855 0.000652 -0.005988
# 3 -0.005595 0.000500 0.016342 0.007927 -0.004439 0.005193
# 4 -0.006085 0.005855 0.007927 0.038277 0.001666 -0.003245
# 5 -0.000795 0.000652 -0.004439 0.001666 0.024015 -0.001059
# 6 -0.000966 -0.005988 0.005193 -0.003245 -0.001059 0.029357
#
#
# Mechanical properties :
#
#
# Convention : Reuss Voigt Hill
#
# Bulk Modulus (GPa) = 49.77241 61.11788 55.44514
# Shear Modulus (GPa) = 29.25664 37.49745 33.37704
#
# Velocity S-wave (km/s) = 3.42938 3.88243 3.66292
# Velocity P-wave (km/s) = 5.97398 6.68326 6.33855
#
# Compressibility (1/GPa) = 0.02009145
#
# Stress axis : x y z
#
# Youngs Moduli (GPa) = 62.45988 71.57682 61.19161
#
# Poissons Ratio (x) = 0.57409 0.34239
# Poissons Ratio (y) = 0.50096 -0.03060
# Poissons Ratio (z) = 0.34949 -0.03579
#
# Static dielectric constant tensor:
#      x y z
#    x 2.050200 -0.052920 0.075900 
#    y -0.052920 1.924040 -0.011340 
#    z 0.075900 -0.011340 2.197630 
# 
# From -- ./inp_files/88759.got.cif
#   From: 2010.05.17/outbox.cif.g08.bks.cpg/sg2_45_cif.got.tgz:88759.got - 2010.06.03 11:33:40.
