data_PCOD9080137
_publ_section_title
;
Structure prediction by ZEFSAII (Michael W. Deem and Ramdas Pophale) SiO2 
 PCOD9080137
Probable space group: P -1
;
_chemical_formula_sum "Si O2"
_cell_formula_units_Z 11
_cell_length_a 15.224037
_cell_length_b 11.350960
_cell_length_c 7.111354
_cell_angle_alpha 54.871037
_cell_angle_beta 47.431909
_cell_angle_gamma 26.544758
_cell_volume 402.809136
_symmetry_space_group_name_H-M "P -1"
_symmetry_group_IT_number 2
_symmetry_cell_setting 'triclinic'
loop_
_space_group_symop_operation_xyz
x,y,z
-x,-y,-z
loop_
_atom_site_type_symbol
_atom_site_label
_atom_site_fract_x
_atom_site_fract_y
_atom_site_fract_z
Si Si1 0.632933 0.718745 0.574118
Si Si2 0.000000 0.000000 0.500000
Si Si3 0.851780 0.749044 0.808240
Si Si4 0.301360 0.902981 0.611745
Si Si5 0.031223 0.678778 0.972124
Si Si6 0.306226 0.620411 0.053764
O O1 0.889197 0.496303 0.388367
O O2 0.632283 0.607798 0.852581
O O3 0.500000 0.000000 0.500000
O O4 0.511256 0.751111 0.557453
O O5 0.092106 0.763837 0.699262
O O6 0.108283 0.831424 0.296186
O O7 0.844600 0.808772 0.977674
O O8 0.720061 0.992587 0.647491
O O9 0.809267 0.621425 0.963545
O O10 0.089878 0.163113 0.804112
O O11 0.293606 0.737089 0.784745
O O12 0.500000 0.500000 0.000000
#
# Coordination Sequence:
#
# PCOD9080137 Si02
#       6
#     2   1   2   2   2   2
#     4  11  21  38  63  93 128 162 212 266 316 381
#     4  10  18  38  64  90 128 172 206 266 334 370
#     4  11  22  40  64  93 124 168 215 256 326 387
#     4  10  22  41  65  90 124 170 212 260 324 385
#     4  10  21  38  61  91 127 159 209 269 306 382
#     4   9  20  38  64  90 129 170 209 269 323 379
#
# _framework density 27.308219000000001
#
# number of rings (size 3 to 8) (size 9 to 14) (size 15 to 20)
#    0.000    1.818    3.636    0.545    0.000    0.727 
#    0.000    5.455    0.000    9.818    0.000    0.000 
#    0.000    0.000    0.000    0.000    0.000    0.000 
#
# Total GULP energy -61249.825756 kJ/mol
# GULP energy per Si atom -5568.165978 kJ/mol
# Density = 2.724606 g / cm^3
# Si number density = 27.308219 Si / 1000 Ang^3
#
#
#
# Elastic Constant Matrix: (Units=GPa)
#
#
# Indices 1 2 3 4 5 6 
#
# 1 65.1839 27.7291 43.3676 -21.3897 -8.1565 -5.8642
# 2 27.7291 121.2169 67.3488 -37.7753 -19.4083 13.8765
# 3 43.3676 67.3488 199.1396 -66.3365 -11.0076 9.9567
# 4 -21.3897 -37.7753 -66.3365 66.3269 5.6676 -8.0932
# 5 -8.1565 -19.4083 -11.0076 5.6676 39.5783 -8.9264
# 6 -5.8642 13.8765 9.9567 -8.0932 -8.9264 45.1402
#
#
#
# Elastic Compliance Matrix: (Units=1/GPa)
#
#
# Indices 1 2 3 4 5 6 
#
# 1 0.019828 -0.002265 -0.002728 0.002728 0.002941 0.004945
# 2 -0.002265 0.011810 -0.002073 0.003340 0.003792 -0.002119
# 3 -0.002728 -0.002073 0.008440 0.006343 -0.000250 -0.000491
# 4 0.002728 0.003340 0.006343 0.024421 0.001034 0.002511
# 5 0.002941 0.003792 -0.000250 0.001034 0.028671 0.005126
# 6 0.004945 -0.002119 -0.000491 0.002511 0.005126 0.025019
#
#
# Mechanical properties :
#
#
# Convention : Reuss Voigt Hill
#
# Bulk Modulus (GPa) = 38.54042 73.60347 56.07194
# Shear Modulus (GPa) = 35.46892 46.68209 41.07551
#
# Velocity S-wave (km/s) = 3.60785 4.13904 3.88254
# Velocity P-wave (km/s) = 5.61241 7.06070 6.37780
#
# Compressibility (1/GPa) = 0.02594679
#
# Stress axis : x y z
#
# Youngs Moduli (GPa) = 50.43457 84.67399 118.48022
#
# Poissons Ratio (x) = 0.19179 0.32320
# Poissons Ratio (y) = 0.11424 0.24557
# Poissons Ratio (z) = 0.13758 0.17550
#
# Static dielectric constant tensor:
#      x y z
#    x 2.172310 0.008130 -0.012220 
#    y 0.008130 2.232060 0.045590 
#    z -0.012220 0.045590 2.214680 
# 
# From -- ./inp_files/236487.got.cif
#   From: 2010.05.17/outbox.cif.g08.bks.cpg/sg2_119_cif.got.tgz:236487.got - 2010.06.03 11:33:40.
