data_PCOD9080214
_publ_section_title
;
Structure prediction by ZEFSAII (Michael W. Deem and Ramdas Pophale) SiO2 
 PCOD9080214
Probable space group: P -1
;
_chemical_formula_sum "Si O2"
_cell_formula_units_Z 16
_cell_length_a 12.266293
_cell_length_b 12.163958
_cell_length_c 11.797869
_cell_angle_alpha 131.259948
_cell_angle_beta 54.171035
_cell_angle_gamma 144.945608
_cell_volume 755.794582
_symmetry_space_group_name_H-M "P -1"
_symmetry_group_IT_number 2
_symmetry_cell_setting 'triclinic'
loop_
_space_group_symop_operation_xyz
x,y,z
-x,-y,-z
loop_
_atom_site_type_symbol
_atom_site_label
_atom_site_fract_x
_atom_site_fract_y
_atom_site_fract_z
Si Si1 0.226527 0.194733 0.433867
Si Si2 0.721533 0.588383 0.219788
Si Si3 0.854085 0.421353 0.135707
Si Si4 0.916600 0.157718 0.990663
Si Si5 0.111768 0.854436 0.395607
Si Si6 0.921533 0.638029 0.729153
Si Si7 0.334612 0.319351 0.207684
Si Si8 0.277149 0.827996 0.486234
O O1 0.275573 0.304050 0.599266
O O2 0.347496 0.330577 0.344361
O O3 0.027247 0.118959 0.469115
O O4 0.220745 0.015770 0.334769
O O5 0.698763 0.407466 0.164185
O O6 0.925709 0.747669 0.139540
O O7 0.558675 0.497828 0.165707
O O8 0.972755 0.614827 0.282289
O O9 0.000000 0.500000 0.000000
O O10 0.808836 0.229506 0.085168
O O11 0.032122 0.263278 0.108805
O O12 0.770053 0.911371 0.917425
O O13 0.246316 0.905801 0.448066
O O14 0.791940 0.648220 0.742110
O O15 0.803500 0.395925 0.644398
O O16 0.125913 0.768406 0.631971
O O17 0.500000 0.000000 0.500000
#
# Coordination Sequence:
#
# PCOD9080214 Si02
#       8
#     2   2   2   2   2   2   2   2
#     4  10  20  38  65  95 129 161 205 270 317 370
#     4  10  24  38  66  98 123 173 212 258 318 374
#     4   9  18  38  61  86 128 162 202 257 312 368
#     4  11  23  43  63  89 132 174 208 260 317 370
#     4  10  18  38  66  91 121 166 205 259 325 367
#     4  11  26  45  65  93 132 167 208 267 313 376
#     4  12  24  41  64  97 131 165 217 259 312 380
#     4  11  25  44  69  94 123 168 214 259 319 380
#
# _framework density 21.169774
#
# number of rings (size 3 to 8) (size 9 to 14) (size 15 to 20)
#    0.000    1.500    2.500    3.750    1.750    2.000 
#    2.250    0.000    0.000    0.000    0.000    0.000 
#    0.000    0.000    0.000    0.000    0.000    0.000 
#
# Total GULP energy -89257.689177 kJ/mol
# GULP energy per Si atom -5578.605574 kJ/mol
# Density = 2.112159 g / cm^3
# Si number density = 21.169774 Si / 1000 Ang^3
#
#
#
# Elastic Constant Matrix: (Units=GPa)
#
#
# Indices 1 2 3 4 5 6 
#
# 1 159.1244 60.2245 41.0996 17.7641 5.4794 9.3461
# 2 60.2245 52.3049 26.2227 17.8473 -3.5975 4.4348
# 3 41.0996 26.2227 97.0717 17.5426 9.2130 0.7714
# 4 17.7641 17.8473 17.5426 18.2303 -9.7439 1.1680
# 5 5.4794 -3.5975 9.2130 -9.7439 28.9695 4.4208
# 6 9.3461 4.4348 0.7714 1.1680 4.4208 39.6781
#
#
#
# Elastic Compliance Matrix: (Units=1/GPa)
#
#
# Indices 1 2 3 4 5 6 
#
# 1 0.011694 -0.013471 -0.001350 0.001689 -0.002740 -0.000967
# 2 -0.013471 0.045902 -0.000602 -0.032448 -0.002363 -0.000727
# 3 -0.001350 -0.000602 0.015654 -0.019516 -0.011660 0.001955
# 4 0.001689 -0.032448 -0.019516 0.128646 0.045936 -0.005297
# 5 -0.002740 -0.002363 -0.011660 0.045936 0.054868 -0.006329
# 6 -0.000967 -0.000727 0.001955 -0.005297 -0.006329 0.026335
#
#
# Mechanical properties :
#
#
# Convention : Reuss Voigt Hill
#
# Bulk Modulus (GPa) = 23.58261 62.62161 43.10211
# Shear Modulus (GPa) = 15.24026 29.43920 22.33973
#
# Velocity S-wave (km/s) = 2.68602 3.73315 3.25201
# Velocity P-wave (km/s) = 4.55890 6.94455 5.87411
#
# Compressibility (1/GPa) = 0.04240413
#
# Stress axis : x y z
#
# Youngs Moduli (GPa) = 85.51506 21.78558 63.88209
#
# Poissons Ratio (x) = 0.29346 0.08623
# Poissons Ratio (y) = 1.15194 0.03848
# Poissons Ratio (z) = 0.11543 0.01312
#
# Static dielectric constant tensor:
#      x y z
#    x 1.747100 0.002200 0.055550 
#    y 0.002200 1.885550 0.010650 
#    z 0.055550 0.010650 1.603820 
# 
# From -- ./inp_files/426678.got.cif
#   From: 2010.05.17/outbox.cif.g08.bks.cpg/sg2_214_cif.got.tgz:426678.got - 2010.06.03 11:33:40.
