data_PCOD9080976
_publ_section_title
;
Structure prediction by ZEFSAII (Michael W. Deem and Ramdas Pophale) SiO2 
 PCOD9080976
Probable space group: P -1
;
_chemical_formula_sum "Si O2"
_cell_formula_units_Z 16
_cell_length_a 8.104122
_cell_length_b 11.765503
_cell_length_c 10.423931
_cell_angle_alpha 114.513767
_cell_angle_beta 68.038115
_cell_angle_gamma 135.012116
_cell_volume 634.285892
_symmetry_space_group_name_H-M "P -1"
_symmetry_group_IT_number 2
_symmetry_cell_setting 'triclinic'
loop_
_space_group_symop_operation_xyz
x,y,z
-x,-y,-z
loop_
_atom_site_type_symbol
_atom_site_label
_atom_site_fract_x
_atom_site_fract_y
_atom_site_fract_z
Si Si1 0.238112 0.034693 0.906605
Si Si2 0.324805 0.669296 0.502745
Si Si3 0.039566 0.927987 0.657527
Si Si4 0.296235 0.852504 0.397870
Si Si5 0.049353 0.671879 0.821808
Si Si6 0.381451 0.689189 0.893561
Si Si7 0.650383 0.579803 0.740645
Si Si8 0.308455 0.043504 0.296155
O O1 0.247598 0.040484 0.751924
O O2 0.184094 0.867356 0.886121
O O3 0.468496 0.205595 0.976335
O O4 0.000000 0.000000 0.000000
O O5 0.258856 0.701291 0.400234
O O6 0.149826 0.649642 0.651473
O O7 0.347972 0.533118 0.412736
O O8 0.576447 0.830191 0.558045
O O9 0.084345 0.847528 0.497896
O O10 0.836990 0.767410 0.723876
O O11 0.946872 0.018839 0.684154
O O12 0.500000 0.000000 0.500000
O O13 0.327204 0.908154 0.268198
O O14 0.123440 0.620114 0.896261
O O15 0.777516 0.582946 0.832578
O O16 0.415922 0.555390 0.806668
O O17 0.534278 0.838008 0.812262
#
# Coordination Sequence:
#
# PCOD9080976 Si02
#       8
#     2   2   2   2   2   2   2   2
#     4  11  17  33  51  74 111 133 169 218 264 306
#     4  10  19  33  49  77 107 141 165 210 263 314
#     4  10  19  32  52  77 102 138 168 215 264 302
#     4  10  19  33  49  70 107 136 176 209 252 307
#     4  10  19  30  50  74 106 136 167 205 263 309
#     4  10  20  33  51  81 104 137 170 213 262 311
#     4  10  19  33  51  76 115 133 166 214 264 318
#     4   9  19  31  50  73 107 132 175 209 248 314
#
# _framework density 25.225218999999999
#
# number of rings (size 3 to 8) (size 9 to 14) (size 15 to 20)
#    0.000    2.000    6.250    1.125    0.000    4.500 
#    0.000    0.000    0.000    0.000    0.000   11.375 
#    0.000    0.000    0.000    0.000    0.000    0.000 
#
# Total GULP energy -89246.138940 kJ/mol
# GULP energy per Si atom -5577.883684 kJ/mol
# Density = 2.516781 g / cm^3
# Si number density = 25.225219 Si / 1000 Ang^3
#
#
#
# Elastic Constant Matrix: (Units=GPa)
#
#
# Indices 1 2 3 4 5 6 
#
# 1 159.0278 20.5467 22.8287 8.1822 -0.2668 -46.6594
# 2 20.5467 48.5675 24.9704 11.4157 2.1245 -25.9819
# 3 22.8287 24.9704 70.8950 16.0947 -15.3805 -26.5685
# 4 8.1822 11.4157 16.0947 30.4406 -10.8952 -6.1618
# 5 -0.2668 2.1245 -15.3805 -10.8952 40.4829 1.8965
# 6 -46.6594 -25.9819 -26.5685 -6.1618 1.8965 33.8796
#
#
#
# Elastic Compliance Matrix: (Units=1/GPa)
#
#
# Indices 1 2 3 4 5 6 
#
# 1 0.012104 0.006763 0.003094 -0.002971 -0.001014 0.023799
# 2 0.006763 0.042495 -0.001538 -0.011835 -0.007781 0.038979
# 3 0.003094 -0.001538 0.024276 -0.006569 0.006593 0.020554
# 4 -0.002971 -0.011835 -0.006569 0.042966 0.010188 -0.011076
# 5 -0.001014 -0.007781 0.006593 0.010188 0.030446 -0.002045
# 6 0.023799 0.038979 0.020554 -0.011076 -0.002045 0.106404
#
#
# Mechanical properties :
#
#
# Convention : Reuss Voigt Hill
#
# Bulk Modulus (GPa) = 10.46999 46.13134 28.30067
# Shear Modulus (GPa) = 18.25544 34.97025 26.61285
#
# Velocity S-wave (km/s) = 2.69308 3.72737 3.25161
# Velocity P-wave (km/s) = 3.71885 6.07058 5.03397
#
# Compressibility (1/GPa) = 0.09551105
#
# Stress axis : x y z
#
# Youngs Moduli (GPa) = 82.61562 23.53243 41.19360
#
# Poissons Ratio (x) = -0.15915 -0.12744
# Poissons Ratio (y) = -0.55874 0.06337
# Poissons Ratio (z) = -0.25559 0.03620
#
# Static dielectric constant tensor:
#      x y z
#    x 2.148850 0.039660 0.000390 
#    y 0.039660 2.048480 -0.084680 
#    z 0.000390 -0.084680 2.052080 
# 
# From -- ./inp_files/260210.got.cif
#   From: 2010.05.17/outbox.cif.g08.bks.cpg/sg2_131_cif.got.tgz:260210.got - 2010.06.03 11:33:40.
