data_PCOD9080969
_publ_section_title
;
Structure prediction by ZEFSAII (Michael W. Deem and Ramdas Pophale) SiO2 
 PCOD9080969
Probable space group: P -1
;
_chemical_formula_sum "Si O2"
_cell_formula_units_Z 16
_cell_length_a 16.165476
_cell_length_b 9.073519
_cell_length_c 13.115202
_cell_angle_alpha 105.372219
_cell_angle_beta 35.356842
_cell_angle_gamma 124.518202
_cell_volume 835.196143
_symmetry_space_group_name_H-M "P -1"
_symmetry_group_IT_number 2
_symmetry_cell_setting 'triclinic'
loop_
_space_group_symop_operation_xyz
x,y,z
-x,-y,-z
loop_
_atom_site_type_symbol
_atom_site_label
_atom_site_fract_x
_atom_site_fract_y
_atom_site_fract_z
Si Si1 0.197965 0.492315 0.001792
Si Si2 0.534085 0.390671 0.605240
Si Si3 0.990753 0.787651 0.040551
Si Si4 0.960370 0.928865 0.411954
Si Si5 0.637147 0.973324 0.413602
Si Si6 0.924656 0.586312 0.286310
Si Si7 0.832672 0.835699 0.942758
Si Si8 0.616365 0.799105 0.607793
O O1 0.142476 0.327651 0.108314
O O2 0.172662 0.380462 0.899258
O O3 0.059722 0.538261 0.158729
O O4 0.408547 0.685150 0.834815
O O5 0.441661 0.246326 0.577259
O O6 0.708786 0.406881 0.464772
O O7 0.604376 0.609450 0.552359
O O8 0.374513 0.279212 0.830341
O O9 0.169706 0.872666 0.808475
O O10 0.978988 0.683880 0.136973
O O11 0.027972 0.983353 0.084827
O O12 0.936534 0.731437 0.382132
O O13 0.781220 0.897182 0.541677
O O14 0.000000 0.000000 0.500000
O O15 0.124512 0.077422 0.196037
O O16 0.653748 0.956204 0.514889
O O17 0.500000 0.000000 0.500000
#
# Coordination Sequence:
#
# PCOD9080969 Si02
#       8
#     2   2   2   2   2   2   2   2
#     4  11  19  33  54  84 116 140 172 224 272 327
#     4   9  19  34  51  78 113 147 177 213 264 331
#     4  10  19  30  49  79 116 152 174 203 263 334
#     4  10  22  43  61  74 100 144 191 235 275 318
#     4  11  19  29  50  84 118 148 176 213 263 322
#     4  10  20  35  55  81 110 146 183 223 270 320
#     4   9  20  35  55  79 105 141 185 220 263 325
#     4  10  21  35  54  79 108 146 184 219 269 327
#
# _framework density 19.157177000000001
#
# number of rings (size 3 to 8) (size 9 to 14) (size 15 to 20)
#    0.000    2.000    0.000    4.125    0.000    7.000 
#    0.000    6.875    0.000    0.000    0.000    0.000 
#    0.000    0.000    0.000    0.000    0.000    0.000 
#
# Total GULP energy -89192.245639 kJ/mol
# GULP energy per Si atom -5574.515352 kJ/mol
# Density = 1.911357 g / cm^3
# Si number density = 19.157177 Si / 1000 Ang^3
#
#
#
# Elastic Constant Matrix: (Units=GPa)
#
#
# Indices 1 2 3 4 5 6 
#
# 1 102.4063 37.5590 57.0033 2.3897 -7.2837 4.8746
# 2 37.5590 47.8179 36.1581 -3.8560 0.7787 4.6097
# 3 57.0033 36.1581 90.3023 -8.0666 -15.2751 0.3223
# 4 2.3897 -3.8560 -8.0666 23.9239 -0.8273 -3.5684
# 5 -7.2837 0.7787 -15.2751 -0.8273 36.8024 13.2112
# 6 4.8746 4.6097 0.3223 -3.5684 13.2112 24.8215
#
#
#
# Elastic Compliance Matrix: (Units=1/GPa)
#
#
# Indices 1 2 3 4 5 6 
#
# 1 0.017684 -0.007729 -0.008401 -0.006326 0.001302 -0.003531
# 2 -0.007729 0.034840 -0.009807 0.002678 -0.005789 -0.001359
# 3 -0.008401 -0.009807 0.022280 0.007039 0.007968 -0.000047
# 4 -0.006326 0.002678 0.007039 0.046326 0.000036 0.007294
# 5 0.001302 -0.005789 0.007968 0.000036 0.037829 -0.019413
# 6 -0.003531 -0.001359 -0.000047 0.007294 -0.019413 0.052616
#
#
# Mechanical properties :
#
#
# Convention : Reuss Voigt Hill
#
# Bulk Modulus (GPa) = 43.60712 55.77414 49.69063
# Shear Modulus (GPa) = 18.44395 24.42994 21.43695
#
# Velocity S-wave (km/s) = 3.10622 3.57492 3.34878
# Velocity P-wave (km/s) = 5.97302 6.79833 6.39899
#
# Compressibility (1/GPa) = 0.02293204
#
# Stress axis : x y z
#
# Youngs Moduli (GPa) = 56.54787 28.70250 44.88263
#
# Poissons Ratio (x) = 0.22184 0.37704
# Poissons Ratio (y) = 0.43705 0.44015
# Poissons Ratio (z) = 0.47504 0.28148
#
# Static dielectric constant tensor:
#      x y z
#    x 1.688520 -0.022270 -0.035620 
#    y -0.022270 1.724480 -0.010790 
#    z -0.035620 -0.010790 1.682620 
# 
# From -- ./inp_files/195836.got.cif
#   From: 2010.05.17/outbox.cif.g08.bks.cpg/sg2_98_cif.got.tgz:195836.got - 2010.06.03 11:33:40.
