data_PCOD9080654
_publ_section_title
;
Structure prediction by ZEFSAII (Michael W. Deem and Ramdas Pophale) SiO2 
 PCOD9080654
Probable space group: P -1
;
_chemical_formula_sum "Si O2"
_cell_formula_units_Z 16
_cell_length_a 16.905041
_cell_length_b 11.663259
_cell_length_c 9.337045
_cell_angle_alpha 39.409778
_cell_angle_beta 82.626910
_cell_angle_gamma 55.077219
_cell_volume 764.343783
_symmetry_space_group_name_H-M "P -1"
_symmetry_group_IT_number 2
_symmetry_cell_setting 'triclinic'
loop_
_space_group_symop_operation_xyz
x,y,z
-x,-y,-z
loop_
_atom_site_type_symbol
_atom_site_label
_atom_site_fract_x
_atom_site_fract_y
_atom_site_fract_z
Si Si1 0.745690 0.860446 0.363575
Si Si2 0.659167 0.689381 0.727139
Si Si3 0.960200 0.630935 0.723596
Si Si4 0.783951 0.774127 0.103983
Si Si5 0.602503 0.375989 0.483795
Si Si6 0.664978 0.641739 0.096324
Si Si7 0.130132 0.840154 0.671406
Si Si8 0.446821 0.508193 0.148288
O O1 0.659432 0.861297 0.460650
O O2 0.867008 0.671299 0.613571
O O3 0.779481 0.754791 0.294715
O O4 0.666372 0.178624 0.075013
O O5 0.598741 0.615907 0.745834
O O6 0.614746 0.782402 0.813910
O O7 0.801209 0.400710 0.997992
O O8 0.082246 0.460036 0.770027
O O9 0.882916 0.941369 0.472767
O O10 0.000000 0.500000 0.000000
O O11 0.704499 0.750284 0.070541
O O12 0.726105 0.069783 0.799411
O O13 0.500000 0.500000 0.500000
O O14 0.596093 0.602283 0.236793
O O15 0.559131 0.342867 0.386419
O O16 0.783988 0.325054 0.326423
O O17 0.000000 0.000000 0.500000
O O18 0.500000 0.500000 0.000000
#
# Coordination Sequence:
#
# PCOD9080654 Si02
#       8
#     2   2   2   2   2   2   2   2
#     4  12  26  45  67 108 138 178 225 284 352 405
#     4  10  24  42  69 100 134 173 234 285 336 404
#     4  12  23  44  75 100 140 181 227 285 337 419
#     4  12  27  44  70 102 144 179 226 282 353 419
#     4  12  27  47  67  99 140 187 229 287 353 408
#     4  10  23  43  69 100 132 181 232 279 342 410
#     4  10  18  40  69 102 132 169 229 277 333 403
#     4  12  25  46  71  97 136 182 238 289 331 408
#
# _framework density 20.932988999999999
#
# number of rings (size 3 to 8) (size 9 to 14) (size 15 to 20)
#    0.750    0.000    5.000    2.625    5.250    2.000 
#    0.000    0.625    0.000    0.000    0.000    0.000 
#    0.000    0.000    0.000    0.000    0.000    0.000 
#
# Total GULP energy -89302.954316 kJ/mol
# GULP energy per Si atom -5581.434645 kJ/mol
# Density = 2.088534 g / cm^3
# Si number density = 20.932989 Si / 1000 Ang^3
#
#
#
# Elastic Constant Matrix: (Units=GPa)
#
#
# Indices 1 2 3 4 5 6 
#
# 1 122.9193 30.3911 27.0999 21.3015 -20.3976 7.8338
# 2 30.3911 118.2913 30.9563 16.7663 -15.2316 0.6422
# 3 27.0999 30.9563 89.6090 4.9486 -11.9599 2.9097
# 4 21.3015 16.7663 4.9486 39.5426 -2.7712 1.6783
# 5 -20.3976 -15.2316 -11.9599 -2.7712 31.8068 -1.7010
# 6 7.8338 0.6422 2.9097 1.6783 -1.7010 34.6978
#
#
#
# Elastic Compliance Matrix: (Units=1/GPa)
#
#
# Indices 1 2 3 4 5 6 
#
# 1 0.010533 -0.000888 -0.001883 -0.004629 0.005126 -0.001729
# 2 -0.000888 0.010253 -0.002698 -0.003340 0.003064 0.000549
# 3 -0.001883 -0.002698 0.012959 0.000728 0.002409 -0.000529
# 4 -0.004629 -0.003340 0.000728 0.029001 -0.001792 -0.000445
# 5 0.005126 0.003064 0.002409 -0.001792 0.036970 0.000483
# 6 -0.001729 0.000549 -0.000529 -0.000445 0.000483 0.029290
#
#
# Mechanical properties :
#
#
# Convention : Reuss Voigt Hill
#
# Bulk Modulus (GPa) = 43.84341 56.41269 50.12805
# Shear Modulus (GPa) = 33.88766 37.36760 35.62763
#
# Velocity S-wave (km/s) = 4.02788 4.22964 4.12999
# Velocity P-wave (km/s) = 6.52854 7.13167 6.83676
#
# Compressibility (1/GPa) = 0.02280845
#
# Stress axis : x y z
#
# Youngs Moduli (GPa) = 94.93911 97.53427 77.16366
#
# Poissons Ratio (x) = 0.08659 0.14529
# Poissons Ratio (y) = 0.08429 0.20817
# Poissons Ratio (z) = 0.17875 0.26313
#
# Static dielectric constant tensor:
#      x y z
#    x 7.337890 -1.566000 -2.192940 
#    y -1.566000 2.163660 0.601900 
#    z -2.192940 0.601900 2.643670 
# 
# From -- ./inp_files/332736.got.cif
#   From: 2010.05.17/outbox.cif.g08.bks.cpg/sg2_167_cif.got.tgz:332736.got - 2010.06.03 11:33:40.
