data_PCOD9080703
_publ_section_title
;
Structure prediction by ZEFSAII (Michael W. Deem and Ramdas Pophale) SiO2 
 PCOD9080703
Probable space group: P -1
;
_chemical_formula_sum "Si O2"
_cell_formula_units_Z 16
_cell_length_a 9.338407
_cell_length_b 12.176742
_cell_length_c 13.855947
_cell_angle_alpha 145.777181
_cell_angle_beta 130.979529
_cell_angle_gamma 47.600738
_cell_volume 635.799757
_symmetry_space_group_name_H-M "P -1"
_symmetry_group_IT_number 2
_symmetry_cell_setting 'triclinic'
loop_
_space_group_symop_operation_xyz
x,y,z
-x,-y,-z
loop_
_atom_site_type_symbol
_atom_site_label
_atom_site_fract_x
_atom_site_fract_y
_atom_site_fract_z
Si Si1 0.079917 0.264888 0.500123
Si Si2 0.046870 0.277228 0.904172
Si Si3 0.537041 0.669575 0.339019
Si Si4 0.229466 0.799800 0.137359
Si Si5 0.785186 0.028141 0.499784
Si Si6 0.765168 0.073931 0.971430
Si Si7 0.651263 0.349606 0.309122
Si Si8 0.586389 0.073530 0.244397
O O1 0.232990 0.380369 0.619599
O O2 0.853319 0.383867 0.462608
O O3 0.150783 0.043192 0.312723
O O4 0.109299 0.198386 0.577132
O O5 0.959385 0.275218 0.971883
O O6 0.912874 0.165457 0.700845
O O7 0.279112 0.140199 0.902327
O O8 0.000000 0.500000 0.000000
O O9 0.407155 0.664409 0.184740
O O10 0.432670 0.903991 0.496719
O O11 0.512035 0.540373 0.327148
O O12 0.305323 0.786137 0.052427
O O13 0.731703 0.071019 0.396866
O O14 0.626716 0.927324 0.810941
O O15 0.725340 0.184988 0.136768
O O16 0.000000 0.000000 0.000000
O O17 0.565875 0.254299 0.290856
#
# Coordination Sequence:
#
# PCOD9080703 Si02
#       8
#     2   2   2   2   2   2   2   2
#     4  10  18  41  66  93 132 178 224 286 339 400
#     4  10  22  43  72 107 139 170 225 294 342 404
#     4  10  22  39  66 102 131 178 225 292 338 405
#     4  10  21  45  68  92 134 174 239 271 345 416
#     4  10  22  42  74  98 137 175 241 265 346 415
#     4  12  25  44  67  96 132 186 237 278 344 414
#     4  12  25  40  65  99 145 177 233 282 352 404
#     4  12  24  45  73  97 139 189 227 283 350 412
#
# _framework density 25.165157000000001
#
# number of rings (size 3 to 8) (size 9 to 14) (size 15 to 20)
#    0.000    1.500    3.750    4.125    3.500    1.000 
#    2.250    1.250    0.000    0.000    0.000    0.000 
#    0.000    0.000    0.000    0.000    0.000    0.000 
#
# Total GULP energy -89397.923232 kJ/mol
# GULP energy per Si atom -5587.370202 kJ/mol
# Density = 2.510788 g / cm^3
# Si number density = 25.165157 Si / 1000 Ang^3
#
#
#
# Elastic Constant Matrix: (Units=GPa)
#
#
# Indices 1 2 3 4 5 6 
#
# 1 161.7285 46.4784 27.1513 -16.0778 28.2461 23.7738
# 2 46.4784 145.9878 17.9705 -26.8205 9.5183 29.0094
# 3 27.1513 17.9705 33.2894 -12.6295 5.7220 3.0714
# 4 -16.0778 -26.8205 -12.6295 36.7811 5.7458 -4.8777
# 5 28.2461 9.5183 5.7220 5.7458 30.3738 -10.6750
# 6 23.7738 29.0094 3.0714 -4.8777 -10.6750 55.7895
#
#
#
# Elastic Compliance Matrix: (Units=1/GPa)
#
#
# Indices 1 2 3 4 5 6 
#
# 1 0.010184 -0.000069 -0.004252 0.003949 -0.011476 -0.005921
# 2 -0.000069 0.009775 -0.001025 0.006959 -0.006074 -0.005551
# 3 -0.004252 -0.001025 0.039430 0.011789 -0.005317 0.000187
# 4 0.003949 0.006959 0.011789 0.040027 -0.017698 -0.005837
# 5 -0.011476 -0.006074 -0.005317 -0.017698 0.056002 0.017510
# 6 -0.005921 -0.005551 0.000187 -0.005837 0.017510 0.026164
#
#
# Mechanical properties :
#
#
# Convention : Reuss Voigt Hill
#
# Bulk Modulus (GPa) = 20.53456 58.24513 39.38985
# Shear Modulus (GPa) = 23.98017 41.21590 32.59803
#
# Velocity S-wave (km/s) = 3.09028 4.05138 3.60302
# Velocity P-wave (km/s) = 4.57282 6.71419 5.74417
#
# Compressibility (1/GPa) = 0.04869838
#
# Stress axis : x y z
#
# Youngs Moduli (GPa) = 98.19362 102.29672 25.36150
#
# Poissons Ratio (x) = 0.00702 0.10784
# Poissons Ratio (y) = 0.00674 0.02599
# Poissons Ratio (z) = 0.41753 0.10483
#
# Static dielectric constant tensor:
#      x y z
#    x 2.053560 -0.015710 -0.063360 
#    y -0.015710 1.991270 0.005680 
#    z -0.063360 0.005680 2.087740 
# 
# From -- ./inp_files/501037.got.cif
#   From: 2010.05.17/outbox.cif.g08.bks.cpg/sg2_251_cif.got.tgz:501037.got - 2010.06.03 11:33:40.
