data_PCOD9080166
_publ_section_title
;
Structure prediction by ZEFSAII (Michael W. Deem and Ramdas Pophale) SiO2 
 PCOD9080166
Probable space group: P -1
;
_chemical_formula_sum "Si O2"
_cell_formula_units_Z 14
_cell_length_a 17.315837
_cell_length_b 24.496618
_cell_length_c 9.127678
_cell_angle_alpha 30.608124
_cell_angle_beta 142.377933
_cell_angle_gamma 161.611573
_cell_volume 614.503122
_symmetry_space_group_name_H-M "P -1"
_symmetry_group_IT_number 2
_symmetry_cell_setting 'triclinic'
loop_
_space_group_symop_operation_xyz
x,y,z
-x,-y,-z
loop_
_atom_site_type_symbol
_atom_site_label
_atom_site_fract_x
_atom_site_fract_y
_atom_site_fract_z
Si Si1 0.210037 0.658619 0.826578
Si Si2 0.028763 0.063443 0.234632
Si Si3 0.789539 0.086924 0.408178
Si Si4 0.959558 0.579166 0.168704
Si Si5 0.246880 0.924987 0.274856
Si Si6 0.199725 0.223038 0.699273
Si Si7 0.508418 0.663918 0.887352
O O1 0.167163 0.548473 0.881194
O O2 0.208760 0.780238 0.484947
O O3 0.475771 0.831956 0.900211
O O4 0.000000 0.500000 0.000000
O O5 0.307276 0.244613 0.173128
O O6 0.827841 0.848058 0.336684
O O7 0.951112 0.130076 0.939464
O O8 0.000000 0.000000 0.500000
O O9 0.748201 0.089189 0.508300
O O10 0.066602 0.239045 0.471568
O O11 0.611063 0.858464 0.627492
O O12 0.796667 0.182303 0.074448
O O13 0.783556 0.529224 0.115435
O O14 0.000000 0.500000 0.500000
O O15 0.440558 0.377054 0.802079
O O16 0.000000 0.000000 0.000000
#
# Coordination Sequence:
#
# PCOD9080166 Si02
#       7
#     2   2   2   2   2   2   2
#     4  11  24  39  64  90 120 166 207 244 290 358
#     4  10  19  35  63  93 118 151 194 255 308 348
#     4  10  18  38  65  84 115 160 199 245 297 351
#     4  12  26  39  58  93 126 156 206 251 299 357
#     4  11  20  41  65  88 120 161 208 241 297 364
#     4   8  15  33  61  86 113 146 201 233 292 365
#     4  10  20  41  62  88 120 157 202 245 299 367
#
# _framework density 22.782634000000002
#
# number of rings (size 3 to 8) (size 9 to 14) (size 15 to 20)
#    0.000    2.000    7.143    0.000    0.000    4.571 
#    0.000    1.429    0.000    5.143    0.000    0.000 
#    0.000    0.000    0.000    0.000    0.000    0.000 
#
# Total GULP energy -78158.458489 kJ/mol
# GULP energy per Si atom -5582.747035 kJ/mol
# Density = 2.273078 g / cm^3
# Si number density = 22.782634 Si / 1000 Ang^3
#
#
#
# Elastic Constant Matrix: (Units=GPa)
#
#
# Indices 1 2 3 4 5 6 
#
# 1 89.8057 19.8698 30.9679 3.6050 -2.4671 19.1186
# 2 19.8698 51.4848 13.1936 -2.3616 -12.3587 26.6797
# 3 30.9679 13.1936 116.5128 11.1564 -12.6470 10.6833
# 4 3.6050 -2.3616 11.1564 29.1290 1.5469 1.5630
# 5 -2.4671 -12.3587 -12.6470 1.5469 46.0472 -6.1515
# 6 19.1186 26.6797 10.6833 1.5630 -6.1515 40.0739
#
#
#
# Elastic Compliance Matrix: (Units=1/GPa)
#
#
# Indices 1 2 3 4 5 6 
#
# 1 0.013636 -0.002718 -0.003048 -0.000449 -0.001365 -0.004075
# 2 -0.002718 0.032163 -0.000949 0.004042 0.005529 -0.019172
# 3 -0.003048 -0.000949 0.010132 -0.003707 0.002477 -0.000091
# 4 -0.000449 0.004042 -0.003707 0.036387 -0.001601 -0.003154
# 5 -0.001365 0.005529 0.002477 -0.001601 0.023867 0.000036
# 6 -0.004075 -0.019172 -0.000091 -0.003154 0.000036 0.039815
#
#
# Mechanical properties :
#
#
# Convention : Reuss Voigt Hill
#
# Bulk Modulus (GPa) = 23.52808 42.87400 33.20104
# Shear Modulus (GPa) = 27.23355 35.96814 31.60085
#
# Velocity S-wave (km/s) = 3.46116 3.97766 3.72836
# Velocity P-wave (km/s) = 5.13054 6.32102 5.75664
#
# Compressibility (1/GPa) = 0.04250240
#
# Stress axis : x y z
#
# Youngs Moduli (GPa) = 73.33716 31.09145 98.69253
#
# Poissons Ratio (x) = 0.08450 0.30081
# Poissons Ratio (y) = 0.19932 0.09362
# Poissons Ratio (z) = 0.22353 0.02949
#
# Static dielectric constant tensor:
#      x y z
#    x 1.840480 0.007630 -0.004450 
#    y 0.007630 1.924100 -0.039340 
#    z -0.004450 -0.039340 1.899440 
# 
# From -- ./inp_files/338831.got.cif
#   From: 2010.05.17/outbox.cif.g08.bks.cpg/sg2_170_cif.got.tgz:338831.got - 2010.06.03 11:33:40.
