data_PCOD9080225
_publ_section_title
;
Structure prediction by ZEFSAII (Michael W. Deem and Ramdas Pophale) SiO2 
 PCOD9080225
Probable space group: P -1
;
_chemical_formula_sum "Si O2"
_cell_formula_units_Z 11
_cell_length_a 15.388678
_cell_length_b 12.951657
_cell_length_c 8.969441
_cell_angle_alpha 30.709971
_cell_angle_beta 39.853860
_cell_angle_gamma 28.555919
_cell_volume 435.836328
_symmetry_space_group_name_H-M "P -1"
_symmetry_group_IT_number 2
_symmetry_cell_setting 'triclinic'
loop_
_space_group_symop_operation_xyz
x,y,z
-x,-y,-z
loop_
_atom_site_type_symbol
_atom_site_label
_atom_site_fract_x
_atom_site_fract_y
_atom_site_fract_z
Si Si1 0.835767 0.749446 0.722158
Si Si2 0.000000 0.000000 0.000000
Si Si3 0.481965 0.193412 0.480179
Si Si4 0.106810 0.105705 0.218113
Si Si5 0.661589 0.251361 0.910185
Si Si6 0.882337 0.470654 0.592263
O O1 0.827486 0.861826 0.752914
O O2 0.956965 0.781218 0.417012
O O3 0.641459 0.911765 0.700178
O O4 0.959998 0.424231 0.962732
O O5 0.847910 0.101390 0.939919
O O6 0.837868 0.303289 0.931225
O O7 0.441399 0.431352 0.338979
O O8 0.286411 0.292211 0.576561
O O9 0.557161 0.193190 0.222189
O O10 0.277283 0.885006 0.161894
O O11 0.000000 0.000000 0.500000
O O12 0.000000 0.500000 0.500000
#
# Coordination Sequence:
#
# PCOD9080225 Si02
#       6
#     2   1   2   2   2   2
#     4  11  25  47  71 105 144 185 246 292 352 434
#     4  10  18  38  66  96 140 174 218 286 338 414
#     4  10  23  43  74 112 140 180 244 300 351 434
#     4  11  25  47  72 100 146 198 234 293 363 419
#     4  10  21  42  73 109 142 186 236 293 362 422
#     4  11  23  42  71 105 142 180 231 294 358 413
#
# _framework density 25.238831000000001
#
# number of rings (size 3 to 8) (size 9 to 14) (size 15 to 20)
#    0.000    1.455    1.818    3.273    0.000    1.455 
#    0.000   10.000    0.000    0.000    0.000    0.000 
#    0.000    0.000    0.000    0.000    0.000    0.000 
#
# Total GULP energy -61350.114314 kJ/mol
# GULP energy per Si atom -5577.283119 kJ/mol
# Density = 2.518139 g / cm^3
# Si number density = 25.238831 Si / 1000 Ang^3
#
#
#
# Elastic Constant Matrix: (Units=GPa)
#
#
# Indices 1 2 3 4 5 6 
#
# 1 163.1000 83.0488 38.4975 -3.9068 3.9708 -9.2716
# 2 83.0488 165.2330 45.3427 -13.7932 11.3666 21.6578
# 3 38.4975 45.3427 95.4632 -24.9858 -9.8629 4.7851
# 4 -3.9068 -13.7932 -24.9858 35.4060 2.6082 11.9048
# 5 3.9708 11.3666 -9.8629 2.6082 37.6408 -14.0854
# 6 -9.2716 21.6578 4.7851 11.9048 -14.0854 69.4251
#
#
#
# Elastic Compliance Matrix: (Units=1/GPa)
#
#
# Indices 1 2 3 4 5 6 
#
# 1 0.009366 -0.005009 -0.002523 -0.004180 0.001665 0.004042
# 2 -0.005009 0.010698 -0.002208 0.004423 -0.005750 -0.005779
# 3 -0.002523 -0.002208 0.015691 0.010248 0.003683 -0.001740
# 4 -0.004180 0.004423 0.010248 0.040684 -0.005009 -0.010637
# 5 0.001665 -0.005750 0.003683 -0.005009 0.032920 0.009300
# 6 0.004042 -0.005779 -0.001740 -0.010637 0.009300 0.020577
#
#
# Mechanical properties :
#
#
# Convention : Reuss Voigt Hill
#
# Bulk Modulus (GPa) = 61.43674 84.17490 72.80582
# Shear Modulus (GPa) = 32.29158 45.62152 38.95655
#
# Velocity S-wave (km/s) = 3.58081 4.25619 3.93302
# Velocity P-wave (km/s) = 6.44137 7.58797 7.03806
#
# Compressibility (1/GPa) = 0.01627690
#
# Stress axis : x y z
#
# Youngs Moduli (GPa) = 106.76921 93.47952 63.72955
#
# Poissons Ratio (x) = 0.46819 0.16076
# Poissons Ratio (y) = 0.53475 0.14071
# Poissons Ratio (z) = 0.26933 0.20639
#
# Static dielectric constant tensor:
#      x y z
#    x 2.071590 0.096810 -0.138300 
#    y 0.096810 2.102760 -0.021460 
#    z -0.138300 -0.021460 2.455760 
# 
# From -- ./inp_files/302018.got.cif
#   From: 2010.05.17/outbox.cif.g08.bks.cpg/sg2_152_cif.got.tgz:302018.got - 2010.06.03 11:33:40.
