data_PCOD9080528
_publ_section_title
;
Structure prediction by ZEFSAII (Michael W. Deem and Ramdas Pophale) SiO2 
 PCOD9080528
Probable space group: P -1
;
_chemical_formula_sum "Si O2"
_cell_formula_units_Z 14
_cell_length_a 17.217528
_cell_length_b 9.742380
_cell_length_c 5.490486
_cell_angle_alpha 77.090917
_cell_angle_beta 129.152424
_cell_angle_gamma 113.060766
_cell_volume 656.745841
_symmetry_space_group_name_H-M "P -1"
_symmetry_group_IT_number 2
_symmetry_cell_setting 'triclinic'
loop_
_space_group_symop_operation_xyz
x,y,z
-x,-y,-z
loop_
_atom_site_type_symbol
_atom_site_label
_atom_site_fract_x
_atom_site_fract_y
_atom_site_fract_z
Si Si1 0.097263 0.435418 0.976115
Si Si2 0.363469 0.410315 0.002664
Si Si3 0.866515 0.784331 0.243557
Si Si4 0.585779 0.398179 0.474648
Si Si5 0.096355 0.874146 0.806272
Si Si6 0.250671 0.706714 0.381148
Si Si7 0.868117 0.300025 0.455071
O O1 0.130471 0.309098 0.956045
O O2 0.114215 0.570021 0.759862
O O3 0.972272 0.368362 0.803637
O O4 0.177835 0.530403 0.297267
O O5 0.458225 0.341088 0.253014
O O6 0.375653 0.518129 0.223672
O O7 0.246389 0.291808 0.825998
O O8 0.385257 0.493911 0.751192
O O9 0.969386 0.786364 0.607820
O O10 0.883699 0.956389 0.154935
O O11 0.645955 0.281666 0.570482
O O12 0.117082 0.846354 0.574429
O O13 0.182054 0.809722 0.120577
O O14 0.248429 0.734532 0.652319
#
# Coordination Sequence:
#
# PCOD9080528 Si02
#       7
#     2   2   2   2   2   2   2
#     4   9  17  30  51  77 103 144 191 237 291 342
#     4  10  21  41  61  92 117 154 198 254 296 352
#     4  10  18  40  56  79 121 156 199 239 295 355
#     4  10  22  37  65  91 118 149 202 252 305 340
#     4   9  22  36  52  83 119 160 193 235 297 365
#     4  11  19  33  54  83 113 150 189 253 289 354
#     4   9  18  31  48  76 111 143 186 237 292 348
#
# _framework density 21.317228
#
# number of rings (size 3 to 8) (size 9 to 14) (size 15 to 20)
#    0.000    2.286    1.429    2.143    2.000    1.143 
#    2.571    4.286    0.000    0.857    0.000    0.000 
#    0.000    0.000    0.000    0.000    0.000    0.000 
#
# Total GULP energy -77943.854476 kJ/mol
# GULP energy per Si atom -5567.418177 kJ/mol
# Density = 2.126871 g / cm^3
# Si number density = 21.317228 Si / 1000 Ang^3
#
#
#
# Elastic Constant Matrix: (Units=GPa)
#
#
# Indices 1 2 3 4 5 6 
#
# 1 142.4874 25.6032 19.3050 -3.8760 31.8006 -14.1397
# 2 25.6032 76.5800 16.1951 1.1067 11.9265 -29.3329
# 3 19.3050 16.1951 45.7820 -11.9238 17.7522 2.1920
# 4 -3.8760 1.1067 -11.9238 20.3470 -8.3139 5.4215
# 5 31.8006 11.9265 17.7522 -8.3139 41.5500 -2.4263
# 6 -14.1397 -29.3329 2.1920 5.4215 -2.4263 30.3544
#
#
#
# Elastic Compliance Matrix: (Units=1/GPa)
#
#
# Indices 1 2 3 4 5 6 
#
# 1 0.009149 0.000644 -0.002888 -0.004032 -0.006451 0.005297
# 2 0.000644 0.030968 -0.017068 -0.022814 -0.004601 0.035166
# 3 -0.002888 -0.017068 0.040029 0.028454 -0.005834 -0.026278
# 4 -0.004032 -0.022814 0.028454 0.081544 0.011480 -0.039626
# 5 -0.006451 -0.004601 -0.005834 0.011480 0.034747 -0.006303
# 6 0.005297 0.035166 -0.026278 -0.039626 -0.006303 0.077865
#
#
# Mechanical properties :
#
#
# Convention : Reuss Voigt Hill
#
# Bulk Modulus (GPa) = 24.08315 43.00622 33.54469
# Shear Modulus (GPa) = 15.30136 32.03337 23.66737
#
# Velocity S-wave (km/s) = 2.68207 3.88067 3.33565
# Velocity P-wave (km/s) = 4.57312 6.34804 5.53223
#
# Compressibility (1/GPa) = 0.04152280
#
# Stress axis : x y z
#
# Youngs Moduli (GPa) = 109.29560 32.29091 24.98177
#
# Poissons Ratio (x) = -0.02079 0.07215
# Poissons Ratio (y) = -0.07036 0.42638
# Poissons Ratio (z) = 0.31566 0.55113
#
# Static dielectric constant tensor:
#      x y z
#    x 1.860200 -0.022690 -0.055340 
#    y -0.022690 1.737780 -0.031550 
#    z -0.055340 -0.031550 1.959310 
# 
# From -- ./inp_files/105085.got.cif
#   From: 2010.05.17/outbox.cif.g08.bks.cpg/sg2_53_cif.got.tgz:105085.got - 2010.06.03 11:33:40.
