data_PCOD9080224
_publ_section_title
;
Structure prediction by ZEFSAII (Michael W. Deem and Ramdas Pophale) SiO2 
 PCOD9080224
Probable space group: P -1
;
_chemical_formula_sum "Si O2"
_cell_formula_units_Z 15
_cell_length_a 14.768785
_cell_length_b 7.780655
_cell_length_c 14.547629
_cell_angle_alpha 57.959744
_cell_angle_beta 28.132827
_cell_angle_gamma 75.752536
_cell_volume 555.922797
_symmetry_space_group_name_H-M "P -1"
_symmetry_group_IT_number 2
_symmetry_cell_setting 'triclinic'
loop_
_space_group_symop_operation_xyz
x,y,z
-x,-y,-z
loop_
_atom_site_type_symbol
_atom_site_label
_atom_site_fract_x
_atom_site_fract_y
_atom_site_fract_z
Si Si1 0.059437 0.262564 0.493157
Si Si2 0.394377 0.704401 0.429407
Si Si3 0.920339 0.224592 0.963302
Si Si4 0.683712 0.039313 0.419081
Si Si5 0.323098 0.536123 0.950966
Si Si6 0.896763 0.929291 0.903478
Si Si7 0.158575 0.891531 0.461707
Si Si8 0.500000 0.500000 0.000000
O O1 0.889328 0.176207 0.583616
O O2 0.237307 0.172120 0.327588
O O3 0.270343 0.538004 0.224972
O O4 0.963849 0.142956 0.710001
O O5 0.428330 0.843812 0.455384
O O6 0.628325 0.726351 0.188640
O O7 0.326444 0.833468 0.376942
O O8 0.175318 0.432449 0.708495
O O9 0.758642 0.133864 0.222876
O O10 0.830876 0.348869 0.939724
O O11 0.925724 0.029619 0.952809
O O12 0.532311 0.745735 0.642355
O O13 0.916320 0.138530 0.242575
O O14 0.453514 0.529799 0.923254
O O15 0.101421 0.256308 0.218073
#
# Coordination Sequence:
#
# PCOD9080224 Si02
#       8
#     2   2   2   2   2   2   2   1
#     4  10  20  39  66  98 131 179 223 272 342 403
#     4  11  24  45  67  99 139 178 228 282 335 407
#     4  11  26  45  66 104 139 178 232 281 336 402
#     4  12  23  47  71  94 141 186 225 279 338 405
#     4  10  20  38  72  93 129 178 223 273 337 393
#     4  12  25  42  69 103 135 179 227 282 343 397
#     4   9  20  40  66  97 131 176 228 272 336 408
#     4  10  18  38  66  96 126 176 224 270 330 414
#
# _framework density 26.982161999999999
#
# number of rings (size 3 to 8) (size 9 to 14) (size 15 to 20)
#    0.000    1.333    4.000    1.200    0.000    2.133 
#    2.400    6.000    0.000    0.000    0.000    0.000 
#    0.000    0.000    0.000    0.000    0.000    0.000 
#
# Total GULP energy -83747.820422 kJ/mol
# GULP energy per Si atom -5583.188028 kJ/mol
# Density = 2.692075 g / cm^3
# Si number density = 26.982162 Si / 1000 Ang^3
#
#
#
# Elastic Constant Matrix: (Units=GPa)
#
#
# Indices 1 2 3 4 5 6 
#
# 1 168.6993 16.6610 35.0718 -11.5087 2.7345 9.4322
# 2 16.6610 50.2229 22.6779 -10.1970 -2.4592 0.3855
# 3 35.0718 22.6779 171.3083 -14.5360 2.1369 8.0253
# 4 -11.5087 -10.1970 -14.5360 35.1873 2.0329 1.1154
# 5 2.7345 -2.4592 2.1369 2.0329 53.4545 -3.1802
# 6 9.4322 0.3855 8.0253 1.1154 -3.1802 32.1404
#
#
#
# Elastic Compliance Matrix: (Units=1/GPa)
#
#
# Indices 1 2 3 4 5 6 
#
# 1 0.006465 -0.001456 -0.000924 0.001396 -0.000518 -0.001749
# 2 -0.001456 0.022496 -0.002299 0.005012 0.001050 0.000661
# 3 -0.000924 -0.002299 0.006559 0.001814 -0.000476 -0.001449
# 4 0.001396 0.005012 0.001814 0.031216 -0.001227 -0.002128
# 5 -0.000518 0.001050 -0.000476 -0.001227 0.018978 0.002179
# 6 -0.001749 0.000661 -0.001449 -0.002128 0.002179 0.032270
#
#
# Mechanical properties :
#
#
# Convention : Reuss Voigt Hill
#
# Bulk Modulus (GPa) = 38.22281 59.89465 49.05873
# Shear Modulus (GPa) = 36.74796 45.21110 40.97953
#
# Velocity S-wave (km/s) = 3.69444 4.09784 3.90136
# Velocity P-wave (km/s) = 5.69168 6.68100 6.20609
#
# Compressibility (1/GPa) = 0.02616239
#
# Stress axis : x y z
#
# Youngs Moduli (GPa) = 154.67869 44.45211 152.46947
#
# Poissons Ratio (x) = 0.06472 0.14088
# Poissons Ratio (y) = 0.22520 0.35050
# Poissons Ratio (z) = 0.14292 0.10219
#
# Static dielectric constant tensor:
#      x y z
#    x 2.096870 -0.013080 -0.058330 
#    y -0.013080 2.284680 -0.003010 
#    z -0.058330 -0.003010 2.403210 
# 
# From -- ./inp_files/528234.got.cif
#   From: 2010.05.17/outbox.cif.g08.bks.cpg/sg2_265_cif.got.tgz:528234.got - 2010.06.03 11:33:40.
