data_PCOD9080748
_publ_section_title
;
Structure prediction by ZEFSAII (Michael W. Deem and Ramdas Pophale) SiO2 
 PCOD9080748
Probable space group: P -1
;
_chemical_formula_sum "Si O2"
_cell_formula_units_Z 15
_cell_length_a 10.994162
_cell_length_b 15.666895
_cell_length_c 5.798339
_cell_angle_alpha 111.767225
_cell_angle_beta 83.325012
_cell_angle_gamma 46.702831
_cell_volume 564.570638
_symmetry_space_group_name_H-M "P -1"
_symmetry_group_IT_number 2
_symmetry_cell_setting 'triclinic'
loop_
_space_group_symop_operation_xyz
x,y,z
-x,-y,-z
loop_
_atom_site_type_symbol
_atom_site_label
_atom_site_fract_x
_atom_site_fract_y
_atom_site_fract_z
Si Si1 0.285075 0.842112 0.573926
Si Si2 0.360184 0.459586 0.055912
Si Si3 0.787718 0.641855 0.888601
Si Si4 0.606041 0.785384 0.584882
Si Si5 0.038225 0.655328 0.925152
Si Si6 0.500000 0.000000 0.500000
Si Si7 0.133990 0.744588 0.607729
Si Si8 0.201613 0.059861 0.512423
O O1 0.433654 0.810576 0.671709
O O2 0.175942 0.826468 0.720024
O O3 0.167265 0.990886 0.608660
O O4 0.421266 0.706836 0.220430
O O5 0.250360 0.445094 0.212004
O O6 0.331953 0.573946 0.301127
O O7 0.224470 0.550073 0.948690
O O8 0.720723 0.721891 0.733627
O O9 0.992107 0.579430 0.796809
O O10 0.726699 0.687135 0.224673
O O11 0.505938 0.939877 0.683936
O O12 0.068631 0.717919 0.799892
O O13 0.828267 0.818394 0.249363
O O14 0.563881 0.064358 0.688038
O O15 0.954059 0.849770 0.567639
#
# Coordination Sequence:
#
# PCOD9080748 Si02
#       8
#     2   2   2   2   2   1   2   2
#     4  10  23  47  66 100 137 185 241 289 346 421
#     4  10  25  44  68 102 136 186 235 291 351 417
#     4  11  23  44  68 102 143 179 236 293 357 423
#     4  10  23  41  69 103 137 183 236 289 353 413
#     4  11  24  42  68 104 139 181 229 293 360 424
#     4  10  18  42  68  98 142 176 234 284 352 420
#     4  11  24  44  70  97 140 187 235 288 353 422
#     4  10  22  44  67 102 135 182 232 293 356 420
#
# _framework density 26.568861999999999
#
# number of rings (size 3 to 8) (size 9 to 14) (size 15 to 20)
#    0.000    1.600    1.333    2.000    5.600    2.133 
#   24.000    0.000    0.000    0.000    0.000    0.000 
#    0.000    0.000    0.000    0.000    0.000    0.000 
#
# Total GULP energy -83532.255642 kJ/mol
# GULP energy per Si atom -5568.817043 kJ/mol
# Density = 2.650839 g / cm^3
# Si number density = 26.568862 Si / 1000 Ang^3
#
#
#
# Elastic Constant Matrix: (Units=GPa)
#
#
# Indices 1 2 3 4 5 6 
#
# 1 112.1017 15.9502 -1.7389 -9.9061 -25.3198 45.3306
# 2 15.9502 136.4284 28.8831 -4.5418 -11.0908 9.5398
# 3 -1.7389 28.8831 59.3089 16.6425 -15.9320 -8.6888
# 4 -9.9061 -4.5418 16.6425 3.8217 33.7944 15.1097
# 5 -25.3198 -11.0908 -15.9320 33.7944 -4.3115 -15.3854
# 6 45.3306 9.5398 -8.6888 15.1097 -15.3854 51.3724
#
#
#
# Elastic Compliance Matrix: (Units=1/GPa)
#
#
# Indices 1 2 3 4 5 6 
#
# 1 0.018425 0.000344 -0.000938 0.008022 0.011840 -0.015294
# 2 0.000344 0.008523 -0.003680 0.001018 0.003703 -0.001699
# 3 -0.000938 -0.003680 0.015121 0.004191 -0.008782 0.000206
# 4 0.008022 0.001018 0.004191 0.011511 0.029244 -0.001187
# 5 0.011840 0.003703 -0.008782 0.029244 0.012765 -0.017399
# 6 -0.015294 -0.001699 0.000206 -0.001187 -0.017399 0.028450
#
#
# Mechanical properties :
#
#
# Convention : Reuss Voigt Hill
#
# Bulk Modulus (GPa) = 29.83501 43.78087 36.80794
# Shear Modulus (GPa) = 43.66191 27.82615 35.74403
#
# Velocity S-wave (km/s) = 4.05822 3.23975 3.67186
# Velocity P-wave (km/s) = 5.76304 5.52346 5.64452
#
# Compressibility (1/GPa) = 0.03351767
#
# Stress axis : x y z
#
# Youngs Moduli (GPa) = 54.27553 117.33584 66.13452
#
# Poissons Ratio (x) = -0.04031 0.06206
# Poissons Ratio (y) = -0.01865 0.24339
# Poissons Ratio (z) = 0.05093 0.43183
#
# Static dielectric constant tensor:
#      x y z
#    x 1.850490 0.220010 0.182960 
#    y 0.220010 1.834780 -0.095680 
#    z 0.182960 -0.095680 2.056820 
# 
# From -- ./inp_files/78128.got.cif
#   From: 2010.05.17/outbox.cif.g08.bks.cpg/sg2_40_cif.got.tgz:78128.got - 2010.06.03 11:33:40.
