data_PCOD9080820
_publ_section_title
;
Structure prediction by ZEFSAII (Michael W. Deem and Ramdas Pophale) SiO2 
 PCOD9080820
Probable space group: P -1
;
_chemical_formula_sum "Si O2"
_cell_formula_units_Z 16
_cell_length_a 11.000762
_cell_length_b 7.298896
_cell_length_c 8.250763
_cell_angle_alpha 90.272461
_cell_angle_beta 72.389375
_cell_angle_gamma 88.735457
_cell_volume 631.235252
_symmetry_space_group_name_H-M "P -1"
_symmetry_group_IT_number 2
_symmetry_cell_setting 'triclinic'
loop_
_space_group_symop_operation_xyz
x,y,z
-x,-y,-z
loop_
_atom_site_type_symbol
_atom_site_label
_atom_site_fract_x
_atom_site_fract_y
_atom_site_fract_z
Si Si1 0.395255 0.168195 0.374787
Si Si2 0.012504 0.376394 0.648102
Si Si3 0.475271 0.750265 0.366206
Si Si4 0.839104 0.863830 0.035109
Si Si5 0.113235 0.729169 0.010999
Si Si6 0.780297 0.361362 0.353049
Si Si7 0.567209 0.795550 0.993485
Si Si8 0.856705 0.972929 0.401099
O O1 0.424627 0.279792 0.527165
O O2 0.252161 0.094813 0.435037
O O3 0.472359 0.973154 0.351793
O O4 0.427936 0.268991 0.195537
O O5 0.146952 0.450785 0.659740
O O6 0.025353 0.160751 0.610814
O O7 0.000000 0.500000 0.500000
O O8 0.902555 0.395117 0.826186
O O9 0.346804 0.673197 0.495505
O O10 0.498308 0.694313 0.170313
O O11 0.712692 0.797938 0.000523
O O12 0.814670 0.918069 0.233633
O O13 0.970695 0.742204 0.985903
O O14 0.866854 0.061040 0.947110
O O15 0.221617 0.670015 0.840122
O O16 0.867321 0.189340 0.383156
O O17 0.500000 0.000000 0.000000
#
# Coordination Sequence:
#
# PCOD9080820 Si02
#       8
#     2   2   2   2   2   2   2   2
#     4   9  17  31  56  87 120 164 194 249 316 358
#     4  11  24  39  57  90 125 158 207 265 305 363
#     4   9  18  34  54  89 126 155 206 253 302 381
#     4   9  17  35  58  92 119 158 214 253 303 378
#     4   9  20  36  62  81 118 171 202 250 314 364
#     4  10  21  39  63  88 118 166 208 246 321 371
#     4  10  19  28  56  95 125 156 205 260 309 369
#     4   9  19  38  62  83 123 164 199 253 313 367
#
# _framework density 25.347128999999999
#
# number of rings (size 3 to 8) (size 9 to 14) (size 15 to 20)
#    0.000    2.500    1.250    1.125    5.250    4.500 
#    0.000    0.625    0.000    0.750    0.000    0.000 
#    0.000    0.000    0.000    0.000    0.000    0.000 
#
# Total GULP energy -89270.578698 kJ/mol
# GULP energy per Si atom -5579.411169 kJ/mol
# Density = 2.528944 g / cm^3
# Si number density = 25.347129 Si / 1000 Ang^3
#
#
#
# Elastic Constant Matrix: (Units=GPa)
#
#
# Indices 1 2 3 4 5 6 
#
# 1 37.4725 -5.3039 47.0670 -3.5682 -7.0690 -3.6452
# 2 -5.3039 85.8630 22.1456 -25.1492 1.1270 -0.2222
# 3 47.0670 22.1456 259.0101 -28.3700 -15.3337 5.0049
# 4 -3.5682 -25.1492 -28.3700 21.6734 4.0145 -5.4596
# 5 -7.0690 1.1270 -15.3337 4.0145 27.0036 -4.9579
# 6 -3.6452 -0.2222 5.0049 -5.4596 -4.9579 13.6044
#
#
#
# Elastic Compliance Matrix: (Units=1/GPa)
#
#
# Indices 1 2 3 4 5 6 
#
# 1 0.040878 0.006981 -0.006869 0.009380 0.008897 0.020601
# 2 0.006981 0.020374 -0.000258 0.027940 -0.000903 0.013182
# 3 -0.006869 -0.000258 0.005809 0.005713 0.000377 -0.001552
# 4 0.009380 0.027940 0.005713 0.097971 -0.002844 0.039149
# 5 0.008897 -0.000903 0.000377 -0.002844 0.043121 0.016804
# 6 0.020601 0.013182 -0.001552 0.039149 0.016804 0.101646
#
#
# Mechanical properties :
#
#
# Convention : Reuss Voigt Hill
#
# Bulk Modulus (GPa) = 14.97734 56.68477 35.83105
# Shear Modulus (GPa) = 15.04444 33.68540 24.36492
#
# Velocity S-wave (km/s) = 2.43890 3.64945 3.10377
# Velocity P-wave (km/s) = 3.72192 6.33797 5.19724
#
# Compressibility (1/GPa) = 0.06676754
#
# Stress axis : x y z
#
# Youngs Moduli (GPa) = 24.46324 49.08218 172.14041
#
# Poissons Ratio (x) = -0.34263 1.18244
# Poissons Ratio (y) = -0.17077 0.04447
# Poissons Ratio (z) = 0.16804 0.01268
#
# Static dielectric constant tensor:
#      x y z
#    x 2.039860 -0.031750 0.038370 
#    y -0.031750 2.029640 0.087820 
#    z 0.038370 0.087820 2.117910 
# 
# From -- ./inp_files/237578.got.cif
#   From: 2010.05.17/outbox.cif.g08.bks.cpg/sg2_119_cif.got.tgz:237578.got - 2010.06.03 11:33:40.
