data_PCOD9080404
_publ_section_title
;
Structure prediction by ZEFSAII (Michael W. Deem and Ramdas Pophale) SiO2 
 PCOD9080404
Probable space group: P -1
;
_chemical_formula_sum "Si O2"
_cell_formula_units_Z 16
_cell_length_a 7.606252
_cell_length_b 14.587586
_cell_length_c 8.805253
_cell_angle_alpha 121.032608
_cell_angle_beta 63.015670
_cell_angle_gamma 109.752477
_cell_volume 739.069511
_symmetry_space_group_name_H-M "P -1"
_symmetry_group_IT_number 2
_symmetry_cell_setting 'triclinic'
loop_
_space_group_symop_operation_xyz
x,y,z
-x,-y,-z
loop_
_atom_site_type_symbol
_atom_site_label
_atom_site_fract_x
_atom_site_fract_y
_atom_site_fract_z
Si Si1 0.450948 0.417855 0.813733
Si Si2 0.087759 0.361018 0.683280
Si Si3 0.299951 0.742277 0.326452
Si Si4 0.260958 0.144390 0.387477
Si Si5 0.721732 0.237281 0.291860
Si Si6 0.794043 0.011545 0.010813
Si Si7 0.296201 0.527714 0.528816
Si Si8 0.412317 0.967667 0.344206
O O1 0.240856 0.408268 0.796888
O O2 0.490252 0.301222 0.762056
O O3 0.631878 0.454121 0.655972
O O4 0.500000 0.500000 0.000000
O O5 0.123912 0.236734 0.540737
O O6 0.142182 0.430329 0.568225
O O7 0.850651 0.350202 0.777122
O O8 0.230144 0.767274 0.548910
O O9 0.320532 0.844961 0.297299
O O10 0.482247 0.211378 0.352909
O O11 0.263676 0.053287 0.436710
O O12 0.224260 0.071264 0.190837
O O13 0.775231 0.357214 0.306717
O O14 0.800584 0.139848 0.088300
O O15 0.594161 0.982659 0.165884
O O16 0.000000 0.000000 0.000000
O O17 0.500000 0.500000 0.500000
O O18 0.500000 0.000000 0.500000
#
# Coordination Sequence:
#
# PCOD9080404 Si02
#       8
#     2   2   2   2   2   2   2   2
#     4  10  22  42  62  89 132 165 213 276 320 384
#     4  11  22  41  66  94 123 171 221 262 328 389
#     4  11  22  40  65  91 128 169 216 267 319 393
#     4  11  21  39  66  91 131 164 215 272 319 390
#     4  10  18  39  63  92 127 166 211 265 323 377
#     4  11  24  41  62  99 133 168 222 274 317 392
#     4   9  18  38  67  89 118 165 214 261 325 378
#     4  11  21  41  65  89 128 179 209 263 335 377
#
# _framework density 21.648842999999999
#
# number of rings (size 3 to 8) (size 9 to 14) (size 15 to 20)
#    0.000    1.500    6.250    2.250    0.000    4.000 
#    6.750    1.250    2.750    0.000    0.000    0.000 
#    0.000    0.000    0.000    0.000    0.000    0.000 
#
# Total GULP energy -89216.902072 kJ/mol
# GULP energy per Si atom -5576.056380 kJ/mol
# Density = 2.159957 g / cm^3
# Si number density = 21.648843 Si / 1000 Ang^3
#
#
#
# Elastic Constant Matrix: (Units=GPa)
#
#
# Indices 1 2 3 4 5 6 
#
# 1 90.5052 25.7892 14.6456 6.4247 15.3999 3.2343
# 2 25.7892 148.4211 22.0048 9.1798 1.7551 -18.9952
# 3 14.6456 22.0048 79.2863 27.4274 25.9797 -4.8270
# 4 6.4247 9.1798 27.4274 19.8176 -1.0578 -1.6557
# 5 15.3999 1.7551 25.9797 -1.0578 29.2934 8.3288
# 6 3.2343 -18.9952 -4.8270 -1.6557 8.3288 34.6119
#
#
#
# Elastic Compliance Matrix: (Units=1/GPa)
#
#
# Indices 1 2 3 4 5 6 
#
# 1 0.014427 -0.002400 0.011074 -0.019685 -0.018664 0.002429
# 2 -0.002400 0.007928 -0.002557 0.001069 0.002017 0.003784
# 3 0.011074 -0.002557 0.089964 -0.129849 -0.097955 0.027468
# 4 -0.019685 0.001069 -0.129849 0.240541 0.145257 -0.039130
# 5 -0.018664 0.002017 -0.097955 0.145257 0.147111 -0.039261
# 6 0.002429 0.003784 0.027468 -0.039130 -0.039261 0.042148
#
#
# Mechanical properties :
#
#
# Convention : Reuss Voigt Hill
#
# Bulk Modulus (GPa) = 8.02869 49.23243 28.63056
# Shear Modulus (GPa) = 8.75040 33.79611 21.27325
#
# Velocity S-wave (km/s) = 2.01265 3.95537 3.13813
# Velocity P-wave (km/s) = 3.01954 6.60686 5.13655
#
# Compressibility (1/GPa) = 0.12455334
#
# Stress axis : x y z
#
# Youngs Moduli (GPa) = 69.31396 126.13453 11.11556
#
# Poissons Ratio (x) = 0.30267 -0.12309
# Poissons Ratio (y) = 0.16632 0.02843
# Poissons Ratio (z) = -0.76759 0.32257
#
# Static dielectric constant tensor:
#      x y z
#    x 1.852600 0.001640 0.019980 
#    y 0.001640 1.860890 0.047470 
#    z 0.019980 0.047470 1.855050 
# 
# From -- ./inp_files/203626.got.cif
#   From: 2010.05.17/outbox.cif.g08.bks.cpg/sg2_102_cif.got.tgz:203626.got - 2010.06.03 11:33:40.
