data_PCOD9080852
_publ_section_title
;
Structure prediction by ZEFSAII (Michael W. Deem and Ramdas Pophale) SiO2 
 PCOD9080852
Probable space group: P -1
;
_chemical_formula_sum "Si O2"
_cell_formula_units_Z 14
_cell_length_a 14.675372
_cell_length_b 8.528295
_cell_length_c 6.839452
_cell_angle_alpha 99.466925
_cell_angle_beta 57.159584
_cell_angle_gamma 70.379648
_cell_volume 609.024305
_symmetry_space_group_name_H-M "P -1"
_symmetry_group_IT_number 2
_symmetry_cell_setting 'triclinic'
loop_
_space_group_symop_operation_xyz
x,y,z
-x,-y,-z
loop_
_atom_site_type_symbol
_atom_site_label
_atom_site_fract_x
_atom_site_fract_y
_atom_site_fract_z
Si Si1 0.572047 0.970785 0.198784
Si Si2 0.763740 0.054288 0.168105
Si Si3 0.683198 0.559594 0.024771
Si Si4 0.439668 0.570665 0.365727
Si Si5 0.669199 0.674365 0.529304
Si Si6 0.918235 0.184831 0.754418
Si Si7 0.098496 0.292754 0.779591
O O1 0.644145 0.756086 0.016064
O O2 0.500000 0.000000 0.500000
O O3 0.676557 0.029671 0.107475
O O4 0.454411 0.127200 0.251831
O O5 0.661215 0.211324 0.463689
O O6 0.843405 0.859075 0.145144
O O7 0.844608 0.135002 0.993901
O O8 0.567380 0.529008 0.106934
O O9 0.688515 0.609665 0.261353
O O10 0.812776 0.368206 0.801582
O O11 0.500000 0.500000 0.500000
O O12 0.362837 0.472723 0.375719
O O13 0.788504 0.692007 0.444998
O O14 0.019536 0.230963 0.729815
O O15 0.000000 0.000000 0.500000
O O16 0.000000 0.500000 0.000000
#
# Coordination Sequence:
#
# PCOD9080852 Si02
#       7
#     2   2   2   2   2   2   2
#     4  10  15  28  57  95 109 131 186 272 296 323
#     4  12  19  35  62  89 113 153 205 247 293 339
#     4  10  16  33  54  84 114 146 192 243 289 337
#     4  10  15  28  59  94 110 135 191 268 289 329
#     4  10  16  29  55  90 111 134 188 258 296 315
#     4  12  26  40  54  82 129 170 192 229 298 369
#     4  12  22  38  59  85 120 154 208 253 273 340
#
# _framework density 22.987587000000001
#
# number of rings (size 3 to 8) (size 9 to 14) (size 15 to 20)
#    0.000    1.143   11.429    0.429    0.000    0.000 
#    0.000    2.857    0.000    6.857    0.000    0.000 
#    0.000    0.000    0.000    0.000    0.000    0.000 
#
# Total GULP energy -78199.851881 kJ/mol
# GULP energy per Si atom -5585.703706 kJ/mol
# Density = 2.293527 g / cm^3
# Si number density = 22.987587 Si / 1000 Ang^3
#
#
#
# Elastic Constant Matrix: (Units=GPa)
#
#
# Indices 1 2 3 4 5 6 
#
# 1 139.6968 68.6051 76.0711 -1.5855 -50.4838 43.7149
# 2 68.6051 142.1382 71.7130 31.0708 -25.8333 17.4814
# 3 76.0711 71.7130 98.9044 42.3902 -26.8654 -0.6059
# 4 -1.5855 31.0708 42.3902 57.1624 -5.2264 -10.8223
# 5 -50.4838 -25.8333 -26.8654 -5.2264 42.8349 -9.5062
# 6 43.7149 17.4814 -0.6059 -10.8223 -9.5062 57.5667
#
#
#
# Elastic Compliance Matrix: (Units=1/GPa)
#
#
# Indices 1 2 3 4 5 6 
#
# 1 0.056037 -0.000042 -0.049713 0.035515 0.032279 -0.031056
# 2 -0.000042 0.011936 -0.007701 -0.001359 0.001330 -0.003710
# 3 -0.049713 -0.007701 0.067324 -0.043365 -0.019781 0.029379
# 4 0.035515 -0.001359 -0.043365 0.050088 0.016656 -0.014846
# 5 0.032279 0.001330 -0.019781 0.016656 0.048721 -0.013947
# 6 -0.031056 -0.003710 0.029379 -0.014846 -0.013947 0.037296
#
#
# Mechanical properties :
#
#
# Convention : Reuss Voigt Hill
#
# Bulk Modulus (GPa) = 49.05951 90.39088 69.72519
# Shear Modulus (GPa) = 12.71911 42.46947 27.59429
#
# Velocity S-wave (km/s) = 2.35479 4.30291 3.46844
# Velocity P-wave (km/s) = 5.36484 8.00586 6.81451
#
# Compressibility (1/GPa) = 0.02038341
#
# Stress axis : x y z
#
# Youngs Moduli (GPa) = 17.84549 83.77803 14.85360
#
# Poissons Ratio (x) = 0.00354 0.73842
# Poissons Ratio (y) = 0.00075 0.11439
# Poissons Ratio (z) = 0.88715 0.64521
#
# Static dielectric constant tensor:
#      x y z
#    x 1.907500 -0.050880 0.078590 
#    y -0.050880 1.862950 -0.058230 
#    z 0.078590 -0.058230 1.898390 
# 
# From -- ./inp_files/295961.got.cif
#   From: 2010.05.17/outbox.cif.g08.bks.cpg/sg2_148_cif.got.tgz:295961.got - 2010.06.03 11:33:40.
