data_PCOD9080796
_publ_section_title
;
Structure prediction by ZEFSAII (Michael W. Deem and Ramdas Pophale) SiO2 
 PCOD9080796
Probable space group: P -1
;
_chemical_formula_sum "Si O2"
_cell_formula_units_Z 16
_cell_length_a 12.621941
_cell_length_b 13.897023
_cell_length_c 10.317176
_cell_angle_alpha 55.371912
_cell_angle_beta 116.977856
_cell_angle_gamma 155.264619
_cell_volume 612.755215
_symmetry_space_group_name_H-M "P -1"
_symmetry_group_IT_number 2
_symmetry_cell_setting 'triclinic'
loop_
_space_group_symop_operation_xyz
x,y,z
-x,-y,-z
loop_
_atom_site_type_symbol
_atom_site_label
_atom_site_fract_x
_atom_site_fract_y
_atom_site_fract_z
Si Si1 0.242716 0.645015 0.154326
Si Si2 0.772685 0.323778 0.286802
Si Si3 0.336428 0.238713 0.268436
Si Si4 0.144006 0.295996 0.509572
Si Si5 0.670949 0.897535 0.885210
Si Si6 0.517812 0.602045 0.241183
Si Si7 0.148854 0.454719 0.625454
Si Si8 0.290275 0.888167 0.792466
O O1 0.019042 0.360750 0.193345
O O2 0.504271 0.850178 0.224084
O O3 0.318594 0.791761 0.962428
O O4 0.059387 0.568780 0.198776
O O5 0.594099 0.270980 0.172929
O O6 0.795343 0.370753 0.414596
O O7 0.653657 0.100313 0.333431
O O8 0.356748 0.390055 0.205692
O O9 0.608759 0.414406 0.304783
O O10 0.267930 0.151752 0.148266
O O11 0.142755 0.003130 0.439756
O O12 0.334726 0.467678 0.363563
O O13 0.268315 0.301375 0.662360
O O14 0.115270 0.390921 0.504283
O O15 0.641565 0.819687 0.071083
O O16 0.899702 0.187788 0.765522
#
# Coordination Sequence:
#
# PCOD9080796 Si02
#       8
#     2   2   2   2   2   2   2   2
#     4   8  14  24  40  63  90 122 152 181 221 263
#     4   9  16  26  41  60  89 121 147 181 225 270
#     4   9  18  31  45  60  79 109 147 192 235 276
#     4   9  19  32  45  59  80 112 152 194 231 277
#     4  10  19  28  42  64  88 113 146 190 233 280
#     4  10  19  31  45  61  81 111 151 192 237 276
#     4   9  18  30  42  62  87 114 146 183 232 275
#     4   8  14  24  40  62  91 122 152 182 216 270
#
# _framework density 26.111568999999999
#
# number of rings (size 3 to 8) (size 9 to 14) (size 15 to 20)
#    0.750    2.250    0.000    1.500    0.000    6.500 
#    0.000    0.000    0.000    0.000    0.000    0.000 
#    0.000    4.000    0.000   55.500    0.000   13.250 
#
# Total GULP energy -89312.824086 kJ/mol
# GULP energy per Si atom -5582.051505 kJ/mol
# Density = 2.605214 g / cm^3
# Si number density = 26.111569 Si / 1000 Ang^3
#
#
#
# Elastic Constant Matrix: (Units=GPa)
#
#
# Indices 1 2 3 4 5 6 
#
# 1 62.2974 36.6630 31.4034 14.6075 -1.1793 16.7877
# 2 36.6630 146.0933 45.3706 -1.4672 0.7350 7.2411
# 3 31.4034 45.3706 142.5498 -22.4406 -8.0701 7.8283
# 4 14.6075 -1.4672 -22.4406 37.6992 -2.3100 0.4634
# 5 -1.1793 0.7350 -8.0701 -2.3100 29.6578 5.1774
# 6 16.7877 7.2411 7.8283 0.4634 5.1774 33.7368
#
#
#
# Elastic Compliance Matrix: (Units=1/GPa)
#
#
# Indices 1 2 3 4 5 6 
#
# 1 0.028861 -0.004783 -0.006554 -0.015106 0.000341 -0.011659
# 2 -0.004783 0.008499 -0.001576 0.001177 -0.000921 0.001047
# 3 -0.006554 -0.001576 0.010521 0.008933 0.003243 0.000538
# 4 -0.015106 0.001177 0.008933 0.037941 0.004049 0.004049
# 5 0.000341 -0.000921 0.003243 0.004049 0.036054 -0.006313
# 6 -0.011659 0.001047 0.000538 0.004049 -0.006313 0.036007
#
#
# Mechanical properties :
#
#
# Convention : Reuss Voigt Hill
#
# Bulk Modulus (GPa) = 45.34062 64.20162 54.77112
# Shear Modulus (GPa) = 26.16969 36.05232 31.11101
#
# Velocity S-wave (km/s) = 3.16923 3.71981 3.45550
# Velocity P-wave (km/s) = 5.54923 6.56431 6.07800
#
# Compressibility (1/GPa) = 0.02205528
#
# Stress axis : x y z
#
# Youngs Moduli (GPa) = 34.64851 117.65794 95.04971
#
# Poissons Ratio (x) = 0.56276 0.62298
# Poissons Ratio (y) = 0.16572 0.14978
# Poissons Ratio (z) = 0.22709 0.18540
#
# Static dielectric constant tensor:
#      x y z
#    x 2.018720 -0.028730 0.013700 
#    y -0.028730 2.080840 0.056010 
#    z 0.013700 0.056010 2.079090 
# 
# From -- ./inp_files/126140.got.cif
#   From: 2010.05.17/outbox.cif.g08.bks.cpg/sg2_64_cif.got.tgz:126140.got - 2010.06.03 11:33:40.
