data_PCOD9080979
_publ_section_title
;
Structure prediction by ZEFSAII (Michael W. Deem and Ramdas Pophale) SiO2 
 PCOD9080979
Probable space group: P -1
;
_chemical_formula_sum "Si O2"
_cell_formula_units_Z 12
_cell_length_a 14.407775
_cell_length_b 12.119105
_cell_length_c 10.910547
_cell_angle_alpha 67.892771
_cell_angle_beta 122.565943
_cell_angle_gamma 159.247523
_cell_volume 514.880031
_symmetry_space_group_name_H-M "P -1"
_symmetry_group_IT_number 2
_symmetry_cell_setting 'triclinic'
loop_
_space_group_symop_operation_xyz
x,y,z
-x,-y,-z
loop_
_atom_site_type_symbol
_atom_site_label
_atom_site_fract_x
_atom_site_fract_y
_atom_site_fract_z
Si Si1 0.496923 0.230057 0.054497
Si Si2 0.308555 0.791338 0.184541
Si Si3 0.001104 0.869334 0.998282
Si Si4 0.138960 0.249543 0.577322
Si Si5 0.146397 0.809405 0.727406
Si Si6 0.293204 0.274810 0.325239
O O1 0.836582 0.611287 0.081851
O O2 0.284079 0.994178 0.878793
O O3 0.318633 0.147525 0.043131
O O4 0.484541 0.097149 0.180882
O O5 0.146352 0.575188 0.282233
O O6 0.563235 0.960659 0.232620
O O7 0.000000 0.500000 0.000000
O O8 0.757429 0.649077 0.804106
O O9 0.000000 0.000000 0.000000
O O10 0.513555 0.618476 0.668296
O O11 0.991782 0.221675 0.435803
O O12 0.000000 0.000000 0.500000
O O13 0.032651 0.111020 0.696372
O O14 0.500000 0.500000 0.500000
#
# Coordination Sequence:
#
# PCOD9080979 Si02
#       6
#     2   2   2   2   2   2
#     4  11  20  36  54  77 115 152 183 231 279 332
#     4  10  20  32  52  82 113 149 186 229 286 335
#     4  12  24  37  56  84 115 152 188 225 279 339
#     4  10  19  30  50  78 108 141 172 217 276 329
#     4  11  19  33  54  85 116 143 183 235 285 334
#     4  10  19  34  52  78 108 141 179 223 275 327
#
# _framework density 23.306398999999999
#
# number of rings (size 3 to 8) (size 9 to 14) (size 15 to 20)
#    0.000    1.333    0.000   11.500    0.000    0.000 
#    0.000    0.000    0.000    0.000    0.000   23.333 
#    0.000    0.000    0.000    0.000    0.000    0.000 
#
# Total GULP energy -67065.788657 kJ/mol
# GULP energy per Si atom -5588.815721 kJ/mol
# Density = 2.325335 g / cm^3
# Si number density = 23.306399 Si / 1000 Ang^3
#
#
#
# Elastic Constant Matrix: (Units=GPa)
#
#
# Indices 1 2 3 4 5 6 
#
# 1 111.5158 36.6699 36.0253 0.8926 39.4983 39.0922
# 2 36.6699 165.2522 33.0816 -24.6560 22.8512 35.5021
# 3 36.0253 33.0816 47.5695 -12.0034 24.4157 1.9872
# 4 0.8926 -24.6560 -12.0034 35.5427 -5.8635 7.0744
# 5 39.4983 22.8512 24.4157 -5.8635 42.9913 5.7070
# 6 39.0922 35.5021 1.9872 7.0744 5.7070 53.8321
#
#
#
# Elastic Compliance Matrix: (Units=1/GPa)
#
#
# Indices 1 2 3 4 5 6 
#
# 1 0.021905 0.002201 -0.011215 -0.001938 -0.013160 -0.015295
# 2 0.002201 0.009640 -0.005373 0.006121 -0.002154 -0.008334
# 3 -0.011215 -0.005373 0.039374 0.006162 -0.009749 0.010458
# 4 -0.001938 0.006121 0.006162 0.036211 0.000991 -0.007721
# 5 -0.013160 -0.002154 -0.009749 0.000991 0.041261 0.006832
# 6 -0.015295 -0.008334 0.010458 -0.007721 0.006832 0.035084
#
#
# Mechanical properties :
#
#
# Convention : Reuss Voigt Hill
#
# Bulk Modulus (GPa) = 23.72792 59.54344 41.63568
# Shear Modulus (GPa) = 22.09494 41.04392 31.56943
#
# Velocity S-wave (km/s) = 3.08233 4.20105 3.68440
# Velocity P-wave (km/s) = 4.78233 7.00966 6.00025
#
# Compressibility (1/GPa) = 0.04214444
#
# Stress axis : x y z
#
# Youngs Moduli (GPa) = 45.65182 103.73521 25.39765
#
# Poissons Ratio (x) = -0.22831 0.28484
# Poissons Ratio (y) = -0.10048 0.13645
# Poissons Ratio (z) = 0.51200 0.55734
#
# Static dielectric constant tensor:
#      x y z
#    x 1.046580 2.073950 1.378440 
#    y 2.073950 -2.930820 -3.436970 
#    z 1.378440 -3.436970 -0.494870 
# 
# From -- ./inp_files/62382.got.cif
#   From: 2010.05.17/outbox.cif.g08.bks.cpg/sg2_32_cif.got.tgz:62382.got - 2010.06.03 11:33:40.
