data_PCOD9080089
_publ_section_title
;
Structure prediction by ZEFSAII (Michael W. Deem and Ramdas Pophale) SiO2 
 PCOD9080089
Probable space group: P -1
;
_chemical_formula_sum "Si O2"
_cell_formula_units_Z 14
_cell_length_a 12.152868
_cell_length_b 7.554271
_cell_length_c 8.246638
_cell_angle_alpha 116.327101
_cell_angle_beta 83.812652
_cell_angle_gamma 84.813845
_cell_volume 666.448277
_symmetry_space_group_name_H-M "P -1"
_symmetry_group_IT_number 2
_symmetry_cell_setting 'triclinic'
loop_
_space_group_symop_operation_xyz
x,y,z
-x,-y,-z
loop_
_atom_site_type_symbol
_atom_site_label
_atom_site_fract_x
_atom_site_fract_y
_atom_site_fract_z
Si Si1 0.826947 0.703974 0.146640
Si Si2 0.723800 0.798762 0.725588
Si Si3 0.415876 0.890247 0.359488
Si Si4 0.848031 0.446485 0.356521
Si Si5 0.295531 0.868470 0.674918
Si Si6 0.942256 0.817042 0.872627
Si Si7 0.398367 0.211498 0.943980
O O1 0.857049 0.577047 0.248437
O O2 0.707872 0.660010 0.076966
O O3 0.798263 0.942509 0.283412
O O4 0.914586 0.687450 0.979763
O O5 0.669941 0.941157 0.649272
O O6 0.792442 0.594726 0.563463
O O7 0.820844 0.890479 0.843630
O O8 0.626228 0.763574 0.852486
O O9 0.500000 0.000000 0.500000
O O10 0.353096 0.782566 0.463755
O O11 0.488284 0.764822 0.156922
O O12 0.761353 0.290599 0.284394
O O13 0.969406 0.315925 0.312181
O O14 0.379237 0.981540 0.813333
O O15 0.000000 0.000000 0.000000
#
# Coordination Sequence:
#
# PCOD9080089 Si02
#       7
#     2   2   2   2   2   2   2
#     4   9  19  38  60  85 117 154 201 236 293 349
#     4  11  21  35  60  93 118 153 200 248 292 351
#     4  10  18  38  63  86 121 160 192 247 300 347
#     4  12  20  37  61  87 123 154 196 252 288 345
#     4   9  19  37  60  85 119 155 205 229 296 355
#     4  11  22  41  61  85 120 161 200 238 298 357
#     4   8  18  38  59  85 123 155 196 244 294 353
#
# _framework density 21.006882999999998
#
# number of rings (size 3 to 8) (size 9 to 14) (size 15 to 20)
#    0.857    1.143    2.857    1.286    0.000    0.000 
#    0.000   17.143    0.000    0.000    0.000    0.000 
#    0.000    0.000    0.000    0.000    0.000    0.000 
#
# Total GULP energy -77988.225488 kJ/mol
# GULP energy per Si atom -5570.587535 kJ/mol
# Density = 2.095907 g / cm^3
# Si number density = 21.006883 Si / 1000 Ang^3
#
#
#
# Elastic Constant Matrix: (Units=GPa)
#
#
# Indices 1 2 3 4 5 6 
#
# 1 63.5564 19.2679 33.7936 -0.0234 -18.7758 -4.4459
# 2 19.2679 51.9298 20.9075 -3.2233 0.9970 2.5652
# 3 33.7936 20.9075 102.7070 -11.7570 -36.2284 0.0708
# 4 -0.0234 -3.2233 -11.7570 19.6575 0.2475 -4.4242
# 5 -18.7758 0.9970 -36.2284 0.2475 45.6717 -9.3328
# 6 -4.4459 2.5652 0.0708 -4.4242 -9.3328 17.9455
#
#
#
# Elastic Compliance Matrix: (Units=1/GPa)
#
#
# Indices 1 2 3 4 5 6 
#
# 1 0.023607 -0.008695 -0.002227 -0.000013 0.010717 0.012670
# 2 -0.008695 0.026072 -0.007153 -0.002787 -0.012463 -0.013021
# 3 -0.002227 -0.007153 0.019476 0.013082 0.017184 0.012556
# 4 -0.000013 -0.002787 0.013082 0.063394 0.014941 0.023743
# 5 0.010717 -0.012463 0.017184 0.014941 0.046736 0.032358
# 6 0.012670 -0.013021 0.012556 0.023743 0.032358 0.083357
#
#
# Mechanical properties :
#
#
# Convention : Reuss Voigt Hill
#
# Bulk Modulus (GPa) = 30.29856 40.68125 35.48990
# Shear Modulus (GPa) = 16.13988 26.26989 21.20488
#
# Velocity S-wave (km/s) = 2.77485 3.54013 3.18059
# Velocity P-wave (km/s) = 4.97201 6.00980 5.51537
#
# Compressibility (1/GPa) = 0.03300487
#
# Stress axis : x y z
#
# Youngs Moduli (GPa) = 42.36116 38.35512 51.34591
#
# Poissons Ratio (x) = 0.33348 0.11436
# Poissons Ratio (y) = 0.36831 0.36727
# Poissons Ratio (z) = 0.09435 0.27435
#
# Static dielectric constant tensor:
#      x y z
#    x 1.782940 0.002920 -0.023620 
#    y 0.002920 1.727820 0.011940 
#    z -0.023620 0.011940 1.820860 
# 
# From -- ./inp_files/289153.got.cif
#   From: 2010.05.17/outbox.cif.g08.bks.cpg/sg2_145_cif.got.tgz:289153.got - 2010.06.03 11:33:40.
