data_PCOD9080009
_publ_section_title
;
Structure prediction by ZEFSAII (Michael W. Deem and Ramdas Pophale) SiO2 
 PCOD9080009
Probable space group: P -1
;
_chemical_formula_sum "Si O2"
_cell_formula_units_Z 14
_cell_length_a 22.938922
_cell_length_b 15.002722
_cell_length_c 17.221709
_cell_angle_alpha 146.874343
_cell_angle_beta 19.089239
_cell_angle_gamma 158.952251
_cell_volume 644.268558
_symmetry_space_group_name_H-M "P -1"
_symmetry_group_IT_number 2
_symmetry_cell_setting 'triclinic'
loop_
_space_group_symop_operation_xyz
x,y,z
-x,-y,-z
loop_
_atom_site_type_symbol
_atom_site_label
_atom_site_fract_x
_atom_site_fract_y
_atom_site_fract_z
Si Si1 0.174473 0.806990 0.740089
Si Si2 0.231671 0.065662 0.303590
Si Si3 0.438441 0.962909 0.225426
Si Si4 0.577752 0.536728 0.521676
Si Si5 0.604906 0.901429 0.473349
Si Si6 0.986007 0.608911 0.995801
Si Si7 0.159623 0.762905 0.285127
O O1 0.011069 0.719521 0.962626
O O2 0.014472 0.529553 0.708808
O O3 0.500000 0.000000 0.500000
O O4 0.203358 0.952896 0.739426
O O5 0.036057 0.793416 0.399088
O O6 0.397815 0.290388 0.325871
O O7 0.450991 0.129934 0.015444
O O8 0.000000 0.000000 0.500000
O O9 0.325770 0.902497 0.410077
O O10 0.190348 0.847192 0.394805
O O11 0.715834 0.286343 0.102002
O O12 0.500000 0.500000 0.500000
O O13 0.391337 0.263425 0.603057
O O14 0.901997 0.686941 0.219963
O O15 0.274277 0.713491 0.726775
O O16 0.500000 0.000000 0.000000
#
# Coordination Sequence:
#
# PCOD9080009 Si02
#       7
#     2   2   2   2   2   2   2
#     4  10  21  36  64  86 117 153 207 245 289 344
#     4  11  20  32  59  90 118 146 201 248 292 343
#     4  10  19  35  61  84 114 153 204 242 283 348
#     4  11  23  35  59  89 123 155 198 242 301 357
#     4  10  21  37  60  88 116 158 203 241 290 357
#     4  10  18  38  61  84 115 160 204 236 281 362
#     4  10  20  36  62  84 112 156 201 241 291 343
#
# _framework density 21.730069
#
# number of rings (size 3 to 8) (size 9 to 14) (size 15 to 20)
#    0.000    1.714    2.857    5.143    4.000    0.571 
#    0.000    0.714    3.143    2.571    0.000    0.000 
#    0.000    0.000    0.000    0.000    0.000    0.000 
#
# Total GULP energy -77999.214416 kJ/mol
# GULP energy per Si atom -5571.372458 kJ/mol
# Density = 2.168061 g / cm^3
# Si number density = 21.730069 Si / 1000 Ang^3
#
#
#
# Elastic Constant Matrix: (Units=GPa)
#
#
# Indices 1 2 3 4 5 6 
#
# 1 143.2455 28.0084 22.2567 0.3229 13.7376 -26.2184
# 2 28.0084 71.0003 14.7887 4.6658 6.8652 -5.1903
# 3 22.2567 14.7887 62.8773 11.8935 14.9313 -3.0028
# 4 0.3229 4.6658 11.8935 27.6532 5.9561 1.1665
# 5 13.7376 6.8652 14.9313 5.9561 37.0214 3.5502
# 6 -26.2184 -5.1903 -3.0028 1.1665 3.5502 44.7947
#
#
#
# Elastic Compliance Matrix: (Units=1/GPa)
#
#
# Indices 1 2 3 4 5 6 
#
# 1 0.008973 -0.002599 -0.001960 0.001567 -0.002788 0.004999
# 2 -0.002599 0.015785 -0.002307 -0.001475 -0.000820 0.000256
# 3 -0.001960 -0.002307 0.019848 -0.006900 -0.005793 0.000555
# 4 0.001567 -0.001475 -0.006900 0.040231 -0.003954 -0.000451
# 5 -0.002788 -0.000820 -0.005793 -0.003954 0.031604 -0.004517
# 6 0.004999 0.000256 0.000555 -0.000451 -0.004517 0.025687
#
#
# Mechanical properties :
#
#
# Convention : Reuss Voigt Hill
#
# Bulk Modulus (GPa) = 32.39030 45.24785 38.81907
# Shear Modulus (GPa) = 30.09322 36.03183 33.06252
#
# Velocity S-wave (km/s) = 3.72541 4.07646 3.90489
# Velocity P-wave (km/s) = 5.78300 6.55932 6.18335
#
# Compressibility (1/GPa) = 0.03087344
#
# Stress axis : x y z
#
# Youngs Moduli (GPa) = 111.44897 63.35053 50.38388
#
# Poissons Ratio (x) = 0.16466 0.09876
# Poissons Ratio (y) = 0.28967 0.11622
# Poissons Ratio (z) = 0.21846 0.14613
#
# Static dielectric constant tensor:
#      x y z
#    x 1.912310 -0.006120 -0.040330 
#    y -0.006120 1.808680 0.016200 
#    z -0.040330 0.016200 1.898150 
# 
# From -- ./inp_files/574393.got.cif
#   From: 2010.05.17/outbox.cif.g08.bks.cpg/sg2_288_cif.got.tgz:574393.got - 2010.06.03 11:33:40.
