data_PCOD9080249
_publ_section_title
;
Structure prediction by ZEFSAII (Michael W. Deem and Ramdas Pophale) SiO2 
 PCOD9080249
Probable space group: P -1
;
_chemical_formula_sum "Si O2"
_cell_formula_units_Z 12
_cell_length_a 11.302356
_cell_length_b 9.203552
_cell_length_c 14.244348
_cell_angle_alpha 138.651355
_cell_angle_beta 119.589081
_cell_angle_gamma 93.752871
_cell_volume 554.055384
_symmetry_space_group_name_H-M "P -1"
_symmetry_group_IT_number 2
_symmetry_cell_setting 'triclinic'
loop_
_space_group_symop_operation_xyz
x,y,z
-x,-y,-z
loop_
_atom_site_type_symbol
_atom_site_label
_atom_site_fract_x
_atom_site_fract_y
_atom_site_fract_z
Si Si1 0.269249 0.765327 0.828987
Si Si2 0.074293 0.812893 0.231956
Si Si3 0.520844 0.849992 0.518387
Si Si4 0.001564 0.842817 0.718729
Si Si5 0.183534 0.696172 0.972641
Si Si6 0.735671 0.708867 0.717328
O O1 0.119542 0.434747 0.545610
O O2 0.193217 0.923238 0.861396
O O3 0.252599 0.696259 0.899142
O O4 0.500000 0.000000 0.000000
O O5 0.316284 0.129826 0.450717
O O6 0.948922 0.862119 0.164741
O O7 0.000000 0.500000 0.000000
O O8 0.015011 0.684358 0.252614
O O9 0.309945 0.482348 0.298062
O O10 0.500000 0.000000 0.500000
O O11 0.637502 0.097616 0.776094
O O12 0.845126 0.697909 0.674746
O O13 0.144097 0.910400 0.049206
O O14 0.500000 0.500000 0.500000
#
# Coordination Sequence:
#
# PCOD9080249 Si02
#       6
#     2   2   2   2   2   2
#     4  11  26  44  66  96 134 181 231 270 327 410
#     4  10  20  41  62 100 134 164 218 278 336 396
#     4  10  21  35  62  98 136 161 211 279 334 388
#     4  11  23  44  70  94 137 182 216 277 343 390
#     4  10  22  40  64  95 130 164 223 273 331 396
#     4  10  18  38  67  98 125 169 220 272 331 397
#
# _framework density 21.658484000000001
#
# number of rings (size 3 to 8) (size 9 to 14) (size 15 to 20)
#    0.000    1.667    5.000    2.000    2.333    4.000 
#    0.000    0.833    0.000    0.000    0.000    0.000 
#    0.000    0.000    0.000    0.000    0.000    0.000 
#
# Total GULP energy -66994.464812 kJ/mol
# GULP energy per Si atom -5582.872068 kJ/mol
# Density = 2.160919 g / cm^3
# Si number density = 21.658484 Si / 1000 Ang^3
#
#
#
# Elastic Constant Matrix: (Units=GPa)
#
#
# Indices 1 2 3 4 5 6 
#
# 1 148.0451 82.6903 37.5991 3.2476 17.0265 19.3346
# 2 82.6903 202.9225 44.9788 11.4532 6.5450 18.7224
# 3 37.5991 44.9788 56.5642 -4.2602 11.7402 4.1743
# 4 3.2476 11.4532 -4.2602 42.7022 4.1659 0.9712
# 5 17.0265 6.5450 11.7402 4.1659 36.4206 3.8049
# 6 19.3346 18.7224 4.1743 0.9712 3.8049 54.6906
#
#
#
# Elastic Compliance Matrix: (Units=1/GPa)
#
#
# Indices 1 2 3 4 5 6 
#
# 1 0.009883 -0.002983 -0.003476 0.000016 -0.002755 -0.002016
# 2 -0.002983 0.007270 -0.004268 -0.002302 0.001852 -0.001196
# 3 -0.003476 -0.004268 0.024940 0.004484 -0.006280 0.001143
# 4 0.000016 -0.002302 0.004484 0.024857 -0.003911 0.000271
# 5 -0.002755 0.001852 -0.006280 -0.003911 0.031016 -0.001269
# 6 -0.002016 -0.001196 0.001143 0.000271 -0.001269 0.019403
#
#
# Mechanical properties :
#
#
# Convention : Reuss Voigt Hill
#
# Bulk Modulus (GPa) = 48.44889 82.00760 65.22824
# Shear Modulus (GPa) = 34.31639 42.91361 38.61500
#
# Velocity S-wave (km/s) = 3.98481 4.45609 4.22703
# Velocity P-wave (km/s) = 6.60225 8.02632 7.34886
#
# Compressibility (1/GPa) = 0.02064031
#
# Stress axis : x y z
#
# Youngs Moduli (GPa) = 101.17913 137.54871 40.09671
#
# Poissons Ratio (x) = 0.41032 0.13936
# Poissons Ratio (y) = 0.30183 0.17112
# Poissons Ratio (z) = 0.35167 0.58702
#
# Static dielectric constant tensor:
#      x y z
#    x 1.808050 0.004440 0.042130 
#    y 0.004440 1.873800 0.001680 
#    z 0.042130 0.001680 1.916740 
# 
# From -- ./inp_files/514711.got.cif
#   From: 2010.05.17/outbox.cif.g08.bks.cpg/sg2_258_cif.got.tgz:514711.got - 2010.06.03 11:33:40.
