data_PCOD9080408
_publ_section_title
;
Structure prediction by ZEFSAII (Michael W. Deem and Ramdas Pophale) SiO2 
 PCOD9080408
Probable space group: P -1
;
_chemical_formula_sum "Si O2"
_cell_formula_units_Z 14
_cell_length_a 8.011527
_cell_length_b 20.145140
_cell_length_c 15.901427
_cell_angle_alpha 158.009034
_cell_angle_beta 48.282550
_cell_angle_gamma 120.836886
_cell_volume 665.368705
_symmetry_space_group_name_H-M "P -1"
_symmetry_group_IT_number 2
_symmetry_cell_setting 'triclinic'
loop_
_space_group_symop_operation_xyz
x,y,z
-x,-y,-z
loop_
_atom_site_type_symbol
_atom_site_label
_atom_site_fract_x
_atom_site_fract_y
_atom_site_fract_z
Si Si1 0.162021 0.569365 0.089407
Si Si2 0.579601 0.393474 0.481631
Si Si3 0.251319 0.771423 0.940447
Si Si4 0.353178 0.474442 0.206231
Si Si5 0.565911 0.216205 0.544521
Si Si6 0.332105 0.144607 0.365304
Si Si7 0.263335 0.105812 0.757353
O O1 0.359391 0.615198 0.020692
O O2 0.339579 0.383968 0.863484
O O3 0.000000 0.500000 0.000000
O O4 0.958373 0.740277 0.405199
O O5 0.390852 0.585998 0.730347
O O6 0.759220 0.292877 0.227852
O O7 0.679915 0.458345 0.607449
O O8 0.451712 0.250219 0.386556
O O9 0.980847 0.870148 0.180268
O O10 0.379050 0.924170 0.076561
O O11 0.270716 0.668140 0.406092
O O12 0.249686 0.315478 0.033349
O O13 0.443589 0.164383 0.442336
O O14 0.701680 0.033670 0.338868
O O15 0.500000 0.000000 0.500000
#
# Coordination Sequence:
#
# PCOD9080408 Si02
#       7
#     2   2   2   2   2   2   2
#     4   8  15  33  60  86 104 141 195 234 268 332
#     4  10  22  42  61  81 112 156 202 235 277 329
#     4  11  25  36  57  91 117 148 194 240 282 345
#     4   9  20  39  61  80 115 157 190 232 282 343
#     4   8  20  37  58  85 114 147 193 226 284 351
#     4  10  18  39  64  83 111 150 196 244 277 324
#     4  12  25  37  55  90 125 149 180 237 304 344
#
# _framework density 21.040966000000001
#
# number of rings (size 3 to 8) (size 9 to 14) (size 15 to 20)
#    0.857    1.429    1.429    2.143    2.000    2.286 
#    0.000    6.429    0.000    0.000    0.000    0.000 
#    0.000    0.000    0.000    0.000    0.000    0.000 
#
# Total GULP energy -78046.531066 kJ/mol
# GULP energy per Si atom -5574.752219 kJ/mol
# Density = 2.099308 g / cm^3
# Si number density = 21.040966 Si / 1000 Ang^3
#
#
#
# Elastic Constant Matrix: (Units=GPa)
#
#
# Indices 1 2 3 4 5 6 
#
# 1 51.4738 27.3740 2.6350 21.4237 -5.6553 -0.8991
# 2 27.3740 82.5539 35.0618 32.9580 11.3082 -2.1781
# 3 2.6350 35.0618 95.5729 27.1328 32.7505 8.7160
# 4 21.4237 32.9580 27.1328 42.6108 5.7291 4.9787
# 5 -5.6553 11.3082 32.7505 5.7291 61.6176 13.3297
# 6 -0.8991 -2.1781 8.7160 4.9787 13.3297 28.3191
#
#
#
# Elastic Compliance Matrix: (Units=1/GPa)
#
#
# Indices 1 2 3 4 5 6 
#
# 1 0.028017 -0.006660 0.004129 -0.011921 0.002725 -0.000080
# 2 -0.006660 0.020700 -0.004140 -0.010353 -0.002466 0.005636
# 3 0.004129 -0.004140 0.016666 -0.008500 -0.006794 -0.000625
# 4 -0.011921 -0.010353 -0.008500 0.043372 0.002927 -0.007561
# 5 0.002725 -0.002466 -0.006794 0.002927 0.022214 -0.008983
# 6 -0.000080 0.005636 -0.000625 -0.007561 -0.008983 0.041492
#
#
# Mechanical properties :
#
#
# Convention : Reuss Voigt Hill
#
# Bulk Modulus (GPa) = 19.21550 39.97135 29.59343
# Shear Modulus (GPa) = 24.61223 37.47816 31.04519
#
# Velocity S-wave (km/s) = 3.42384 4.22500 3.84534
# Velocity P-wave (km/s) = 4.97820 6.54515 5.81470
#
# Compressibility (1/GPa) = 0.05204131
#
# Stress axis : x y z
#
# Youngs Moduli (GPa) = 35.69202 48.31026 60.00089
#
# Poissons Ratio (x) = 0.32174 -0.24773
# Poissons Ratio (y) = 0.23770 0.24840
# Poissons Ratio (z) = -0.14736 0.20000
#
# Static dielectric constant tensor:
#      x y z
#    x 1.745390 -0.006210 0.024270 
#    y -0.006210 1.763960 -0.012100 
#    z 0.024270 -0.012100 1.786380 
# 
# From -- ./inp_files/562694.got.cif
#   From: 2010.05.17/outbox.cif.g08.bks.cpg/sg2_282_cif.got.tgz:562694.got - 2010.06.03 11:33:40.
