data_PCOD9080019
_publ_section_title
;
Structure prediction by ZEFSAII (Michael W. Deem and Ramdas Pophale) SiO2 
 PCOD9080019
Probable space group: P -1
;
_chemical_formula_sum "Si O2"
_cell_formula_units_Z 14
_cell_length_a 18.118474
_cell_length_b 15.111213
_cell_length_c 12.089984
_cell_angle_alpha 48.333732
_cell_angle_beta 149.349867
_cell_angle_gamma 153.467370
_cell_volume 669.079536
_symmetry_space_group_name_H-M "P -1"
_symmetry_group_IT_number 2
_symmetry_cell_setting 'triclinic'
loop_
_space_group_symop_operation_xyz
x,y,z
-x,-y,-z
loop_
_atom_site_type_symbol
_atom_site_label
_atom_site_fract_x
_atom_site_fract_y
_atom_site_fract_z
Si Si1 0.803258 0.019577 0.148082
Si Si2 0.409777 0.338507 0.672559
Si Si3 0.427546 0.295989 0.050944
Si Si4 0.059076 0.257331 0.592595
Si Si5 0.759077 0.203464 0.084821
Si Si6 0.489941 0.739965 0.346206
Si Si7 0.681793 0.743312 0.799733
O O1 0.659396 0.829250 0.208108
O O2 0.744178 0.110088 0.036256
O O3 0.673246 0.896871 0.965211
O O4 0.122715 0.209427 0.400807
O O5 0.503150 0.358666 0.655148
O O6 0.622053 0.571103 0.815777
O O7 0.741835 0.544185 0.226757
O O8 0.402924 0.296023 0.150155
O O9 0.224909 0.254433 0.772019
O O10 0.000980 0.312502 0.377006
O O11 0.774091 0.009709 0.473769
O O12 0.747906 0.332307 0.929453
O O13 0.500000 0.000000 0.000000
O O14 0.510538 0.705054 0.525044
O O15 0.000000 0.000000 0.000000
#
# Coordination Sequence:
#
# PCOD9080019 Si02
#       7
#     2   2   2   2   2   2   2
#     4  11  19  37  65  93 114 155 215 251 288 355
#     4  11  21  37  65  90 115 161 211 253 287 352
#     4  11  21  35  61  93 121 157 203 249 298 352
#     4  10  18  38  61  88 120 154 207 249 293 345
#     4  10  20  38  61  89 125 154 202 255 301 351
#     4  11  22  41  60  92 127 159 199 248 308 362
#     4  12  24  38  58  92 131 158 193 252 312 360
#
# _framework density 20.92427
#
# number of rings (size 3 to 8) (size 9 to 14) (size 15 to 20)
#    0.000    1.143    5.714    3.857    0.000    0.000 
#    0.000    7.857    0.000    0.000    0.000    0.000 
#    0.000    0.000    0.000    0.000    0.000    0.000 
#
# Total GULP energy -78167.585031 kJ/mol
# GULP energy per Si atom -5583.398931 kJ/mol
# Density = 2.087665 g / cm^3
# Si number density = 20.924270 Si / 1000 Ang^3
#
#
#
# Elastic Constant Matrix: (Units=GPa)
#
#
# Indices 1 2 3 4 5 6 
#
# 1 125.9631 31.2818 48.0365 -7.5298 -12.0233 -26.4059
# 2 31.2818 74.6307 33.0335 10.8648 -2.4740 -15.0536
# 3 48.0365 33.0335 105.5851 -13.0590 -11.7890 -12.3737
# 4 -7.5298 10.8648 -13.0590 44.6878 -2.4919 -6.4125
# 5 -12.0233 -2.4740 -11.7890 -2.4919 30.5139 -4.4536
# 6 -26.4059 -15.0536 -12.3737 -6.4125 -4.4536 30.4219
#
#
#
# Elastic Compliance Matrix: (Units=1/GPa)
#
#
# Indices 1 2 3 4 5 6 
#
# 1 0.012378 -0.002322 -0.002673 0.003615 0.005420 0.010063
# 2 -0.002322 0.018130 -0.005094 -0.005871 -0.001390 0.003443
# 3 -0.002673 -0.005094 0.013782 0.005450 0.004683 0.002599
# 4 0.003615 -0.005871 0.005450 0.027708 0.006669 0.009266
# 5 0.005420 -0.001390 0.004683 0.006669 0.039053 0.013044
# 6 0.010063 0.003443 0.002599 0.009266 0.013044 0.048230
#
#
# Mechanical properties :
#
#
# Convention : Reuss Voigt Hill
#
# Bulk Modulus (GPa) = 41.47167 58.98694 50.22931
# Shear Modulus (GPa) = 26.66716 34.04653 30.35685
#
# Velocity S-wave (km/s) = 3.57383 4.03815 3.81306
# Velocity P-wave (km/s) = 6.07393 7.07065 6.59116
#
# Compressibility (1/GPa) = 0.02411284
#
# Stress axis : x y z
#
# Youngs Moduli (GPa) = 80.78877 55.15623 72.55610
#
# Poissons Ratio (x) = 0.12806 0.19397
# Poissons Ratio (y) = 0.18757 0.36959
# Poissons Ratio (z) = 0.21598 0.28095
#
# Static dielectric constant tensor:
#      x y z
#    x 1.784920 0.033810 -0.014090 
#    y 0.033810 1.841540 0.003880 
#    z -0.014090 0.003880 1.781540 
# 
# From -- ./inp_files/298609.got.cif
#   From: 2010.05.17/outbox.cif.g08.bks.cpg/sg2_150_cif.got.tgz:298609.got - 2010.06.03 11:33:40.
