data_PCOD9080857
_publ_section_title
;
Structure prediction by ZEFSAII (Michael W. Deem and Ramdas Pophale) SiO2 
 PCOD9080857
Probable space group: P -1
;
_chemical_formula_sum "Si O2"
_cell_formula_units_Z 16
_cell_length_a 12.607250
_cell_length_b 32.294478
_cell_length_c 29.608745
_cell_angle_alpha 171.601683
_cell_angle_beta 149.835561
_cell_angle_gamma 29.963310
_cell_volume 874.666862
_symmetry_space_group_name_H-M "P -1"
_symmetry_group_IT_number 2
_symmetry_cell_setting 'triclinic'
loop_
_space_group_symop_operation_xyz
x,y,z
-x,-y,-z
loop_
_atom_site_type_symbol
_atom_site_label
_atom_site_fract_x
_atom_site_fract_y
_atom_site_fract_z
Si Si1 0.993678 0.227627 0.809029
Si Si2 0.644897 0.062677 0.441302
Si Si3 0.963525 0.739128 0.642961
Si Si4 0.463906 0.764310 0.636219
Si Si5 0.459397 0.487617 0.757570
Si Si6 0.399873 0.610829 0.629971
Si Si7 0.827050 0.197690 0.510366
Si Si8 0.815093 0.317208 0.244453
O O1 0.767476 0.160660 0.635542
O O2 0.169648 0.069020 0.667657
O O3 0.059794 0.087213 0.730298
O O4 0.021176 0.558400 0.172106
O O5 0.511215 0.325145 0.648800
O O6 0.510587 0.807696 0.125829
O O7 0.786662 0.539198 0.372476
O O8 0.141420 0.617995 0.541647
O O9 0.125681 0.785857 0.793975
O O10 0.823331 0.053577 0.929223
O O11 0.488876 0.599510 0.515923
O O12 0.249268 0.842763 0.612611
O O13 0.598621 0.528870 0.398923
O O14 0.562242 0.058809 0.993673
O O15 0.624712 0.319912 0.600663
O O16 0.500000 0.500000 0.500000
O O17 0.000000 0.500000 0.500000
#
# Coordination Sequence:
#
# PCOD9080857 Si02
#       8
#     2   2   2   2   2   2   2   2
#     4   9  17  30  45  66 105 143 171 193 252 307
#     4   9  18  30  43  67 103 148 168 198 240 317
#     4  10  22  32  50  77 102 140 173 217 257 308
#     4  11  22  35  56  78 103 135 180 220 257 304
#     4  10  20  28  47  72 106 133 178 206 250 303
#     4  11  24  41  55  72 105 144 178 217 262 310
#     4  10  19  29  49  75 102 133 172 215 248 305
#     4  10  19  32  50  74 108 133 168 213 267 304
#
# _framework density 18.292679
#
# number of rings (size 3 to 8) (size 9 to 14) (size 15 to 20)
#    0.000    2.000    1.250    2.625   10.500    3.000 
#    0.000    0.000    0.000    0.000    0.000    0.000 
#    0.000   20.000    0.000    0.000    0.000    0.000 
#
# Total GULP energy -89107.601342 kJ/mol
# GULP energy per Si atom -5569.225084 kJ/mol
# Density = 1.825104 g / cm^3
# Si number density = 18.292679 Si / 1000 Ang^3
#
#
#
# Elastic Constant Matrix: (Units=GPa)
#
#
# Indices 1 2 3 4 5 6 
#
# 1 75.0599 33.7737 40.6152 4.5431 12.4549 9.2951
# 2 33.7737 83.2761 40.1359 -6.8562 11.7414 17.1950
# 3 40.6152 40.1359 81.7338 -0.4011 29.2659 1.7283
# 4 4.5431 -6.8562 -0.4011 26.3963 2.2000 9.6690
# 5 12.4549 11.7414 29.2659 2.2000 22.4661 6.4841
# 6 9.2951 17.1950 1.7283 9.6690 6.4841 24.7781
#
#
#
# Elastic Compliance Matrix: (Units=1/GPa)
#
#
# Indices 1 2 3 4 5 6 
#
# 1 0.020293 -0.003239 -0.010501 -0.003178 0.005855 -0.004924
# 2 -0.003239 0.024746 -0.014927 0.014463 0.013873 -0.024190
# 3 -0.010501 -0.014927 0.040837 -0.007263 -0.046498 0.026452
# 4 -0.003178 0.014463 -0.007263 0.052767 0.007406 -0.030867
# 5 0.005855 0.013873 -0.046498 0.007406 0.105110 -0.038976
# 6 -0.004924 -0.024190 0.026452 -0.030867 -0.038976 0.079392
#
#
# Mechanical properties :
#
#
# Convention : Reuss Voigt Hill
#
# Bulk Modulus (GPa) = 35.03715 52.12436 43.58076
# Shear Modulus (GPa) = 12.82072 23.09778 17.95925
#
# Velocity S-wave (km/s) = 2.65026 3.55727 3.13672
# Velocity P-wave (km/s) = 5.34419 6.74009 6.08232
#
# Compressibility (1/GPa) = 0.02854113
#
# Stress axis : x y z
#
# Youngs Moduli (GPa) = 49.27775 40.41096 24.48743
#
# Poissons Ratio (x) = 0.13090 0.25715
# Poissons Ratio (y) = 0.15962 0.36552
# Poissons Ratio (z) = 0.51748 0.60321
#
# Static dielectric constant tensor:
#      x y z
#    x 1.655730 0.022830 0.003120 
#    y 0.022830 1.729090 0.022180 
#    z 0.003120 0.022180 1.640050 
# 
# From -- ./inp_files/113370.got.cif
#   From: 2010.05.17/outbox.cif.g08.bks.cpg/sg2_57_cif.got.tgz:113370.got - 2010.06.03 11:33:40.
