data_PCOD9080776
_publ_section_title
;
Structure prediction by ZEFSAII (Michael W. Deem and Ramdas Pophale) SiO2 
 PCOD9080776
Probable space group: P -1
;
_chemical_formula_sum "Si O2"
_cell_formula_units_Z 10
_cell_length_a 7.060039
_cell_length_b 16.477683
_cell_length_c 12.737533
_cell_angle_alpha 155.498329
_cell_angle_beta 139.013934
_cell_angle_gamma 50.219462
_cell_volume 396.981395
_symmetry_space_group_name_H-M "P -1"
_symmetry_group_IT_number 2
_symmetry_cell_setting 'triclinic'
loop_
_space_group_symop_operation_xyz
x,y,z
-x,-y,-z
loop_
_atom_site_type_symbol
_atom_site_label
_atom_site_fract_x
_atom_site_fract_y
_atom_site_fract_z
Si Si1 0.664879 0.708828 0.364958
Si Si2 0.271493 0.379667 0.343770
Si Si3 0.769315 0.028556 0.030876
Si Si4 0.667861 0.418272 0.179510
Si Si5 0.658711 0.951565 0.313632
O O1 0.618171 0.630717 0.372479
O O2 0.015314 0.796771 0.606795
O O3 0.488295 0.887625 0.495213
O O4 0.500000 0.500000 0.000000
O O5 0.500000 0.500000 0.500000
O O6 0.266767 0.542705 0.625265
O O7 0.925630 0.351591 0.139897
O O8 0.313929 0.165383 0.156533
O O9 0.503449 0.931994 0.109257
O O10 0.000000 0.000000 0.000000
O O11 0.398608 0.242836 0.865648
O O12 0.000000 0.000000 0.500000
#
# Coordination Sequence:
#
# PCOD9080776 Si02
#       5
#     2   2   2   2   2
#     4  11  24  46  78 107 151 209 254 314 390 458
#     4  11  22  42  82 116 144 200 264 318 390 460
#     4  10  18  47  78 102 151 206 251 315 388 458
#     4  11  22  46  74 105 162 196 252 329 384 449
#     4  11  24  46  78 107 151 209 254 314 390 458
#
# _framework density 25.190094999999999
#
# number of rings (size 3 to 8) (size 9 to 14) (size 15 to 20)
#    0.000    1.200    8.000    1.200    0.000    3.200 
#    7.200    3.000    0.000    0.000    0.000    0.000 
#    0.000    0.000    0.000    0.000    0.000    0.000 
#
# Total GULP energy -55680.098932 kJ/mol
# GULP energy per Si atom -5568.009893 kJ/mol
# Density = 2.513276 g / cm^3
# Si number density = 25.190095 Si / 1000 Ang^3
#
#
#
# Elastic Constant Matrix: (Units=GPa)
#
#
# Indices 1 2 3 4 5 6 
#
# 1 115.4977 19.3494 48.2409 -0.1543 49.9542 17.3407
# 2 19.3494 76.6971 49.3107 10.2662 25.5986 -3.6882
# 3 48.2409 49.3107 183.1492 15.0688 45.3046 3.1576
# 4 -0.1543 10.2662 15.0688 65.4515 14.7034 14.3251
# 5 49.9542 25.5986 45.3046 14.7034 58.8723 1.3737
# 6 17.3407 -3.6882 3.1576 14.3251 1.3737 38.2678
#
#
#
# Elastic Compliance Matrix: (Units=1/GPa)
#
#
# Indices 1 2 3 4 5 6 
#
# 1 0.016799 0.000216 -0.001165 0.005538 -0.014623 -0.009044
# 2 0.000216 0.017050 -0.003420 -0.001386 -0.004678 0.002514
# 3 -0.001165 -0.003420 0.007517 -0.000449 -0.003194 -0.000139
# 4 0.005538 -0.001386 -0.000449 0.019616 -0.008425 -0.009647
# 5 -0.014623 -0.004678 -0.003194 -0.008425 0.035796 0.008308
# 6 -0.009044 0.002514 -0.000139 -0.009647 0.008308 0.033796
#
#
# Mechanical properties :
#
#
# Convention : Reuss Voigt Hill
#
# Bulk Modulus (GPa) = 30.64915 67.68292 49.16603
# Shear Modulus (GPa) = 33.29144 49.74784 41.51964
#
# Velocity S-wave (km/s) = 3.63934 4.44880 4.06427
# Velocity P-wave (km/s) = 5.46381 7.30180 6.44863
#
# Compressibility (1/GPa) = 0.03262734
#
# Stress axis : x y z
#
# Youngs Moduli (GPa) = 59.52839 58.65067 133.03260
#
# Poissons Ratio (x) = -0.01265 0.15502
# Poissons Ratio (y) = -0.01284 0.45491
# Poissons Ratio (z) = 0.06937 0.20056
#
# Static dielectric constant tensor:
#      x y z
#    x 2.272410 0.351160 -0.235660 
#    y 0.351160 2.731090 -0.470540 
#    z -0.235660 -0.470540 2.374570 
# 
# From -- ./inp_files/365948.got.cif
#   From: 2010.05.17/outbox.cif.g08.bks.cpg/sg2_183_cif.got.tgz:365948.got - 2010.06.03 11:33:40.
