data_PCOD9080746
_publ_section_title
;
Structure prediction by ZEFSAII (Michael W. Deem and Ramdas Pophale) SiO2 
 PCOD9080746
Probable space group: P -1
;
_chemical_formula_sum "Si O2"
_cell_formula_units_Z 15
_cell_length_a 8.560955
_cell_length_b 6.660569
_cell_length_c 12.933098
_cell_angle_alpha 92.664177
_cell_angle_beta 113.764019
_cell_angle_gamma 55.731795
_cell_volume 541.667587
_symmetry_space_group_name_H-M "P -1"
_symmetry_group_IT_number 2
_symmetry_cell_setting 'triclinic'
loop_
_space_group_symop_operation_xyz
x,y,z
-x,-y,-z
loop_
_atom_site_type_symbol
_atom_site_label
_atom_site_fract_x
_atom_site_fract_y
_atom_site_fract_z
Si Si1 0.256412 0.629770 0.418208
Si Si2 0.212322 0.673433 0.183752
Si Si3 0.106058 0.209418 0.545753
Si Si4 0.000000 0.500000 0.000000
Si Si5 0.657132 0.126380 0.953691
Si Si6 0.209187 0.186831 0.354473
Si Si7 0.480275 0.099586 0.233707
Si Si8 0.806123 0.365521 0.128508
O O1 0.500000 0.500000 0.500000
O O2 0.197116 0.769980 0.296679
O O3 0.226789 0.414066 0.381230
O O4 0.097033 0.776350 0.473034
O O5 0.235945 0.832389 0.112081
O O6 0.416539 0.378608 0.225676
O O7 0.029108 0.645013 0.105973
O O8 0.240579 0.069338 0.473670
O O9 0.271578 0.098090 0.682943
O O10 0.000000 0.500000 0.500000
O O11 0.097958 0.598362 0.947109
O O12 0.637140 0.908311 0.901682
O O13 0.413901 0.370578 0.898463
O O14 0.754711 0.167974 0.081822
O O15 0.973171 0.292333 0.260312
O O16 0.371182 0.054268 0.298462
#
# Coordination Sequence:
#
# PCOD9080746 Si02
#       8
#     2   2   2   1   2   2   2   2
#     4  10  21  37  65  92 129 171 219 265 324 387
#     4  10  23  42  66  97 134 171 215 274 320 385
#     4  10  22  39  68  91 127 181 214 264 335 382
#     4  10  18  42  68  86 132 174 200 270 336 364
#     4  10  23  39  71  97 130 176 217 265 324 397
#     4  10  21  40  63  94 134 172 216 271 324 388
#     4  11  22  42  69  97 133 170 221 270 325 389
#     4  10  20  41  66  97 130 174 217 264 332 385
#
# _framework density 27.692257999999999
#
# number of rings (size 3 to 8) (size 9 to 14) (size 15 to 20)
#    0.000    1.867    2.667    2.000    5.600    0.533 
#    0.000   10.000    0.000    0.000    0.000    0.000 
#    0.000    0.000    0.000    0.000    0.000    0.000 
#
# Total GULP energy -83833.918796 kJ/mol
# GULP energy per Si atom -5588.927920 kJ/mol
# Density = 2.762923 g / cm^3
# Si number density = 27.692258 Si / 1000 Ang^3
#
#
#
# Elastic Constant Matrix: (Units=GPa)
#
#
# Indices 1 2 3 4 5 6 
#
# 1 83.8689 37.2205 23.4448 -9.7930 13.0669 -9.2326
# 2 37.2205 107.1063 18.0329 12.9730 11.7554 5.1593
# 3 23.4448 18.0329 163.5499 -6.0163 27.6188 -17.0671
# 4 -9.7930 12.9730 -6.0163 45.1101 -9.2629 3.9207
# 5 13.0669 11.7554 27.6188 -9.2629 49.8639 -2.9408
# 6 -9.2326 5.1593 -17.0671 3.9207 -2.9408 45.5751
#
#
#
# Elastic Compliance Matrix: (Units=1/GPa)
#
#
# Indices 1 2 3 4 5 6 
#
# 1 0.015863 -0.005914 -0.000928 0.004501 -0.001231 0.003069
# 2 -0.005914 0.012483 -0.000619 -0.005180 -0.002162 -0.002537
# 3 -0.000928 -0.000619 0.007138 0.000023 -0.003423 0.002332
# 4 0.004501 -0.005180 0.000023 0.025652 0.004771 -0.000392
# 5 -0.001231 -0.002162 -0.003423 0.004771 0.023659 -0.000170
# 6 0.003069 -0.002537 0.002332 -0.000392 -0.000170 0.023747
#
#
# Mechanical properties :
#
#
# Convention : Reuss Voigt Hill
#
# Bulk Modulus (GPa) = 48.63430 56.88018 52.75724
# Shear Modulus (GPa) = 38.36830 46.49828 42.43329
#
# Velocity S-wave (km/s) = 3.72630 4.10214 3.91873
# Velocity P-wave (km/s) = 6.00952 6.55907 6.29030
#
# Compressibility (1/GPa) = 0.02056162
#
# Stress axis : x y z
#
# Youngs Moduli (GPa) = 63.04120 80.11051 140.09923
#
# Poissons Ratio (x) = 0.47377 0.13002
# Poissons Ratio (y) = 0.37283 0.08668
# Poissons Ratio (z) = 0.05851 0.04957
#
# Static dielectric constant tensor:
#      x y z
#    x 2.008670 -0.177110 0.043320 
#    y -0.177110 1.607780 0.162530 
#    z 0.043320 0.162530 2.270760 
# 
# From -- ./inp_files/491309.got.cif
#   From: 2010.05.17/outbox.cif.g08.bks.cpg/sg2_246_cif.got.tgz:491309.got - 2010.06.03 11:33:40.
