data_PCOD9080883
_publ_section_title
;
Structure prediction by ZEFSAII (Michael W. Deem and Ramdas Pophale) SiO2 
 PCOD9080883
Probable space group: P -1
;
_chemical_formula_sum "Si O2"
_cell_formula_units_Z 16
_cell_length_a 14.744821
_cell_length_b 9.434240
_cell_length_c 7.681454
_cell_angle_alpha 68.347979
_cell_angle_beta 92.822221
_cell_angle_gamma 135.919448
_cell_volume 651.277178
_symmetry_space_group_name_H-M "P -1"
_symmetry_group_IT_number 2
_symmetry_cell_setting 'triclinic'
loop_
_space_group_symop_operation_xyz
x,y,z
-x,-y,-z
loop_
_atom_site_type_symbol
_atom_site_label
_atom_site_fract_x
_atom_site_fract_y
_atom_site_fract_z
Si Si1 0.196979 0.581449 0.816478
Si Si2 0.973153 0.297575 0.663827
Si Si3 0.119469 0.203985 0.543050
Si Si4 0.266538 0.139608 0.757274
Si Si5 0.407455 0.600902 0.720613
Si Si6 0.705986 0.989512 0.559784
Si Si7 0.615890 0.292912 0.699807
Si Si8 0.686044 0.107460 0.984047
O O1 0.281738 0.529589 0.834171
O O2 0.260929 0.797809 0.603001
O O3 0.227676 0.681496 0.966293
O O4 0.038537 0.375093 0.830303
O O5 0.823474 0.075958 0.662145
O O6 0.000000 0.500000 0.500000
O O7 0.073357 0.300166 0.585261
O O8 0.141756 0.097552 0.731349
O O9 0.268004 0.433775 0.367834
O O10 0.000000 0.000000 0.500000
O O11 0.375940 0.391736 0.742940
O O12 0.298714 0.113154 0.577943
O O13 0.248277 0.974539 0.957637
O O14 0.423602 0.723132 0.493189
O O15 0.558209 0.793433 0.730262
O O16 0.473355 0.119235 0.870395
O O17 0.679427 0.206045 0.772203
#
# Coordination Sequence:
#
# PCOD9080883 Si02
#       8
#     2   2   2   2   2   2   2   2
#     4  10  19  34  55  85 117 151 194 243 287 348
#     4  10  20  32  52  86 119 144 189 245 290 337
#     4  11  21  35  60  88 111 150 204 246 281 340
#     4  10  19  32  56  85 115 145 195 247 284 340
#     4  11  19  32  62  91 110 145 207 253 281 328
#     4  10  19  29  52  86 119 144 190 246 294 334
#     4  10  21  37  59  88 118 155 194 240 294 354
#     4  10  22  37  59  85 123 155 188 240 306 351
#
# _framework density 24.567115000000001
#
# number of rings (size 3 to 8) (size 9 to 14) (size 15 to 20)
#    0.000    1.750    6.250    0.750    1.750    0.000 
#    0.000    0.625    0.000   11.250    0.000    0.000 
#    0.000    0.000    0.000    0.000    0.000    0.000 
#
# Total GULP energy -89351.627289 kJ/mol
# GULP energy per Si atom -5584.476706 kJ/mol
# Density = 2.451120 g / cm^3
# Si number density = 24.567115 Si / 1000 Ang^3
#
#
#
# Elastic Constant Matrix: (Units=GPa)
#
#
# Indices 1 2 3 4 5 6 
#
# 1 138.2839 64.9278 19.4373 -11.8119 23.5543 -3.6718
# 2 64.9278 148.4118 21.5908 9.1332 9.8667 9.2314
# 3 19.4373 21.5908 37.8498 -4.0667 5.9694 -14.5785
# 4 -11.8119 9.1332 -4.0667 19.6934 -8.9202 6.1307
# 5 23.5543 9.8667 5.9694 -8.9202 20.2676 -0.9615
# 6 -3.6718 9.2314 -14.5785 6.1307 -0.9615 54.5200
#
#
#
# Elastic Compliance Matrix: (Units=1/GPa)
#
#
# Indices 1 2 3 4 5 6 
#
# 1 0.011428 -0.004573 -0.001186 0.004648 -0.008633 0.000552
# 2 -0.004573 0.010321 -0.005087 -0.008813 -0.002207 -0.002464
# 3 -0.001186 -0.005087 0.034687 0.003952 -0.004169 0.009539
# 4 0.004648 -0.008813 0.003952 0.073506 0.029844 -0.004877
# 5 -0.008633 -0.002207 -0.004169 0.029844 0.074651 -0.003362
# 6 0.000552 -0.002464 0.009539 -0.004877 -0.003362 0.021836
#
#
# Mechanical properties :
#
#
# Convention : Reuss Voigt Hill
#
# Bulk Modulus (GPa) = 28.78231 59.60638 44.19434
# Shear Modulus (GPa) = 19.25282 33.46885 26.36084
#
# Velocity S-wave (km/s) = 2.80247 3.69500 3.27924
# Velocity P-wave (km/s) = 4.71307 6.52069 5.68913
#
# Compressibility (1/GPa) = 0.03474356
#
# Stress axis : x y z
#
# Youngs Moduli (GPa) = 87.50653 96.88953 28.82906
#
# Poissons Ratio (x) = 0.44310 0.03420
# Poissons Ratio (y) = 0.40019 0.14664
# Poissons Ratio (z) = 0.10381 0.49284
#
# Static dielectric constant tensor:
#      x y z
#    x 2.139920 0.027470 -0.191790 
#    y 0.027470 1.986630 0.012540 
#    z -0.191790 0.012540 2.072970 
# 
# From -- ./inp_files/297922.got.cif
#   From: 2010.05.17/outbox.cif.g08.bks.cpg/sg2_149_cif.got.tgz:297922.got - 2010.06.03 11:33:40.
