data_PCOD9080561
_publ_section_title
;
Structure prediction by ZEFSAII (Michael W. Deem and Ramdas Pophale) SiO2 
 PCOD9080561
Probable space group: P -1
;
_chemical_formula_sum "Si O2"
_cell_formula_units_Z 16
_cell_length_a 12.314496
_cell_length_b 13.452094
_cell_length_c 9.640551
_cell_angle_alpha 124.147591
_cell_angle_beta 95.329519
_cell_angle_gamma 43.984664
_cell_volume 771.866418
_symmetry_space_group_name_H-M "P -1"
_symmetry_group_IT_number 2
_symmetry_cell_setting 'triclinic'
loop_
_space_group_symop_operation_xyz
x,y,z
-x,-y,-z
loop_
_atom_site_type_symbol
_atom_site_label
_atom_site_fract_x
_atom_site_fract_y
_atom_site_fract_z
Si Si1 0.030399 0.042083 0.334127
Si Si2 0.344248 0.545336 0.250368
Si Si3 0.720233 0.993386 0.193769
Si Si4 0.641223 0.719245 0.297216
Si Si5 0.902452 0.300212 0.914551
Si Si6 0.656417 0.195573 0.598535
Si Si7 0.707941 0.061560 0.939380
Si Si8 0.482997 0.996392 0.259339
O O1 0.052652 0.878800 0.185116
O O2 0.141993 0.970512 0.435476
O O3 0.142951 0.010134 0.201701
O O4 0.816386 0.273670 0.515348
O O5 0.228677 0.585372 0.145578
O O6 0.423767 0.599370 0.240008
O O7 0.519301 0.309076 0.126027
O O8 0.581801 0.005260 0.179891
O O9 0.902800 0.805034 0.159775
O O10 0.635709 0.174985 0.419878
O O11 0.781690 0.978621 0.038394
O O12 0.448877 0.815730 0.343586
O O13 0.643247 0.788937 0.207992
O O14 0.631648 0.822889 0.500787
O O15 0.790618 0.482131 0.151382
O O16 0.641219 0.992511 0.819273
#
# Coordination Sequence:
#
# PCOD9080561 Si02
#       8
#     2   2   2   2   2   2   2   2
#     4  11  21  40  69  93 131 156 210 261 303 382
#     4  11  21  39  69  94 126 166 206 252 316 378
#     4  11  24  40  63  86 136 162 202 264 310 366
#     4  10  20  36  69  91 117 164 221 258 299 367
#     4  11  20  41  63 100 118 161 211 260 315 362
#     4  10  18  40  62  94 123 162 203 260 306 366
#     4  12  25  43  61  95 131 168 203 256 320 368
#     4  10  22  42  60  89 124 169 212 256 305 366
#
# _framework density 20.728975999999999
#
# number of rings (size 3 to 8) (size 9 to 14) (size 15 to 20)
#    0.000    1.250    5.000    1.875    0.000    3.500 
#    6.750    0.625    0.000    0.000    0.000    0.000 
#    0.000    0.000    0.000    0.000    0.000    0.000 
#
# Total GULP energy -89209.649846 kJ/mol
# GULP energy per Si atom -5575.603115 kJ/mol
# Density = 2.068180 g / cm^3
# Si number density = 20.728976 Si / 1000 Ang^3
#
#
#
# Elastic Constant Matrix: (Units=GPa)
#
#
# Indices 1 2 3 4 5 6 
#
# 1 72.2769 19.4822 37.1015 7.3636 9.2198 8.4061
# 2 19.4822 37.5967 35.8226 -4.4312 4.7237 6.6961
# 3 37.1015 35.8226 100.1140 12.3893 10.8568 15.6003
# 4 7.3636 -4.4312 12.3893 35.0263 6.8592 -2.5999
# 5 9.2198 4.7237 10.8568 6.8592 25.3554 -1.9361
# 6 8.4061 6.6961 15.6003 -2.5999 -1.9361 18.1674
#
#
#
# Elastic Compliance Matrix: (Units=1/GPa)
#
#
# Indices 1 2 3 4 5 6 
#
# 1 0.018314 -0.005298 -0.003445 -0.002893 -0.003749 -0.004377
# 2 -0.005298 0.046572 -0.016091 0.013420 -0.003440 0.000657
# 3 -0.003445 -0.016091 0.020189 -0.008729 -0.002901 -0.011370
# 4 -0.002893 0.013420 -0.008729 0.035888 -0.006786 0.008300
# 5 -0.003749 -0.003440 -0.002901 -0.006786 0.045235 0.009344
# 6 -0.004377 0.000657 -0.011370 0.008300 0.009344 0.068774
#
#
# Mechanical properties :
#
#
# Convention : Reuss Voigt Hill
#
# Bulk Modulus (GPa) = 28.24251 43.86670 36.05461
# Shear Modulus (GPa) = 16.86667 23.54856 20.20762
#
# Velocity S-wave (km/s) = 2.85560 3.37415 3.12564
# Velocity P-wave (km/s) = 4.95245 6.03223 5.51881
#
# Compressibility (1/GPa) = 0.03540761
#
# Stress axis : x y z
#
# Youngs Moduli (GPa) = 54.60282 21.47216 49.53119
#
# Poissons Ratio (x) = 0.11377 0.17062
# Poissons Ratio (y) = 0.28931 0.79699
# Poissons Ratio (z) = 0.18809 0.34550
#
# Static dielectric constant tensor:
#      x y z
#    x 1.734330 -0.000310 -0.040950 
#    y -0.000310 1.746170 0.021600 
#    z -0.040950 0.021600 1.834680 
# 
# From -- ./inp_files/205766.got.cif
#   From: 2010.05.17/outbox.cif.g08.bks.cpg/sg2_103_cif.got.tgz:205766.got - 2010.06.03 11:33:40.
