data_PCOD9080864
_publ_section_title
;
Structure prediction by ZEFSAII (Michael W. Deem and Ramdas Pophale) SiO2 
 PCOD9080864
Probable space group: P -1
;
_chemical_formula_sum "Si O2"
_cell_formula_units_Z 14
_cell_length_a 12.089158
_cell_length_b 5.413007
_cell_length_c 12.341066
_cell_angle_alpha 80.655263
_cell_angle_beta 118.209201
_cell_angle_gamma 69.136794
_cell_volume 609.012534
_symmetry_space_group_name_H-M "P -1"
_symmetry_group_IT_number 2
_symmetry_cell_setting 'triclinic'
loop_
_space_group_symop_operation_xyz
x,y,z
-x,-y,-z
loop_
_atom_site_type_symbol
_atom_site_label
_atom_site_fract_x
_atom_site_fract_y
_atom_site_fract_z
Si Si1 0.709418 0.652569 0.303384
Si Si2 0.939107 0.481680 0.241093
Si Si3 0.064060 0.996966 0.817563
Si Si4 0.321181 0.384904 0.464800
Si Si5 0.132260 0.221954 0.023262
Si Si6 0.334235 0.921020 0.337922
Si Si7 0.370172 0.721990 0.848048
O O1 0.856033 0.520445 0.309784
O O2 0.744744 0.596576 0.448878
O O3 0.635063 0.472372 0.238522
O O4 0.624594 0.995081 0.210326
O O5 0.015541 0.163295 0.253919
O O6 0.019187 0.664597 0.271555
O O7 0.829827 0.650278 0.076022
O O8 0.217896 0.852206 0.835238
O O9 0.092874 0.001447 0.958015
O O10 0.297468 0.675603 0.375554
O O11 0.493446 0.227817 0.584914
O O12 0.298785 0.171201 0.391043
O O13 0.254369 0.060390 0.178618
O O14 0.000000 0.500000 0.000000
O O15 0.500000 0.500000 0.000000
#
# Coordination Sequence:
#
# PCOD9080864 Si02
#       7
#     2   2   2   2   2   2   2
#     4  10  19  34  55  78 112 147 186 231 281 344
#     4   8  18  34  52  83 109 140 180 236 290 330
#     4   8  18  32  47  79 112 138 175 223 290 331
#     4  10  22  40  58  81 115 163 186 232 276 340
#     4  10  22  38  62  85 116 152 187 247 292 330
#     4  10  23  39  56  84 116 150 203 224 277 351
#     4  10  19  29  49  85 113 142 178 230 297 337
#
# _framework density 22.988033999999999
#
# number of rings (size 3 to 8) (size 9 to 14) (size 15 to 20)
#    0.857    1.714    0.000    1.286    4.000    2.857 
#    0.000    0.000    0.000    1.714    0.000    0.000 
#    0.000    0.000    0.000    0.000    0.000    0.000 
#
# Total GULP energy -78113.943112 kJ/mol
# GULP energy per Si atom -5579.567365 kJ/mol
# Density = 2.293571 g / cm^3
# Si number density = 22.988034 Si / 1000 Ang^3
#
#
#
# Elastic Constant Matrix: (Units=GPa)
#
#
# Indices 1 2 3 4 5 6 
#
# 1 56.1002 26.2018 40.1067 11.1701 -11.6388 2.1932
# 2 26.2018 180.2752 56.6827 22.4223 4.0683 29.5276
# 3 40.1067 56.6827 134.7760 9.6966 -19.2023 -13.2430
# 4 11.1701 22.4223 9.6966 35.2464 -15.9802 4.9352
# 5 -11.6388 4.0683 -19.2023 -15.9802 34.0423 1.9175
# 6 2.1932 29.5276 -13.2430 4.9352 1.9175 33.6303
#
#
#
# Elastic Compliance Matrix: (Units=1/GPa)
#
#
# Indices 1 2 3 4 5 6 
#
# 1 0.024325 -0.000492 -0.006663 -0.003690 0.003077 -0.003412
# 2 -0.000492 0.009811 -0.005421 -0.006395 -0.006872 -0.009386
# 3 -0.006663 -0.005421 0.013361 0.003800 0.007156 0.009490
# 4 -0.003690 -0.006395 0.003800 0.042335 0.021524 -0.000088
# 5 0.003077 -0.006872 0.007156 0.021524 0.045225 0.002914
# 6 -0.003412 -0.009386 0.009490 -0.000088 0.002914 0.041783
#
#
# Mechanical properties :
#
#
# Convention : Reuss Voigt Hill
#
# Bulk Modulus (GPa) = 44.75338 68.57044 56.66191
# Shear Modulus (GPa) = 23.87312 37.12781 30.50046
#
# Velocity S-wave (km/s) = 3.22608 4.02318 3.64647
# Velocity P-wave (km/s) = 5.77816 7.17460 6.51391
#
# Compressibility (1/GPa) = 0.02234468
#
# Stress axis : x y z
#
# Youngs Moduli (GPa) = 41.10987 101.92555 74.84430
#
# Poissons Ratio (x) = 0.05015 0.49870
# Poissons Ratio (y) = 0.02023 0.40574
# Poissons Ratio (z) = 0.27392 0.55255
#
# Static dielectric constant tensor:
#      x y z
#    x 1.913310 0.064830 0.030780 
#    y 0.064830 1.933150 -0.009590 
#    z 0.030780 -0.009590 1.810800 
# 
# From -- ./inp_files/440435.got.cif
#   From: 2010.05.17/outbox.cif.g08.bks.cpg/sg2_221_cif.got.tgz:440435.got - 2010.06.03 11:33:40.
