data_PCOD9080988
_publ_section_title
;
Structure prediction by ZEFSAII (Michael W. Deem and Ramdas Pophale) SiO2 
 PCOD9080988
Probable space group: P -1
;
_chemical_formula_sum "Si O2"
_cell_formula_units_Z 12
_cell_length_a 11.318814
_cell_length_b 20.263951
_cell_length_c 11.377422
_cell_angle_alpha 151.584343
_cell_angle_beta 134.115291
_cell_angle_gamma 30.516222
_cell_volume 609.739158
_symmetry_space_group_name_H-M "P -1"
_symmetry_group_IT_number 2
_symmetry_cell_setting 'triclinic'
loop_
_space_group_symop_operation_xyz
x,y,z
-x,-y,-z
loop_
_atom_site_type_symbol
_atom_site_label
_atom_site_fract_x
_atom_site_fract_y
_atom_site_fract_z
Si Si1 0.050771 0.333569 0.407425
Si Si2 0.974909 0.347394 0.108067
Si Si3 0.896456 0.999525 0.045512
Si Si4 0.479800 0.649893 0.496148
Si Si5 0.246828 0.938290 0.568399
Si Si6 0.335527 0.691831 0.049217
O O1 0.097394 0.298952 0.244776
O O2 0.106702 0.452318 0.677253
O O3 0.761469 0.496101 0.476413
O O4 0.169923 0.121901 0.209357
O O5 0.758319 0.375018 0.034286
O O6 0.160437 0.149516 0.845878
O O7 0.682020 0.219185 0.298498
O O8 0.109278 0.864547 0.078772
O O9 0.000000 0.000000 0.000000
O O10 0.394687 0.808095 0.583290
O O11 0.463385 0.505985 0.201367
O O12 0.374886 0.802208 0.328056
O O13 0.000000 0.000000 0.500000
#
# Coordination Sequence:
#
# PCOD9080988 Si02
#       6
#     2   2   2   2   2   2
#     4   9  18  30  44  73  99 119 154 184 231 282
#     4   8  15  30  45  68 104 120 140 192 231 280
#     4  10  19  33  48  66  92 125 160 195 225 261
#     4  10  17  30  48  71  93 122 152 192 234 271
#     4  10  15  29  48  69 101 121 146 187 237 279
#     4   9  19  30  47  75  96 119 155 186 229 283
#
# _framework density 19.680546
#
# number of rings (size 3 to 8) (size 9 to 14) (size 15 to 20)
#    0.000    3.000    5.000    0.500    0.000    3.333 
#    3.000    0.000    0.000    1.000    0.000    2.333 
#    0.000    0.000    0.000    0.000    0.000    0.000 
#
# Total GULP energy -66867.876604 kJ/mol
# GULP energy per Si atom -5572.323050 kJ/mol
# Density = 1.963575 g / cm^3
# Si number density = 19.680546 Si / 1000 Ang^3
#
#
#
# Elastic Constant Matrix: (Units=GPa)
#
#
# Indices 1 2 3 4 5 6 
#
# 1 63.6925 9.9460 63.8375 -3.2431 -12.4418 4.7115
# 2 9.9460 34.1504 14.9649 4.8348 -13.4849 -10.4219
# 3 63.8375 14.9649 226.8952 0.6853 -14.2723 -2.4115
# 4 -3.2431 4.8348 0.6853 16.8851 -5.1501 -3.7632
# 5 -12.4418 -13.4849 -14.2723 -5.1501 28.2127 2.6662
# 6 4.7115 -10.4219 -2.4115 -3.7632 2.6662 11.7762
#
#
#
# Elastic Compliance Matrix: (Units=1/GPa)
#
#
# Indices 1 2 3 4 5 6 
#
# 1 0.027101 -0.009000 -0.006811 0.005788 0.007148 -0.019971
# 2 -0.009000 0.052494 0.000621 -0.001414 0.016838 0.045920
# 3 -0.006811 0.000621 0.006327 -0.000796 -0.000061 0.004330
# 4 0.005788 -0.001414 -0.000796 0.067948 0.012444 0.015166
# 5 0.007148 0.016838 -0.000061 0.012444 0.048410 0.005046
# 6 -0.019971 0.045920 0.004330 0.015166 0.005046 0.138137
#
#
# Mechanical properties :
#
#
# Convention : Reuss Voigt Hill
#
# Bulk Modulus (GPa) = 18.00415 55.80388 36.90402
# Shear Modulus (GPa) = 12.84322 27.10745 19.97533
#
# Velocity S-wave (km/s) = 2.55734 3.71532 3.18933
# Velocity P-wave (km/s) = 4.22943 6.84260 5.68812
#
# Compressibility (1/GPa) = 0.05554274
#
# Stress axis : x y z
#
# Youngs Moduli (GPa) = 36.89890 19.04984 158.04310
#
# Poissons Ratio (x) = 0.17144 1.07651
# Poissons Ratio (y) = 0.33208 -0.09819
# Poissons Ratio (z) = 0.25134 -0.01184
#
# Static dielectric constant tensor:
#      x y z
#    x 1.689590 -0.046860 0.008340 
#    y -0.046860 1.760350 -0.005160 
#    z 0.008340 -0.005160 1.786000 
# 
# From -- ./inp_files/420831.got.cif
#   From: 2010.05.17/outbox.cif.g08.bks.cpg/sg2_211_cif.got.tgz:420831.got - 2010.06.03 11:33:40.
