data_PCOD9080146
_publ_section_title
;
Structure prediction by ZEFSAII (Michael W. Deem and Ramdas Pophale) SiO2 
 PCOD9080146
Probable space group: P -1
;
_chemical_formula_sum "Si O2"
_cell_formula_units_Z 16
_cell_length_a 9.376876
_cell_length_b 14.557777
_cell_length_c 22.140745
_cell_angle_alpha 19.852654
_cell_angle_beta 131.642045
_cell_angle_gamma 128.374540
_cell_volume 766.934714
_symmetry_space_group_name_H-M "P -1"
_symmetry_group_IT_number 2
_symmetry_cell_setting 'triclinic'
loop_
_space_group_symop_operation_xyz
x,y,z
-x,-y,-z
loop_
_atom_site_type_symbol
_atom_site_label
_atom_site_fract_x
_atom_site_fract_y
_atom_site_fract_z
Si Si1 0.398166 0.449894 0.940188
Si Si2 0.614258 0.399269 0.805678
Si Si3 0.085151 0.315824 0.783805
Si Si4 0.011496 0.739864 0.078402
Si Si5 0.511506 0.996009 0.577762
Si Si6 0.495733 0.883406 0.932622
Si Si7 0.128215 0.780204 0.407332
Si Si8 0.293068 0.306007 0.680352
O O1 0.509993 0.229153 0.066759
O O2 0.181629 0.362640 0.941967
O O3 0.403422 0.732050 0.731413
O O4 0.500000 0.500000 0.000000
O O5 0.802001 0.330084 0.863737
O O6 0.577293 0.720558 0.599296
O O7 0.620535 0.287402 0.944683
O O8 0.432941 0.269614 0.799789
O O9 0.288043 0.188071 0.941954
O O10 0.110865 0.563749 0.592130
O O11 0.978238 0.384107 0.774005
O O12 0.989871 0.061792 0.882459
O O13 0.727803 0.997526 0.664698
O O14 0.500000 0.000000 0.500000
O O15 0.420092 0.188781 0.733671
O O16 0.226314 0.616422 0.480385
O O17 0.910694 0.842723 0.288664
#
# Coordination Sequence:
#
# PCOD9080146 Si02
#       8
#     2   2   2   2   2   2   2   2
#     4  11  26  45  59  88 133 174 207 251 320 371
#     4  11  20  37  68  96 116 159 215 264 304 377
#     4  10  18  38  64  92 125 161 204 256 327 375
#     4  10  22  36  63  92 126 164 206 257 314 380
#     4  11  21  43  66  86 125 177 219 249 297 380
#     4  11  19  40  68  90 122 160 213 262 298 387
#     4  10  21  37  63  96 128 158 203 274 316 363
#     4  10  20  34  61 100 124 142 204 272 330 347
#
# _framework density 20.862271
#
# number of rings (size 3 to 8) (size 9 to 14) (size 15 to 20)
#    0.000    1.500    5.000    1.875    0.000    4.500 
#    4.500    1.875    0.000    0.000    0.000    0.000 
#    0.000    0.000    0.000    0.000    0.000    0.000 
#
# Total GULP energy -89296.121189 kJ/mol
# GULP energy per Si atom -5581.007574 kJ/mol
# Density = 2.081479 g / cm^3
# Si number density = 20.862271 Si / 1000 Ang^3
#
#
#
# Elastic Constant Matrix: (Units=GPa)
#
#
# Indices 1 2 3 4 5 6 
#
# 1 135.8750 56.2240 20.4134 11.4003 17.0223 -4.7226
# 2 56.2240 137.6088 11.6509 -4.8021 16.9530 -1.6476
# 3 20.4134 11.6509 41.6138 3.4409 9.5762 -4.1566
# 4 11.4003 -4.8021 3.4409 20.0902 2.5626 -5.8885
# 5 17.0223 16.9530 9.5762 2.5626 29.4211 -3.0949
# 6 -4.7226 -1.6476 -4.1566 -5.8885 -3.0949 36.2788
#
#
#
# Elastic Compliance Matrix: (Units=1/GPa)
#
#
# Indices 1 2 3 4 5 6 
#
# 1 0.010161 -0.003843 -0.002936 -0.006001 -0.002223 -0.000352
# 2 -0.003843 0.009482 -0.000336 0.005076 -0.003530 0.000415
# 3 -0.002936 -0.000336 0.027435 -0.001703 -0.006689 0.001899
# 4 -0.006001 0.005076 -0.001703 0.057514 -0.003032 0.008331
# 5 -0.002223 -0.003530 -0.006689 -0.003032 0.039930 0.001698
# 6 -0.000352 0.000415 0.001899 0.008331 0.001698 0.029252
#
#
# Mechanical properties :
#
#
# Convention : Reuss Voigt Hill
#
# Bulk Modulus (GPa) = 30.44224 54.63049 42.53637
# Shear Modulus (GPa) = 25.13175 32.27864 28.70519
#
# Velocity S-wave (km/s) = 3.47457 3.93775 3.71339
# Velocity P-wave (km/s) = 5.54261 6.84964 6.23049
#
# Compressibility (1/GPa) = 0.03284909
#
# Stress axis : x y z
#
# Youngs Moduli (GPa) = 98.41968 105.45853 36.45044
#
# Poissons Ratio (x) = 0.40523 0.10701
# Poissons Ratio (y) = 0.37818 0.01224
# Poissons Ratio (z) = 0.28893 0.03543
#
# Static dielectric constant tensor:
#      x y z
#    x 1.730500 0.008530 0.058460 
#    y 0.008530 1.765280 -0.016900 
#    z 0.058460 -0.016900 1.678180 
# 
# From -- ./inp_files/260062.got.cif
#   From: 2010.05.17/outbox.cif.g08.bks.cpg/sg2_131_cif.got.tgz:260062.got - 2010.06.03 11:33:40.
