data_PCOD9080488
_publ_section_title
;
Structure prediction by ZEFSAII (Michael W. Deem and Ramdas Pophale) SiO2 
 PCOD9080488
Probable space group: P -1
;
_chemical_formula_sum "Si O2"
_cell_formula_units_Z 12
_cell_length_a 8.520389
_cell_length_b 9.088410
_cell_length_c 9.699823
_cell_angle_alpha 101.119014
_cell_angle_beta 58.413391
_cell_angle_gamma 130.186565
_cell_volume 476.494690
_symmetry_space_group_name_H-M "P -1"
_symmetry_group_IT_number 2
_symmetry_cell_setting 'triclinic'
loop_
_space_group_symop_operation_xyz
x,y,z
-x,-y,-z
loop_
_atom_site_type_symbol
_atom_site_label
_atom_site_fract_x
_atom_site_fract_y
_atom_site_fract_z
Si Si1 0.909112 0.807851 0.415365
Si Si2 0.147656 0.206052 0.048467
Si Si3 0.852065 0.191152 0.446453
Si Si4 0.381593 0.098011 0.093948
Si Si5 0.443604 0.725290 0.539542
Si Si6 0.771527 0.480145 0.137774
O O1 0.659457 0.717848 0.437655
O O2 0.957115 0.713978 0.498341
O O3 0.000000 0.000000 0.500000
O O4 0.109846 0.910101 0.223434
O O5 0.368776 0.222577 0.008411
O O6 0.991231 0.200269 0.245418
O O7 0.219693 0.369645 0.934160
O O8 0.000000 0.000000 0.000000
O O9 0.724800 0.283800 0.497987
O O10 0.616354 0.960278 0.543942
O O11 0.527804 0.259462 0.174418
O O12 0.500000 0.000000 0.000000
O O13 0.248478 0.537446 0.692548
O O14 0.000000 0.500000 0.000000
#
# Coordination Sequence:
#
# PCOD9080488 Si02
#       6
#     2   2   2   2   2   2
#     4  10  18  39  68  95 129 181 230 265 347 403
#     4  12  25  42  67 102 140 181 230 282 348 406
#     4  10  19  37  67  96 128 180 225 270 342 410
#     4  12  25  43  70 102 141 177 226 292 341 407
#     4  10  19  36  68  96 126 180 223 274 331 416
#     4  12  23  42  67 103 139 178 228 279 348 410
#
# _framework density 25.183914000000001
#
# number of rings (size 3 to 8) (size 9 to 14) (size 15 to 20)
#    0.000    1.000    8.333    1.500    0.000    0.000 
#    0.000    0.833    0.000    2.000    0.000    0.000 
#    0.000    0.000    0.000    0.000    0.000    0.000 
#
# Total GULP energy -66915.431163 kJ/mol
# GULP energy per Si atom -5576.285930 kJ/mol
# Density = 2.512659 g / cm^3
# Si number density = 25.183914 Si / 1000 Ang^3
#
#
#
# Elastic Constant Matrix: (Units=GPa)
#
#
# Indices 1 2 3 4 5 6 
#
# 1 240.0263 48.4370 64.1221 6.5916 1.1331 -55.3739
# 2 48.4370 113.8850 33.3252 -21.6010 17.4433 -36.2756
# 3 64.1221 33.3252 136.7843 -24.5431 0.4487 -28.9220
# 4 6.5916 -21.6010 -24.5431 34.4238 -6.2194 17.5093
# 5 1.1331 17.4433 0.4487 -6.2194 50.2047 -1.4788
# 6 -55.3739 -36.2756 -28.9220 17.5093 -1.4788 52.7546
#
#
#
# Elastic Compliance Matrix: (Units=1/GPa)
#
#
# Indices 1 2 3 4 5 6 
#
# 1 0.007258 -0.001207 -0.002928 -0.008371 -0.000521 0.007946
# 2 -0.001207 0.012598 -0.000550 0.004244 -0.003655 0.005584
# 3 -0.002928 -0.000550 0.010126 0.007887 0.001129 -0.000486
# 4 -0.008371 0.004244 0.007887 0.048623 0.004150 -0.017566
# 5 -0.000521 -0.003655 0.001129 0.004150 0.021609 -0.003213
# 6 0.007946 0.005584 -0.000486 -0.017566 -0.003213 0.036610
#
#
# Mechanical properties :
#
#
# Convention : Reuss Voigt Hill
#
# Bulk Modulus (GPa) = 48.51285 86.94047 67.72666
# Shear Modulus (GPa) = 32.66606 50.46406 41.56506
#
# Velocity S-wave (km/s) = 3.60544 4.48126 4.06699
# Velocity P-wave (km/s) = 6.05289 7.83408 7.00037
#
# Compressibility (1/GPa) = 0.02061310
#
# Stress axis : x y z
#
# Youngs Moduli (GPa) = 137.78768 79.37630 98.75559
#
# Poissons Ratio (x) = 0.09577 0.28918
# Poissons Ratio (y) = 0.16625 0.05427
# Poissons Ratio (z) = 0.40348 0.04362
#
# Static dielectric constant tensor:
#      x y z
#    x 2.131410 0.143020 0.085110 
#    y 0.143020 2.370580 0.109770 
#    z 0.085110 0.109770 2.013010 
# 
# From -- ./inp_files/378993.got.cif
#   From: 2010.05.17/outbox.cif.g08.bks.cpg/sg2_190_cif.got.tgz:378993.got - 2010.06.03 11:33:40.
