data_PCOD9080192
_publ_section_title
;
Structure prediction by ZEFSAII (Michael W. Deem and Ramdas Pophale) SiO2 
 PCOD9080192
Probable space group: P -1
;
_chemical_formula_sum "Si O2"
_cell_formula_units_Z 16
_cell_length_a 15.158379
_cell_length_b 8.118722
_cell_length_c 14.796342
_cell_angle_alpha 36.854321
_cell_angle_beta 45.093699
_cell_angle_gamma 45.764215
_cell_volume 734.806944
_symmetry_space_group_name_H-M "P -1"
_symmetry_group_IT_number 2
_symmetry_cell_setting 'triclinic'
loop_
_space_group_symop_operation_xyz
x,y,z
-x,-y,-z
loop_
_atom_site_type_symbol
_atom_site_label
_atom_site_fract_x
_atom_site_fract_y
_atom_site_fract_z
Si Si1 0.418971 0.935566 0.817127
Si Si2 0.471914 0.506202 0.799345
Si Si3 0.869074 0.115037 0.489475
Si Si4 0.665482 0.666934 0.457710
Si Si5 0.717608 0.179409 0.857614
Si Si6 0.751900 0.127373 0.299910
Si Si7 0.296857 0.182101 0.355166
Si Si8 0.009873 0.782767 0.821239
O O1 0.433212 0.676346 0.847911
O O2 0.566112 0.890706 0.764396
O O3 0.378389 0.221009 0.660179
O O4 0.323100 0.925047 0.971263
O O5 0.546884 0.673616 0.607118
O O6 0.591085 0.219601 0.865826
O O7 0.336325 0.565590 0.814780
O O8 0.758560 0.342199 0.526686
O O9 0.904178 0.272799 0.307220
O O10 0.817493 0.855845 0.607450
O O11 0.000000 0.000000 0.500000
O O12 0.740423 0.879913 0.348701
O O13 0.727854 0.502826 0.722469
O O14 0.863447 0.982431 0.815262
O O15 0.901966 0.094766 0.228068
O O16 0.691800 0.048894 0.471090
O O17 0.000000 0.500000 0.000000
#
# Coordination Sequence:
#
# PCOD9080192 Si02
#       8
#     2   2   2   2   2   2   2   2
#     4  10  19  37  63  96 122 154 208 256 303 370
#     4  10  18  38  65  99 118 150 213 260 297 363
#     4  11  26  40  60  92 131 155 209 264 294 363
#     4  11  19  38  66  93 120 159 204 256 312 357
#     4  11  22  38  69  88 127 167 203 251 311 367
#     4  10  20  39  72  89 121 164 209 251 304 375
#     4  10  20  39  64  95 119 161 207 254 309 362
#     4  11  26  48  59  88 130 170 204 249 311 375
#
# _framework density 21.774428
#
# number of rings (size 3 to 8) (size 9 to 14) (size 15 to 20)
#    0.000    1.500    3.750    3.750    1.750    1.500 
#    9.000    3.750    0.000    0.000    0.000    0.000 
#    0.000    0.000    0.000    0.000    0.000    0.000 
#
# Total GULP energy -89295.675414 kJ/mol
# GULP energy per Si atom -5580.979713 kJ/mol
# Density = 2.172487 g / cm^3
# Si number density = 21.774428 Si / 1000 Ang^3
#
#
#
# Elastic Constant Matrix: (Units=GPa)
#
#
# Indices 1 2 3 4 5 6 
#
# 1 87.6977 2.3612 4.3263 -6.5317 2.2628 -18.2126
# 2 2.3612 58.8221 -8.6195 7.5044 1.9300 -16.6338
# 3 4.3263 -8.6195 75.5969 13.1427 7.7489 5.5697
# 4 -6.5317 7.5044 13.1427 28.9533 -3.3490 5.6271
# 5 2.2628 1.9300 7.7489 -3.3490 24.5442 -3.1847
# 6 -18.2126 -16.6338 5.5697 5.6271 -3.1847 25.5305
#
#
#
# Elastic Compliance Matrix: (Units=1/GPa)
#
#
# Indices 1 2 3 4 5 6 
#
# 1 0.013903 0.002327 -0.001654 0.001105 0.000719 0.011641
# 2 0.002327 0.024274 0.003434 -0.011268 -0.002289 0.018924
# 3 -0.001654 0.003434 0.016060 -0.009069 -0.006590 -0.001269
# 4 0.001105 -0.011268 -0.009069 0.045397 0.008080 -0.013573
# 5 0.000719 -0.002289 -0.006590 0.008080 0.044590 0.004240
# 6 0.011641 0.018924 -0.001269 -0.013573 0.004240 0.063600
#
#
# Mechanical properties :
#
#
# Convention : Reuss Voigt Hill
#
# Bulk Modulus (GPa) = 16.01243 24.25030 20.13136
# Shear Modulus (GPa) = 22.68325 30.74218 26.71271
#
# Velocity S-wave (km/s) = 3.23110 3.76153 3.50636
# Velocity P-wave (km/s) = 4.61408 5.47967 5.06540
#
# Compressibility (1/GPa) = 0.06245149
#
# Stress axis : x y z
#
# Youngs Moduli (GPa) = 71.92704 41.19586 62.26705
#
# Poissons Ratio (x) = -0.09586 0.10297
# Poissons Ratio (y) = -0.16737 -0.21383
# Poissons Ratio (z) = 0.11895 -0.14147
#
# Static dielectric constant tensor:
#      x y z
#    x 1.854660 -0.014490 0.027410 
#    y -0.014490 1.798010 -0.027500 
#    z 0.027410 -0.027500 1.779100 
# 
# From -- ./inp_files/224261.got.cif
#   From: 2010.05.17/outbox.cif.g08.bks.cpg/sg2_113_cif.got.tgz:224261.got - 2010.06.03 11:33:40.
