data_PCOD9080185
_publ_section_title
;
Structure prediction by ZEFSAII (Michael W. Deem and Ramdas Pophale) SiO2 
 PCOD9080185
Probable space group: P -1
;
_chemical_formula_sum "Si O2"
_cell_formula_units_Z 14
_cell_length_a 8.470598
_cell_length_b 13.932664
_cell_length_c 11.856371
_cell_angle_alpha 62.800539
_cell_angle_beta 60.490959
_cell_angle_gamma 28.295833
_cell_volume 576.314671
_symmetry_space_group_name_H-M "P -1"
_symmetry_group_IT_number 2
_symmetry_cell_setting 'triclinic'
loop_
_space_group_symop_operation_xyz
x,y,z
-x,-y,-z
loop_
_atom_site_type_symbol
_atom_site_label
_atom_site_fract_x
_atom_site_fract_y
_atom_site_fract_z
Si Si1 0.699847 0.387984 0.147166
Si Si2 0.778766 0.456501 0.587523
Si Si3 0.505804 0.878916 0.725370
Si Si4 0.442213 0.007361 0.147121
Si Si5 0.454398 0.207095 0.602967
Si Si6 0.942917 0.846582 0.476756
Si Si7 0.689286 0.229222 0.037297
O O1 0.437002 0.447609 0.275679
O O2 0.527909 0.589124 0.070688
O O3 0.800332 0.266179 0.067320
O O4 0.040698 0.230452 0.182828
O O5 0.634479 0.625071 0.472564
O O6 0.162437 0.292796 0.583984
O O7 0.734927 0.366541 0.584318
O O8 0.791491 0.810239 0.603145
O O9 0.386860 0.002959 0.812955
O O10 0.235792 0.012746 0.647369
O O11 0.553385 0.734195 0.831158
O O12 0.543436 0.837919 0.246544
O O13 0.500000 0.000000 0.000000
O O14 0.819888 0.990430 0.537917
O O15 0.000000 0.000000 0.000000
#
# Coordination Sequence:
#
# PCOD9080185 Si02
#       7
#     2   2   2   2   2   2   2
#     4  11  27  39  64 101 130 167 224 270 332 379
#     4  11  20  38  67  96 117 168 226 269 309 385
#     4  10  19  38  66  87 123 173 218 249 325 383
#     4  11  24  43  62  96 142 171 204 279 332 388
#     4  10  22  38  69  92 125 175 218 258 328 385
#     4  10  18  38  65  94 118 163 225 269 297 385
#     4  11  24  42  65  90 131 180 219 268 310 399
#
# _framework density 24.292283999999999
#
# number of rings (size 3 to 8) (size 9 to 14) (size 15 to 20)
#    0.000    1.429    4.286    2.571    6.000    1.143 
#    0.000    7.143    0.000    0.000    0.000    0.000 
#    0.000    0.000    0.000    0.000    0.000    0.000 
#
# Total GULP energy -78052.594752 kJ/mol
# GULP energy per Si atom -5575.185339 kJ/mol
# Density = 2.423699 g / cm^3
# Si number density = 24.292284 Si / 1000 Ang^3
#
#
#
# Elastic Constant Matrix: (Units=GPa)
#
#
# Indices 1 2 3 4 5 6 
#
# 1 39.4977 27.3036 30.6284 -6.7751 -5.3205 4.5197
# 2 27.3036 115.0493 50.8224 -20.0647 -2.1245 21.6132
# 3 30.6284 50.8224 179.5109 -37.1422 12.7922 15.9230
# 4 -6.7751 -20.0647 -37.1422 55.4896 13.3107 -0.7181
# 5 -5.3205 -2.1245 12.7922 13.3107 35.8831 -2.9110
# 6 4.5197 21.6132 15.9230 -0.7181 -2.9110 27.6177
#
#
#
# Elastic Compliance Matrix: (Units=1/GPa)
#
#
# Indices 1 2 3 4 5 6 
#
# 1 0.034600 -0.006972 -0.005754 -0.004168 0.008632 0.003913
# 2 -0.006972 0.012923 -0.000800 0.003665 -0.002043 -0.008631
# 3 -0.005754 -0.000800 0.009021 0.006653 -0.006924 -0.004190
# 4 -0.004168 0.003665 0.006653 0.026344 -0.013090 -0.006716
# 5 0.008632 -0.002043 -0.006924 -0.013090 0.036979 0.007736
# 6 0.003913 -0.008631 -0.004190 -0.006716 0.007736 0.045379
#
#
# Mechanical properties :
#
#
# Convention : Reuss Voigt Hill
#
# Bulk Modulus (GPa) = 33.90846 61.28520 47.59683
# Shear Modulus (GPa) = 24.73694 38.81833 31.77764
#
# Velocity S-wave (km/s) = 3.19455 4.00180 3.62074
# Velocity P-wave (km/s) = 5.25316 6.82902 6.09226
#
# Compressibility (1/GPa) = 0.02949116
#
# Stress axis : x y z
#
# Youngs Moduli (GPa) = 28.90203 77.38414 110.85835
#
# Poissons Ratio (x) = 0.53952 0.63791
# Poissons Ratio (y) = 0.20150 0.08864
# Poissons Ratio (z) = 0.16631 0.06187
#
# Static dielectric constant tensor:
#      x y z
#    x 2.054750 -0.044900 -0.003850 
#    y -0.044900 2.001320 0.067390 
#    z -0.003850 0.067390 1.954250 
# 
# From -- ./inp_files/397165.got.cif
#   From: 2010.05.17/outbox.cif.g08.bks.cpg/sg2_199_cif.got.tgz:397165.got - 2010.06.03 11:33:40.
