data_PCOD9080144
_publ_section_title
;
Structure prediction by ZEFSAII (Michael W. Deem and Ramdas Pophale) SiO2 
 PCOD9080144
Probable space group: P -1
;
_chemical_formula_sum "Si O2"
_cell_formula_units_Z 16
_cell_length_a 7.626437
_cell_length_b 14.677959
_cell_length_c 8.921590
_cell_angle_alpha 89.041060
_cell_angle_beta 60.844125
_cell_angle_gamma 56.884278
_cell_volume 686.701397
_symmetry_space_group_name_H-M "P -1"
_symmetry_group_IT_number 2
_symmetry_cell_setting 'triclinic'
loop_
_space_group_symop_operation_xyz
x,y,z
-x,-y,-z
loop_
_atom_site_type_symbol
_atom_site_label
_atom_site_fract_x
_atom_site_fract_y
_atom_site_fract_z
Si Si1 0.720269 0.444265 0.788445
Si Si2 0.116432 0.975899 0.771809
Si Si3 0.951311 0.188524 0.673383
Si Si4 0.487713 0.951589 0.848512
Si Si5 0.382648 0.592882 0.679110
Si Si6 0.018637 0.828641 0.668695
Si Si7 0.039297 0.386427 0.929592
Si Si8 0.424261 0.141701 0.651696
O O1 0.619247 0.535879 0.695980
O O2 0.761900 0.327009 0.730469
O O3 0.500000 0.500000 0.000000
O O4 0.953176 0.413944 0.790463
O O5 0.278577 0.944098 0.857606
O O6 0.973219 0.921975 0.802954
O O7 0.333167 0.910290 0.552676
O O8 0.934163 0.112551 0.804254
O O9 0.206047 0.167595 0.626942
O O10 0.945104 0.144693 0.514893
O O11 0.776252 0.829457 0.740390
O O12 0.480641 0.039487 0.735339
O O13 0.500000 0.000000 0.000000
O O14 0.500000 0.500000 0.500000
O O15 0.259379 0.711414 0.641832
O O16 0.152730 0.616982 0.880361
O O17 0.000000 0.500000 0.000000
O O18 0.306037 0.255991 0.801725
#
# Coordination Sequence:
#
# PCOD9080144 Si02
#       8
#     2   2   2   2   2   2   2   2
#     4   9  20  40  63  87 127 173 210 264 323 378
#     4  11  23  39  68  99 120 171 226 260 327 399
#     4  10  18  38  64  91 124 167 216 271 315 387
#     4  11  23  43  62  90 136 167 204 277 337 376
#     4  11  23  41  62  93 132 171 211 271 332 377
#     4  12  23  39  66  98 128 165 219 266 329 386
#     4  10  23  42  65  95 124 172 226 262 318 396
#     4  10  20  40  64  90 126 167 219 269 321 391
#
# _framework density 23.299792
#
# number of rings (size 3 to 8) (size 9 to 14) (size 15 to 20)
#    0.000    1.500    3.750    1.875    1.750    1.500 
#    4.500    0.625    0.000    0.000    0.000    0.000 
#    0.000    0.000    0.000    0.000    0.000    0.000 
#
# Total GULP energy -89089.362889 kJ/mol
# GULP energy per Si atom -5568.085181 kJ/mol
# Density = 2.324676 g / cm^3
# Si number density = 23.299792 Si / 1000 Ang^3
#
#
#
# Elastic Constant Matrix: (Units=GPa)
#
#
# Indices 1 2 3 4 5 6 
#
# 1 91.4721 43.0484 26.4029 -5.6239 32.9367 -7.3581
# 2 43.0484 116.4362 16.1405 3.7776 21.7561 -19.6753
# 3 26.4029 16.1405 111.4914 -5.6465 34.3314 -6.7003
# 4 -5.6239 3.7776 -5.6465 40.8041 -1.1846 13.4105
# 5 32.9367 21.7561 34.3314 -1.1846 37.0150 0.9319
# 6 -7.3581 -19.6753 -6.7003 13.4105 0.9319 32.5434
#
#
#
# Elastic Compliance Matrix: (Units=1/GPa)
#
#
# Indices 1 2 3 4 5 6 
#
# 1 0.017975 -0.003864 0.001000 0.002054 -0.014623 0.001506
# 2 -0.003864 0.012523 0.001021 -0.004653 -0.005244 0.008975
# 3 0.001000 0.001021 0.013034 0.000188 -0.013670 0.003841
# 4 0.002054 -0.004653 0.000188 0.030172 0.002071 -0.014802
# 5 -0.014623 -0.005244 -0.013670 0.002071 0.056151 -0.011752
# 6 0.001506 0.008975 0.003841 -0.014802 -0.011752 0.043722
#
#
# Mechanical properties :
#
#
# Convention : Reuss Voigt Hill
#
# Bulk Modulus (GPa) = 25.09708 54.50926 39.80317
# Shear Modulus (GPa) = 26.24036 37.65969 31.95003
#
# Velocity S-wave (km/s) = 3.35954 4.02470 3.70707
# Velocity P-wave (km/s) = 5.08364 6.71142 5.95343
#
# Compressibility (1/GPa) = 0.03984527
#
# Stress axis : x y z
#
# Youngs Moduli (GPa) = 55.63290 79.85414 76.72009
#
# Poissons Ratio (x) = 0.30856 -0.07673
# Poissons Ratio (y) = 0.21497 -0.07830
# Poissons Ratio (z) = -0.05564 -0.08149
#
# Static dielectric constant tensor:
#      x y z
#    x 1.987590 -0.065770 -0.047720 
#    y -0.065770 1.969370 0.074520 
#    z -0.047720 0.074520 2.029880 
# 
# From -- ./inp_files/186908.got.cif
#   From: 2010.05.17/outbox.cif.g08.bks.cpg/sg2_94_cif.got.tgz:186908.got - 2010.06.03 11:33:40.
