data_PCOD9080673
_publ_section_title
;
Structure prediction by ZEFSAII (Michael W. Deem and Ramdas Pophale) SiO2 
 PCOD9080673
Probable space group: P -1
;
_chemical_formula_sum "Si O2"
_cell_formula_units_Z 13
_cell_length_a 8.960195
_cell_length_b 7.559974
_cell_length_c 10.600882
_cell_angle_alpha 126.323154
_cell_angle_beta 72.362433
_cell_angle_gamma 90.603727
_cell_volume 537.850054
_symmetry_space_group_name_H-M "P -1"
_symmetry_group_IT_number 2
_symmetry_cell_setting 'triclinic'
loop_
_space_group_symop_operation_xyz
x,y,z
-x,-y,-z
loop_
_atom_site_type_symbol
_atom_site_label
_atom_site_fract_x
_atom_site_fract_y
_atom_site_fract_z
Si Si1 0.661487 0.781557 0.276301
Si Si2 0.635511 0.436425 0.331675
Si Si3 0.806405 0.101423 0.960996
Si Si4 0.000000 0.500000 0.000000
Si Si5 0.168653 0.903417 0.486346
Si Si6 0.943053 0.329436 0.349611
Si Si7 0.405041 0.751163 0.160029
O O1 0.585908 0.600542 0.295764
O O2 0.822802 0.658931 0.114509
O O3 0.529754 0.879882 0.247877
O O4 0.720616 0.927120 0.430843
O O5 0.500000 0.500000 0.500000
O O6 0.806265 0.470499 0.355702
O O7 0.698781 0.189464 0.148784
O O8 0.684833 0.119584 0.881947
O O9 0.917900 0.279722 0.974775
O O10 0.918196 0.850545 0.832139
O O11 0.138824 0.809793 0.590085
O O12 0.266535 0.733842 0.288664
O O13 0.000000 0.000000 0.500000
O O14 0.000000 0.500000 0.500000
O O15 0.500000 0.500000 0.000000
#
# Coordination Sequence:
#
# PCOD9080673 Si02
#       7
#     2   2   2   1   2   2   2
#     4  11  23  43  74 106 137 188 238 297 356 419
#     4  11  25  46  71 102 149 189 235 292 372 438
#     4  11  24  47  71 107 144 191 242 300 360 433
#     4  10  18  40  72 104 128 178 244 298 342 404
#     4  12  24  45  73 102 142 186 247 294 348 428
#     4  12  26  47  70 105 147 189 236 295 367 437
#     4  12  23  42  71 109 143 176 245 304 353 420
#
# _framework density 24.170304999999999
#
# number of rings (size 3 to 8) (size 9 to 14) (size 15 to 20)
#    0.000    0.615    6.154    2.769    0.000    1.231 
#    0.000    2.308    0.000    0.000    0.000    0.000 
#    0.000    0.000    0.000    0.000    0.000    0.000 
#
# Total GULP energy -72400.108936 kJ/mol
# GULP energy per Si atom -5569.239149 kJ/mol
# Density = 2.411529 g / cm^3
# Si number density = 24.170305 Si / 1000 Ang^3
#
#
#
# Elastic Constant Matrix: (Units=GPa)
#
#
# Indices 1 2 3 4 5 6 
#
# 1 150.4181 22.6147 73.0522 -4.1477 -7.1241 -25.1646
# 2 22.6147 51.6258 25.0802 -0.9079 -4.3697 -1.7806
# 3 73.0522 25.0802 166.7973 1.9275 -30.1826 5.0629
# 4 -4.1477 -0.9079 1.9275 36.6300 -0.2499 4.2510
# 5 -7.1241 -4.3697 -30.1826 -0.2499 47.9420 -6.5156
# 6 -25.1646 -1.7806 5.0629 4.2510 -6.5156 27.6909
#
#
#
# Elastic Compliance Matrix: (Units=1/GPa)
#
#
# Indices 1 2 3 4 5 6 
#
# 1 0.011181 -0.002135 -0.004938 0.000212 -0.000165 0.010855
# 2 -0.002135 0.021416 -0.002249 0.000429 0.000198 -0.000171
# 3 -0.004938 -0.002249 0.009437 -0.000470 0.004283 -0.005278
# 4 0.000212 0.000429 -0.000470 0.027833 -0.000640 -0.004117
# 5 -0.000165 0.000198 0.004283 -0.000640 0.024207 0.004873
# 6 0.010855 -0.000171 -0.005278 -0.004117 0.004873 0.048711
#
#
# Mechanical properties :
#
#
# Convention : Reuss Voigt Hill
#
# Bulk Modulus (GPa) = 42.75273 67.81505 55.28389
# Shear Modulus (GPa) = 29.54623 38.99218 34.26921
#
# Velocity S-wave (km/s) = 3.50010 4.02086 3.76948
# Velocity P-wave (km/s) = 5.83616 7.04801 6.47052
#
# Compressibility (1/GPa) = 0.02339032
#
# Stress axis : x y z
#
# Youngs Moduli (GPa) = 89.43420 46.69315 105.96871
#
# Poissons Ratio (x) = 0.09969 0.52327
# Poissons Ratio (y) = 0.19094 0.23834
# Poissons Ratio (z) = 0.44162 0.10502
#
# Static dielectric constant tensor:
#      x y z
#    x 1.659010 -0.101410 0.008030 
#    y -0.101410 2.002570 0.020440 
#    z 0.008030 0.020440 1.969320 
# 
# From -- ./inp_files/377286.got.cif
#   From: 2010.05.17/outbox.cif.g08.bks.cpg/sg2_189_cif.got.tgz:377286.got - 2010.06.03 11:33:40.
