data_PCOD9080266
_publ_section_title
;
Structure prediction by ZEFSAII (Michael W. Deem and Ramdas Pophale) SiO2 
 PCOD9080266
Probable space group: P -1
;
_chemical_formula_sum "Si O2"
_cell_formula_units_Z 12
_cell_length_a 11.337841
_cell_length_b 13.491075
_cell_length_c 9.808822
_cell_angle_alpha 139.855886
_cell_angle_beta 62.459787
_cell_angle_gamma 147.185311
_cell_volume 449.213876
_symmetry_space_group_name_H-M "P -1"
_symmetry_group_IT_number 2
_symmetry_cell_setting 'triclinic'
loop_
_space_group_symop_operation_xyz
x,y,z
-x,-y,-z
loop_
_atom_site_type_symbol
_atom_site_label
_atom_site_fract_x
_atom_site_fract_y
_atom_site_fract_z
Si Si1 0.235517 0.750223 0.456382
Si Si2 0.237986 0.235870 0.727543
Si Si3 0.277153 0.905153 0.031506
Si Si4 0.538170 0.399151 0.260810
Si Si5 0.592312 0.349084 0.565378
Si Si6 0.010580 0.168866 0.344418
O O1 0.280060 0.684684 0.494549
O O2 0.161154 0.853569 0.619901
O O3 0.500000 0.000000 0.500000
O O4 0.001545 0.437747 0.175057
O O5 0.416260 0.519681 0.836638
O O6 0.431515 0.282184 0.692242
O O7 0.107089 0.099161 0.802883
O O8 0.000000 0.000000 0.500000
O O9 0.314914 0.059804 0.049524
O O10 0.363219 0.085528 0.306504
O O11 0.500000 0.000000 0.000000
O O12 0.500000 0.500000 0.500000
O O13 0.799200 0.585045 0.376953
O O14 0.802444 0.660573 0.705528
#
# Coordination Sequence:
#
# PCOD9080266 Si02
#       6
#     2   2   2   2   2   2
#     4  12  24  42  65 103 139 173 228 287 336 401
#     4  10  20  36  67  98 128 178 225 271 332 408
#     4  11  23  41  70 102 130 182 234 267 342 413
#     4  10  18  38  68  93 129 179 219 269 336 395
#     4  11  22  42  70  93 137 181 217 282 342 390
#     4  10  20  37  65  92 128 176 222 265 337 394
#
# _framework density 26.713332999999999
#
# number of rings (size 3 to 8) (size 9 to 14) (size 15 to 20)
#    0.000    1.333    8.333    0.500    0.000    0.667 
#    0.000    0.833    0.000    3.000    0.000    0.000 
#    0.000    0.000    0.000    0.000    0.000    0.000 
#
# Total GULP energy -66967.246594 kJ/mol
# GULP energy per Si atom -5580.603883 kJ/mol
# Density = 2.665253 g / cm^3
# Si number density = 26.713333 Si / 1000 Ang^3
#
#
#
# Elastic Constant Matrix: (Units=GPa)
#
#
# Indices 1 2 3 4 5 6 
#
# 1 161.6227 57.0355 23.8091 8.3656 7.3475 -9.2425
# 2 57.0355 166.1851 51.5200 34.0167 -3.6383 -15.6001
# 3 23.8091 51.5200 110.4136 36.5860 15.3501 -7.3366
# 4 8.3656 34.0167 36.5860 33.1096 -5.5598 1.8202
# 5 7.3475 -3.6383 15.3501 -5.5598 33.0775 8.6843
# 6 -9.2425 -15.6001 -7.3366 1.8202 8.6843 64.3740
#
#
#
# Elastic Compliance Matrix: (Units=1/GPa)
#
#
# Indices 1 2 3 4 5 6 
#
# 1 0.007196 -0.002509 -0.000400 0.000886 -0.001693 0.000583
# 2 -0.002509 0.008902 -0.001109 -0.007331 0.000338 0.001832
# 3 -0.000400 -0.001109 0.019524 -0.022949 -0.014120 0.004453
# 4 0.000886 -0.007331 -0.022949 0.067312 0.023409 -0.009326
# 5 -0.001693 0.000338 -0.014120 0.023409 0.043305 -0.008274
# 6 0.000583 0.001832 0.004453 -0.009326 -0.008274 0.017949
#
#
# Mechanical properties :
#
#
# Convention : Reuss Voigt Hill
#
# Bulk Modulus (GPa) = 36.25191 78.10562 57.17877
# Shear Modulus (GPa) = 27.56025 46.50267 37.03146
#
# Velocity S-wave (km/s) = 3.21550 4.17682 3.72728
# Velocity P-wave (km/s) = 5.23317 7.25004 6.32254
#
# Compressibility (1/GPa) = 0.02758476
#
# Stress axis : x y z
#
# Youngs Moduli (GPa) = 138.96249 112.32975 51.22005
#
# Poissons Ratio (x) = 0.28187 0.02051
# Poissons Ratio (y) = 0.34871 0.05680
# Poissons Ratio (z) = 0.05564 0.12457
#
# Static dielectric constant tensor:
#      x y z
#    x 2.136390 -0.033140 -0.014270 
#    y -0.033140 2.134410 0.004720 
#    z -0.014270 0.004720 2.198560 
# 
# From -- ./inp_files/433322.got.cif
#   From: 2010.05.17/outbox.cif.g08.bks.cpg/sg2_217_cif.got.tgz:433322.got - 2010.06.03 11:33:40.
