data_PCOD9080159
_publ_section_title
;
Structure prediction by ZEFSAII (Michael W. Deem and Ramdas Pophale) SiO2 
 PCOD9080159
Probable space group: P -1
;
_chemical_formula_sum "Si O2"
_cell_formula_units_Z 15
_cell_length_a 7.680052
_cell_length_b 12.482865
_cell_length_c 9.510039
_cell_angle_alpha 111.199371
_cell_angle_beta 131.518601
_cell_angle_gamma 48.832925
_cell_volume 509.351824
_symmetry_space_group_name_H-M "P -1"
_symmetry_group_IT_number 2
_symmetry_cell_setting 'triclinic'
loop_
_space_group_symop_operation_xyz
x,y,z
-x,-y,-z
loop_
_atom_site_type_symbol
_atom_site_label
_atom_site_fract_x
_atom_site_fract_y
_atom_site_fract_z
Si Si1 0.000000 0.500000 0.000000
Si Si2 0.646805 0.426854 0.238894
Si Si3 0.125446 0.407142 0.330102
Si Si4 0.984352 0.164268 0.503723
Si Si5 0.275334 0.700527 0.279456
Si Si6 0.249240 0.814328 0.020243
Si Si7 0.640017 0.920274 0.761152
Si Si8 0.511439 0.157786 0.099227
O O1 0.016982 0.507159 0.185601
O O2 0.283142 0.327185 0.078486
O O3 0.833065 0.311246 0.405678
O O4 0.309577 0.559743 0.165264
O O5 0.648524 0.335795 0.068523
O O6 0.843700 0.471484 0.306135
O O7 0.408468 0.389533 0.525327
O O8 0.257766 0.238087 0.306390
O O9 0.937841 0.207113 0.664163
O O10 0.797170 0.110809 0.321183
O O11 0.322415 0.046116 0.596094
O O12 0.270297 0.786831 0.184792
O O13 0.413546 0.858289 0.033406
O O14 0.904383 0.921306 0.853257
O O15 0.628708 0.903930 0.916718
#
# Coordination Sequence:
#
# PCOD9080159 Si02
#       8
#     1   2   2   2   2   2   2   2
#     4  10  18  38  64  98 124 162 210 262 328 382
#     4  10  23  41  63  97 128 176 213 270 331 389
#     4  10  22  40  70  96 129 168 220 272 323 395
#     4  11  23  42  68  93 132 171 226 267 321 391
#     4  12  22  42  64 100 131 165 220 275 327 385
#     4  10  24  42  67  96 135 175 215 273 328 391
#     4  10  22  45  69  94 129 180 223 263 327 394
#     4  10  21  40  69  95 126 175 215 269 324 390
#
# _framework density 29.449193000000001
#
# number of rings (size 3 to 8) (size 9 to 14) (size 15 to 20)
#    0.000    1.600    2.667    2.400    0.000   10.667 
#    9.600    0.667    0.000    0.000    0.000    0.000 
#    0.000    0.000    0.000    0.000    0.000    0.000 
#
# Total GULP energy -84004.429027 kJ/mol
# GULP energy per Si atom -5600.295268 kJ/mol
# Density = 2.938217 g / cm^3
# Si number density = 29.449193 Si / 1000 Ang^3
#
#
#
# Elastic Constant Matrix: (Units=GPa)
#
#
# Indices 1 2 3 4 5 6 
#
# 1 154.0147 26.6197 38.3787 -19.6301 -15.2977 -7.3674
# 2 26.6197 140.2556 19.9233 -33.3386 -2.2302 -23.7854
# 3 38.3787 19.9233 170.3554 -31.0794 -5.7697 -5.5014
# 4 -19.6301 -33.3386 -31.0794 53.9084 -12.3772 -1.2451
# 5 -15.2977 -2.2302 -5.7697 -12.3772 56.0008 -14.2569
# 6 -7.3674 -23.7854 -5.5014 -1.2451 -14.2569 66.2325
#
#
#
# Elastic Compliance Matrix: (Units=1/GPa)
#
#
# Indices 1 2 3 4 5 6 
#
# 1 0.007485 -0.000412 -0.001039 0.002544 0.002802 0.001249
# 2 -0.000412 0.009491 0.000440 0.006723 0.002850 0.004139
# 3 -0.001039 0.000440 0.006927 0.004294 0.001665 0.001057
# 4 0.002544 0.006723 0.004294 0.028321 0.009075 0.005540
# 5 0.002802 0.002850 0.001665 0.009075 0.022568 0.006502
# 6 0.001249 0.004139 0.001057 0.005540 0.006502 0.018315
#
#
# Mechanical properties :
#
#
# Convention : Reuss Voigt Hill
#
# Bulk Modulus (GPa) = 45.70319 70.49656 58.09987
# Shear Modulus (GPa) = 48.81720 60.54195 54.67957
#
# Velocity S-wave (km/s) = 4.07587 4.53902 4.31367
# Velocity P-wave (km/s) = 6.14030 7.17361 6.67697
#
# Compressibility (1/GPa) = 0.02188031
#
# Stress axis : x y z
#
# Youngs Moduli (GPa) = 133.59624 105.36479 144.37186
#
# Poissons Ratio (x) = 0.04340 0.14997
# Poissons Ratio (y) = 0.05503 -0.06346
# Poissons Ratio (z) = 0.13877 -0.04631
#
# Static dielectric constant tensor:
#      x y z
#    x 2.045470 0.121610 -0.005760 
#    y 0.121610 2.750440 0.210010 
#    z -0.005760 0.210010 2.225870 
# 
# From -- ./inp_files/217916.got.cif
#   From: 2010.05.17/outbox.cif.g08.bks.cpg/sg2_109_cif.got.tgz:217916.got - 2010.06.03 11:33:40.
