data_PCOD9080525
_publ_section_title
;
Structure prediction by ZEFSAII (Michael W. Deem and Ramdas Pophale) SiO2 
 PCOD9080525
Probable space group: P -1
;
_chemical_formula_sum "Si O2"
_cell_formula_units_Z 14
_cell_length_a 8.975461
_cell_length_b 19.498774
_cell_length_c 11.350225
_cell_angle_alpha 32.651658
_cell_angle_beta 138.916491
_cell_angle_gamma 135.957404
_cell_volume 684.151724
_symmetry_space_group_name_H-M "P -1"
_symmetry_group_IT_number 2
_symmetry_cell_setting 'triclinic'
loop_
_space_group_symop_operation_xyz
x,y,z
-x,-y,-z
loop_
_atom_site_type_symbol
_atom_site_label
_atom_site_fract_x
_atom_site_fract_y
_atom_site_fract_z
Si Si1 0.573651 0.618397 0.465402
Si Si2 0.833422 0.797121 0.939627
Si Si3 0.482804 0.216025 0.016672
Si Si4 0.193848 0.634730 0.407474
Si Si5 0.581553 0.368833 0.209529
Si Si6 0.164597 0.974526 0.241515
Si Si7 0.893838 0.315380 0.280018
O O1 0.500000 0.500000 0.500000
O O2 0.389295 0.611353 0.468916
O O3 0.833108 0.626793 0.654755
O O4 0.570514 0.746151 0.200124
O O5 0.702371 0.740156 0.067565
O O6 0.636562 0.742900 0.804621
O O7 0.892779 0.950253 0.784661
O O8 0.057298 0.741746 0.130111
O O9 0.420210 0.060652 0.230723
O O10 0.739157 0.286216 0.112298
O O11 0.305528 0.673416 0.545320
O O12 0.000000 0.500000 0.500000
O O13 0.772333 0.397454 0.177724
O O14 0.500000 0.500000 0.000000
O O15 0.144026 0.825060 0.473148
O O16 0.000000 0.000000 0.000000
#
# Coordination Sequence:
#
# PCOD9080525 Si02
#       7
#     2   2   2   2   2   2   2
#     4  12  26  39  62  93 130 170 213 269 321 373
#     4   9  21  38  64  94 119 163 214 252 312 381
#     4   9  21  39  65  97 123 159 213 260 319 372
#     4  12  23  41  62  85 129 170 215 260 318 383
#     4  11  22  37  65  91 126 167 209 255 316 385
#     4  10  18  39  74  95 128 162 218 265 312 383
#     4  11  22  42  66  97 128 166 213 268 315 374
#
# _framework density 20.463297000000001
#
# number of rings (size 3 to 8) (size 9 to 14) (size 15 to 20)
#    0.857    0.571    2.857    3.857    2.000    1.714 
#    0.000    0.714    0.000    1.714    0.000    0.000 
#    0.000    0.000    0.000    0.000    0.000    0.000 
#
# Total GULP energy -78166.600842 kJ/mol
# GULP energy per Si atom -5583.328632 kJ/mol
# Density = 2.041672 g / cm^3
# Si number density = 20.463297 Si / 1000 Ang^3
#
#
#
# Elastic Constant Matrix: (Units=GPa)
#
#
# Indices 1 2 3 4 5 6 
#
# 1 88.1960 43.5423 17.3571 13.9990 23.7076 11.5160
# 2 43.5423 106.1206 20.1741 19.7458 17.1017 -2.5171
# 3 17.3571 20.1741 52.0628 6.5120 17.6278 3.5700
# 4 13.9990 19.7458 6.5120 49.3146 2.0676 2.0353
# 5 23.7076 17.1017 17.6278 2.0676 33.2605 6.3248
# 6 11.5160 -2.5171 3.5700 2.0353 6.3248 28.1070
#
#
#
# Elastic Compliance Matrix: (Units=1/GPa)
#
#
# Indices 1 2 3 4 5 6 
#
# 1 0.017379 -0.005495 -0.000222 -0.002128 -0.008252 -0.005573
# 2 -0.005495 0.013263 -0.002409 -0.003524 -0.002265 0.004510
# 3 -0.000222 -0.002409 0.024276 -0.001683 -0.011259 -0.000553
# 4 -0.002128 -0.003524 -0.001683 0.022449 0.003121 -0.001558
# 5 -0.008252 -0.002265 -0.011259 0.003121 0.043932 -0.005504
# 6 -0.005573 0.004510 -0.000553 -0.001558 -0.005504 0.039687
#
#
# Mechanical properties :
#
#
# Convention : Reuss Voigt Hill
#
# Bulk Modulus (GPa) = 25.86303 45.39182 35.62743
# Shear Modulus (GPa) = 26.29829 33.15683 29.72756
#
# Velocity S-wave (km/s) = 3.58878 4.02967 3.81560
# Velocity P-wave (km/s) = 5.46248 6.62429 6.07124
#
# Compressibility (1/GPa) = 0.03866522
#
# Stress axis : x y z
#
# Youngs Moduli (GPa) = 57.54234 75.39509 41.19325
#
# Poissons Ratio (x) = 0.41428 0.00916
# Poissons Ratio (y) = 0.31618 0.09925
# Poissons Ratio (z) = 0.01279 0.18165
#
# Static dielectric constant tensor:
#      x y z
#    x 1.716240 0.012010 -0.004540 
#    y 0.012010 1.771910 -0.023280 
#    z -0.004540 -0.023280 1.777820 
# 
# From -- ./inp_files/405329.got.cif
#   From: 2010.05.17/outbox.cif.g08.bks.cpg/sg2_203_cif.got.tgz:405329.got - 2010.06.03 11:33:40.
