data_PCOD9080555
_publ_section_title
;
Structure prediction by ZEFSAII (Michael W. Deem and Ramdas Pophale) SiO2 
 PCOD9080555
Probable space group: P -1
;
_chemical_formula_sum "Si O2"
_cell_formula_units_Z 14
_cell_length_a 7.251577
_cell_length_b 6.523103
_cell_length_c 13.951713
_cell_angle_alpha 116.519411
_cell_angle_beta 74.915882
_cell_angle_gamma 92.393290
_cell_volume 568.049889
_symmetry_space_group_name_H-M "P -1"
_symmetry_group_IT_number 2
_symmetry_cell_setting 'triclinic'
loop_
_space_group_symop_operation_xyz
x,y,z
-x,-y,-z
loop_
_atom_site_type_symbol
_atom_site_label
_atom_site_fract_x
_atom_site_fract_y
_atom_site_fract_z
Si Si1 0.216301 0.245344 0.581842
Si Si2 0.602811 0.143523 0.867406
Si Si3 0.266074 0.145305 0.053877
Si Si4 0.253407 0.731437 0.675478
Si Si5 0.164409 0.663342 0.882443
Si Si6 0.546654 0.046535 0.634895
Si Si7 0.020872 0.219858 0.795530
O O1 0.194564 0.496006 0.589494
O O2 0.410017 0.199657 0.612776
O O3 0.049556 0.244888 0.682982
O O4 0.251447 0.039152 0.458485
O O5 0.554748 0.138933 0.760749
O O6 0.802525 0.260097 0.865117
O O7 0.424534 0.230542 0.977738
O O8 0.657872 0.890349 0.855504
O O9 0.230626 0.880901 0.974852
O O10 0.059991 0.277566 0.100430
O O11 0.282342 0.665197 0.768747
O O12 0.435636 0.816616 0.616356
O O13 0.103221 0.957565 0.748035
O O14 0.152037 0.402568 0.865848
#
# Coordination Sequence:
#
# PCOD9080555 Si02
#       7
#     2   2   2   2   2   2   2
#     4   9  21  38  66  91 118 166 209 240 301 386
#     4  11  22  39  60  96 130 154 197 268 312 349
#     4  10  22  40  63  89 124 165 212 246 305 366
#     4  10  18  40  62  88 121 164 206 249 292 378
#     4  10  20  40  64  87 119 170 211 242 292 386
#     4  10  20  39  63  93 123 160 204 254 305 363
#     4  10  22  38  64  91 125 159 205 250 312 363
#
# _framework density 24.645721999999999
#
# number of rings (size 3 to 8) (size 9 to 14) (size 15 to 20)
#    0.000    2.000    2.857    0.429    0.000    1.714 
#    2.571    2.143    0.000    0.000    0.000    0.000 
#    0.000    0.000    0.000    0.000    0.000    0.000 
#
# Total GULP energy -78093.940457 kJ/mol
# GULP energy per Si atom -5578.138604 kJ/mol
# Density = 2.458963 g / cm^3
# Si number density = 24.645722 Si / 1000 Ang^3
#
#
#
# Elastic Constant Matrix: (Units=GPa)
#
#
# Indices 1 2 3 4 5 6 
#
# 1 64.6167 29.7769 24.5912 -4.4516 -16.0251 8.9617
# 2 29.7769 111.9743 26.8025 11.7764 -8.0286 12.7621
# 3 24.5912 26.8025 98.3040 -9.9118 -22.4528 2.1339
# 4 -4.4516 11.7764 -9.9118 38.2480 3.9664 -12.9412
# 5 -16.0251 -8.0286 -22.4528 3.9664 36.5265 -9.4299
# 6 8.9617 12.7621 2.1339 -12.9412 -9.4299 29.2456
#
#
#
# Elastic Compliance Matrix: (Units=1/GPa)
#
#
# Indices 1 2 3 4 5 6 
#
# 1 0.020185 -0.004498 -0.002220 0.002137 0.005963 -0.001192
# 2 -0.004498 0.012513 -0.003490 -0.007750 -0.002618 -0.008101
# 3 -0.002220 -0.003490 0.013900 0.005719 0.007791 0.006232
# 4 0.002137 -0.007750 0.005719 0.036534 0.003875 0.019726
# 5 0.005963 -0.002618 0.007791 0.003875 0.036984 0.012387
# 6 -0.001192 -0.008101 0.006232 0.019726 0.012387 0.050361
#
#
# Mechanical properties :
#
#
# Convention : Reuss Voigt Hill
#
# Bulk Modulus (GPa) = 38.19310 48.58177 43.38744
# Shear Modulus (GPa) = 25.04763 33.71898 29.38330
#
# Velocity S-wave (km/s) = 3.19142 3.70286 3.45661
# Velocity P-wave (km/s) = 5.39543 6.16737 5.79427
#
# Compressibility (1/GPa) = 0.02618274
#
# Stress axis : x y z
#
# Youngs Moduli (GPa) = 49.54274 79.91903 71.94120
#
# Poissons Ratio (x) = 0.35944 0.15969
# Poissons Ratio (y) = 0.22282 0.25107
# Poissons Ratio (z) = 0.10997 0.27892
#
# Static dielectric constant tensor:
#      x y z
#    x 2.003910 -0.007680 0.049710 
#    y -0.007680 2.001600 0.006450 
#    z 0.049710 0.006450 2.013530 
# 
# From -- ./inp_files/115116.got.cif
#   From: 2010.05.17/outbox.cif.g08.bks.cpg/sg2_58_cif.got.tgz:115116.got - 2010.06.03 11:33:40.
