data_PCOD9080595
_publ_section_title
;
Structure prediction by ZEFSAII (Michael W. Deem and Ramdas Pophale) SiO2 
 PCOD9080595
Probable space group: P -1
;
_chemical_formula_sum "Si O2"
_cell_formula_units_Z 16
_cell_length_a 7.458088
_cell_length_b 19.590609
_cell_length_c 19.171067
_cell_angle_alpha 159.856830
_cell_angle_beta 48.361872
_cell_angle_gamma 125.524130
_cell_volume 710.884044
_symmetry_space_group_name_H-M "P -1"
_symmetry_group_IT_number 2
_symmetry_cell_setting 'triclinic'
loop_
_space_group_symop_operation_xyz
x,y,z
-x,-y,-z
loop_
_atom_site_type_symbol
_atom_site_label
_atom_site_fract_x
_atom_site_fract_y
_atom_site_fract_z
Si Si1 0.220394 0.318842 0.769628
Si Si2 0.595291 0.536314 0.805226
Si Si3 0.386360 0.447995 0.333706
Si Si4 0.951438 0.210572 0.173918
Si Si5 0.296138 0.910193 0.011770
Si Si6 0.441320 0.735950 0.252566
Si Si7 0.893392 0.192925 0.462864
Si Si8 0.468315 0.947678 0.300505
O O1 0.431529 0.437544 0.805823
O O2 0.318617 0.224953 0.728497
O O3 0.235713 0.127556 0.530686
O O4 0.000000 0.500000 0.000000
O O5 0.520561 0.477297 0.691187
O O6 0.855528 0.410453 0.641530
O O7 0.525987 0.774489 0.062234
O O8 0.276987 0.636133 0.589532
O O9 0.573895 0.286121 0.170195
O O10 0.172988 0.330429 0.246983
O O11 0.893600 0.155980 0.057909
O O12 0.000000 0.000000 0.000000
O O13 0.500000 0.000000 0.000000
O O14 0.155412 0.070977 0.257163
O O15 0.201358 0.786347 0.412396
O O16 0.438549 0.834459 0.272312
O O17 0.500000 0.500000 0.000000
O O18 0.700510 0.060824 0.353811
#
# Coordination Sequence:
#
# PCOD9080595 Si02
#       8
#     2   2   2   2   2   2   2   2
#     4  10  22  37  57  93 128 162 212 264 314 385
#     4  10  21  40  61  91 131 169 216 258 327 392
#     4  11  25  42  69  99 128 175 221 273 338 391
#     4  11  23  46  71  91 132 171 217 282 334 386
#     4  12  25  46  67 101 135 173 227 275 332 397
#     4  10  18  40  65  91 122 172 212 255 320 386
#     4  10  22  38  64  93 132 167 220 270 318 394
#     4  10  19  40  66  88 127 177 208 260 331 380
#
# _framework density 22.507187999999999
#
# number of rings (size 3 to 8) (size 9 to 14) (size 15 to 20)
#    0.000    1.750    3.750    3.375    1.750    3.500 
#    4.500    0.000    0.000    0.000    0.000    0.000 
#    0.000    0.000    0.000    0.000    0.000    0.000 
#
# Total GULP energy -89218.766850 kJ/mol
# GULP energy per Si atom -5576.172928 kJ/mol
# Density = 2.245596 g / cm^3
# Si number density = 22.507188 Si / 1000 Ang^3
#
#
#
# Elastic Constant Matrix: (Units=GPa)
#
#
# Indices 1 2 3 4 5 6 
#
# 1 41.5456 12.0865 18.2320 -8.4278 -9.8574 -15.6089
# 2 12.0865 58.0006 31.6106 -13.9976 -11.0642 -16.0342
# 3 18.2320 31.6106 206.3086 -20.6035 -18.6544 -8.2375
# 4 -8.4278 -13.9976 -20.6035 41.3731 0.2087 6.1254
# 5 -9.8574 -11.0642 -18.6544 0.2087 41.9792 6.6493
# 6 -15.6089 -16.0342 -8.2375 6.1254 6.6493 30.6549
#
#
#
# Elastic Compliance Matrix: (Units=1/GPa)
#
#
# Indices 1 2 3 4 5 6 
#
# 1 0.031838 -0.000246 -0.001449 0.003586 0.004533 0.013993
# 2 -0.000246 0.023102 -0.002305 0.005187 0.003468 0.009550
# 3 -0.001449 -0.002305 0.005627 0.001894 0.001731 -0.001185
# 4 0.003586 0.005187 0.001894 0.027756 0.003098 -0.001171
# 5 0.004533 0.003468 0.001731 0.003098 0.026847 -0.001855
# 6 0.013993 0.009550 -0.001185 -0.001171 -0.001855 0.045059
#
#
# Mechanical properties :
#
#
# Convention : Reuss Voigt Hill
#
# Bulk Modulus (GPa) = 19.02380 47.74589 33.38485
# Shear Modulus (GPa) = 26.91753 39.06315 32.99034
#
# Velocity S-wave (km/s) = 3.46201 4.17056 3.83269
# Velocity P-wave (km/s) = 4.94483 6.66716 5.86951
#
# Compressibility (1/GPa) = 0.05256573
#
# Stress axis : x y z
#
# Youngs Moduli (GPa) = 31.40926 43.28580 177.72558
#
# Poissons Ratio (x) = 0.01066 0.25755
# Poissons Ratio (y) = 0.00773 0.40967
# Poissons Ratio (z) = 0.04552 0.09978
#
# Static dielectric constant tensor:
#      x y z
#    x 2.167990 -0.217610 -0.179160 
#    y -0.217610 2.179940 0.084920 
#    z -0.179160 0.084920 2.092800 
# 
# From -- ./inp_files/591695.got.cif
#   From: 2010.05.17/outbox.cif.g08.bks.cpg/sg2_296_cif.got.tgz:591695.got - 2010.06.03 11:33:40.
