data_PCOD9080208
_publ_section_title
;
Structure prediction by ZEFSAII (Michael W. Deem and Ramdas Pophale) SiO2 
 PCOD9080208
Probable space group: P -1
;
_chemical_formula_sum "Si O2"
_cell_formula_units_Z 16
_cell_length_a 13.063377
_cell_length_b 11.350546
_cell_length_c 14.859758
_cell_angle_alpha 122.961331
_cell_angle_beta 27.496397
_cell_angle_gamma 137.602397
_cell_volume 640.840466
_symmetry_space_group_name_H-M "P -1"
_symmetry_group_IT_number 2
_symmetry_cell_setting 'triclinic'
loop_
_space_group_symop_operation_xyz
x,y,z
-x,-y,-z
loop_
_atom_site_type_symbol
_atom_site_label
_atom_site_fract_x
_atom_site_fract_y
_atom_site_fract_z
Si Si1 0.377323 0.345015 0.454517
Si Si2 0.376906 0.811907 0.707436
Si Si3 0.210440 0.319358 0.276956
Si Si4 0.344686 0.085170 0.653893
Si Si5 0.648262 0.189218 0.741047
Si Si6 0.149758 0.959567 0.158394
Si Si7 0.771347 0.674965 0.160045
Si Si8 0.278247 0.303628 0.019464
O O1 0.500000 0.500000 0.500000
O O2 0.529257 0.257411 0.316790
O O3 0.508095 0.467206 0.314079
O O4 0.028911 0.184039 0.679502
O O5 0.525072 0.815547 0.504043
O O6 0.521364 0.022990 0.700247
O O7 0.029547 0.690326 0.921041
O O8 0.552144 0.508936 0.093519
O O9 0.995333 0.315362 0.508359
O O10 0.139945 0.123284 0.254542
O O11 0.158076 0.328668 0.215450
O O12 0.500000 0.000000 0.500000
O O13 0.362328 0.244793 0.753019
O O14 0.014216 0.903059 0.861991
O O15 0.513636 0.282577 0.857740
O O16 0.489824 0.080574 0.913622
O O17 0.970779 0.826795 0.153127
#
# Coordination Sequence:
#
# PCOD9080208 Si02
#       8
#     2   2   2   2   2   2   2   2
#     4  10  16  29  50  68 102 123 148 202 249 294
#     4  11  17  32  49  68  98 127 159 197 248 280
#     4  10  16  28  48  64  99 121 153 201 243 281
#     4  12  22  35  47  64 101 139 166 195 224 279
#     4  10  15  28  47  67 100 120 153 192 243 290
#     4   9  16  27  44  72  97 118 145 189 242 293
#     4  10  19  32  46  73  98 125 165 195 239 291
#     4  10  19  30  43  69  89 132 164 194 231 280
#
# _framework density 24.967213000000001
#
# number of rings (size 3 to 8) (size 9 to 14) (size 15 to 20)
#    0.000    1.750    8.750    0.750    0.000    0.500 
#    0.000    0.000    0.000    0.000    0.000    0.875 
#    0.000    2.000    0.000    0.000    0.000    0.000 
#
# Total GULP energy -89125.880278 kJ/mol
# GULP energy per Si atom -5570.367517 kJ/mol
# Density = 2.491039 g / cm^3
# Si number density = 24.967213 Si / 1000 Ang^3
#
#
#
# Elastic Constant Matrix: (Units=GPa)
#
#
# Indices 1 2 3 4 5 6 
#
# 1 38.4723 21.0844 36.4822 -11.5435 1.1517 -12.9879
# 2 21.0844 124.7176 53.8911 -25.2108 9.0444 -14.3832
# 3 36.4822 53.8911 228.6791 -31.7336 24.2317 -20.0759
# 4 -11.5435 -25.2108 -31.7336 53.8912 -10.8433 9.6765
# 5 1.1517 9.0444 24.2317 -10.8433 28.0971 -7.6703
# 6 -12.9879 -14.3832 -20.0759 9.6765 -7.6703 27.4365
#
#
#
# Elastic Compliance Matrix: (Units=1/GPa)
#
#
# Indices 1 2 3 4 5 6 
#
# 1 0.037202 -0.002671 -0.004502 0.003206 0.008306 0.014107
# 2 -0.002671 0.009848 -0.001300 0.002873 -0.000328 0.001842
# 3 -0.004502 -0.001300 0.005992 0.001122 -0.004126 0.000023
# 4 0.003206 0.002873 0.001122 0.022936 0.006138 -0.002529
# 5 0.008306 -0.000328 -0.004126 0.006138 0.044273 0.010954
# 6 0.014107 0.001842 0.000023 -0.002529 0.010954 0.048063
#
#
# Mechanical properties :
#
#
# Convention : Reuss Voigt Hill
#
# Bulk Modulus (GPa) = 27.70346 68.30940 48.00643
# Shear Modulus (GPa) = 25.34310 40.57905 32.96107
#
# Velocity S-wave (km/s) = 3.18945 4.03587 3.63736
# Velocity P-wave (km/s) = 4.96825 7.00975 6.07537
#
# Compressibility (1/GPa) = 0.03609658
#
# Stress axis : x y z
#
# Youngs Moduli (GPa) = 26.88044 101.54100 166.87905
#
# Poissons Ratio (x) = 0.27123 0.75133
# Poissons Ratio (y) = 0.07180 0.21687
# Poissons Ratio (z) = 0.12102 0.13196
#
# Static dielectric constant tensor:
#      x y z
#    x 2.235960 0.002990 -0.013410 
#    y 0.002990 1.976580 0.011890 
#    z -0.013410 0.011890 1.986020 
# 
# From -- ./inp_files/599933.got.cif
#   From: 2010.05.17/outbox.cif.g08.bks.cpg/sg2_300_cif.got.tgz:599933.got - 2010.06.03 11:33:40.
