data_PCOD9080331
_publ_section_title
;
Structure prediction by ZEFSAII (Michael W. Deem and Ramdas Pophale) SiO2 
 PCOD9080331
Probable space group: P -1
;
_chemical_formula_sum "Si O2"
_cell_formula_units_Z 14
_cell_length_a 7.916940
_cell_length_b 12.862554
_cell_length_c 12.017245
_cell_angle_alpha 35.372865
_cell_angle_beta 74.610459
_cell_angle_gamma 84.164259
_cell_volume 668.434492
_symmetry_space_group_name_H-M "P -1"
_symmetry_group_IT_number 2
_symmetry_cell_setting 'triclinic'
loop_
_space_group_symop_operation_xyz
x,y,z
-x,-y,-z
loop_
_atom_site_type_symbol
_atom_site_label
_atom_site_fract_x
_atom_site_fract_y
_atom_site_fract_z
Si Si1 0.757173 0.046548 0.506062
Si Si2 0.259124 0.442538 0.695635
Si Si3 0.258089 0.313962 0.039738
Si Si4 0.983156 0.426200 0.210458
Si Si5 0.347514 0.005021 0.678285
Si Si6 0.660841 0.410464 0.894165
Si Si7 0.660673 0.649994 0.476496
O O1 0.782796 0.871916 0.723956
O O2 0.555898 0.072018 0.548061
O O3 0.895782 0.223275 0.367304
O O4 0.761398 0.014123 0.401499
O O5 0.100883 0.535983 0.686311
O O6 0.446883 0.590475 0.540513
O O7 0.241039 0.359891 0.648648
O O8 0.272108 0.293245 0.920756
O O9 0.106786 0.433196 0.969068
O O10 0.455963 0.420936 0.946505
O O11 0.194412 0.477184 0.145510
O O12 0.299130 0.154949 0.638891
O O13 0.327727 0.802642 0.911078
O O14 0.698795 0.498706 0.689124
#
# Coordination Sequence:
#
# PCOD9080331 Si02
#       7
#     2   2   2   2   2   2   2
#     4  10  19  37  61  83 115 153 190 229 290 330
#     4   8  18  37  60  80 116 146 189 233 282 329
#     4   8  19  39  56  86 115 147 188 235 281 332
#     4  10  20  38  58  85 117 145 192 236 270 350
#     4  10  21  36  59  88 113 151 193 232 277 349
#     4  10  21  36  58  85 116 150 190 224 295 327
#     4  10  18  39  57  84 116 149 185 240 276 335
#
# _framework density 20.944459999999999
#
# number of rings (size 3 to 8) (size 9 to 14) (size 15 to 20)
#    0.857    1.714    1.429    0.000    0.000    3.429 
#    2.571   10.000    0.000    0.000    0.000    0.000 
#    0.000    0.000    0.000    0.000    0.000    0.000 
#
# Total GULP energy -78196.577202 kJ/mol
# GULP energy per Si atom -5585.469800 kJ/mol
# Density = 2.089679 g / cm^3
# Si number density = 20.944460 Si / 1000 Ang^3
#
#
#
# Elastic Constant Matrix: (Units=GPa)
#
#
# Indices 1 2 3 4 5 6 
#
# 1 104.7096 60.1980 66.1183 0.9184 -3.2208 15.8475
# 2 60.1980 176.3795 62.9659 2.0751 0.6332 8.2462
# 3 66.1183 62.9659 97.2105 -3.6674 5.7360 10.8466
# 4 0.9184 2.0751 -3.6674 28.8484 11.7405 -5.0001
# 5 -3.2208 0.6332 5.7360 11.7405 17.2828 0.2781
# 6 15.8475 8.2462 10.8466 -5.0001 0.2781 25.2903
#
#
#
# Elastic Compliance Matrix: (Units=1/GPa)
#
#
# Indices 1 2 3 4 5 6 
#
# 1 0.020971 -0.001929 -0.013298 -0.010015 0.015340 -0.008958
# 2 -0.001929 0.007720 -0.003859 -0.001723 0.001809 -0.000014
# 3 -0.013298 -0.003859 0.023056 0.011161 -0.017605 0.002103
# 4 -0.010015 -0.001723 0.011161 0.057013 -0.044460 0.013811
# 5 0.015340 0.001809 -0.017605 -0.044460 0.096900 -0.012507
# 6 -0.008958 -0.000014 0.002103 0.013811 -0.012507 0.047125
#
#
# Mechanical properties :
#
#
# Convention : Reuss Voigt Hill
#
# Bulk Modulus (GPa) = 73.65580 84.09601 78.87590
# Shear Modulus (GPa) = 16.92148 26.88545 21.90347
#
# Velocity S-wave (km/s) = 2.84548 3.58670 3.23737
# Velocity P-wave (km/s) = 6.78522 7.57573 7.19134
#
# Compressibility (1/GPa) = 0.01357666
#
# Stress axis : x y z
#
# Youngs Moduli (GPa) = 47.68399 129.53671 43.37195
#
# Poissons Ratio (x) = 0.24983 0.57676
# Poissons Ratio (y) = 0.09197 0.16736
# Poissons Ratio (z) = 0.63411 0.49985
#
# Static dielectric constant tensor:
#      x y z
#    x 1.787930 -0.018100 -0.013760 
#    y -0.018100 1.764820 0.049470 
#    z -0.013760 0.049470 1.745400 
# 
# From -- ./inp_files/388792.got.cif
#   From: 2010.05.17/outbox.cif.g08.bks.cpg/sg2_195_cif.got.tgz:388792.got - 2010.06.03 11:33:40.
