data_PCOD9080584
_publ_section_title
;
Structure prediction by ZEFSAII (Michael W. Deem and Ramdas Pophale) SiO2 
 PCOD9080584
Probable space group: P -1
;
_chemical_formula_sum "Si O2"
_cell_formula_units_Z 16
_cell_length_a 11.941047
_cell_length_b 8.365997
_cell_length_c 20.085475
_cell_angle_alpha 51.074874
_cell_angle_beta 24.993954
_cell_angle_gamma 61.810892
_cell_volume 630.137081
_symmetry_space_group_name_H-M "P -1"
_symmetry_group_IT_number 2
_symmetry_cell_setting 'triclinic'
loop_
_space_group_symop_operation_xyz
x,y,z
-x,-y,-z
loop_
_atom_site_type_symbol
_atom_site_label
_atom_site_fract_x
_atom_site_fract_y
_atom_site_fract_z
Si Si1 0.842911 0.063042 0.469112
Si Si2 0.701985 0.180695 0.045598
Si Si3 0.969590 0.038037 0.729527
Si Si4 0.304572 0.212071 0.727135
Si Si5 0.170559 0.485034 0.231513
Si Si6 0.506672 0.161725 0.857051
Si Si7 0.446695 0.410438 0.225282
Si Si8 0.623488 0.613805 0.507755
O O1 0.793138 0.809175 0.571148
O O2 0.941855 0.126817 0.323382
O O3 0.548610 0.102099 0.634267
O O4 0.088688 0.228713 0.333214
O O5 0.664352 0.307447 0.099730
O O6 0.499616 0.968452 0.174182
O O7 0.734587 0.365217 0.922606
O O8 0.977462 0.109139 0.926284
O O9 0.759710 0.127418 0.773935
O O10 0.273037 0.193496 0.546778
O O11 0.783410 0.950161 0.917762
O O12 0.358445 0.407119 0.700485
O O13 0.367199 0.294460 0.595726
O O14 0.377308 0.542441 0.165879
O O15 0.884913 0.522016 0.396790
O O16 0.517643 0.413506 0.781871
#
# Coordination Sequence:
#
# PCOD9080584 Si02
#       8
#     2   2   2   2   2   2   2   2
#     4  11  25  38  60  96 129 170 203 249 323 382
#     4  11  22  43  69  91 121 171 213 265 304 356
#     4  11  20  40  64  95 124 155 211 271 310 357
#     4   9  20  40  60  90 120 164 221 248 302 369
#     4  10  18  40  64  90 117 158 219 258 301 365
#     4  11  22  40  65 100 124 156 211 264 315 373
#     4  12  24  40  62  95 136 164 201 257 325 381
#     4   9  17  36  66  85 117 156 208 272 295 343
#
# _framework density 25.391299
#
# number of rings (size 3 to 8) (size 9 to 14) (size 15 to 20)
#    0.000    1.500    3.750    3.750    0.000    1.500 
#    6.750    0.625    0.000    0.000    0.000    0.000 
#    0.000    0.000    0.000    0.000    0.000    0.000 
#
# Total GULP energy -89176.295990 kJ/mol
# GULP energy per Si atom -5573.518499 kJ/mol
# Density = 2.533351 g / cm^3
# Si number density = 25.391299 Si / 1000 Ang^3
#
#
#
# Elastic Constant Matrix: (Units=GPa)
#
#
# Indices 1 2 3 4 5 6 
#
# 1 72.7597 21.5995 19.5638 -10.1269 -13.4912 0.9879
# 2 21.5995 126.2343 37.2079 -14.0090 -2.9706 17.1502
# 3 19.5638 37.2079 59.6259 -2.7190 -11.6742 2.7227
# 4 -10.1269 -14.0090 -2.7190 37.8338 14.0563 -8.7370
# 5 -13.4912 -2.9706 -11.6742 14.0563 32.3966 -9.5039
# 6 0.9879 17.1502 2.7227 -8.7370 -9.5039 31.1430
#
#
#
# Elastic Compliance Matrix: (Units=1/GPa)
#
#
# Indices 1 2 3 4 5 6 
#
# 1 0.016444 -0.001943 -0.003146 0.002119 0.005527 0.003105
# 2 -0.001943 0.011567 -0.007277 0.003986 -0.005970 -0.006376
# 3 -0.003146 -0.007277 0.023864 -0.004567 0.009688 0.003696
# 4 0.002119 0.003986 -0.004567 0.034224 -0.014253 0.003389
# 5 0.005527 -0.005970 0.009688 -0.014253 0.045898 0.012274
# 6 0.003105 -0.006376 0.003696 0.003389 0.012274 0.039896
#
#
# Mechanical properties :
#
#
# Convention : Reuss Voigt Hill
#
# Bulk Modulus (GPa) = 36.84025 46.15137 41.49581
# Shear Modulus (GPa) = 24.31049 32.29124 28.30087
#
# Velocity S-wave (km/s) = 3.09760 3.57002 3.34217
# Velocity P-wave (km/s) = 5.22819 5.93371 5.59209
#
# Compressibility (1/GPa) = 0.02714422
#
# Stress axis : x y z
#
# Youngs Moduli (GPa) = 60.81139 86.45187 41.90395
#
# Poissons Ratio (x) = 0.16797 0.13183
# Poissons Ratio (y) = 0.11815 0.30492
# Poissons Ratio (z) = 0.19131 0.62909
#
# Static dielectric constant tensor:
#      x y z
#    x 2.031530 0.024930 0.060460 
#    y 0.024930 2.076310 -0.062120 
#    z 0.060460 -0.062120 2.092010 
# 
# From -- ./inp_files/619255.got.cif
#   From: 2010.05.17/outbox.cif.g08.bks.cpg/sg2_310_cif.got.tgz:619255.got - 2010.06.03 11:33:40.
