data_PCOD9080945
_publ_section_title
;
Structure prediction by ZEFSAII (Michael W. Deem and Ramdas Pophale) SiO2 
 PCOD9080945
Probable space group: P -1
;
_chemical_formula_sum "Si O2"
_cell_formula_units_Z 14
_cell_length_a 14.381611
_cell_length_b 6.876648
_cell_length_c 8.972312
_cell_angle_alpha 126.364583
_cell_angle_beta 49.834077
_cell_angle_gamma 129.327813
_cell_volume 498.420307
_symmetry_space_group_name_H-M "P -1"
_symmetry_group_IT_number 2
_symmetry_cell_setting 'triclinic'
loop_
_space_group_symop_operation_xyz
x,y,z
-x,-y,-z
loop_
_atom_site_type_symbol
_atom_site_label
_atom_site_fract_x
_atom_site_fract_y
_atom_site_fract_z
Si Si1 0.315696 0.367772 0.375960
Si Si2 0.924788 0.189288 0.306536
Si Si3 0.519612 0.185573 0.417519
Si Si4 0.707344 0.265723 0.712171
Si Si5 0.967115 0.718562 0.321045
Si Si6 0.738407 0.081040 0.993810
Si Si7 0.212270 0.262649 0.983757
O O1 0.446861 0.533682 0.411034
O O2 0.304103 0.542058 0.322970
O O3 0.183447 0.328348 0.589729
O O4 0.309263 0.099873 0.186386
O O5 0.847461 0.238568 0.546847
O O6 0.942201 0.437960 0.296782
O O7 0.070682 0.202315 0.185803
O O8 0.836210 0.910746 0.192815
O O9 0.500000 0.000000 0.500000
O O10 0.399965 0.015907 0.355976
O O11 0.649762 0.227528 0.205910
O O12 0.709465 0.424132 0.932393
O O13 0.101446 0.765710 0.111266
O O14 0.000000 0.000000 0.500000
O O15 0.711435 0.873369 0.062788
#
# Coordination Sequence:
#
# PCOD9080945 Si02
#       7
#     2   2   2   2   2   2   2
#     4   8  17  30  46  73 103 130 164 209 259 300
#     4  10  20  35  52  76 107 133 169 215 259 310
#     4  10  19  30  48  76 107 136 167 212 259 302
#     4   9  18  31  48  72 104 136 170 209 255 306
#     4   9  18  34  54  78 106 136 171 216 263 304
#     4  10  19  32  52  79 104 131 172 214 258 306
#     4  10  20  32  52  79 102 135 171 210 263 306
#
# _framework density 28.088743000000001
#
# number of rings (size 3 to 8) (size 9 to 14) (size 15 to 20)
#    0.000    2.571    0.000    3.857    0.000    8.571 
#    0.000    0.000    0.000    0.857    0.000   28.000 
#    0.000    0.000    0.000    0.000    0.000    0.000 
#
# Total GULP energy -78270.860186 kJ/mol
# GULP energy per Si atom -5590.775728 kJ/mol
# Density = 2.802481 g / cm^3
# Si number density = 28.088743 Si / 1000 Ang^3
#
#
#
# Elastic Constant Matrix: (Units=GPa)
#
#
# Indices 1 2 3 4 5 6 
#
# 1 81.5918 45.2249 36.1280 23.1738 28.5444 6.9155
# 2 45.2249 148.9769 61.2996 36.8382 24.3752 9.9773
# 3 36.1280 61.2996 150.5025 1.6401 5.4838 12.7130
# 4 23.1738 36.8382 1.6401 45.0111 4.3411 15.3558
# 5 28.5444 24.3752 5.4838 4.3411 32.8332 13.4620
# 6 6.9155 9.9773 12.7130 15.3558 13.4620 60.5137
#
#
#
# Elastic Compliance Matrix: (Units=1/GPa)
#
#
# Indices 1 2 3 4 5 6 
#
# 1 0.026195 0.001949 -0.006653 -0.014987 -0.024099 0.007247
# 2 0.001949 0.012630 -0.005454 -0.011533 -0.010299 0.004058
# 3 -0.006653 -0.005454 0.010438 0.008219 0.008887 -0.004596
# 4 -0.014987 -0.011533 0.008219 0.041617 0.020106 -0.013146
# 5 -0.024099 -0.010299 0.008887 0.020106 0.061558 -0.016211
# 6 0.007247 0.004058 -0.004596 -0.013146 -0.016211 0.022936
#
#
# Mechanical properties :
#
#
# Convention : Reuss Voigt Hill
#
# Bulk Modulus (GPa) = 34.54573 74.04179 54.29376
# Shear Modulus (GPa) = 24.35018 43.56619 33.95819
#
# Velocity S-wave (km/s) = 2.94751 3.94257 3.48078
# Velocity P-wave (km/s) = 4.88971 6.86603 5.96035
#
# Compressibility (1/GPa) = 0.02894714
#
# Stress axis : x y z
#
# Youngs Moduli (GPa) = 38.17574 79.17707 95.80799
#
# Poissons Ratio (x) = -0.15431 0.63737
# Poissons Ratio (y) = -0.07440 0.52252
# Poissons Ratio (z) = 0.25397 0.43182
#
# Static dielectric constant tensor:
#      x y z
#    x 2.180820 -0.033390 0.030190 
#    y -0.033390 2.253840 -0.015420 
#    z 0.030190 -0.015420 2.083790 
# 
# From -- ./inp_files/332517.got.cif
#   From: 2010.05.17/outbox.cif.g08.bks.cpg/sg2_167_cif.got.tgz:332517.got - 2010.06.03 11:33:40.
