data_PCOD9080059
_publ_section_title
;
Structure prediction by ZEFSAII (Michael W. Deem and Ramdas Pophale) SiO2 
 PCOD9080059
Probable space group: P -1
;
_chemical_formula_sum "Si O2"
_cell_formula_units_Z 16
_cell_length_a 10.831810
_cell_length_b 8.915838
_cell_length_c 9.253402
_cell_angle_alpha 106.633900
_cell_angle_beta 78.449551
_cell_angle_gamma 124.115149
_cell_volume 708.010695
_symmetry_space_group_name_H-M "P -1"
_symmetry_group_IT_number 2
_symmetry_cell_setting 'triclinic'
loop_
_space_group_symop_operation_xyz
x,y,z
-x,-y,-z
loop_
_atom_site_type_symbol
_atom_site_label
_atom_site_fract_x
_atom_site_fract_y
_atom_site_fract_z
Si Si1 0.907860 0.469034 0.824793
Si Si2 0.859137 0.812948 0.420545
Si Si3 0.190473 0.791281 0.980615
Si Si4 0.761210 0.628676 0.112375
Si Si5 0.546846 0.237108 0.189450
Si Si6 0.527323 0.690425 0.478726
Si Si7 0.224213 0.437844 0.358778
Si Si8 0.740357 0.836244 0.926033
O O1 0.868562 0.487532 0.676505
O O2 0.080075 0.607877 0.861430
O O3 0.842319 0.270860 0.860727
O O4 0.828271 0.550000 0.963054
O O5 0.878887 0.768240 0.240118
O O6 0.704735 0.811243 0.444675
O O7 0.826823 0.647031 0.492454
O O8 0.000000 0.000000 0.500000
O O9 0.353171 0.839606 0.908468
O O10 0.153990 0.947492 0.001177
O O11 0.638455 0.454863 0.185186
O O12 0.696551 0.723058 0.054067
O O13 0.515979 0.215653 0.360922
O O14 0.392503 0.162612 0.123490
O O15 0.500000 0.500000 0.500000
O O16 0.398531 0.607398 0.364840
O O17 0.208099 0.265680 0.223199
#
# Coordination Sequence:
#
# PCOD9080059 Si02
#       8
#     2   2   2   2   2   2   2   2
#     4   9  22  41  61  86 120 161 207 242 298 361
#     4  11  22  34  58  98 124 145 188 265 312 337
#     4  10  23  38  58  86 129 160 194 248 305 358
#     4  10  21  35  63  93 115 154 206 253 292 352
#     4  11  19  39  61  88 120 167 197 241 301 366
#     4  10  18  38  62  87 121 155 202 246 297 356
#     4  10  20  39  69  88 115 161 206 251 296 352
#     4  11  21  35  63  92 119 149 205 256 295 344
#
# _framework density 22.598528999999999
#
# number of rings (size 3 to 8) (size 9 to 14) (size 15 to 20)
#    0.000    1.750    5.000    0.750    3.500    3.000 
#    0.000    0.625    2.750    1.500    0.000    0.000 
#    0.000    0.000    0.000    0.000    0.000    0.000 
#
# Total GULP energy -89304.199078 kJ/mol
# GULP energy per Si atom -5581.512442 kJ/mol
# Density = 2.254709 g / cm^3
# Si number density = 22.598529 Si / 1000 Ang^3
#
#
#
# Elastic Constant Matrix: (Units=GPa)
#
#
# Indices 1 2 3 4 5 6 
#
# 1 42.6261 5.0676 -4.0460 -12.7265 3.9426 -6.9009
# 2 5.0676 60.5862 8.1162 7.7262 -4.6749 -3.8718
# 3 -4.0460 8.1162 61.9250 -5.5911 6.0018 -14.5237
# 4 -12.7265 7.7262 -5.5911 20.4237 1.6008 2.5798
# 5 3.9426 -4.6749 6.0018 1.6008 33.8972 -3.0793
# 6 -6.9009 -3.8718 -14.5237 2.5798 -3.0793 32.0170
#
#
#
# Elastic Compliance Matrix: (Units=1/GPa)
#
#
# Indices 1 2 3 4 5 6 
#
# 1 0.034829 -0.007419 0.008061 0.026327 -0.007066 0.007466
# 2 -0.007419 0.019957 -0.004796 -0.013921 0.005145 0.000255
# 3 0.008061 -0.004796 0.021031 0.011820 -0.005040 0.009261
# 4 0.026327 -0.013921 0.011820 0.074384 -0.010373 0.002362
# 5 -0.007066 0.005145 -0.005040 -0.010373 0.032485 0.000773
# 6 0.007466 0.000255 0.009261 0.002362 0.000773 0.036958
#
#
# Mechanical properties :
#
#
# Convention : Reuss Voigt Hill
#
# Bulk Modulus (GPa) = 14.81259 20.37922 17.59590
# Shear Modulus (GPa) = 19.96362 27.66755 23.81558
#
# Velocity S-wave (km/s) = 2.97543 3.50281 3.24984
# Velocity P-wave (km/s) = 4.28639 5.03955 4.67815
#
# Compressibility (1/GPa) = 0.06751014
#
# Stress axis : x y z
#
# Youngs Moduli (GPa) = 28.71149 50.10793 47.54789
#
# Poissons Ratio (x) = 0.37173 -0.38327
# Poissons Ratio (y) = 0.21300 0.22804
# Poissons Ratio (z) = -0.23144 0.24032
#
# Static dielectric constant tensor:
#      x y z
#    x 1.885770 0.050130 -0.000400 
#    y 0.050130 1.938280 0.027360 
#    z -0.000400 0.027360 1.880800 
# 
# From -- ./inp_files/244521.got.cif
#   From: 2010.05.17/outbox.cif.g08.bks.cpg/sg2_123_cif.got.tgz:244521.got - 2010.06.03 11:33:40.
