data_PCOD9080134
_publ_section_title
;
Structure prediction by ZEFSAII (Michael W. Deem and Ramdas Pophale) SiO2 
 PCOD9080134
Probable space group: P -1
;
_chemical_formula_sum "Si O2"
_cell_formula_units_Z 12
_cell_length_a 8.080213
_cell_length_b 17.733935
_cell_length_c 10.935519
_cell_angle_alpha 41.274730
_cell_angle_beta 42.167094
_cell_angle_gamma 72.378514
_cell_volume 568.073074
_symmetry_space_group_name_H-M "P -1"
_symmetry_group_IT_number 2
_symmetry_cell_setting 'triclinic'
loop_
_space_group_symop_operation_xyz
x,y,z
-x,-y,-z
loop_
_atom_site_type_symbol
_atom_site_label
_atom_site_fract_x
_atom_site_fract_y
_atom_site_fract_z
Si Si1 0.250908 0.205679 0.268640
Si Si2 0.110727 0.636716 0.349947
Si Si3 0.861508 0.783279 0.412032
Si Si4 0.549743 0.644382 0.267208
Si Si5 0.958522 0.085460 0.219612
Si Si6 0.621004 0.957839 0.302981
O O1 0.212835 0.256023 0.357603
O O2 0.022720 0.039064 0.588722
O O3 0.588573 0.239014 0.036542
O O4 0.260957 0.289363 0.044002
O O5 0.240032 0.624422 0.422848
O O6 0.000000 0.500000 0.500000
O O7 0.872136 0.671497 0.463383
O O8 0.647008 0.828587 0.428506
O O9 0.199930 0.926264 0.040620
O O10 0.500000 0.500000 0.500000
O O11 0.734374 0.763311 0.121928
O O12 0.708951 0.086700 0.433148
O O13 0.822936 0.036034 0.218709
#
# Coordination Sequence:
#
# PCOD9080134 Si02
#       6
#     2   2   2   2   2   2
#     4   9  21  38  63  90 117 165 199 253 304 360
#     4  10  23  40  63  84 126 166 199 247 310 364
#     4  10  19  38  59  99 117 156 214 244 308 362
#     4  10  23  39  61  89 125 164 203 252 307 362
#     4  10  18  38  64  90 125 161 203 248 311 357
#     4   9  19  32  65  96 121 154 203 264 294 359
#
# _framework density 21.124044000000001
#
# number of rings (size 3 to 8) (size 9 to 14) (size 15 to 20)
#    1.000    1.333    1.667    0.500    2.333    0.667 
#    0.000   10.000    0.000    0.000    0.000    0.000 
#    0.000    0.000    0.000    0.000    0.000    0.000 
#
# Total GULP energy -66902.081222 kJ/mol
# GULP energy per Si atom -5575.173435 kJ/mol
# Density = 2.107596 g / cm^3
# Si number density = 21.124044 Si / 1000 Ang^3
#
#
#
# Elastic Constant Matrix: (Units=GPa)
#
#
# Indices 1 2 3 4 5 6 
#
# 1 48.3155 19.6129 26.2335 -6.7312 10.5428 3.1314
# 2 19.6129 144.3794 30.8139 -6.6831 5.1872 -12.3621
# 3 26.2335 30.8139 53.3769 -21.5562 16.5530 -0.8918
# 4 -6.7312 -6.6831 -21.5562 44.8097 3.0266 4.5546
# 5 10.5428 5.1872 16.5530 3.0266 35.2851 -2.3494
# 6 3.1314 -12.3621 -0.8918 4.5546 -2.3494 21.5219
#
#
#
# Elastic Compliance Matrix: (Units=1/GPa)
#
#
# Indices 1 2 3 4 5 6 
#
# 1 0.029339 -0.001580 -0.013474 -0.001568 -0.002456 -0.005671
# 2 -0.001580 0.008709 -0.006020 -0.002603 0.002627 0.005821
# 3 -0.013474 -0.006020 0.041384 0.018661 -0.016472 -0.005530
# 4 -0.001568 -0.002603 0.018661 0.032299 -0.011243 -0.008557
# 5 -0.002456 0.002627 -0.016472 -0.011243 0.037893 0.007700
# 6 -0.005671 0.005821 -0.005530 -0.008557 0.007700 0.053055
#
#
# Mechanical properties :
#
#
# Convention : Reuss Voigt Hill
#
# Bulk Modulus (GPa) = 26.81992 44.37693 35.59843
# Shear Modulus (GPa) = 19.43595 31.61743 25.52669
#
# Velocity S-wave (km/s) = 3.03658 3.87298 3.48000
# Velocity P-wave (km/s) = 5.00184 6.40729 5.74769
#
# Compressibility (1/GPa) = 0.03728572
#
# Stress axis : x y z
#
# Youngs Moduli (GPa) = 34.08375 114.82278 24.16385
#
# Poissons Ratio (x) = 0.18140 0.32558
# Poissons Ratio (y) = 0.05385 0.14546
# Poissons Ratio (z) = 0.45924 0.69122
#
# Static dielectric constant tensor:
#      x y z
#    x 1.815150 -0.009220 0.024490 
#    y -0.009220 1.774580 0.000430 
#    z 0.024490 0.000430 1.801090 
# 
# From -- ./inp_files/256646.got.cif
#   From: 2010.05.17/outbox.cif.g08.bks.cpg/sg2_129_cif.got.tgz:256646.got - 2010.06.03 11:33:40.
