data_PCOD9080236
_publ_section_title
;
Structure prediction by ZEFSAII (Michael W. Deem and Ramdas Pophale) SiO2 
 PCOD9080236
Probable space group: P -1
;
_chemical_formula_sum "Si O2"
_cell_formula_units_Z 12
_cell_length_a 11.874134
_cell_length_b 12.662699
_cell_length_c 7.949639
_cell_angle_alpha 58.474475
_cell_angle_beta 76.854601
_cell_angle_gamma 34.099705
_cell_volume 515.678449
_symmetry_space_group_name_H-M "P -1"
_symmetry_group_IT_number 2
_symmetry_cell_setting 'triclinic'
loop_
_space_group_symop_operation_xyz
x,y,z
-x,-y,-z
loop_
_atom_site_type_symbol
_atom_site_label
_atom_site_fract_x
_atom_site_fract_y
_atom_site_fract_z
Si Si1 0.772173 0.360981 0.181443
Si Si2 0.519228 0.209558 0.640365
Si Si3 0.914751 0.709275 0.799670
Si Si4 0.015108 0.631219 0.438518
Si Si5 0.830686 0.145734 0.642464
Si Si6 0.666016 0.150074 0.988410
O O1 0.780076 0.315800 0.415857
O O2 0.933499 0.329026 0.124041
O O3 0.910043 0.124586 0.244045
O O4 0.520688 0.628711 0.005141
O O5 0.267998 0.440515 0.475792
O O6 0.667745 0.195525 0.561898
O O7 0.659891 0.968199 0.717930
O O8 0.534087 0.193193 0.852107
O O9 0.956442 0.686428 0.608599
O O10 0.000000 0.500000 0.000000
O O11 0.000000 0.500000 0.500000
O O12 0.852148 0.884406 0.205949
O O13 0.765175 0.177685 0.829603
#
# Coordination Sequence:
#
# PCOD9080236 Si02
#       6
#     2   2   2   2   2   2
#     4  10  18  38  67  89 120 159 204 240 308 359
#     4   9  22  42  61  86 126 153 203 248 303 353
#     4  11  23  40  63  88 122 166 201 249 300 357
#     4  12  26  39  60  93 124 162 204 247 302 358
#     4   8  19  38  65  91 118 159 196 253 303 356
#     4  10  21  38  65  89 118 160 200 251 299 354
#
# _framework density 23.270315
#
# number of rings (size 3 to 8) (size 9 to 14) (size 15 to 20)
#    1.000    1.000    1.667    1.500    2.333    3.333 
#    0.000    3.333    0.000    6.000    0.000    0.000 
#    0.000    0.000    0.000    0.000    0.000    0.000 
#
# Total GULP energy -66979.997175 kJ/mol
# GULP energy per Si atom -5581.666431 kJ/mol
# Density = 2.321735 g / cm^3
# Si number density = 23.270315 Si / 1000 Ang^3
#
#
#
# Elastic Constant Matrix: (Units=GPa)
#
#
# Indices 1 2 3 4 5 6 
#
# 1 52.2314 10.7827 34.1304 -23.8711 -1.9678 -11.1461
# 2 10.7827 136.6009 49.1807 -57.6991 11.8683 -16.8273
# 3 34.1304 49.1807 112.2034 -54.6756 -13.8517 -15.9342
# 4 -23.8711 -57.6991 -54.6756 54.1151 -2.2806 7.0241
# 5 -1.9678 11.8683 -13.8517 -2.2806 31.2542 -6.2395
# 6 -11.1461 -16.8273 -15.9342 7.0241 -6.2395 26.9520
#
#
#
# Elastic Compliance Matrix: (Units=1/GPa)
#
#
# Indices 1 2 3 4 5 6 
#
# 1 0.029025 0.006601 -0.001737 0.016717 0.002008 0.011206
# 2 0.006601 0.016098 0.002270 0.021237 -0.001496 0.008242
# 3 -0.001737 0.002270 0.023911 0.024896 0.013744 0.011529
# 4 0.016717 0.021237 0.024896 0.071706 0.013095 0.019235
# 5 0.002008 -0.001496 0.013744 0.013095 0.042627 0.014478
# 6 0.011206 0.008242 0.011529 0.019235 0.014478 0.052038
#
#
# Mechanical properties :
#
#
# Convention : Reuss Voigt Hill
#
# Bulk Modulus (GPa) = 12.00432 54.35813 33.18122
# Shear Modulus (GPa) = 20.08807 36.26036 28.17422
#
# Velocity S-wave (km/s) = 2.94130 3.95172 3.48334
# Velocity P-wave (km/s) = 4.08715 6.65068 5.51980
#
# Compressibility (1/GPa) = 0.08330337
#
# Stress axis : x y z
#
# Youngs Moduli (GPa) = 34.45302 62.12098 41.82096
#
# Poissons Ratio (x) = -0.41009 0.07265
# Poissons Ratio (y) = -0.22744 -0.09495
# Poissons Ratio (z) = 0.05985 -0.14103
#
# Static dielectric constant tensor:
#      x y z
#    x 1.905290 0.020320 0.020120 
#    y 0.020320 1.894370 0.005500 
#    z 0.020120 0.005500 1.878350 
# 
# From -- ./inp_files/311182.got.cif
#   From: 2010.05.17/outbox.cif.g08.bks.cpg/sg2_156_cif.got.tgz:311182.got - 2010.06.03 11:33:40.
