data_PCOD9080430
_publ_section_title
;
Structure prediction by ZEFSAII (Michael W. Deem and Ramdas Pophale) SiO2 
 PCOD9080430
Probable space group: P -1
;
_chemical_formula_sum "Si O2"
_cell_formula_units_Z 16
_cell_length_a 15.480655
_cell_length_b 13.106185
_cell_length_c 9.684374
_cell_angle_alpha 119.611674
_cell_angle_beta 102.794258
_cell_angle_gamma 27.783402
_cell_volume 674.101985
_symmetry_space_group_name_H-M "P -1"
_symmetry_group_IT_number 2
_symmetry_cell_setting 'triclinic'
loop_
_space_group_symop_operation_xyz
x,y,z
-x,-y,-z
loop_
_atom_site_type_symbol
_atom_site_label
_atom_site_fract_x
_atom_site_fract_y
_atom_site_fract_z
Si Si1 0.825505 0.306694 0.386750
Si Si2 0.513706 0.205287 0.212699
Si Si3 0.580202 0.259779 0.631892
Si Si4 0.221812 0.973242 0.186112
Si Si5 0.349253 0.062857 0.209805
Si Si6 0.990597 0.405323 0.731446
Si Si7 0.251535 0.286947 0.870265
Si Si8 0.698552 0.215015 0.218085
O O1 0.727382 0.468560 0.605066
O O2 0.625524 0.565885 0.379476
O O3 0.852261 0.132622 0.274221
O O4 0.028656 0.135484 0.297706
O O5 0.657519 0.148533 0.245127
O O6 0.613220 0.982660 0.191570
O O7 0.543286 0.128045 0.015490
O O8 0.573405 0.290716 0.813912
O O9 0.535337 0.436210 0.654925
O O10 0.806638 0.921433 0.454158
O O11 0.211524 0.127540 0.276406
O O12 0.233497 0.908631 0.993013
O O13 0.193320 0.353590 0.289121
O O14 0.563160 0.854343 0.222964
O O15 0.083618 0.425630 0.802839
O O16 0.880813 0.502429 0.903671
#
# Coordination Sequence:
#
# PCOD9080430 Si02
#       8
#     2   2   2   2   2   2   2   2
#     4  10  22  37  65  89 118 157 195 252 295 348
#     4  10  18  39  65  89 116 155 197 251 298 342
#     4  10  23  37  64  87 125 150 202 248 292 354
#     4  11  23  42  61  87 121 167 198 236 303 358
#     4  10  24  38  63  88 124 160 198 242 293 359
#     4  10  20  37  61  92 117 159 198 243 303 349
#     4  10  20  38  64  86 128 153 192 251 300 349
#     4   9  21  41  65  84 121 157 199 248 301 349
#
# _framework density 23.735279999999999
#
# number of rings (size 3 to 8) (size 9 to 14) (size 15 to 20)
#    0.750    1.250    1.250    2.625    3.500    1.500 
#    0.000    1.875   13.750    0.000    0.000    0.000 
#    0.000    0.000    0.000    0.000    0.000    0.000 
#
# Total GULP energy -89332.942515 kJ/mol
# GULP energy per Si atom -5583.308907 kJ/mol
# Density = 2.368126 g / cm^3
# Si number density = 23.735280 Si / 1000 Ang^3
#
#
#
# Elastic Constant Matrix: (Units=GPa)
#
#
# Indices 1 2 3 4 5 6 
#
# 1 119.9992 9.8419 13.0797 11.3917 -1.5220 -19.4480
# 2 9.8419 46.8961 -20.4220 1.5950 0.8792 -16.1154
# 3 13.0797 -20.4220 54.3728 -7.7627 6.5397 -5.9947
# 4 11.3917 1.5950 -7.7627 18.6700 0.2936 -2.8145
# 5 -1.5220 0.8792 6.5397 0.2936 24.2424 7.1846
# 6 -19.4480 -16.1154 -5.9947 -2.8145 7.1846 32.4172
#
#
#
# Elastic Compliance Matrix: (Units=1/GPa)
#
#
# Indices 1 2 3 4 5 6 
#
# 1 0.010247 -0.002741 -0.004335 -0.007369 0.001081 0.003104
# 2 -0.002741 0.041326 0.022929 0.012121 -0.016239 0.027791
# 3 -0.004335 0.022929 0.035010 0.018619 -0.016888 0.020632
# 4 -0.007369 0.012121 0.018619 0.066925 -0.010653 0.013219
# 5 0.001081 -0.016239 -0.016888 -0.010653 0.053506 -0.023331
# 6 0.003104 0.027791 0.020632 0.013219 -0.023331 0.056659
#
#
# Mechanical properties :
#
#
# Convention : Reuss Voigt Hill
#
# Bulk Modulus (GPa) = 8.45380 25.14083 16.79731
# Shear Modulus (GPa) = 18.42319 29.65048 24.03683
#
# Velocity S-wave (km/s) = 2.78905 3.53826 3.18575
# Velocity P-wave (km/s) = 3.73379 5.22566 4.54140
#
# Compressibility (1/GPa) = 0.11829005
#
# Stress axis : x y z
#
# Youngs Moduli (GPa) = 97.58965 24.19760 28.56309
#
# Poissons Ratio (x) = 0.06633 0.12381
# Poissons Ratio (y) = 0.26751 -0.65492
# Poissons Ratio (z) = 0.42301 -0.55483
#
# Static dielectric constant tensor:
#      x y z
#    x 1.924470 -0.016640 0.029940 
#    y -0.016640 1.893120 -0.026020 
#    z 0.029940 -0.026020 1.962600 
# 
# From -- ./inp_files/455884.got.cif
#   From: 2010.05.17/outbox.cif.g08.bks.cpg/sg2_228_cif.got.tgz:455884.got - 2010.06.03 11:33:40.
