data_PCOD9080419
_publ_section_title
;
Structure prediction by ZEFSAII (Michael W. Deem and Ramdas Pophale) SiO2 
 PCOD9080419
Probable space group: P -1
;
_chemical_formula_sum "Si O2"
_cell_formula_units_Z 15
_cell_length_a 5.198581
_cell_length_b 19.065575
_cell_length_c 15.987338
_cell_angle_alpha 28.230897
_cell_angle_beta 124.265003
_cell_angle_gamma 119.554305
_cell_volume 619.437162
_symmetry_space_group_name_H-M "P -1"
_symmetry_group_IT_number 2
_symmetry_cell_setting 'triclinic'
loop_
_space_group_symop_operation_xyz
x,y,z
-x,-y,-z
loop_
_atom_site_type_symbol
_atom_site_label
_atom_site_fract_x
_atom_site_fract_y
_atom_site_fract_z
Si Si1 0.803883 0.647940 0.713465
Si Si2 0.269093 0.088068 0.300660
Si Si3 0.427612 0.601938 0.959059
Si Si4 0.079383 0.356508 0.447067
Si Si5 0.500000 0.500000 0.500000
Si Si6 0.999199 0.338971 0.622770
Si Si7 0.432322 0.022986 0.696700
Si Si8 0.463495 0.908799 0.172837
O O1 0.966298 0.617983 0.685057
O O2 0.619294 0.802312 0.515310
O O3 0.081277 0.666934 0.811141
O O4 0.604647 0.507516 0.853500
O O5 0.338327 0.262664 0.135684
O O6 0.500000 0.000000 0.500000
O O7 0.357827 0.040459 0.272539
O O8 0.911142 0.048812 0.293790
O O9 0.500000 0.500000 0.000000
O O10 0.365366 0.334765 0.676802
O O11 0.229023 0.191973 0.650454
O O12 0.850069 0.360549 0.480869
O O13 0.330818 0.473229 0.406467
O O14 0.825052 0.204893 0.771362
O O15 0.000000 0.500000 0.500000
O O16 0.571572 0.008152 0.831637
O O17 0.500000 0.000000 0.000000
#
# Coordination Sequence:
#
# PCOD9080419 Si02
#       8
#     2   2   2   2   1   2   2   2
#     4  10  23  42  69  96 136 178 235 285 354 425
#     4  12  25  47  74 103 146 185 239 293 361 435
#     4  11  25  43  68 102 137 178 228 298 357 414
#     4   9  20  39  62  94 123 175 225 269 345 411
#     4   8  18  36  60  92 120 160 222 266 328 388
#     4  10  18  39  64  89 127 170 225 275 338 402
#     4  11  27  47  71 106 137 199 237 282 365 435
#     4  11  24  43  66  96 140 183 230 293 349 417
#
# _framework density 24.215529
#
# number of rings (size 3 to 8) (size 9 to 14) (size 15 to 20)
#    0.800    0.800    2.667    1.200    7.467    1.600 
#    7.200    0.000    0.000    0.000    0.000    0.000 
#    0.000    0.000    0.000    0.000    0.000    0.000 
#
# Total GULP energy -83505.447348 kJ/mol
# GULP energy per Si atom -5567.029823 kJ/mol
# Density = 2.416041 g / cm^3
# Si number density = 24.215529 Si / 1000 Ang^3
#
#
#
# Elastic Constant Matrix: (Units=GPa)
#
#
# Indices 1 2 3 4 5 6 
#
# 1 74.1900 28.6913 41.5949 -9.4294 -32.5468 1.4646
# 2 28.6913 119.7873 62.8252 -15.4155 -19.3613 -6.3292
# 3 41.5949 62.8252 151.2386 3.4351 -47.5463 10.0118
# 4 -9.4294 -15.4155 3.4351 42.7384 6.3053 -17.0027
# 5 -32.5468 -19.3613 -47.5463 6.3053 48.0784 -8.3009
# 6 1.4646 -6.3292 10.0118 -17.0027 -8.3009 58.4562
#
#
#
# Elastic Compliance Matrix: (Units=1/GPa)
#
#
# Indices 1 2 3 4 5 6 
#
# 1 0.020429 -0.001741 -0.001440 0.003113 0.011660 0.002107
# 2 -0.001741 0.012502 -0.005751 0.006464 -0.001992 0.003979
# 3 -0.001440 -0.005751 0.012756 -0.006097 0.009574 -0.003185
# 4 0.003113 0.006464 -0.006097 0.031556 -0.003675 0.010323
# 5 0.011660 -0.001992 0.009574 -0.003675 0.038222 0.002211
# 6 0.002107 0.003979 -0.003185 0.010323 0.002211 0.021347
#
#
# Mechanical properties :
#
#
# Convention : Reuss Voigt Hill
#
# Bulk Modulus (GPa) = 35.94215 67.93762 51.93988
# Shear Modulus (GPa) = 30.49726 43.99489 37.24607
#
# Velocity S-wave (km/s) = 3.55267 4.26702 3.92613
# Velocity P-wave (km/s) = 5.63058 7.23830 6.48446
#
# Compressibility (1/GPa) = 0.02782249
#
# Stress axis : x y z
#
# Youngs Moduli (GPa) = 48.95082 79.99004 78.39304
#
# Poissons Ratio (x) = 0.13930 0.11286
# Poissons Ratio (y) = 0.08525 0.45083
# Poissons Ratio (z) = 0.07047 0.46001
#
# Static dielectric constant tensor:
#      x y z
#    x 1.929130 0.005520 -0.035860 
#    y 0.005520 1.966220 0.052640 
#    z -0.035860 0.052640 1.913590 
# 
# From -- ./inp_files/485182.got.cif
#   From: 2010.05.17/outbox.cif.g08.bks.cpg/sg2_243_cif.got.tgz:485182.got - 2010.06.03 11:33:40.
