data_PCOD9080308
_publ_section_title
;
Structure prediction by ZEFSAII (Michael W. Deem and Ramdas Pophale) SiO2 
 PCOD9080308
Probable space group: P -1
;
_chemical_formula_sum "Si O2"
_cell_formula_units_Z 12
_cell_length_a 8.813706
_cell_length_b 17.339962
_cell_length_c 8.879116
_cell_angle_alpha 26.436543
_cell_angle_beta 63.116848
_cell_angle_gamma 58.808318
_cell_volume 516.566809
_symmetry_space_group_name_H-M "P -1"
_symmetry_group_IT_number 2
_symmetry_cell_setting 'triclinic'
loop_
_space_group_symop_operation_xyz
x,y,z
-x,-y,-z
loop_
_atom_site_type_symbol
_atom_site_label
_atom_site_fract_x
_atom_site_fract_y
_atom_site_fract_z
Si Si1 0.364294 0.966265 0.766749
Si Si2 0.999996 0.962176 0.887228
Si Si3 0.007003 0.548529 0.586224
Si Si4 0.387183 0.387817 0.834594
Si Si5 0.653433 0.643662 0.761412
Si Si6 0.389465 0.851962 0.286914
O O1 0.341096 0.159365 0.519756
O O2 0.522724 0.828966 0.842905
O O3 0.378416 0.839608 0.133280
O O4 0.186850 0.987813 0.710419
O O5 0.007524 0.755746 0.226447
O O6 0.816484 0.078034 0.694648
O O7 0.000000 0.000000 0.000000
O O8 0.835626 0.544506 0.768338
O O9 0.000000 0.500000 0.500000
O O10 0.189711 0.433245 0.778770
O O11 0.500000 0.500000 0.500000
O O12 0.376268 0.445474 0.913272
O O13 0.497080 0.691151 0.626080
O O14 0.500000 0.000000 0.000000
#
# Coordination Sequence:
#
# PCOD9080308 Si02
#       6
#     2   2   2   2   2   2
#     4  10  20  41  69  95 129 177 228 272 330 403
#     4  10  18  38  70  97 130 179 222 268 337 398
#     4  12  24  42  68 101 140 177 215 277 351 397
#     4  12  26  42  66  98 141 177 223 280 339 392
#     4  11  23  44  68 100 130 184 227 269 330 413
#     4   9  17  34  67  94 125 164 225 271 324 380
#
# _framework density 23.230295999999999
#
# number of rings (size 3 to 8) (size 9 to 14) (size 15 to 20)
#    0.000    1.333    6.667    2.000    2.333    0.000 
#    0.000    5.833    0.000    0.000    0.000    0.000 
#    0.000    0.000    0.000    0.000    0.000    0.000 
#
# Total GULP energy -67006.016572 kJ/mol
# GULP energy per Si atom -5583.834714 kJ/mol
# Density = 2.317742 g / cm^3
# Si number density = 23.230296 Si / 1000 Ang^3
#
#
#
# Elastic Constant Matrix: (Units=GPa)
#
#
# Indices 1 2 3 4 5 6 
#
# 1 180.1976 71.4028 35.5227 -8.1397 41.3451 -23.8336
# 2 71.4028 168.1251 33.3337 -0.2745 8.9812 -7.3280
# 3 35.5227 33.3337 56.0415 1.0337 -1.8446 2.5651
# 4 -8.1397 -0.2745 1.0337 41.6887 4.2544 5.0743
# 5 41.3451 8.9812 -1.8446 4.2544 33.8667 -15.4852
# 6 -23.8336 -7.3280 2.5651 5.0743 -15.4852 50.5702
#
#
#
# Elastic Compliance Matrix: (Units=1/GPa)
#
#
# Indices 1 2 3 4 5 6 
#
# 1 0.011137 -0.002808 -0.005925 0.003573 -0.013297 0.000712
# 2 -0.002808 0.007613 -0.002706 -0.000645 0.001551 0.000457
# 3 -0.005925 -0.002706 0.023613 -0.002499 0.008910 -0.001404
# 4 0.003573 -0.000645 -0.002499 0.026154 -0.009334 -0.003765
# 5 -0.013297 0.001551 0.008910 -0.009334 0.051706 0.010276
# 6 0.000712 0.000457 -0.001404 -0.003765 0.010276 0.023772
#
#
# Mechanical properties :
#
#
# Convention : Reuss Voigt Hill
#
# Bulk Modulus (GPa) = 51.32452 76.09806 63.71129
# Shear Modulus (GPa) = 28.84048 42.83210 35.83629
#
# Velocity S-wave (km/s) = 3.52732 4.29861 3.93192
# Velocity P-wave (km/s) = 6.22343 7.58068 6.93533
#
# Compressibility (1/GPa) = 0.01948386
#
# Stress axis : x y z
#
# Youngs Moduli (GPa) = 89.79415 131.35439 42.34936
#
# Poissons Ratio (x) = 0.36881 0.25093
# Poissons Ratio (y) = 0.25212 0.11462
# Poissons Ratio (z) = 0.53205 0.35551
#
# Static dielectric constant tensor:
#      x y z
#    x 1.882450 -0.054030 -0.081780 
#    y -0.054030 1.925450 0.031270 
#    z -0.081780 0.031270 1.993300 
# 
# From -- ./inp_files/216311.got.cif
#   From: 2010.05.17/outbox.cif.g08.bks.cpg/sg2_109_cif.got.tgz:216311.got - 2010.06.03 11:33:40.
