data_PCOD9080991
_publ_section_title
;
Structure prediction by ZEFSAII (Michael W. Deem and Ramdas Pophale) SiO2 
 PCOD9080991
Probable space group: P -1
;
_chemical_formula_sum "Si O2"
_cell_formula_units_Z 12
_cell_length_a 5.905756
_cell_length_b 11.790809
_cell_length_c 23.470567
_cell_angle_alpha 149.681820
_cell_angle_beta 56.852535
_cell_angle_gamma 129.469614
_cell_volume 636.874447
_symmetry_space_group_name_H-M "P -1"
_symmetry_group_IT_number 2
_symmetry_cell_setting 'triclinic'
loop_
_space_group_symop_operation_xyz
x,y,z
-x,-y,-z
loop_
_atom_site_type_symbol
_atom_site_label
_atom_site_fract_x
_atom_site_fract_y
_atom_site_fract_z
Si Si1 0.807666 0.958470 0.143621
Si Si2 0.460795 0.675125 0.532618
Si Si3 0.780389 0.103427 0.744740
Si Si4 0.835991 0.345692 0.078162
Si Si5 0.862572 0.748044 0.674562
Si Si6 0.292919 0.957295 0.926964
O O1 0.519891 0.865023 0.182109
O O2 0.728598 0.091068 0.158204
O O3 0.078724 0.140580 0.222229
O O4 0.908173 0.749719 0.015527
O O5 0.500000 0.500000 0.500000
O O6 0.402788 0.512156 0.412983
O O7 0.159920 0.709573 0.601731
O O8 0.713150 0.937814 0.624928
O O9 0.036681 0.365548 0.817776
O O10 0.841583 0.946033 0.718710
O O11 0.716688 0.247196 0.114954
O O12 0.570706 0.202687 0.009900
O O13 0.000000 0.000000 0.000000
#
# Coordination Sequence:
#
# PCOD9080991 Si02
#       6
#     2   2   2   2   2   2
#     4  10  19  31  50  76 102 131 163 201 244 289
#     4   8  16  31  47  70 100 130 160 196 245 293
#     4  10  19  30  51  78 102 127 161 206 245 287
#     4  10  20  34  49  71 102 135 167 198 242 293
#     4   9  17  29  48  74 101 127 159 201 246 289
#     4   9  20  35  48  65  97 139 172 198 237 292
#
# _framework density 18.842017999999999
#
# number of rings (size 3 to 8) (size 9 to 14) (size 15 to 20)
#    0.000    2.667    0.000    1.500    0.000    8.000 
#    0.000    0.000    0.000    1.000    0.000   64.167 
#    0.000    0.000    0.000    0.000    0.000    0.000 
#
# Total GULP energy -66813.134732 kJ/mol
# GULP energy per Si atom -5567.761228 kJ/mol
# Density = 1.879913 g / cm^3
# Si number density = 18.842018 Si / 1000 Ang^3
#
#
#
# Elastic Constant Matrix: (Units=GPa)
#
#
# Indices 1 2 3 4 5 6 
#
# 1 89.8426 21.1713 42.9351 15.1828 19.0478 -1.2675
# 2 21.1713 54.8621 52.9750 19.8032 21.7718 4.2431
# 3 42.9351 52.9750 121.5156 31.5301 29.2847 -11.3561
# 4 15.1828 19.8032 31.5301 17.8315 2.8779 5.4302
# 5 19.0478 21.7718 29.2847 2.8779 45.9823 -13.3702
# 6 -1.2675 4.2431 -11.3561 5.4302 -13.3702 22.2129
#
#
#
# Elastic Compliance Matrix: (Units=1/GPa)
#
#
# Indices 1 2 3 4 5 6 
#
# 1 0.014501 0.002824 -0.003094 -0.008297 -0.005625 -0.002651
# 2 0.002824 0.047824 -0.013539 -0.021223 -0.020578 -0.023094
# 3 -0.003094 -0.013539 0.028139 -0.040205 0.000035 0.026645
# 4 -0.008297 -0.021223 -0.040205 0.170983 0.013698 -0.050527
# 5 -0.005625 -0.020578 0.000035 0.013698 0.040028 0.024372
# 6 -0.002651 -0.023094 0.026645 -0.050527 0.024372 0.089923
#
#
# Mechanical properties :
#
#
# Convention : Reuss Voigt Hill
#
# Bulk Modulus (GPa) = 15.91203 55.59815 35.75509
# Shear Modulus (GPa) = 11.36455 27.14793 19.25624
#
# Velocity S-wave (km/s) = 2.45857 3.79993 3.20032
# Velocity P-wave (km/s) = 4.06482 6.98743 5.71607
#
# Compressibility (1/GPa) = 0.06284553
#
# Stress axis : x y z
#
# Youngs Moduli (GPa) = 68.96034 20.90996 35.53814
#
# Poissons Ratio (x) = -0.05905 0.10996
# Poissons Ratio (y) = -0.19474 0.48116
# Poissons Ratio (z) = 0.21336 0.28310
#
# Static dielectric constant tensor:
#      x y z
#    x 1.698200 -0.004120 0.024220 
#    y -0.004120 1.636600 -0.024650 
#    z 0.024220 -0.024650 1.706780 
# 
# From -- ./inp_files/18803.got.cif
#   From: 2010.05.17/outbox.cif.g08.bks.cpg/sg2_10_cif.got.tgz:18803.got - 2010.06.03 11:33:40.
