data_PCOD9080268
_publ_section_title
;
Structure prediction by ZEFSAII (Michael W. Deem and Ramdas Pophale) SiO2 
 PCOD9080268
Probable space group: P -1
;
_chemical_formula_sum "Si O2"
_cell_formula_units_Z 15
_cell_length_a 13.507554
_cell_length_b 8.948799
_cell_length_c 8.154853
_cell_angle_alpha 108.958772
_cell_angle_beta 116.515833
_cell_angle_gamma 39.302742
_cell_volume 558.332493
_symmetry_space_group_name_H-M "P -1"
_symmetry_group_IT_number 2
_symmetry_cell_setting 'triclinic'
loop_
_space_group_symop_operation_xyz
x,y,z
-x,-y,-z
loop_
_atom_site_type_symbol
_atom_site_label
_atom_site_fract_x
_atom_site_fract_y
_atom_site_fract_z
Si Si1 0.944782 0.978510 0.638079
Si Si2 0.000000 0.000000 0.000000
Si Si3 0.843712 0.468569 0.882287
Si Si4 0.889320 0.755775 0.286121
Si Si5 0.637178 0.993757 0.964056
Si Si6 0.681920 0.486088 0.493447
Si Si7 0.693920 0.767988 0.356569
Si Si8 0.327978 0.887144 0.314485
O O1 0.080821 0.909662 0.829663
O O2 0.837371 0.203092 0.517368
O O3 0.823854 0.069129 0.742702
O O4 0.952515 0.809184 0.489732
O O5 0.916921 0.265464 0.988603
O O6 0.766686 0.712418 0.970828
O O7 0.691707 0.548503 0.703644
O O8 0.976291 0.372814 0.804191
O O9 0.854413 0.633800 0.319250
O O10 0.705223 0.009555 0.180811
O O11 0.457068 0.114752 0.836901
O O12 0.679260 0.047888 0.852925
O O13 0.699415 0.613210 0.426175
O O14 0.499859 0.614537 0.373452
O O15 0.669117 0.954350 0.515801
#
# Coordination Sequence:
#
# PCOD9080268 Si02
#       8
#     2   1   2   2   2   2   2   2
#     4  10  23  41  63  91 131 166 207 264 315 368
#     4  10  24  44  64  88 128 168 212 248 324 384
#     4  11  22  42  64  93 123 173 207 258 310 380
#     4  11  25  39  62  96 134 158 211 267 309 364
#     4  11  20  41  67  92 125 168 215 254 311 371
#     4  10  19  38  66  92 121 169 208 252 316 377
#     4  10  20  40  65  96 125 162 212 264 306 370
#     4  10  18  38  68  94 120 159 224 253 300 380
#
# _framework density 26.865711000000001
#
# number of rings (size 3 to 8) (size 9 to 14) (size 15 to 20)
#    0.000    1.600    2.667    2.800    0.000    2.667 
#    4.800    2.667    0.000    0.000    0.000    0.000 
#    0.000    0.000    0.000    0.000    0.000    0.000 
#
# Total GULP energy -83654.834992 kJ/mol
# GULP energy per Si atom -5576.988999 kJ/mol
# Density = 2.680456 g / cm^3
# Si number density = 26.865711 Si / 1000 Ang^3
#
#
#
# Elastic Constant Matrix: (Units=GPa)
#
#
# Indices 1 2 3 4 5 6 
#
# 1 126.4789 31.3009 5.7869 -18.0864 -10.8871 10.1246
# 2 31.3009 93.0806 28.6061 -39.5331 -14.4998 11.7421
# 3 5.7869 28.6061 141.1054 -34.5049 -7.3544 5.1265
# 4 -18.0864 -39.5331 -34.5049 50.9466 4.5154 -1.6451
# 5 -10.8871 -14.4998 -7.3544 4.5154 37.2864 -9.8534
# 6 10.1246 11.7421 5.1265 -1.6451 -9.8534 25.8190
#
#
#
# Elastic Compliance Matrix: (Units=1/GPa)
#
#
# Indices 1 2 3 4 5 6 
#
# 1 0.008902 -0.001910 0.000635 0.001934 0.001172 -0.002178
# 2 -0.001910 0.018061 -0.000078 0.012803 0.003500 -0.005298
# 3 0.000635 -0.000078 0.008601 0.005879 0.000813 -0.001237
# 4 0.001934 0.012803 0.005879 0.033956 0.001240 -0.005111
# 5 0.001172 0.003500 0.000813 0.001240 0.031106 0.009737
# 6 -0.002178 -0.005298 -0.001237 -0.005111 0.009737 0.045631
#
#
# Mechanical properties :
#
#
# Convention : Reuss Voigt Hill
#
# Bulk Modulus (GPa) = 30.43243 54.67253 42.55248
# Shear Modulus (GPa) = 31.26675 42.47514 36.87094
#
# Velocity S-wave (km/s) = 3.41518 3.98051 3.70863
# Velocity P-wave (km/s) = 5.18685 6.44364 5.84910
#
# Compressibility (1/GPa) = 0.03285968
#
# Stress axis : x y z
#
# Youngs Moduli (GPa) = 112.33595 55.36931 116.25917
#
# Poissons Ratio (x) = 0.10575 -0.07386
# Poissons Ratio (y) = 0.21455 0.00901
# Poissons Ratio (z) = -0.07137 0.00429
#
# Static dielectric constant tensor:
#      x y z
#    x 2.193010 -0.021690 -0.085750 
#    y -0.021690 2.174860 0.213270 
#    z -0.085750 0.213270 1.646070 
# 
# From -- ./inp_files/298876.got.cif
#   From: 2010.05.17/outbox.cif.g08.bks.cpg/sg2_150_cif.got.tgz:298876.got - 2010.06.03 11:33:40.
