data_PCOD9080470
_publ_section_title
;
Structure prediction by ZEFSAII (Michael W. Deem and Ramdas Pophale) SiO2 
 PCOD9080470
Probable space group: P -1
;
_chemical_formula_sum "Si O2"
_cell_formula_units_Z 13
_cell_length_a 8.821244
_cell_length_b 10.032645
_cell_length_c 12.150622
_cell_angle_alpha 141.373354
_cell_angle_beta 54.951458
_cell_angle_gamma 119.602655
_cell_volume 547.378535
_symmetry_space_group_name_H-M "P -1"
_symmetry_group_IT_number 2
_symmetry_cell_setting 'triclinic'
loop_
_space_group_symop_operation_xyz
x,y,z
-x,-y,-z
loop_
_atom_site_type_symbol
_atom_site_label
_atom_site_fract_x
_atom_site_fract_y
_atom_site_fract_z
Si Si1 0.000000 0.000000 0.500000
Si Si2 0.019247 0.814023 0.606882
Si Si3 0.286155 0.546593 0.425477
Si Si4 0.034142 0.835751 0.978994
Si Si5 0.351694 0.347271 0.029023
Si Si6 0.396362 0.669880 0.781994
Si Si7 0.380998 0.935551 0.170689
O O1 0.067182 0.873571 0.501288
O O2 0.199935 0.973711 0.338506
O O3 0.198785 0.764265 0.572328
O O4 0.872243 0.606498 0.545372
O O5 0.934113 0.009852 0.830016
O O6 0.306621 0.438432 0.226805
O O7 0.486933 0.538227 0.394571
O O8 0.207666 0.691338 0.807187
O O9 0.842904 0.689205 0.975901
O O10 0.000000 0.000000 0.000000
O O11 0.500000 0.500000 0.000000
O O12 0.447923 0.128966 0.868117
O O13 0.543123 0.856020 0.794848
O O14 0.349803 0.736808 0.969553
#
# Coordination Sequence:
#
# PCOD9080470 Si02
#       7
#     1   2   2   2   2   2   2
#     4  12  20  36  64 106 140 176 222 282 346 400
#     4  11  22  38  69 103 137 184 222 287 336 416
#     4  10  21  41  67  98 138 178 232 271 355 399
#     4  12  21  41  73 100 131 182 245 272 338 416
#     4  11  23  41  68  97 133 181 228 289 339 408
#     4  10  18  39  67  96 126 186 227 275 323 428
#     4  10  19  35  64  94 132 177 228 261 348 399
#
# _framework density 23.749562999999998
#
# number of rings (size 3 to 8) (size 9 to 14) (size 15 to 20)
#    0.000    1.231    6.154    1.846    0.000    0.000 
#    0.000    6.923    6.769    0.000    0.000    0.000 
#    0.000    0.000    0.000    0.000    0.000    0.000 
#
# Total GULP energy -72456.919517 kJ/mol
# GULP energy per Si atom -5573.609194 kJ/mol
# Density = 2.369551 g / cm^3
# Si number density = 23.749563 Si / 1000 Ang^3
#
#
#
# Elastic Constant Matrix: (Units=GPa)
#
#
# Indices 1 2 3 4 5 6 
#
# 1 154.0853 39.3900 44.6866 1.9983 -42.9198 -16.6206
# 2 39.3900 109.8157 29.1931 -39.1758 3.1832 -13.1084
# 3 44.6866 29.1931 90.6860 -17.8390 -27.7901 5.1373
# 4 1.9983 -39.1758 -17.8390 44.2352 -8.3912 -14.7584
# 5 -42.9198 3.1832 -27.7901 -8.3912 57.0573 8.0274
# 6 -16.6206 -13.1084 5.1373 -14.7584 8.0274 39.0058
#
#
#
# Elastic Compliance Matrix: (Units=1/GPa)
#
#
# Indices 1 2 3 4 5 6 
#
# 1 0.010186 -0.004735 -0.002547 -0.004492 0.006004 0.000149
# 2 -0.004735 0.021218 -0.002466 0.022026 -0.004784 0.014756
# 3 -0.002547 -0.002466 0.016527 0.004738 0.007509 -0.003843
# 4 -0.004492 0.022026 0.004738 0.052754 0.002024 0.024408
# 5 0.006004 -0.004784 0.007509 0.002024 0.026942 -0.004817
# 6 0.000149 0.014756 -0.003843 0.024408 -0.004817 0.041392
#
#
# Mechanical properties :
#
#
# Convention : Reuss Voigt Hill
#
# Bulk Modulus (GPa) = 35.16955 64.56960 49.86958
# Shear Modulus (GPa) = 25.25334 44.14748 34.70041
#
# Velocity S-wave (km/s) = 3.26439 4.31615 3.82658
# Velocity P-wave (km/s) = 5.38971 7.21703 6.36924
#
# Compressibility (1/GPa) = 0.02843369
#
# Stress axis : x y z
#
# Youngs Moduli (GPa) = 98.17533 47.12979 60.50818
#
# Poissons Ratio (x) = 0.22318 0.15412
# Poissons Ratio (y) = 0.46490 0.14921
# Poissons Ratio (z) = 0.25006 0.11622
#
# Static dielectric constant tensor:
#      x y z
#    x 2.024000 -0.047820 -0.010270 
#    y -0.047820 1.849610 0.042110 
#    z -0.010270 0.042110 1.902030 
# 
# From -- ./inp_files/156195.got.cif
#   From: 2010.05.17/outbox.cif.g08.bks.cpg/sg2_79_cif.got.tgz:156195.got - 2010.06.03 11:33:40.
