data_PCOD9080922
_publ_section_title
;
Structure prediction by ZEFSAII (Michael W. Deem and Ramdas Pophale) SiO2 
 PCOD9080922
Probable space group: P -1
;
_chemical_formula_sum "Si O2"
_cell_formula_units_Z 16
_cell_length_a 26.158847
_cell_length_b 11.348342
_cell_length_c 23.251192
_cell_angle_alpha 149.635597
_cell_angle_beta 9.921061
_cell_angle_gamma 148.461533
_cell_volume 600.922628
_symmetry_space_group_name_H-M "P -1"
_symmetry_group_IT_number 2
_symmetry_cell_setting 'triclinic'
loop_
_space_group_symop_operation_xyz
x,y,z
-x,-y,-z
loop_
_atom_site_type_symbol
_atom_site_label
_atom_site_fract_x
_atom_site_fract_y
_atom_site_fract_z
Si Si1 0.891686 0.870262 0.932437
Si Si2 0.786096 0.532296 0.304652
Si Si3 0.906349 0.668179 0.543319
Si Si4 0.761328 0.184049 0.003778
Si Si5 0.287599 0.585781 0.182252
Si Si6 0.612267 0.385484 0.551550
Si Si7 0.067818 0.684575 0.247439
Si Si8 0.525465 0.920061 0.259791
O O1 0.008134 0.610001 0.675295
O O2 0.193177 0.979570 0.670819
O O3 0.602429 0.813289 0.267263
O O4 0.781553 0.005388 0.055148
O O5 0.468554 0.605345 0.662151
O O6 0.736719 0.345543 0.332752
O O7 0.000000 0.500000 0.000000
O O8 0.949610 0.737175 0.247184
O O9 0.909183 0.757410 0.512273
O O10 0.157686 0.743374 0.342315
O O11 0.568705 0.688484 0.948288
O O12 0.588371 0.005971 0.162095
O O13 0.861509 0.138310 0.808111
O O14 0.000000 0.500000 0.500000
O O15 0.429439 0.354870 0.902356
O O16 0.867203 0.478815 0.352078
O O17 0.380142 0.591492 0.884635
#
# Coordination Sequence:
#
# PCOD9080922 Si02
#       8
#     2   2   2   2   2   2   2   2
#     4   9  16  28  47  70  93 121 160 201 237 276
#     4  10  20  34  53  74  98 127 160 202 245 288
#     4   9  16  28  46  68  92 120 160 204 236 270
#     4  10  20  33  51  74  98 127 161 199 244 289
#     4  10  19  30  47  71  99 129 159 195 239 286
#     4   9  16  28  48  72  93 119 161 205 238 274
#     4   9  16  28  47  70  92 118 161 208 238 270
#     4  10  19  31  49  71  99 129 158 198 242 287
#
# _framework density 26.625724999999999
#
# number of rings (size 3 to 8) (size 9 to 14) (size 15 to 20)
#    0.000    2.500    0.000    5.250    0.000    0.000 
#    0.000    0.000    0.000    6.000    0.000    0.000 
#    0.000    6.000    0.000    0.000    0.000    0.000 
#
# Total GULP energy -89382.831362 kJ/mol
# GULP energy per Si atom -5586.426960 kJ/mol
# Density = 2.656512 g / cm^3
# Si number density = 26.625725 Si / 1000 Ang^3
#
#
#
# Elastic Constant Matrix: (Units=GPa)
#
#
# Indices 1 2 3 4 5 6 
#
# 1 156.3823 33.2564 58.5403 -10.3731 12.4231 -27.5332
# 2 33.2564 60.5172 28.7146 -16.4448 2.3484 -24.0894
# 3 58.5403 28.7146 168.0704 -22.4688 -8.9207 -8.1543
# 4 -10.3731 -16.4448 -22.4688 31.1990 -1.9384 8.2288
# 5 12.4231 2.3484 -8.9207 -1.9384 51.8267 -8.1852
# 6 -27.5332 -24.0894 -8.1543 8.2288 -8.1852 51.0954
#
#
#
# Elastic Compliance Matrix: (Units=1/GPa)
#
#
# Indices 1 2 3 4 5 6 
#
# 1 0.008509 -0.002556 -0.002670 -0.001315 -0.001983 0.002848
# 2 -0.002556 0.024472 -0.001671 0.008621 0.000905 0.008650
# 3 -0.002670 -0.001671 0.007783 0.004320 0.002002 -0.001359
# 4 -0.001315 0.008621 0.004320 0.039936 0.001831 -0.002093
# 5 -0.001983 0.000905 0.002002 0.001831 0.020565 0.002677
# 6 0.002848 0.008650 -0.001359 -0.002093 0.002677 0.025734
#
#
# Mechanical properties :
#
#
# Convention : Reuss Voigt Hill
#
# Bulk Modulus (GPa) = 37.07596 69.55472 53.31534
# Shear Modulus (GPa) = 33.38145 44.45479 38.91812
#
# Velocity S-wave (km/s) = 3.54465 4.09053 3.82733
# Velocity P-wave (km/s) = 5.54146 6.96346 6.29275
#
# Compressibility (1/GPa) = 0.02697165
#
# Stress axis : x y z
#
# Youngs Moduli (GPa) = 117.51641 40.86235 128.48240
#
# Poissons Ratio (x) = 0.10444 0.34306
# Poissons Ratio (y) = 0.30037 0.21464
# Poissons Ratio (z) = 0.31378 0.06826
#
# Static dielectric constant tensor:
#      x y z
#    x 2.093410 0.058360 0.047180 
#    y 0.058360 2.219280 -0.002630 
#    z 0.047180 -0.002630 2.054350 
# 
# From -- ./inp_files/358001.got.cif
#   From: 2010.05.17/outbox.cif.g08.bks.cpg/sg2_180_cif.got.tgz:358001.got - 2010.06.03 11:33:40.
