data_PCOD9080693
_publ_section_title
;
Structure prediction by ZEFSAII (Michael W. Deem and Ramdas Pophale) SiO2 
 PCOD9080693
Probable space group: P -1
;
_chemical_formula_sum "Si O2"
_cell_formula_units_Z 16
_cell_length_a 16.697082
_cell_length_b 8.101231
_cell_length_c 7.612817
_cell_angle_alpha 51.970105
_cell_angle_beta 100.762291
_cell_angle_gamma 69.961066
_cell_volume 642.533243
_symmetry_space_group_name_H-M "P -1"
_symmetry_group_IT_number 2
_symmetry_cell_setting 'triclinic'
loop_
_space_group_symop_operation_xyz
x,y,z
-x,-y,-z
loop_
_atom_site_type_symbol
_atom_site_label
_atom_site_fract_x
_atom_site_fract_y
_atom_site_fract_z
Si Si1 0.154914 0.413673 0.033808
Si Si2 0.694222 0.812897 0.092488
Si Si3 0.398134 0.460149 0.660438
Si Si4 0.172682 0.903111 0.356216
Si Si5 0.032460 0.316240 0.421610
Si Si6 0.107214 0.609078 0.360998
Si Si7 0.212819 0.743734 0.866860
Si Si8 0.408809 0.604722 0.199882
O O1 0.241658 0.274863 0.004048
O O2 0.195058 0.546445 0.080030
O O3 0.040606 0.656934 0.778124
O O4 0.146118 0.179427 0.215540
O O5 0.613374 0.746851 0.115503
O O6 0.776931 0.628630 0.396125
O O7 0.642456 0.108772 0.926830
O O8 0.286680 0.727970 0.447939
O O9 0.423264 0.421007 0.487945
O O10 0.482770 0.481318 0.765369
O O11 0.106482 0.863091 0.220355
O O12 0.181448 0.770942 0.632236
O O13 0.062105 0.513192 0.265788
O O14 0.955524 0.389153 0.501326
O O15 0.133486 0.039954 0.699540
O O16 0.327299 0.640002 0.007608
#
# Coordination Sequence:
#
# PCOD9080693 Si02
#       8
#     2   2   2   2   2   2   2   2
#     4  11  23  40  63  89 132 172 195 253 315 364
#     4  10  18  41  64  88 120 163 202 256 308 356
#     4  10  22  41  67  92 118 158 215 254 306 375
#     4  11  23  42  63  90 129 165 205 251 318 368
#     4  10  20  39  64  91 124 163 214 251 301 363
#     4   9  19  37  65  89 120 163 209 252 298 367
#     4  12  24  41  61  93 131 162 201 260 310 365
#     4  11  23  39  68  93 118 160 212 261 303 363
#
# _framework density 24.901433000000001
#
# number of rings (size 3 to 8) (size 9 to 14) (size 15 to 20)
#    0.000    1.500    6.250    0.750    0.000    2.500 
#    0.000    0.625    0.000    0.750    0.000    0.000 
#    0.000    0.000    0.000    0.000    0.000    0.000 
#
# Total GULP energy -89267.088819 kJ/mol
# GULP energy per Si atom -5579.193051 kJ/mol
# Density = 2.484476 g / cm^3
# Si number density = 24.901433 Si / 1000 Ang^3
#
#
#
# Elastic Constant Matrix: (Units=GPa)
#
#
# Indices 1 2 3 4 5 6 
#
# 1 205.5641 41.3857 36.1449 -3.5221 6.8764 32.0807
# 2 41.3857 71.7650 21.2675 -22.2363 -1.2036 35.7920
# 3 36.1449 21.2675 56.8209 -4.2335 -6.9543 18.5508
# 4 -3.5221 -22.2363 -4.2335 27.9008 12.1433 -7.5891
# 5 6.8764 -1.2036 -6.9543 12.1433 47.2452 2.1572
# 6 32.0807 35.7920 18.5508 -7.5891 2.1572 43.4997
#
#
#
# Elastic Compliance Matrix: (Units=1/GPa)
#
#
# Indices 1 2 3 4 5 6 
#
# 1 0.006071 -0.002460 -0.002656 -0.001658 -0.000839 -0.001569
# 2 -0.002460 0.032869 -0.003095 0.021705 -0.003929 -0.019929
# 3 -0.002656 -0.003095 0.022741 -0.003017 0.004702 -0.005953
# 4 -0.001658 0.021705 -0.003017 0.057387 -0.014188 -0.004634
# 5 -0.000839 -0.003929 0.004702 -0.014188 0.025614 -0.001899
# 6 -0.001569 -0.019929 -0.005953 -0.004634 -0.001899 0.042368
#
#
# Mechanical properties :
#
#
# Convention : Reuss Voigt Hill
#
# Bulk Modulus (GPa) = 22.09422 59.08291 40.58856
# Shear Modulus (GPa) = 22.87726 39.41928 31.14827
#
# Velocity S-wave (km/s) = 3.03432 3.98303 3.54059
# Velocity P-wave (km/s) = 4.60087 6.70305 5.74887
#
# Compressibility (1/GPa) = 0.04526071
#
# Stress axis : x y z
#
# Youngs Moduli (GPa) = 164.70935 30.42383 43.97363
#
# Poissons Ratio (x) = 0.07483 0.11677
# Poissons Ratio (y) = 0.40513 0.13610
# Poissons Ratio (z) = 0.43739 0.09416
#
# Static dielectric constant tensor:
#      x y z
#    x 1.988750 -0.020480 -0.090270 
#    y -0.020480 2.146740 0.050760 
#    z -0.090270 0.050760 2.008790 
# 
# From -- ./inp_files/297497.got.cif
#   From: 2010.05.17/outbox.cif.g08.bks.cpg/sg2_149_cif.got.tgz:297497.got - 2010.06.03 11:33:40.
