data_PCOD9080290
_publ_section_title
;
Structure prediction by ZEFSAII (Michael W. Deem and Ramdas Pophale) SiO2 
 PCOD9080290
Probable space group: P -1
;
_chemical_formula_sum "Si O2"
_cell_formula_units_Z 16
_cell_length_a 15.138174
_cell_length_b 14.261633
_cell_length_c 12.637440
_cell_angle_alpha 150.225482
_cell_angle_beta 42.532966
_cell_angle_gamma 148.781479
_cell_volume 702.079352
_symmetry_space_group_name_H-M "P -1"
_symmetry_group_IT_number 2
_symmetry_cell_setting 'triclinic'
loop_
_space_group_symop_operation_xyz
x,y,z
-x,-y,-z
loop_
_atom_site_type_symbol
_atom_site_label
_atom_site_fract_x
_atom_site_fract_y
_atom_site_fract_z
Si Si1 0.642648 0.010425 0.444769
Si Si2 0.844880 0.160044 0.832846
Si Si3 0.387554 0.588950 0.412872
Si Si4 0.780902 0.480552 0.108133
Si Si5 0.202958 0.195661 0.006262
Si Si6 0.577557 0.700187 0.741009
Si Si7 0.158877 0.452713 0.123980
Si Si8 0.212630 0.805625 0.850670
O O1 0.556249 0.814871 0.425052
O O2 0.722579 0.936923 0.220717
O O3 0.500000 0.000000 0.500000
O O4 0.779047 0.283576 0.637565
O O5 0.778509 0.249740 0.895380
O O6 0.716251 0.874157 0.697649
O O7 0.846639 0.282018 0.061204
O O8 0.041271 0.287425 0.768818
O O9 0.419565 0.500590 0.404537
O O10 0.278396 0.675352 0.615554
O O11 0.284272 0.360004 0.199581
O O12 0.789919 0.540608 0.035335
O O13 0.608501 0.405748 0.233057
O O14 0.241151 0.377044 0.054801
O O15 0.000000 0.000000 0.000000
O O16 0.637113 0.903673 0.980057
O O17 0.953043 0.261077 0.123677
#
# Coordination Sequence:
#
# PCOD9080290 Si02
#       8
#     2   2   2   2   2   2   2   2
#     4  12  27  41  61  93 128 170 218 266 320 381
#     4   8  20  38  66  96 125 163 212 261 319 382
#     4  12  24  40  64  91 129 164 214 263 322 380
#     4  10  18  38  69  91 125 171 207 260 324 378
#     4  12  27  41  65  91 126 171 217 266 321 381
#     4  10  21  38  65  91 127 165 207 261 317 380
#     4  11  23  42  65  89 131 170 219 260 323 380
#     4   9  22  40  64  94 125 167 211 263 318 380
#
# _framework density 22.789446999999999
#
# number of rings (size 3 to 8) (size 9 to 14) (size 15 to 20)
#    0.750    0.750    1.250    3.750    5.250    1.000 
#    2.250    0.625    2.750    2.250    0.000    0.000 
#    0.000    0.000    0.000    0.000    0.000    0.000 
#
# Total GULP energy -89478.039777 kJ/mol
# GULP energy per Si atom -5592.377486 kJ/mol
# Density = 2.273758 g / cm^3
# Si number density = 22.789447 Si / 1000 Ang^3
#
#
#
# Elastic Constant Matrix: (Units=GPa)
#
#
# Indices 1 2 3 4 5 6 
#
# 1 97.9166 34.7739 18.1708 8.1328 -17.1901 -1.6153
# 2 34.7739 114.6228 29.4054 8.2295 -13.2337 7.6377
# 3 18.1708 29.4054 88.1444 7.5989 -7.2069 14.8742
# 4 8.1328 8.2295 7.5989 27.9825 2.4406 -8.3286
# 5 -17.1901 -13.2337 -7.2069 2.4406 31.8391 5.5061
# 6 -1.6153 7.6377 14.8742 -8.3286 5.5061 38.8622
#
#
#
# Elastic Compliance Matrix: (Units=1/GPa)
#
#
# Indices 1 2 3 4 5 6 
#
# 1 0.012609 -0.002691 -0.000952 -0.003134 0.005725 -0.000065
# 2 -0.002691 0.010828 -0.002129 -0.002846 0.003215 -0.002490
# 3 -0.000952 -0.002129 0.014081 -0.005172 0.003324 -0.006590
# 4 -0.003134 -0.002846 -0.005172 0.043640 -0.009661 0.013130
# 5 0.005725 0.003215 0.003324 -0.009661 0.038928 -0.009252
# 6 -0.000065 -0.002490 -0.006590 0.013130 -0.009252 0.032866
#
#
# Mechanical properties :
#
#
# Convention : Reuss Voigt Hill
#
# Bulk Modulus (GPa) = 38.49951 51.70933 45.10442
# Shear Modulus (GPa) = 28.87569 34.29233 31.58401
#
# Velocity S-wave (km/s) = 3.56345 3.88331 3.72681
# Velocity P-wave (km/s) = 5.81903 6.54570 6.19303
#
# Compressibility (1/GPa) = 0.02597436
#
# Stress axis : x y z
#
# Youngs Moduli (GPa) = 79.30561 92.35117 71.01520
#
# Poissons Ratio (x) = 0.24849 0.06764
# Poissons Ratio (y) = 0.21339 0.15121
# Poissons Ratio (z) = 0.07554 0.19664
#
# Static dielectric constant tensor:
#      x y z
#    x 1.856250 -0.022260 0.015420 
#    y -0.022260 1.870700 0.015520 
#    z 0.015420 0.015520 1.811880 
# 
# From -- ./inp_files/534562.got.cif
#   From: 2010.05.17/outbox.cif.g08.bks.cpg/sg2_268_cif.got.tgz:534562.got - 2010.06.03 11:33:40.
