data_PCOD9080519
_publ_section_title
;
Structure prediction by ZEFSAII (Michael W. Deem and Ramdas Pophale) SiO2 
 PCOD9080519
Probable space group: P -1
;
_chemical_formula_sum "Si O2"
_cell_formula_units_Z 14
_cell_length_a 7.033918
_cell_length_b 11.694584
_cell_length_c 9.632802
_cell_angle_alpha 91.909194
_cell_angle_beta 111.956070
_cell_angle_gamma 51.910048
_cell_volume 556.869399
_symmetry_space_group_name_H-M "P -1"
_symmetry_group_IT_number 2
_symmetry_cell_setting 'triclinic'
loop_
_space_group_symop_operation_xyz
x,y,z
-x,-y,-z
loop_
_atom_site_type_symbol
_atom_site_label
_atom_site_fract_x
_atom_site_fract_y
_atom_site_fract_z
Si Si1 0.130678 0.499782 0.217107
Si Si2 0.541479 0.687033 0.949879
Si Si3 0.302513 0.752348 0.164119
Si Si4 0.219425 0.523705 0.542667
Si Si5 0.724383 0.978729 0.153803
Si Si6 0.463250 0.935840 0.304573
Si Si7 0.842380 0.757775 0.649088
O O1 0.335697 0.435874 0.143072
O O2 0.139632 0.362012 0.257745
O O3 0.218917 0.537975 0.378236
O O4 0.821964 0.634441 0.093068
O O5 0.360171 0.857583 0.850832
O O6 0.374323 0.686112 0.025977
O O7 0.375303 0.860906 0.186792
O O8 0.509960 0.620159 0.321649
O O9 0.005651 0.854271 0.149242
O O10 0.095983 0.667342 0.610940
O O11 0.000000 0.500000 0.500000
O O12 0.691163 0.928363 0.290508
O O13 0.500000 0.000000 0.000000
O O14 0.582920 0.846537 0.478739
O O15 0.212624 0.110265 0.271531
#
# Coordination Sequence:
#
# PCOD9080519 Si02
#       7
#     2   2   2   2   2   2   2
#     4  10  19  36  70 102 133 181 223 274 341 400
#     4  11  21  38  66 101 137 179 219 273 345 404
#     4  12  23  43  73  97 135 187 225 272 349 399
#     4  10  18  39  71  97 132 178 227 277 327 406
#     4  12  27  41  66 101 137 176 231 279 340 410
#     4  11  22  40  67 100 137 178 221 286 332 399
#     4  10  19  38  67  99 138 174 224 281 335 389
#
# _framework density 25.140544999999999
#
# number of rings (size 3 to 8) (size 9 to 14) (size 15 to 20)
#    0.000    1.143    8.571    0.429    0.000    0.000 
#    0.000    7.143    6.286    5.143    0.000    0.000 
#    0.000    0.000    0.000    0.000    0.000    0.000 
#
# Total GULP energy -78449.036714 kJ/mol
# GULP energy per Si atom -5603.502622 kJ/mol
# Density = 2.508332 g / cm^3
# Si number density = 25.140545 Si / 1000 Ang^3
#
#
#
# Elastic Constant Matrix: (Units=GPa)
#
#
# Indices 1 2 3 4 5 6 
#
# 1 113.6859 62.3192 52.8305 -5.1275 -15.4966 -38.4879
# 2 62.3192 159.5288 44.9282 14.9528 -19.1732 -48.4194
# 3 52.8305 44.9282 111.0325 10.6751 -24.9816 -24.8813
# 4 -5.1275 14.9528 10.6751 50.4741 -13.9378 -12.8639
# 5 -15.4966 -19.1732 -24.9816 -13.9378 29.9584 -4.4519
# 6 -38.4879 -48.4194 -24.8813 -12.8639 -4.4519 51.9563
#
#
#
# Elastic Compliance Matrix: (Units=1/GPa)
#
#
# Indices 1 2 3 4 5 6 
#
# 1 0.017806 -0.001226 -0.002871 0.009930 0.012765 0.014225
# 2 -0.001226 0.010725 0.000452 0.001763 0.008988 0.010509
# 3 -0.002871 0.000452 0.014340 0.001702 0.012543 0.006657
# 4 0.009930 0.001763 0.001702 0.032086 0.025576 0.019949
# 5 0.012765 0.008988 0.012543 0.025576 0.073513 0.036471
# 6 0.014225 0.010509 0.006657 0.019949 0.036471 0.050831
#
#
# Mechanical properties :
#
#
# Convention : Reuss Voigt Hill
#
# Bulk Modulus (GPa) = 28.10593 78.26700 53.18646
# Shear Modulus (GPa) = 22.88823 41.42239 32.15531
#
# Velocity S-wave (km/s) = 3.02058 4.06351 3.58022
# Velocity P-wave (km/s) = 4.83414 7.29490 6.18807
#
# Compressibility (1/GPa) = 0.03557968
#
# Stress axis : x y z
#
# Youngs Moduli (GPa) = 56.15960 93.23860 69.73484
#
# Poissons Ratio (x) = 0.11435 0.20022
# Poissons Ratio (y) = 0.06887 -0.03149
# Poissons Ratio (z) = 0.16124 -0.04210
#
# Static dielectric constant tensor:
#      x y z
#    x 1.982260 0.006700 -0.041450 
#    y 0.006700 1.983390 0.039940 
#    z -0.041450 0.039940 2.027790 
# 
# From -- ./inp_files/362772.got.cif
#   From: 2010.05.17/outbox.cif.g08.bks.cpg/sg2_182_cif.got.tgz:362772.got - 2010.06.03 11:33:40.
