data_PCOD9080608
_publ_section_title
;
Structure prediction by ZEFSAII (Michael W. Deem and Ramdas Pophale) SiO2 
 PCOD9080608
Probable space group: P -1
;
_chemical_formula_sum "Si O2"
_cell_formula_units_Z 12
_cell_length_a 8.659489
_cell_length_b 8.930518
_cell_length_c 14.985076
_cell_angle_alpha 96.010470
_cell_angle_beta 145.587022
_cell_angle_gamma 76.841318
_cell_volume 630.421016
_symmetry_space_group_name_H-M "P -1"
_symmetry_group_IT_number 2
_symmetry_cell_setting 'triclinic'
loop_
_space_group_symop_operation_xyz
x,y,z
-x,-y,-z
loop_
_atom_site_type_symbol
_atom_site_label
_atom_site_fract_x
_atom_site_fract_y
_atom_site_fract_z
Si Si1 0.576287 0.090335 0.128345
Si Si2 0.635662 0.642583 0.072797
Si Si3 0.265873 0.664600 0.395971
Si Si4 0.160966 0.962621 0.479221
Si Si5 0.728257 0.117467 0.949866
Si Si6 0.292841 0.901383 0.261016
O O1 0.417999 0.027928 0.128962
O O2 0.450666 0.267567 0.055967
O O3 0.908232 0.042081 0.296622
O O4 0.500000 0.000000 0.000000
O O5 0.479080 0.750920 0.084902
O O6 0.966178 0.621319 0.242649
O O7 0.500000 0.500000 0.000000
O O8 0.500000 0.500000 0.500000
O O9 0.254877 0.780603 0.483346
O O10 0.291060 0.777448 0.330745
O O11 0.421204 0.040558 0.596821
O O12 0.000000 0.000000 0.500000
O O13 0.743512 0.168222 0.858751
O O14 0.023282 0.051994 0.137869
#
# Coordination Sequence:
#
# PCOD9080608 Si02
#       6
#     2   2   2   2   2   2
#     4  10  18  40  66  86 121 169 217 260 301 380
#     4  11  23  41  62  89 129 177 207 249 331 386
#     4  12  26  42  60  97 138 162 206 274 324 376
#     4  12  23  43  70  96 122 170 223 260 315 386
#     4  10  20  43  67  92 122 166 223 267 307 377
#     4  11  23  40  69  95 125 164 219 272 313 375
#
# _framework density 19.0349
#
# number of rings (size 3 to 8) (size 9 to 14) (size 15 to 20)
#    0.000    1.000    6.667    1.500    4.667    0.000 
#    3.000    2.500    0.000    0.000    0.000    0.000 
#    0.000    0.000    0.000    0.000    0.000    0.000 
#
# Total GULP energy -66887.389358 kJ/mol
# GULP energy per Si atom -5573.949113 kJ/mol
# Density = 1.899158 g / cm^3
# Si number density = 19.034900 Si / 1000 Ang^3
#
#
#
# Elastic Constant Matrix: (Units=GPa)
#
#
# Indices 1 2 3 4 5 6 
#
# 1 122.9876 64.2621 60.8375 -2.6895 8.7532 0.1523
# 2 64.2621 128.3976 61.2660 -4.3484 13.8472 9.1297
# 3 60.8375 61.2660 162.0159 -3.6766 38.5626 0.2266
# 4 -2.6895 -4.3484 -3.6766 28.4145 3.7088 13.3348
# 5 8.7532 13.8472 38.5626 3.7088 49.3469 2.0153
# 6 0.1523 9.1297 0.2266 13.3348 2.0153 29.9419
#
#
#
# Elastic Compliance Matrix: (Units=1/GPa)
#
#
# Indices 1 2 3 4 5 6 
#
# 1 0.012091 -0.004917 -0.003105 -0.001088 0.001669 0.001834
# 2 -0.004917 0.011968 -0.002440 0.003547 -0.000636 -0.005142
# 3 -0.003105 -0.002440 0.009853 0.001184 -0.006577 0.000601
# 4 -0.001088 0.003547 0.001184 0.046429 -0.004340 -0.021470
# 5 0.001669 -0.000636 -0.006577 -0.004340 0.025595 0.000445
# 6 0.001834 -0.005142 0.000601 -0.021470 0.000445 0.044484
#
#
# Mechanical properties :
#
#
# Convention : Reuss Voigt Hill
#
# Bulk Modulus (GPa) = 77.00302 87.34804 82.17553
# Shear Modulus (GPa) = 28.46177 36.67635 32.56906
#
# Velocity S-wave (km/s) = 3.87103 4.39429 4.14093
# Velocity P-wave (km/s) = 7.77954 8.46961 8.13190
#
# Compressibility (1/GPa) = 0.01298650
#
# Stress axis : x y z
#
# Youngs Moduli (GPa) = 82.70316 83.55598 101.49504
#
# Poissons Ratio (x) = 0.41085 0.31518
# Poissons Ratio (y) = 0.40666 0.24768
# Poissons Ratio (z) = 0.25683 0.20390
#
# Static dielectric constant tensor:
#      x y z
#    x 1.737460 -0.028520 -0.020980 
#    y -0.028520 1.604170 0.004090 
#    z -0.020980 0.004090 1.694750 
# 
# From -- ./inp_files/148023.got.cif
#   From: 2010.05.17/outbox.cif.g08.bks.cpg/sg2_75_cif.got.tgz:148023.got - 2010.06.03 11:33:40.
