data_PCOD9080530
_publ_section_title
;
Structure prediction by ZEFSAII (Michael W. Deem and Ramdas Pophale) SiO2 
 PCOD9080530
Probable space group: P -1
;
_chemical_formula_sum "Si O2"
_cell_formula_units_Z 14
_cell_length_a 8.875852
_cell_length_b 17.602083
_cell_length_c 13.693758
_cell_angle_alpha 20.969435
_cell_angle_beta 94.658184
_cell_angle_gamma 107.796816
_cell_volume 583.610480
_symmetry_space_group_name_H-M "P -1"
_symmetry_group_IT_number 2
_symmetry_cell_setting 'triclinic'
loop_
_space_group_symop_operation_xyz
x,y,z
-x,-y,-z
loop_
_atom_site_type_symbol
_atom_site_label
_atom_site_fract_x
_atom_site_fract_y
_atom_site_fract_z
Si Si1 0.281080 0.487480 0.229923
Si Si2 0.335224 0.165066 0.299848
Si Si3 0.599733 0.848495 0.311949
Si Si4 0.086472 0.803685 0.560860
Si Si5 0.313925 0.621429 0.289569
Si Si6 0.610194 0.301982 0.313054
Si Si7 0.306188 0.302262 0.824433
O O1 0.254740 0.212927 0.580985
O O2 0.252440 0.573376 0.229990
O O3 0.502074 0.696480 0.945784
O O4 0.134024 0.430602 0.206760
O O5 0.131554 0.915983 0.538497
O O6 0.431683 0.112417 0.453427
O O7 0.322280 0.393815 0.062366
O O8 0.479786 0.790804 0.473061
O O9 0.444808 0.604587 0.521457
O O10 0.698819 0.163229 0.916775
O O11 0.218521 0.713639 0.665179
O O12 0.167301 0.061341 0.183636
O O13 0.209689 0.340848 0.683014
O O14 0.540920 0.740091 0.153667
#
# Coordination Sequence:
#
# PCOD9080530 Si02
#       7
#     2   2   2   2   2   2   2
#     4  10  23  37  58  87 119 146 191 236 282 336
#     4  10  21  42  55  86 117 149 194 233 276 347
#     4  10  18  40  59  83 114 156 186 237 281 334
#     4  12  21  38  60  86 118 150 186 240 283 337
#     4  10  19  37  58  85 113 153 190 235 277 340
#     4  10  20  36  65  79 114 157 188 228 292 333
#     4  10  20  34  61  85 113 148 196 230 284 336
#
# _framework density 23.988600999999999
#
# number of rings (size 3 to 8) (size 9 to 14) (size 15 to 20)
#    0.000    1.714    5.714    0.857    0.000    2.286 
#    0.000    7.143    0.000    0.000    0.000    0.000 
#    0.000    0.000    0.000    0.000    0.000    0.000 
#
# Total GULP energy -78283.160612 kJ/mol
# GULP energy per Si atom -5591.654329 kJ/mol
# Density = 2.393400 g / cm^3
# Si number density = 23.988601 Si / 1000 Ang^3
#
#
#
# Elastic Constant Matrix: (Units=GPa)
#
#
# Indices 1 2 3 4 5 6 
#
# 1 67.8328 31.6059 39.5790 -18.7469 13.8245 21.3324
# 2 31.6059 127.0355 31.2947 -3.3847 -2.4913 16.8024
# 3 39.5790 31.2947 89.3723 -3.5058 24.5329 5.2946
# 4 -18.7469 -3.3847 -3.5058 36.8321 -2.8709 2.8356
# 5 13.8245 -2.4913 24.5329 -2.8709 40.4580 -4.7692
# 6 21.3324 16.8024 5.2946 2.8356 -4.7692 33.2015
#
#
#
# Elastic Compliance Matrix: (Units=1/GPa)
#
#
# Indices 1 2 3 4 5 6 
#
# 1 0.036101 -0.002970 -0.010899 0.018234 -0.007275 -0.022556
# 2 -0.002970 0.009610 -0.002776 -0.000501 0.003014 -0.002036
# 3 -0.010899 -0.002776 0.018565 -0.004989 -0.007493 0.004797
# 4 0.018234 -0.000501 -0.004989 0.036820 -0.002290 -0.014140
# 5 -0.007275 0.003014 -0.007493 -0.002290 0.032861 0.009259
# 6 -0.022556 -0.002036 0.004797 -0.014140 0.009259 0.047415
#
#
# Mechanical properties :
#
#
# Convention : Reuss Voigt Hill
#
# Bulk Modulus (GPa) = 32.27382 54.35554 43.31468
# Shear Modulus (GPa) = 22.22317 34.21570 28.21944
#
# Velocity S-wave (km/s) = 3.04699 3.78078 3.43354
# Velocity P-wave (km/s) = 5.08546 6.46275 5.81503
#
# Compressibility (1/GPa) = 0.03098487
#
# Stress axis : x y z
#
# Youngs Moduli (GPa) = 27.70011 104.06075 53.86552
#
# Poissons Ratio (x) = 0.30909 0.58708
# Poissons Ratio (y) = 0.08228 0.14953
# Poissons Ratio (z) = 0.30190 0.28888
#
# Static dielectric constant tensor:
#      x y z
#    x 1.873590 0.013800 0.018770 
#    y 0.013800 1.932960 0.009220 
#    z 0.018770 0.009220 1.997600 
# 
# From -- ./inp_files/315454.got.cif
#   From: 2010.05.17/outbox.cif.g08.bks.cpg/sg2_158_cif.got.tgz:315454.got - 2010.06.03 11:33:40.
