data_PCOD9080086
_publ_section_title
;
Structure prediction by ZEFSAII (Michael W. Deem and Ramdas Pophale) SiO2 
 PCOD9080086
Probable space group: P -1
;
_chemical_formula_sum "Si O2"
_cell_formula_units_Z 16
_cell_length_a 20.090623
_cell_length_b 26.038666
_cell_length_c 9.425147
_cell_angle_alpha 29.332031
_cell_angle_beta 137.735266
_cell_angle_gamma 158.655215
_cell_volume 804.381247
_symmetry_space_group_name_H-M "P -1"
_symmetry_group_IT_number 2
_symmetry_cell_setting 'triclinic'
loop_
_space_group_symop_operation_xyz
x,y,z
-x,-y,-z
loop_
_atom_site_type_symbol
_atom_site_label
_atom_site_fract_x
_atom_site_fract_y
_atom_site_fract_z
Si Si1 0.201343 0.748973 0.032894
Si Si2 0.534059 0.556355 0.752593
Si Si3 0.221382 0.615293 0.652861
Si Si4 0.498410 0.030255 0.261137
Si Si5 0.569296 0.825367 0.585765
Si Si6 0.167078 0.114428 0.095243
Si Si7 0.048066 0.141978 0.337036
Si Si8 0.671482 0.899720 0.245297
O O1 0.193491 0.647530 0.379148
O O2 0.979211 0.590772 0.079979
O O3 0.292814 0.791955 0.925255
O O4 0.344133 0.976097 0.758361
O O5 0.715174 0.645444 0.783122
O O6 0.603907 0.741669 0.418922
O O7 0.500000 0.500000 0.000000
O O8 0.339199 0.354753 0.836530
O O9 0.354636 0.637928 0.771077
O O10 0.347404 0.812792 0.468463
O O11 0.500000 0.000000 0.500000
O O12 0.411140 0.066447 0.019840
O O13 0.710743 0.878045 0.771053
O O14 0.578774 0.799101 0.499779
O O15 0.049108 0.974114 0.387745
O O16 0.000000 0.000000 0.000000
O O17 0.000000 0.000000 0.500000
O O18 0.913449 0.113829 0.131752
#
# Coordination Sequence:
#
# PCOD9080086 Si02
#       8
#     2   2   2   2   2   2   2   2
#     4  10  20  38  63  92 115 154 212 251 305 366
#     4  11  20  40  65  91 121 163 212 259 304 381
#     4  10  20  38  65  88 120 154 204 261 300 371
#     4  11  22  41  58  87 133 163 197 260 309 367
#     4  10  18  38  63  85 123 158 203 255 307 367
#     4  11  24  41  61  93 128 159 202 265 321 363
#     4   9  19  38  62  87 119 156 211 254 293 377
#     4  10  19  38  63  92 119 162 214 252 304 375
#
# _framework density 19.891064
#
# number of rings (size 3 to 8) (size 9 to 14) (size 15 to 20)
#    0.000    1.750    6.250    0.750    0.000    3.000 
#   13.500    0.000    0.000    0.000    0.000    0.000 
#    0.000    0.000    0.000    0.000    0.000    0.000 
#
# Total GULP energy -89197.932711 kJ/mol
# GULP energy per Si atom -5574.870794 kJ/mol
# Density = 1.984579 g / cm^3
# Si number density = 19.891064 Si / 1000 Ang^3
#
#
#
# Elastic Constant Matrix: (Units=GPa)
#
#
# Indices 1 2 3 4 5 6 
#
# 1 121.5152 62.2551 48.9972 4.3447 -2.7457 37.4932
# 2 62.2551 136.4729 42.5770 6.2194 -9.0171 29.1929
# 3 48.9972 42.5770 49.4124 10.4089 -5.6784 7.0340
# 4 4.3447 6.2194 10.4089 37.0244 4.5965 -0.9630
# 5 -2.7457 -9.0171 -5.6784 4.5965 36.1269 -6.4032
# 6 37.4932 29.1929 7.0340 -0.9630 -6.4032 40.0397
#
#
#
# Elastic Compliance Matrix: (Units=1/GPa)
#
#
# Indices 1 2 3 4 5 6 
#
# 1 0.021410 -0.000483 -0.019665 0.003278 -0.005008 -0.016963
# 2 -0.000483 0.011636 -0.008662 0.000330 0.000321 -0.006451
# 3 -0.019665 -0.008662 0.047833 -0.010257 0.008251 0.017399
# 4 0.003278 0.000330 -0.010257 0.030080 -0.005400 -0.001648
# 5 -0.005008 0.000321 0.008251 -0.005400 0.030745 0.007793
# 6 -0.016963 -0.006451 0.017399 -0.001648 0.007793 0.043713
#
#
# Mechanical properties :
#
#
# Convention : Reuss Voigt Hill
#
# Bulk Modulus (GPa) = 42.99304 68.33987 55.66645
# Shear Modulus (GPa) = 19.93710 32.87626 26.40668
#
# Velocity S-wave (km/s) = 3.16937 4.06989 3.64753
# Velocity P-wave (km/s) = 5.92067 7.51778 6.76651
#
# Compressibility (1/GPa) = 0.02325958
#
# Stress axis : x y z
#
# Youngs Moduli (GPa) = 46.70780 85.93884 20.90621
#
# Poissons Ratio (x) = 0.04152 0.41111
# Poissons Ratio (y) = 0.02257 0.18108
# Poissons Ratio (z) = 0.91849 0.74437
#
# Static dielectric constant tensor:
#      x y z
#    x 1.718200 0.039000 0.029150 
#    y 0.039000 1.777100 -0.030500 
#    z 0.029150 -0.030500 1.711190 
# 
# From -- ./inp_files/350231.got.cif
#   From: 2010.05.17/outbox.cif.g08.bks.cpg/sg2_176_cif.got.tgz:350231.got - 2010.06.03 11:33:40.
