data_PCOD9080524
_publ_section_title
;
Structure prediction by ZEFSAII (Michael W. Deem and Ramdas Pophale) SiO2 
 PCOD9080524
Probable space group: P -1
;
_chemical_formula_sum "Si O2"
_cell_formula_units_Z 16
_cell_length_a 10.195064
_cell_length_b 15.811711
_cell_length_c 7.784259
_cell_angle_alpha 79.540610
_cell_angle_beta 132.974335
_cell_angle_gamma 68.056752
_cell_volume 652.318705
_symmetry_space_group_name_H-M "P -1"
_symmetry_group_IT_number 2
_symmetry_cell_setting 'triclinic'
loop_
_space_group_symop_operation_xyz
x,y,z
-x,-y,-z
loop_
_atom_site_type_symbol
_atom_site_label
_atom_site_fract_x
_atom_site_fract_y
_atom_site_fract_z
Si Si1 0.574218 0.385498 0.388041
Si Si2 0.603578 0.125639 0.749916
Si Si3 0.095421 0.225417 0.305207
Si Si4 0.193778 0.420386 0.849039
Si Si5 0.529674 0.834511 0.774377
Si Si6 0.904142 0.854173 0.045298
Si Si7 0.991438 0.924186 0.653403
Si Si8 0.185937 0.538218 0.247415
O O1 0.417870 0.414702 0.410673
O O2 0.695768 0.437457 0.513607
O O3 0.807256 0.246439 0.618216
O O4 0.370194 0.441883 0.039623
O O5 0.359278 0.176383 0.615964
O O6 0.498784 0.180604 0.447126
O O7 0.775764 0.138166 0.989110
O O8 0.782941 0.984254 0.934730
O O9 0.005086 0.177269 0.363634
O O10 0.127252 0.161431 0.177572
O O11 0.925652 0.360609 0.037143
O O12 0.000000 0.500000 0.500000
O O13 0.027406 0.446061 0.856953
O O14 0.381085 0.281989 0.015843
O O15 0.276963 0.964170 0.549126
O O16 0.747662 0.830515 0.001304
O O17 0.000000 0.000000 0.500000
#
# Coordination Sequence:
#
# PCOD9080524 Si02
#       8
#     2   2   2   2   2   2   2   2
#     4  10  22  41  69  92 131 169 223 267 316 383
#     4  11  20  39  74  91 121 173 217 255 314 383
#     4  10  20  39  67  94 126 162 216 260 308 379
#     4  12  25  43  64  98 133 170 215 274 327 374
#     4  11  21  44  64  95 125 168 223 258 308 397
#     4  10  18  39  73  93 118 165 224 264 295 375
#     4  12  26  40  59 103 136 161 204 267 334 380
#     4  10  22  44  68  97 126 171 225 267 313 383
#
# _framework density 24.527888000000001
#
# number of rings (size 3 to 8) (size 9 to 14) (size 15 to 20)
#    0.000    1.250    6.250    2.250    3.500    1.000 
#    9.000    0.000    0.000    0.000    0.000    0.000 
#    0.000    0.000    0.000    0.000    0.000    0.000 
#
# Total GULP energy -89452.721221 kJ/mol
# GULP energy per Si atom -5590.795076 kJ/mol
# Density = 2.447206 g / cm^3
# Si number density = 24.527888 Si / 1000 Ang^3
#
#
#
# Elastic Constant Matrix: (Units=GPa)
#
#
# Indices 1 2 3 4 5 6 
#
# 1 71.6645 18.2229 38.9496 -7.0788 19.2070 17.6363
# 2 18.2229 61.8655 52.7904 -9.5674 10.2044 15.4804
# 3 38.9496 52.7904 184.4710 -5.2481 28.5014 15.7583
# 4 -7.0788 -9.5674 -5.2481 27.7611 13.8107 8.1447
# 5 19.2070 10.2044 28.5014 13.8107 44.4687 3.0961
# 6 17.6363 15.4804 15.7583 8.1447 3.0961 23.2138
#
#
#
# Elastic Compliance Matrix: (Units=1/GPa)
#
#
# Indices 1 2 3 4 5 6 
#
# 1 0.031138 0.011224 -0.002022 0.034021 -0.022601 -0.038691
# 2 0.011224 0.034970 -0.005599 0.033315 -0.017022 -0.037465
# 3 -0.002022 -0.005599 0.007940 0.000580 -0.003118 0.000092
# 4 0.034021 0.033315 0.000580 0.103900 -0.049528 -0.078306
# 5 -0.022601 -0.017022 -0.003118 -0.049528 0.050663 0.041259
# 6 -0.038691 -0.037465 0.000092 -0.078306 0.041259 0.119365
#
#
# Mechanical properties :
#
#
# Convention : Reuss Voigt Hill
#
# Bulk Modulus (GPa) = 12.30691 59.76966 36.03829
# Shear Modulus (GPa) = 13.59222 32.95794 23.27508
#
# Velocity S-wave (km/s) = 2.35660 3.66962 3.08380
# Velocity P-wave (km/s) = 3.52607 6.50966 5.23493
#
# Compressibility (1/GPa) = 0.08125513
#
# Stress axis : x y z
#
# Youngs Moduli (GPa) = 32.11494 28.59553 125.93751
#
# Poissons Ratio (x) = -0.32095 0.25458
# Poissons Ratio (y) = -0.36045 0.70515
# Poissons Ratio (z) = 0.06492 0.16011
#
# Static dielectric constant tensor:
#      x y z
#    x 2.101920 0.022910 -0.052760 
#    y 0.022910 1.983870 -0.002640 
#    z -0.052760 -0.002640 1.912570 
# 
# From -- ./inp_files/277905.got.cif
#   From: 2010.05.17/outbox.cif.g08.bks.cpg/sg2_139_cif.got.tgz:277905.got - 2010.06.03 11:33:40.
