data_PCOD9080186
_publ_section_title
;
Structure prediction by ZEFSAII (Michael W. Deem and Ramdas Pophale) SiO2 
 PCOD9080186
Probable space group: P -1
;
_chemical_formula_sum "Si O2"
_cell_formula_units_Z 16
_cell_length_a 13.050108
_cell_length_b 5.244618
_cell_length_c 12.029327
_cell_angle_alpha 103.742405
_cell_angle_beta 57.350211
_cell_angle_gamma 122.157123
_cell_volume 585.455119
_symmetry_space_group_name_H-M "P -1"
_symmetry_group_IT_number 2
_symmetry_cell_setting 'triclinic'
loop_
_space_group_symop_operation_xyz
x,y,z
-x,-y,-z
loop_
_atom_site_type_symbol
_atom_site_label
_atom_site_fract_x
_atom_site_fract_y
_atom_site_fract_z
Si Si1 0.774102 0.706592 0.229488
Si Si2 0.277587 0.735763 0.443234
Si Si3 0.403083 0.017926 0.709116
Si Si4 0.408215 0.076649 0.964591
Si Si5 0.858726 0.584770 0.941995
Si Si6 0.954992 0.625546 0.273128
Si Si7 0.300887 0.468723 0.177795
Si Si8 0.909999 0.166059 0.572137
O O1 0.682633 0.344771 0.266408
O O2 0.897249 0.811217 0.258595
O O3 0.675884 0.855079 0.307966
O O4 0.845426 0.763304 0.072316
O O5 0.437273 0.883810 0.403111
O O6 0.170345 0.577173 0.589791
O O7 0.261981 0.502140 0.328908
O O8 0.232549 0.954468 0.426254
O O9 0.410492 0.168988 0.841646
O O10 0.574066 0.189946 0.891746
O O11 0.372622 0.269305 0.090536
O O12 0.280553 0.741127 0.997086
O O13 0.827372 0.665982 0.846797
O O14 0.997025 0.552077 0.857122
O O15 0.090835 0.788815 0.290743
O O16 0.000000 0.500000 0.500000
O O17 0.000000 0.000000 0.500000
#
# Coordination Sequence:
#
# PCOD9080186 Si02
#       8
#     2   2   2   2   2   2   2   2
#     4  11  25  46  69 101 132 184 230 277 337 397
#     4  10  23  44  68 102 131 179 225 283 347 393
#     4  10  23  45  73  98 135 172 236 287 330 399
#     4   9  20  36  63 101 128 175 219 288 339 390
#     4  11  21  40  63  96 133 178 226 276 336 407
#     4  11  25  44  65  97 144 181 222 274 337 421
#     4  10  18  38  65  94 135 167 226 281 341 397
#     4  10  23  43  65  94 133 172 216 264 329 400
#
# _framework density 27.329166000000001
#
# number of rings (size 3 to 8) (size 9 to 14) (size 15 to 20)
#    0.000    1.750    2.500    0.750    0.000    7.000 
#    2.250    1.875    0.000    0.000    0.000    0.000 
#    0.000    0.000    0.000    0.000    0.000    0.000 
#
# Total GULP energy -89541.058310 kJ/mol
# GULP energy per Si atom -5596.316144 kJ/mol
# Density = 2.726696 g / cm^3
# Si number density = 27.329166 Si / 1000 Ang^3
#
#
#
# Elastic Constant Matrix: (Units=GPa)
#
#
# Indices 1 2 3 4 5 6 
#
# 1 237.6677 64.9531 67.6764 -10.6374 -22.6765 -18.9678
# 2 64.9531 110.1867 30.2017 -4.2803 -13.9434 -3.3816
# 3 67.6764 30.2017 127.4747 -2.5080 -13.7319 1.8456
# 4 -10.6374 -4.2803 -2.5080 34.8254 4.3049 -18.1078
# 5 -22.6765 -13.9434 -13.7319 4.3049 49.7774 3.5693
# 6 -18.9678 -3.3816 1.8456 -18.1078 3.5693 54.2178
#
#
#
# Elastic Compliance Matrix: (Units=1/GPa)
#
#
# Indices 1 2 3 4 5 6 
#
# 1 0.006066 -0.002580 -0.002500 0.002756 0.000904 0.002907
# 2 -0.002580 0.011099 -0.001077 0.000181 0.001637 -0.000221
# 3 -0.002500 -0.001077 0.009583 -0.001323 0.001447 -0.001805
# 4 0.002756 0.000181 -0.001323 0.036938 -0.003226 0.013569
# 5 0.000904 0.001637 0.001447 -0.003226 0.021792 -0.002143
# 6 0.002907 -0.000221 -0.001805 0.013569 -0.002143 0.024182
#
#
# Mechanical properties :
#
#
# Convention : Reuss Voigt Hill
#
# Bulk Modulus (GPa) = 69.27636 88.99906 79.13771
# Shear Modulus (GPa) = 39.43726 48.59731 44.01728
#
# Velocity S-wave (km/s) = 3.80287 4.22147 4.01762
# Velocity P-wave (km/s) = 6.68478 7.50982 7.10928
#
# Compressibility (1/GPa) = 0.01443494
#
# Stress axis : x y z
#
# Youngs Moduli (GPa) = 164.85132 90.09910 104.35279
#
# Poissons Ratio (x) = 0.23245 0.26085
# Poissons Ratio (y) = 0.42531 0.11237
# Poissons Ratio (z) = 0.41207 0.09702
#
# Static dielectric constant tensor:
#      x y z
#    x 2.198020 -0.016100 0.098180 
#    y -0.016100 2.346260 0.004130 
#    z 0.098180 0.004130 2.226360 
# 
# From -- ./inp_files/110827.got.cif
#   From: 2010.05.17/outbox.cif.g08.bks.cpg/sg2_56_cif.got.tgz:110827.got - 2010.06.03 11:33:40.
