data_PCOD9080920
_publ_section_title
;
Structure prediction by ZEFSAII (Michael W. Deem and Ramdas Pophale) SiO2 
 PCOD9080920
Probable space group: P -1
;
_chemical_formula_sum "Si O2"
_cell_formula_units_Z 14
_cell_length_a 5.349936
_cell_length_b 13.335621
_cell_length_c 14.626620
_cell_angle_alpha 68.814020
_cell_angle_beta 64.553341
_cell_angle_gamma 88.941959
_cell_volume 866.929278
_symmetry_space_group_name_H-M "P -1"
_symmetry_group_IT_number 2
_symmetry_cell_setting 'triclinic'
loop_
_space_group_symop_operation_xyz
x,y,z
-x,-y,-z
loop_
_atom_site_type_symbol
_atom_site_label
_atom_site_fract_x
_atom_site_fract_y
_atom_site_fract_z
Si Si1 0.640549 0.096489 0.878636
Si Si2 0.499367 0.115367 0.515336
Si Si3 0.566370 0.180377 0.181432
Si Si4 0.463788 0.717649 0.034145
Si Si5 0.896570 0.869896 0.573980
Si Si6 0.026033 0.620556 0.994946
Si Si7 0.732325 0.951353 0.227042
O O1 0.465763 0.088814 0.814552
O O2 0.960909 0.080313 0.819044
O O3 0.622477 0.210191 0.894079
O O4 0.500000 0.000000 0.000000
O O5 0.817333 0.176133 0.440753
O O6 0.406283 0.092069 0.641214
O O7 0.276342 0.170553 0.475923
O O8 0.500000 0.000000 0.500000
O O9 0.451265 0.199418 0.091993
O O10 0.776677 0.292549 0.129826
O O11 0.315127 0.151159 0.301464
O O12 0.741680 0.081671 0.183926
O O13 0.199348 0.637816 0.057456
O O14 0.723884 0.657964 0.036667
O O15 0.000000 0.000000 0.500000
O O16 0.000000 0.500000 0.000000
#
# Coordination Sequence:
#
# PCOD9080920 Si02
#       7
#     2   2   2   2   2   2   2
#     4  12  22  33  48  73 106 143 183 197 240 311
#     4  10  20  31  47  66 104 141 172 205 248 285
#     4  10  22  30  55  74 108 142 170 204 261 299
#     4  10  22  35  53  74 107 137 170 215 255 301
#     4  10  19  30  47  70 101 140 166 205 252 301
#     4  10  21  37  55  75 103 133 173 219 266 303
#     4  12  22  32  49  73 109 148 173 200 244 307
#
# _framework density 16.148952999999999
#
# number of rings (size 3 to 8) (size 9 to 14) (size 15 to 20)
#    0.857    0.571    4.286    3.429    4.000    0.000 
#    0.000    0.000    0.000    0.000    0.000    0.000 
#    0.000   22.857    0.000    0.000    0.000    0.000 
#
# Total GULP energy -77994.720062 kJ/mol
# GULP energy per Si atom -5571.051433 kJ/mol
# Density = 1.611220 g / cm^3
# Si number density = 16.148953 Si / 1000 Ang^3
#
#
#
# Elastic Constant Matrix: (Units=GPa)
#
#
# Indices 1 2 3 4 5 6 
#
# 1 166.1582 46.0223 62.0573 18.9895 -15.2667 0.5652
# 2 46.0223 98.3567 48.2348 14.4482 -18.0373 8.4959
# 3 62.0573 48.2348 98.7061 23.2586 -1.0432 4.2390
# 4 18.9895 14.4482 23.2586 15.6721 -0.9483 -1.0046
# 5 -15.2667 -18.0373 -1.0432 -0.9483 30.1890 9.5943
# 6 0.5652 8.4959 4.2390 -1.0046 9.5943 21.2604
#
#
#
# Elastic Compliance Matrix: (Units=1/GPa)
#
#
# Indices 1 2 3 4 5 6 
#
# 1 0.008503 -0.000593 -0.004160 -0.003411 0.004061 -0.001154
# 2 -0.000593 0.018196 -0.006225 -0.006775 0.014192 -0.012739
# 3 -0.004160 -0.006225 0.020386 -0.019813 -0.005811 0.000220
# 4 -0.003411 -0.006775 -0.019813 0.104084 -0.008050 0.015299
# 5 0.004061 0.014192 -0.005811 -0.008050 0.052294 -0.028600
# 6 -0.001154 -0.012739 0.000220 0.015299 -0.028600 0.065743
#
#
# Mechanical properties :
#
#
# Convention : Reuss Voigt Hill
#
# Bulk Modulus (GPa) = 39.79558 75.09441 57.44499
# Shear Modulus (GPa) = 16.69232 27.21807 21.95520
#
# Velocity S-wave (km/s) = 3.21853 4.10986 3.69120
# Velocity P-wave (km/s) = 6.20550 8.31405 7.33592
#
# Compressibility (1/GPa) = 0.02512842
#
# Stress axis : x y z
#
# Youngs Moduli (GPa) = 117.60215 54.95749 49.05231
#
# Poissons Ratio (x) = 0.03260 0.20406
# Poissons Ratio (y) = 0.06976 0.30537
# Poissons Ratio (z) = 0.48923 0.34213
#
# Static dielectric constant tensor:
#      x y z
#    x 1.604930 0.017380 0.000730 
#    y 0.017380 1.486740 0.001050 
#    z 0.000730 0.001050 1.535580 
# 
# From -- ./inp_files/96449.got.cif
#   From: 2010.05.17/outbox.cif.g08.bks.cpg/sg2_49_cif.got.tgz:96449.got - 2010.06.03 11:33:40.
