data_PCOD9080579
_publ_section_title
;
Structure prediction by ZEFSAII (Michael W. Deem and Ramdas Pophale) SiO2 
 PCOD9080579
Probable space group: P -1
;
_chemical_formula_sum "Si O2"
_cell_formula_units_Z 14
_cell_length_a 11.565099
_cell_length_b 8.584337
_cell_length_c 16.103372
_cell_angle_alpha 33.935843
_cell_angle_beta 37.388091
_cell_angle_gamma 47.368321
_cell_volume 541.169684
_symmetry_space_group_name_H-M "P -1"
_symmetry_group_IT_number 2
_symmetry_cell_setting 'triclinic'
loop_
_space_group_symop_operation_xyz
x,y,z
-x,-y,-z
loop_
_atom_site_type_symbol
_atom_site_label
_atom_site_fract_x
_atom_site_fract_y
_atom_site_fract_z
Si Si1 0.666152 0.752882 0.606698
Si Si2 0.702810 0.129602 0.843950
Si Si3 0.639065 0.273675 0.642868
Si Si4 0.176348 0.181339 0.343881
Si Si5 0.084630 0.346715 0.779870
Si Si6 0.773711 0.076111 0.246045
Si Si7 0.203209 0.398385 0.878973
O O1 0.675608 0.427998 0.768887
O O2 0.784110 0.880443 0.555776
O O3 0.445926 0.854877 0.685271
O O4 0.760596 0.832886 0.430446
O O5 0.767049 0.212914 0.678746
O O6 0.500000 0.000000 0.000000
O O7 0.819569 0.899494 0.930994
O O8 0.740220 0.481734 0.432955
O O9 0.431409 0.399555 0.729282
O O10 0.636889 0.963817 0.742318
O O11 0.109129 0.489475 0.214985
O O12 0.000000 0.000000 0.500000
O O13 0.107899 0.394386 0.844344
O O14 0.119432 0.052070 0.840312
O O15 0.829846 0.352405 0.144695
#
# Coordination Sequence:
#
# PCOD9080579 Si02
#       7
#     2   2   2   2   2   2   2
#     4  11  20  39  64  94 123 159 211 263 305 371
#     4  10  20  40  62  93 125 159 204 260 318 368
#     4  10  18  40  64  87 124 159 209 259 306 365
#     4  10  23  39  60  93 127 167 208 251 312 372
#     4  11  22  39  61  94 128 164 208 255 310 375
#     4  11  20  37  67  98 120 155 216 268 311 354
#     4  11  22  40  66  95 127 158 207 269 315 358
#
# _framework density 25.869890000000002
#
# number of rings (size 3 to 8) (size 9 to 14) (size 15 to 20)
#    0.000    1.429    4.286    3.857    0.000    0.571 
#    5.143    3.571    0.000    0.000    0.000    0.000 
#    0.000    0.000    0.000    0.000    0.000    0.000 
#
# Total GULP energy -78294.467456 kJ/mol
# GULP energy per Si atom -5592.461961 kJ/mol
# Density = 2.581101 g / cm^3
# Si number density = 25.869890 Si / 1000 Ang^3
#
#
#
# Elastic Constant Matrix: (Units=GPa)
#
#
# Indices 1 2 3 4 5 6 
#
# 1 183.3658 65.5461 49.3769 -1.7746 32.5616 31.6584
# 2 65.5461 187.2097 48.8539 -5.0990 14.3793 24.4935
# 3 49.3769 48.8539 103.7237 -19.3304 10.3976 16.4578
# 4 -1.7746 -5.0990 -19.3304 38.0084 9.8877 7.7447
# 5 32.5616 14.3793 10.3976 9.8877 44.2132 2.0764
# 6 31.6584 24.4935 16.4578 7.7447 2.0764 33.0116
#
#
#
# Elastic Compliance Matrix: (Units=1/GPa)
#
#
# Indices 1 2 3 4 5 6 
#
# 1 0.008460 -0.001220 -0.001362 0.002402 -0.005735 -0.006732
# 2 -0.001220 0.006743 -0.001898 0.000720 -0.000868 -0.003001
# 3 -0.001362 -0.001898 0.014225 0.009101 -0.003465 -0.006295
# 4 0.002402 0.000720 0.009101 0.037347 -0.011773 -0.015396
# 5 -0.005735 -0.000868 -0.003465 -0.011773 0.030161 0.008736
# 6 -0.006732 -0.003001 -0.006295 -0.015396 0.008736 0.045176
#
#
# Mechanical properties :
#
#
# Convention : Reuss Voigt Hill
#
# Bulk Modulus (GPa) = 48.85449 89.09476 68.97463
# Shear Modulus (GPa) = 31.66654 43.74811 37.70733
#
# Velocity S-wave (km/s) = 3.50247 4.11674 3.82196
# Velocity P-wave (km/s) = 5.93987 7.55718 6.79680
#
# Compressibility (1/GPa) = 0.02046895
#
# Stress axis : x y z
#
# Youngs Moduli (GPa) = 118.19731 148.30311 70.29684
#
# Poissons Ratio (x) = 0.18093 0.09575
# Poissons Ratio (y) = 0.14420 0.13341
# Poissons Ratio (z) = 0.16100 0.28144
#
# Static dielectric constant tensor:
#      x y z
#    x 2.421860 0.397780 0.087380 
#    y 0.397780 2.459610 0.074070 
#    z 0.087380 0.074070 2.107820 
# 
# From -- ./inp_files/203217.got.cif
#   From: 2010.05.17/outbox.cif.g08.bks.cpg/sg2_102_cif.got.tgz:203217.got - 2010.06.03 11:33:40.
