data_PCOD9080975
_publ_section_title
;
Structure prediction by ZEFSAII (Michael W. Deem and Ramdas Pophale) SiO2 
 PCOD9080975
Probable space group: P -1
;
_chemical_formula_sum "Si O2"
_cell_formula_units_Z 16
_cell_length_a 28.890911
_cell_length_b 18.588834
_cell_length_c 5.133856
_cell_angle_alpha 98.962444
_cell_angle_beta 74.478300
_cell_angle_gamma 160.904626
_cell_volume 826.821005
_symmetry_space_group_name_H-M "P -1"
_symmetry_group_IT_number 2
_symmetry_cell_setting 'triclinic'
loop_
_space_group_symop_operation_xyz
x,y,z
-x,-y,-z
loop_
_atom_site_type_symbol
_atom_site_label
_atom_site_fract_x
_atom_site_fract_y
_atom_site_fract_z
Si Si1 0.885721 0.093536 0.720646
Si Si2 0.612663 0.229511 0.391361
Si Si3 0.841223 0.299628 0.870124
Si Si4 0.684784 0.134839 0.531449
Si Si5 0.375445 0.354430 0.906873
Si Si6 0.362107 0.200450 0.448794
Si Si7 0.789656 0.447187 0.729721
Si Si8 0.878142 0.217657 0.121519
O O1 0.030630 0.285657 0.435096
O O2 0.759504 0.960430 0.685957
O O3 0.934437 0.218592 0.949519
O O4 0.789743 0.885302 0.844727
O O5 0.703149 0.372573 0.602841
O O6 0.500000 0.000000 0.500000
O O7 0.495217 0.120099 0.396761
O O8 0.727626 0.373610 0.068779
O O9 0.763046 0.228066 0.192927
O O10 0.872248 0.264283 0.914888
O O11 0.738024 0.157619 0.692041
O O12 0.001035 0.571840 0.746664
O O13 0.742980 0.297241 0.638998
O O14 0.356946 0.267909 0.660181
O O15 0.464374 0.552897 0.775843
O O16 0.500000 0.500000 0.000000
O O17 0.288939 0.034114 0.646956
#
# Coordination Sequence:
#
# PCOD9080975 Si02
#       8
#     2   2   2   2   2   2   2   2
#     4  10  19  30  50  72 107 132 167 203 255 302
#     4  10  21  34  51  71  95 127 176 216 258 303
#     4  11  23  33  51  69 102 142 184 207 242 280
#     4  11  20  36  49  67  96 135 174 219 250 287
#     4   8  16  30  46  73  94 136 159 202 248 308
#     4   9  17  30  50  65 103 136 165 199 251 294
#     4  11  20  32  52  75  97 133 167 209 262 305
#     4  10  22  32  45  73 101 141 175 212 233 292
#
# _framework density 19.351226
#
# number of rings (size 3 to 8) (size 9 to 14) (size 15 to 20)
#    0.000    2.000    1.250    4.500    5.250    1.000 
#    0.000    0.000    0.000    0.000    0.000    0.000 
#    0.000    6.000    0.000    0.000    0.000    0.000 
#
# Total GULP energy -89245.054055 kJ/mol
# GULP energy per Si atom -5577.815878 kJ/mol
# Density = 1.930718 g / cm^3
# Si number density = 19.351226 Si / 1000 Ang^3
#
#
#
# Elastic Constant Matrix: (Units=GPa)
#
#
# Indices 1 2 3 4 5 6 
#
# 1 38.3230 28.6916 22.1748 -6.7293 7.5706 10.9550
# 2 28.6916 77.2607 31.8650 -19.7501 14.6851 -2.3906
# 3 22.1748 31.8650 111.2585 -27.1179 16.6790 -7.1497
# 4 -6.7293 -19.7501 -27.1179 45.8177 0.4056 8.2650
# 5 7.5706 14.6851 16.6790 0.4056 21.8046 -0.0363
# 6 10.9550 -2.3906 -7.1497 8.2650 -0.0363 23.0770
#
#
#
# Elastic Compliance Matrix: (Units=1/GPa)
#
#
# Indices 1 2 3 4 5 6 
#
# 1 0.050936 -0.016304 -0.006653 0.001678 -0.001694 -0.028534
# 2 -0.016304 0.022577 0.000270 0.006152 -0.009853 0.007943
# 3 -0.006653 0.000270 0.013284 0.006157 -0.008140 0.005084
# 4 0.001678 0.006152 0.006157 0.030088 -0.010010 -0.009043
# 5 -0.001694 -0.009853 -0.008140 -0.010010 0.059500 0.000940
# 6 -0.028534 0.007943 0.005084 -0.009043 0.000940 0.062517
#
#
# Mechanical properties :
#
#
# Convention : Reuss Voigt Hill
#
# Bulk Modulus (GPa) = 24.14058 43.58944 33.86501
# Shear Modulus (GPa) = 16.77380 27.74724 22.26052
#
# Velocity S-wave (km/s) = 2.94735 3.79076 3.39535
# Velocity P-wave (km/s) = 4.90760 6.46020 5.73667
#
# Compressibility (1/GPa) = 0.04142402
#
# Stress axis : x y z
#
# Youngs Moduli (GPa) = 19.63252 44.29205 75.27646
#
# Poissons Ratio (x) = 0.72212 0.50084
# Poissons Ratio (y) = 0.32008 -0.02033
# Poissons Ratio (z) = 0.13062 -0.01196
#
# Static dielectric constant tensor:
#      x y z
#    x 1.712120 0.017660 0.026760 
#    y 0.017660 1.763240 0.022310 
#    z 0.026760 0.022310 1.793600 
# 
# From -- ./inp_files/74042.got.cif
#   From: 2010.05.17/outbox.cif.g08.bks.cpg/sg2_38_cif.got.tgz:74042.got - 2010.06.03 11:33:40.
