data_PCOD9080309
_publ_section_title
;
Structure prediction by ZEFSAII (Michael W. Deem and Ramdas Pophale) SiO2 
 PCOD9080309
Probable space group: P -1
;
_chemical_formula_sum "Si O2"
_cell_formula_units_Z 15
_cell_length_a 16.196321
_cell_length_b 11.648569
_cell_length_c 19.336162
_cell_angle_alpha 23.764131
_cell_angle_beta 156.619525
_cell_angle_gamma 143.205873
_cell_volume 565.506153
_symmetry_space_group_name_H-M "P -1"
_symmetry_group_IT_number 2
_symmetry_cell_setting 'triclinic'
loop_
_space_group_symop_operation_xyz
x,y,z
-x,-y,-z
loop_
_atom_site_type_symbol
_atom_site_label
_atom_site_fract_x
_atom_site_fract_y
_atom_site_fract_z
Si Si1 0.000000 0.500000 0.000000
Si Si2 0.292273 0.009634 0.895990
Si Si3 0.302886 0.285570 0.547282
Si Si4 0.857856 0.375126 0.112541
Si Si5 0.390094 0.644085 0.616932
Si Si6 0.245674 0.899178 0.219034
Si Si7 0.391511 0.980641 0.639231
Si Si8 0.906418 0.220544 0.565237
O O1 0.756004 0.723943 0.672874
O O2 0.054964 0.496879 0.959462
O O3 0.312754 0.340334 0.724988
O O4 0.111422 0.967460 0.836565
O O5 0.215256 0.896337 0.828849
O O6 0.517684 0.819527 0.199230
O O7 0.278462 0.635179 0.333680
O O8 0.388673 0.069759 0.667860
O O9 0.054838 0.283687 0.366246
O O10 0.640227 0.572324 0.868342
O O11 0.364947 0.780229 0.447186
O O12 0.228826 0.834477 0.442983
O O13 0.372880 0.108021 0.163980
O O14 0.000000 0.000000 0.000000
O O15 0.256873 0.745433 0.643543
O O16 0.000000 0.500000 0.500000
#
# Coordination Sequence:
#
# PCOD9080309 Si02
#       8
#     1   2   2   2   2   2   2   2
#     4  10  18  38  70  98 132 178 240 278 352 424
#     4  11  22  48  71 101 143 193 242 295 348 437
#     4  11  25  43  74 109 136 190 246 292 351 439
#     4  11  22  42  70 103 141 187 238 294 356 423
#     4  11  25  44  69 102 149 190 235 295 370 421
#     4  12  28  45  66 109 151 184 236 308 365 426
#     4  11  23  45  73 101 142 193 243 292 360 430
#     4  10  24  45  71 102 140 195 236 292 365 426
#
# _framework density 26.524909999999998
#
# number of rings (size 3 to 8) (size 9 to 14) (size 15 to 20)
#    0.000    1.067    5.333    0.800    3.733    4.267 
#    0.000    2.667    0.000    0.000    0.000    0.000 
#    0.000    0.000    0.000    0.000    0.000    0.000 
#
# Total GULP energy -83730.249980 kJ/mol
# GULP energy per Si atom -5582.016665 kJ/mol
# Density = 2.646454 g / cm^3
# Si number density = 26.524910 Si / 1000 Ang^3
#
#
#
# Elastic Constant Matrix: (Units=GPa)
#
#
# Indices 1 2 3 4 5 6 
#
# 1 123.9439 31.0642 40.5666 6.3223 46.8330 2.3670
# 2 31.0642 131.8474 47.3084 16.0947 11.0589 -11.1724
# 3 40.5666 47.3084 120.0504 35.9005 27.1044 8.5637
# 4 6.3223 16.0947 35.9005 44.0342 3.7498 8.3846
# 5 46.8330 11.0589 27.1044 3.7498 55.8784 6.5982
# 6 2.3670 -11.1724 8.5637 8.3846 6.5982 42.7580
#
#
#
# Elastic Compliance Matrix: (Units=1/GPa)
#
#
# Indices 1 2 3 4 5 6 
#
# 1 0.012582 -0.001593 -0.001807 0.000956 -0.009480 0.000524
# 2 -0.001593 0.009499 -0.003206 -0.001330 0.000702 0.003365
# 3 -0.001807 -0.003206 0.013973 -0.009424 -0.003868 -0.001091
# 4 0.000956 -0.001330 -0.009424 0.031494 0.002519 -0.005078
# 5 -0.009480 0.000702 -0.003868 0.002519 0.027799 -0.003301
# 6 0.000524 0.003365 -0.001091 -0.005078 -0.003301 0.025961
#
#
# Mechanical properties :
#
#
# Convention : Reuss Voigt Hill
#
# Bulk Modulus (GPa) = 43.77925 68.19112 55.98519
# Shear Modulus (GPa) = 35.17841 45.66097 40.41969
#
# Velocity S-wave (km/s) = 3.64571 4.15352 3.90787
# Velocity P-wave (km/s) = 5.85341 6.98330 6.44317
#
# Compressibility (1/GPa) = 0.02284187
#
# Stress axis : x y z
#
# Youngs Moduli (GPa) = 79.47850 105.27784 71.56781
#
# Poissons Ratio (x) = 0.16774 0.12932
# Poissons Ratio (y) = 0.12663 0.22942
# Poissons Ratio (z) = 0.14361 0.33748
#
# Static dielectric constant tensor:
#      x y z
#    x 2.058140 0.005430 0.034630 
#    y 0.005430 1.973090 0.045970 
#    z 0.034630 0.045970 2.031170 
# 
# From -- ./inp_files/600025.got.cif
#   From: 2010.05.17/outbox.cif.g08.bks.cpg/sg2_301_cif.got.tgz:600025.got - 2010.06.03 11:33:40.
