data_PCOD9080032
_publ_section_title
;
Structure prediction by ZEFSAII (Michael W. Deem and Ramdas Pophale) SiO2 
 PCOD9080032
Probable space group: P -1
;
_chemical_formula_sum "Si O2"
_cell_formula_units_Z 16
_cell_length_a 18.231642
_cell_length_b 9.128750
_cell_length_c 7.243121
_cell_angle_alpha 64.331958
_cell_angle_beta 117.896556
_cell_angle_gamma 138.060223
_cell_volume 704.627474
_symmetry_space_group_name_H-M "P -1"
_symmetry_group_IT_number 2
_symmetry_cell_setting 'triclinic'
loop_
_space_group_symop_operation_xyz
x,y,z
-x,-y,-z
loop_
_atom_site_type_symbol
_atom_site_label
_atom_site_fract_x
_atom_site_fract_y
_atom_site_fract_z
Si Si1 0.501645 0.333530 0.988875
Si Si2 0.053508 0.199500 0.094682
Si Si3 0.091954 0.761021 0.912746
Si Si4 0.314969 0.959633 0.238077
Si Si5 0.528686 0.780644 0.393824
Si Si6 0.295200 0.581037 0.285814
Si Si7 0.664352 0.269800 0.173634
Si Si8 0.108354 0.580835 0.692956
O O1 0.616475 0.379894 0.124427
O O2 0.398580 0.099321 0.088005
O O3 0.500000 0.500000 0.000000
O O4 0.480943 0.328983 0.747911
O O5 0.072588 0.381336 0.886327
O O6 0.175168 0.330542 0.262295
O O7 0.967941 0.146601 0.181474
O O8 0.000000 0.000000 0.000000
O O9 0.138599 0.769017 0.764152
O O10 0.195606 0.884069 0.106267
O O11 0.000000 0.500000 0.000000
O O12 0.295106 0.737867 0.333226
O O13 0.376565 0.123370 0.394830
O O14 0.406422 0.624337 0.431386
O O15 0.566129 0.011333 0.244760
O O16 0.316613 0.676594 0.051146
O O17 0.783076 0.342522 0.331265
O O18 0.000000 0.500000 0.500000
#
# Coordination Sequence:
#
# PCOD9080032 Si02
#       8
#     2   2   2   2   2   2   2   2
#     4  11  24  42  60  93 138 167 203 267 332 385
#     4  10  22  40  63  91 130 170 210 274 335 372
#     4  10  20  38  60  90 124 164 214 267 314 379
#     4  12  21  38  65  96 121 166 219 259 316 397
#     4  11  22  36  70  94 122 167 215 262 322 387
#     4  10  18  38  61  93 124 160 216 264 313 390
#     4  10  19  38  64  90 122 166 210 264 323 373
#     4  10  21  38  66  93 122 168 226 263 318 396
#
# _framework density 22.707032999999999
#
# number of rings (size 3 to 8) (size 9 to 14) (size 15 to 20)
#    0.000    1.500    6.250    1.125    3.500    3.500 
#    0.000    0.625    0.000    0.000    0.000    0.000 
#    0.000    0.000    0.000    0.000    0.000    0.000 
#
# Total GULP energy -89303.240022 kJ/mol
# GULP energy per Si atom -5581.452501 kJ/mol
# Density = 2.265535 g / cm^3
# Si number density = 22.707033 Si / 1000 Ang^3
#
#
#
# Elastic Constant Matrix: (Units=GPa)
#
#
# Indices 1 2 3 4 5 6 
#
# 1 178.1908 70.9249 47.0996 35.9531 2.2406 0.9544
# 2 70.9249 81.6757 24.4322 41.0896 5.2796 -5.7805
# 3 47.0996 24.4322 87.0896 42.7186 8.0843 14.0724
# 4 35.9531 41.0896 42.7186 41.4752 11.4658 0.3270
# 5 2.2406 5.2796 8.0843 11.4658 41.3565 17.5199
# 6 0.9544 -5.7805 14.0724 0.3270 17.5199 41.8112
#
#
#
# Elastic Compliance Matrix: (Units=1/GPa)
#
#
# Indices 1 2 3 4 5 6 
#
# 1 0.010235 -0.012309 -0.007976 0.011861 -0.001204 0.001161
# 2 -0.012309 0.046440 0.024630 -0.063336 0.009661 -0.005141
# 3 -0.007976 0.024630 0.041384 -0.063696 0.013407 -0.015461
# 4 0.011861 -0.063336 -0.063696 0.150966 -0.032484 0.024842
# 5 -0.001204 0.009661 0.013407 -0.032484 0.037233 -0.018497
# 6 0.001161 -0.005141 -0.015461 0.024842 -0.018497 0.035940
#
#
# Mechanical properties :
#
#
# Convention : Reuss Voigt Hill
#
# Bulk Modulus (GPa) = 9.36786 70.20775 39.78780
# Shear Modulus (GPa) = 14.32295 38.56187 26.44241
#
# Velocity S-wave (km/s) = 2.51424 4.12543 3.41618
# Velocity P-wave (km/s) = 3.54444 7.32655 5.75506
#
# Compressibility (1/GPa) = 0.10674796
#
# Stress axis : x y z
#
# Youngs Moduli (GPa) = 97.70038 21.53328 24.16421
#
# Poissons Ratio (x) = 0.26506 0.19274
# Poissons Ratio (y) = 1.20262 -0.59517
# Poissons Ratio (z) = 0.77927 -0.53037
#
# Static dielectric constant tensor:
#      x y z
#    x 1.904770 0.031320 0.020760 
#    y 0.031320 1.883220 0.079080 
#    z 0.020760 0.079080 2.180520 
# 
# From -- ./inp_files/328885.got.cif
#   From: 2010.05.17/outbox.cif.g08.bks.cpg/sg2_165_cif.got.tgz:328885.got - 2010.06.03 11:33:40.
