data_PCOD9080087
_publ_section_title
;
Structure prediction by ZEFSAII (Michael W. Deem and Ramdas Pophale) SiO2 
 PCOD9080087
Probable space group: P -1
;
_chemical_formula_sum "Si O2"
_cell_formula_units_Z 16
_cell_length_a 12.161152
_cell_length_b 18.959940
_cell_length_c 9.330078
_cell_angle_alpha 125.124348
_cell_angle_beta 45.570629
_cell_angle_gamma 153.070026
_cell_volume 687.818934
_symmetry_space_group_name_H-M "P -1"
_symmetry_group_IT_number 2
_symmetry_cell_setting 'triclinic'
loop_
_space_group_symop_operation_xyz
x,y,z
-x,-y,-z
loop_
_atom_site_type_symbol
_atom_site_label
_atom_site_fract_x
_atom_site_fract_y
_atom_site_fract_z
Si Si1 0.289835 0.158770 0.746169
Si Si2 0.821643 0.197853 0.194870
Si Si3 0.208741 0.979828 0.399453
Si Si4 0.800411 0.471283 0.241325
Si Si5 0.733273 0.971190 0.139217
Si Si6 0.522202 0.832747 0.881396
Si Si7 0.856622 0.514457 0.571052
Si Si8 0.986517 0.708144 0.189853
O O1 0.528197 0.336171 0.685087
O O2 0.141225 0.034004 0.610648
O O3 0.391317 0.126680 0.717402
O O4 0.063490 0.104549 0.982178
O O5 0.718603 0.063799 0.215205
O O6 0.015740 0.344635 0.295952
O O7 0.530999 0.107046 0.301104
O O8 0.000479 0.269136 0.966436
O O9 0.013309 0.804774 0.377885
O O10 0.228457 0.006307 0.243515
O O11 0.538251 0.284911 0.280251
O O12 0.908602 0.543229 0.386030
O O13 0.754599 0.534154 0.260503
O O14 0.000000 0.500000 0.000000
O O15 0.582815 0.847236 0.007111
O O16 0.269034 0.783491 0.047733
O O17 0.000000 0.500000 0.500000
#
# Coordination Sequence:
#
# PCOD9080087 Si02
#       8
#     2   2   2   2   2   2   2   2
#     4  11  27  42  61  91 130 162 214 251 306 380
#     4  11  22  39  67  93 124 164 204 256 318 360
#     4  11  19  39  63  95 119 154 215 265 291 367
#     4  10  22  35  59  96 127 155 200 260 312 362
#     4  11  25  44  62  89 125 176 201 251 317 370
#     4  10  18  38  63  85 123 160 203 250 313 354
#     4  12  23  40  63  96 128 162 205 260 309 364
#     4  10  20  35  61  99 121 151 206 266 300 361
#
# _framework density 23.261937
#
# number of rings (size 3 to 8) (size 9 to 14) (size 15 to 20)
#    0.000    1.250    5.000    2.250    7.000    1.500 
#    0.000    0.000    0.000    1.500    0.000    0.000 
#    0.000    0.000    0.000    0.000    0.000    0.000 
#
# Total GULP energy -89256.163612 kJ/mol
# GULP energy per Si atom -5578.510226 kJ/mol
# Density = 2.320899 g / cm^3
# Si number density = 23.261937 Si / 1000 Ang^3
#
#
#
# Elastic Constant Matrix: (Units=GPa)
#
#
# Indices 1 2 3 4 5 6 
#
# 1 66.4901 11.2874 25.3080 3.0928 16.0663 -6.9308
# 2 11.2874 112.4970 33.6704 32.8249 1.4875 -10.7023
# 3 25.3080 33.6704 70.0928 11.7809 25.6189 3.5708
# 4 3.0928 32.8249 11.7809 38.7341 5.1518 9.6606
# 5 16.0663 1.4875 25.6189 5.1518 35.2581 5.6562
# 6 -6.9308 -10.7023 3.5708 9.6606 5.6562 25.9468
#
#
#
# Elastic Compliance Matrix: (Units=1/GPa)
#
#
# Indices 1 2 3 4 5 6 
#
# 1 0.019346 0.001268 -0.005476 -0.002309 -0.005932 0.008597
# 2 0.001268 0.017288 -0.008609 -0.016201 0.005139 0.013566
# 3 -0.005476 -0.008609 0.025698 0.003584 -0.015287 -0.006553
# 4 -0.002309 -0.016201 0.003584 0.045054 -0.003638 -0.023774
# 5 -0.005932 0.005139 -0.015287 -0.003638 0.043363 -0.005459
# 6 0.008597 0.013566 -0.006553 -0.023774 -0.005459 0.057376
#
#
# Mechanical properties :
#
#
# Convention : Reuss Voigt Hill
#
# Bulk Modulus (GPa) = 27.24956 43.29016 35.26986
# Shear Modulus (GPa) = 20.32587 31.90875 26.11731
#
# Velocity S-wave (km/s) = 2.95919 3.70769 3.35438
# Velocity P-wave (km/s) = 4.83894 6.08108 5.49522
#
# Compressibility (1/GPa) = 0.03669784
#
# Stress axis : x y z
#
# Youngs Moduli (GPa) = 51.69105 57.84219 38.91333
#
# Poissons Ratio (x) = -0.07333 0.21309
# Poissons Ratio (y) = -0.06554 0.33501
# Poissons Ratio (z) = 0.28305 0.49797
#
# Static dielectric constant tensor:
#      x y z
#    x 1.908390 0.022540 -0.030600 
#    y 0.022540 1.955350 -0.038350 
#    z -0.030600 -0.038350 1.898690 
# 
# From -- ./inp_files/252390.got.cif
#   From: 2010.05.17/outbox.cif.g08.bks.cpg/sg2_127_cif.got.tgz:252390.got - 2010.06.03 11:33:40.
