data_PCOD9080081
_publ_section_title
;
Structure prediction by ZEFSAII (Michael W. Deem and Ramdas Pophale) SiO2 
 PCOD9080081
Probable space group: P -1
;
_chemical_formula_sum "Si O2"
_cell_formula_units_Z 16
_cell_length_a 8.225551
_cell_length_b 18.694812
_cell_length_c 24.433637
_cell_angle_alpha 21.788870
_cell_angle_beta 145.419409
_cell_angle_gamma 135.453742
_cell_volume 767.235221
_symmetry_space_group_name_H-M "P -1"
_symmetry_group_IT_number 2
_symmetry_cell_setting 'triclinic'
loop_
_space_group_symop_operation_xyz
x,y,z
-x,-y,-z
loop_
_atom_site_type_symbol
_atom_site_label
_atom_site_fract_x
_atom_site_fract_y
_atom_site_fract_z
Si Si1 0.823947 0.490246 0.901569
Si Si2 0.528563 0.061158 0.527670
Si Si3 0.890553 0.180730 0.923683
Si Si4 0.281634 0.463486 0.822645
Si Si5 0.263201 0.400210 0.603173
Si Si6 0.726240 0.201120 0.735722
Si Si7 0.108554 0.192535 0.602317
Si Si8 0.556014 0.657211 0.860614
O O1 0.669077 0.714331 0.679864
O O2 0.562221 0.384041 0.917022
O O3 0.000000 0.500000 0.000000
O O4 0.088813 0.381823 0.013984
O O5 0.871187 0.062013 0.629345
O O6 0.500000 0.000000 0.500000
O O7 0.441892 0.896133 0.659540
O O8 0.578067 0.264512 0.807288
O O9 0.840027 0.215657 0.818897
O O10 0.130255 0.301158 0.920871
O O11 0.034705 0.946236 0.131096
O O12 0.411430 0.587664 0.815473
O O13 0.041768 0.617888 0.611283
O O14 0.346883 0.582648 0.464598
O O15 0.145951 0.268770 0.619348
O O16 0.000000 0.500000 0.500000
O O17 0.436211 0.115878 0.723101
O O18 0.500000 0.500000 0.000000
#
# Coordination Sequence:
#
# PCOD9080081 Si02
#       8
#     2   2   2   2   2   2   2   2
#     4   9  19  35  60  87 116 159 203 248 292 364
#     4  11  20  37  66  91 114 160 213 247 297 375
#     4  10  20  37  61  92 108 156 209 243 297 362
#     4  10  18  38  63  84 115 154 212 245 291 376
#     4  11  22  40  58  84 134 157 189 253 312 361
#     4  10  20  36  64  87 118 150 201 258 295 356
#     4  10  19  38  64  89 113 160 211 249 296 364
#     4  11  24  41  57  90 130 160 194 261 318 353
#
# _framework density 20.854099000000001
#
# number of rings (size 3 to 8) (size 9 to 14) (size 15 to 20)
#    0.000    1.750    6.250    0.750    1.750    1.000 
#    6.750    0.000    0.000    0.000    0.000    0.000 
#    0.000    0.000    0.000    0.000    0.000    0.000 
#
# Total GULP energy -89192.232440 kJ/mol
# GULP energy per Si atom -5574.514528 kJ/mol
# Density = 2.080663 g / cm^3
# Si number density = 20.854099 Si / 1000 Ang^3
#
#
#
# Elastic Constant Matrix: (Units=GPa)
#
#
# Indices 1 2 3 4 5 6 
#
# 1 59.4693 16.9668 21.2748 2.4389 17.1746 15.2716
# 2 16.9668 104.5231 25.1628 0.5547 9.6971 26.6894
# 3 21.2748 25.1628 80.5523 -3.6667 15.1757 12.3462
# 4 2.4389 0.5547 -3.6667 27.1667 9.1484 1.4913
# 5 17.1746 9.6971 15.1757 9.1484 38.1111 -1.9445
# 6 15.2716 26.6894 12.3462 1.4913 -1.9445 17.3876
#
#
#
# Elastic Compliance Matrix: (Units=1/GPa)
#
#
# Indices 1 2 3 4 5 6 
#
# 1 0.030279 0.006989 -0.000340 0.005547 -0.018642 -0.039641
# 2 0.006989 0.018753 0.000215 0.004745 -0.011019 -0.036716
# 3 -0.000340 0.000215 0.016289 0.005783 -0.008441 -0.013038
# 4 0.005547 0.004745 0.005783 0.044179 -0.017739 -0.022034
# 5 -0.018642 -0.011019 -0.008441 -0.017739 0.047415 0.046105
# 6 -0.039641 -0.036716 -0.013038 -0.022034 0.046105 0.164990
#
#
# Mechanical properties :
#
#
# Convention : Reuss Voigt Hill
#
# Bulk Modulus (GPa) = 12.65024 41.26150 26.95587
# Shear Modulus (GPa) = 14.94651 28.60911 21.77781
#
# Velocity S-wave (km/s) = 2.68006 3.70789 3.23506
# Velocity P-wave (km/s) = 3.95679 6.17738 5.18731
#
# Compressibility (1/GPa) = 0.07904988
#
# Stress axis : x y z
#
# Youngs Moduli (GPa) = 33.02616 53.32385 61.39275
#
# Poissons Ratio (x) = -0.37268 0.02087
# Poissons Ratio (y) = -0.23082 -0.01323
# Poissons Ratio (z) = 0.01123 -0.01149
#
# Static dielectric constant tensor:
#      x y z
#    x 1.880830 0.015800 -0.034220 
#    y 0.015800 1.754590 -0.004280 
#    z -0.034220 -0.004280 1.802390 
# 
# From -- ./inp_files/284504.got.cif
#   From: 2010.05.17/outbox.cif.g08.bks.cpg/sg2_143_cif.got.tgz:284504.got - 2010.06.03 11:33:40.
