data_PCOD9080113
_publ_section_title
;
Structure prediction by ZEFSAII (Michael W. Deem and Ramdas Pophale) SiO2 
 PCOD9080113
Probable space group: P -1
;
_chemical_formula_sum "Si O2"
_cell_formula_units_Z 12
_cell_length_a 10.914427
_cell_length_b 10.431165
_cell_length_c 6.628413
_cell_angle_alpha 68.685497
_cell_angle_beta 94.302846
_cell_angle_gamma 52.762349
_cell_volume 513.530544
_symmetry_space_group_name_H-M "P -1"
_symmetry_group_IT_number 2
_symmetry_cell_setting 'triclinic'
loop_
_space_group_symop_operation_xyz
x,y,z
-x,-y,-z
loop_
_atom_site_type_symbol
_atom_site_label
_atom_site_fract_x
_atom_site_fract_y
_atom_site_fract_z
Si Si1 0.890197 0.937240 0.722806
Si Si2 0.346173 0.906848 0.054940
Si Si3 0.438664 0.541392 0.228168
Si Si4 0.336154 0.085389 0.559046
Si Si5 0.193507 0.693242 0.627758
Si Si6 0.306782 0.394566 0.487058
O O1 0.765731 0.954522 0.544951
O O2 0.071417 0.763540 0.759190
O O3 0.865170 0.121211 0.596127
O O4 0.823854 0.938299 0.930129
O O5 0.333534 0.759288 0.061033
O O6 0.376705 0.989059 0.834402
O O7 0.512097 0.780426 0.288501
O O8 0.500000 0.500000 0.500000
O O9 0.616929 0.422663 0.210116
O O10 0.348100 0.464602 0.265979
O O11 0.235530 0.304066 0.456652
O O12 0.500000 0.000000 0.500000
O O13 0.203411 0.559871 0.546418
#
# Coordination Sequence:
#
# PCOD9080113 Si02
#       6
#     2   2   2   2   2   2
#     4  11  20  37  62  84 115 155 192 230 287 345
#     4  10  19  38  63  82 116 152 190 237 286 334
#     4   8  14  34  64  80 104 155 187 226 285 327
#     4  12  24  35  60  93 112 148 200 235 284 345
#     4   9  18  36  63  81 116 158 183 236 289 334
#     4  10  18  38  64  83 118 150 185 244 289 327
#
# _framework density 23.367647000000002
#
# number of rings (size 3 to 8) (size 9 to 14) (size 15 to 20)
#    0.000    2.333    6.667    0.500    0.000    0.667 
#    0.000   11.667    7.333    0.000    0.000    0.000 
#    0.000    0.000    0.000    0.000    0.000    0.000 
#
# Total GULP energy -67066.881785 kJ/mol
# GULP energy per Si atom -5588.906815 kJ/mol
# Density = 2.331446 g / cm^3
# Si number density = 23.367647 Si / 1000 Ang^3
#
#
#
# Elastic Constant Matrix: (Units=GPa)
#
#
# Indices 1 2 3 4 5 6 
#
# 1 58.2803 46.5103 49.7200 7.0732 -26.2993 -2.1572
# 2 46.5103 146.1245 49.0474 33.5321 -25.5110 2.3546
# 3 49.7200 49.0474 91.4654 8.9221 -40.6315 -9.7360
# 4 7.0732 33.5321 8.9221 34.6520 1.0377 -13.1044
# 5 -26.2993 -25.5110 -40.6315 1.0377 42.4935 9.0019
# 6 -2.1572 2.3546 -9.7360 -13.1044 9.0019 59.3178
#
#
#
# Elastic Compliance Matrix: (Units=1/GPa)
#
#
# Indices 1 2 3 4 5 6 
#
# 1 0.036671 -0.006232 -0.014547 0.001665 0.005266 -0.001238
# 2 -0.006232 0.012834 -0.000802 -0.012707 0.004309 -0.004329
# 3 -0.014547 -0.000802 0.026827 -0.003373 0.016097 0.000718
# 4 0.001665 -0.012707 -0.003373 0.046783 -0.013594 0.012410
# 5 0.005266 0.004309 0.016097 -0.013594 0.046676 -0.007424
# 6 -0.001238 -0.004329 0.000718 0.012410 -0.007424 0.020971
#
#
# Mechanical properties :
#
#
# Convention : Reuss Voigt Hill
#
# Bulk Modulus (GPa) = 30.14719 65.15839 47.65279
# Shear Modulus (GPa) = 20.40988 37.33216 28.87102
#
# Velocity S-wave (km/s) = 2.95858 4.00134 3.51880
# Velocity P-wave (km/s) = 4.95986 7.02084 6.07834
#
# Compressibility (1/GPa) = 0.03317059
#
# Stress axis : x y z
#
# Youngs Moduli (GPa) = 27.26984 77.91767 37.27613
#
# Poissons Ratio (x) = 0.48558 0.54225
# Poissons Ratio (y) = 0.16994 0.02988
# Poissons Ratio (z) = 0.39669 0.06247
#
# Static dielectric constant tensor:
#      x y z
#    x 1.939940 0.010960 0.031130 
#    y 0.010960 1.908180 0.066370 
#    z 0.031130 0.066370 2.039540 
# 
# From -- ./inp_files/63743.got.cif
#   From: 2010.05.17/outbox.cif.g08.bks.cpg/sg2_32_cif.got.tgz:63743.got - 2010.06.03 11:33:40.
