data_PCOD9080906
_publ_section_title
;
Structure prediction by ZEFSAII (Michael W. Deem and Ramdas Pophale) SiO2 
 PCOD9080906
Probable space group: P -1
;
_chemical_formula_sum "Si O2"
_cell_formula_units_Z 16
_cell_length_a 22.775195
_cell_length_b 5.780424
_cell_length_c 12.621971
_cell_angle_alpha 130.441972
_cell_angle_beta 151.630291
_cell_angle_gamma 54.880273
_cell_volume 600.862298
_symmetry_space_group_name_H-M "P -1"
_symmetry_group_IT_number 2
_symmetry_cell_setting 'triclinic'
loop_
_space_group_symop_operation_xyz
x,y,z
-x,-y,-z
loop_
_atom_site_type_symbol
_atom_site_label
_atom_site_fract_x
_atom_site_fract_y
_atom_site_fract_z
Si Si1 0.925428 0.746379 0.526515
Si Si2 0.143303 0.086348 0.277585
Si Si3 0.277338 0.596878 0.203563
Si Si4 0.855654 0.441069 0.733690
Si Si5 0.574884 0.174710 0.831912
Si Si6 0.985204 0.730569 0.311855
Si Si7 0.341667 0.199179 0.335483
Si Si8 0.347590 0.290613 0.010240
O O1 0.941987 0.572379 0.615262
O O2 0.000000 0.500000 0.500000
O O3 0.984043 0.075532 0.688763
O O4 0.788261 0.764692 0.268324
O O5 0.175052 0.901714 0.380951
O O6 0.174668 0.426948 0.390926
O O7 0.220114 0.896817 0.253220
O O8 0.000000 0.000000 0.000000
O O9 0.152988 0.391130 0.945319
O O10 0.384937 0.494025 0.425144
O O11 0.327772 0.527667 0.147067
O O12 0.776076 0.654342 0.750402
O O13 0.000000 0.500000 0.000000
O O14 0.440906 0.094300 0.547646
O O15 0.586089 0.534282 0.930552
O O16 0.667896 0.021825 0.847193
O O17 0.601343 0.015882 0.939699
O O18 0.000000 0.000000 0.500000
#
# Coordination Sequence:
#
# PCOD9080906 Si02
#       8
#     2   2   2   2   2   2   2   2
#     4  10  19  30  46  65  92 119 167 208 239 276
#     4   9  18  30  44  68  93 123 155 193 241 289
#     4  10  19  30  51  67  95 135 167 194 243 290
#     4   9  17  31  49  66  90 125 159 202 243 271
#     4  10  22  32  45  66  97 136 172 193 222 291
#     4  10  19  30  44  69  90 122 167 199 243 286
#     4   9  20  33  46  69  98 131 173 193 232 289
#     4  11  20  32  48  65  93 132 175 193 238 276
#
# _framework density 26.628398000000001
#
# number of rings (size 3 to 8) (size 9 to 14) (size 15 to 20)
#    0.000    2.250    2.500    1.500    5.250    8.500 
#    0.000    0.000    0.000    0.000    0.000    0.000 
#    0.000    0.000    0.000  202.500   22.500    0.000 
#
# Total GULP energy -89123.635141 kJ/mol
# GULP energy per Si atom -5570.227196 kJ/mol
# Density = 2.656779 g / cm^3
# Si number density = 26.628398 Si / 1000 Ang^3
#
#
#
# Elastic Constant Matrix: (Units=GPa)
#
#
# Indices 1 2 3 4 5 6 
#
# 1 100.3567 44.2178 14.4677 -7.6516 0.3824 38.6451
# 2 44.2178 230.9120 36.7623 -13.8398 -6.1877 60.9646
# 3 14.4677 36.7623 80.3399 -17.3939 -10.5077 11.7521
# 4 -7.6516 -13.8398 -17.3939 45.9788 7.6792 2.3911
# 5 0.3824 -6.1877 -10.5077 7.6792 28.8565 -7.6423
# 6 38.6451 60.9646 11.7521 2.3911 -7.6423 54.3725
#
#
#
# Elastic Compliance Matrix: (Units=1/GPa)
#
#
# Indices 1 2 3 4 5 6 
#
# 1 0.014604 0.000488 -0.000985 0.003543 -0.004434 -0.011494
# 2 0.000488 0.006650 -0.001776 0.002124 -0.001851 -0.007773
# 3 -0.000985 -0.001776 0.014900 0.004301 0.003867 -0.000175
# 4 0.003543 0.002124 0.004301 0.026209 -0.007114 -0.007982
# 5 -0.004434 -0.001851 0.003867 -0.007114 0.040366 0.010378
# 6 -0.011494 -0.007773 -0.000175 -0.007982 0.010378 0.037123
#
#
# Mechanical properties :
#
#
# Convention : Reuss Voigt Hill
#
# Bulk Modulus (GPa) = 31.63719 66.94492 49.29106
# Shear Modulus (GPa) = 32.27207 46.91893 39.59550
#
# Velocity S-wave (km/s) = 3.48507 4.20216 3.86030
# Velocity P-wave (km/s) = 5.30105 6.98135 6.19840
#
# Compressibility (1/GPa) = 0.03160837
#
# Stress axis : x y z
#
# Youngs Moduli (GPa) = 68.47312 150.38168 67.11544
#
# Poissons Ratio (x) = -0.07342 0.06611
# Poissons Ratio (y) = -0.03343 0.11919
# Poissons Ratio (z) = 0.06744 0.26707
#
# Static dielectric constant tensor:
#      x y z
#    x 2.401740 -0.097740 0.052530 
#    y -0.097740 2.578220 -0.011540 
#    z 0.052530 -0.011540 2.021060 
# 
# From -- ./inp_files/363046.got.cif
#   From: 2010.05.17/outbox.cif.g08.bks.cpg/sg2_182_cif.got.tgz:363046.got - 2010.06.03 11:33:40.
