data_PCOD9080684
_publ_section_title
;
Structure prediction by ZEFSAII (Michael W. Deem and Ramdas Pophale) SiO2 
 PCOD9080684
Probable space group: P -1
;
_chemical_formula_sum "Si O2"
_cell_formula_units_Z 13
_cell_length_a 8.817117
_cell_length_b 7.901685
_cell_length_c 13.572561
_cell_angle_alpha 126.614249
_cell_angle_beta 116.974801
_cell_angle_gamma 39.416427
_cell_volume 481.884147
_symmetry_space_group_name_H-M "P -1"
_symmetry_group_IT_number 2
_symmetry_cell_setting 'triclinic'
loop_
_space_group_symop_operation_xyz
x,y,z
-x,-y,-z
loop_
_atom_site_type_symbol
_atom_site_label
_atom_site_fract_x
_atom_site_fract_y
_atom_site_fract_z
Si Si1 0.000000 0.500000 0.500000
Si Si2 0.118143 0.171976 0.898164
Si Si3 0.674926 0.349262 0.090624
Si Si4 0.520951 0.250273 0.525079
Si Si5 0.481882 0.241780 0.288990
Si Si6 0.052308 0.349462 0.238510
Si Si7 0.268057 0.835678 0.261615
O O1 0.748963 0.568232 0.462815
O O2 0.027914 0.484514 0.624083
O O3 0.928965 0.171924 0.795228
O O4 0.198188 0.979958 0.955772
O O5 0.334450 0.996388 0.822322
O O6 0.000000 0.500000 0.000000
O O7 0.523770 0.519121 0.204316
O O8 0.840475 0.408552 0.145577
O O9 0.500000 0.500000 0.000000
O O10 0.564923 0.121237 0.384296
O O11 0.550960 0.477282 0.616459
O O12 0.715643 0.021759 0.590044
O O13 0.224413 0.359827 0.237899
O O14 0.215214 0.018844 0.214089
#
# Coordination Sequence:
#
# PCOD9080684 Si02
#       7
#     1   2   2   2   2   2   2
#     4  10  18  40  76 106 150 200 248 314 394 472
#     4  11  26  50  79 111 159 207 261 328 389 457
#     4  11  25  52  79 108 155 213 267 313 381 479
#     4  10  20  42  78 113 156 196 254 322 393 467
#     4  10  22  45  74 120 155 192 258 329 395 458
#     4  10  23  43  77 112 151 198 261 319 392 462
#     4  11  23  47  75 107 153 206 256 317 389 469
#
# _framework density 26.977437999999999
#
# number of rings (size 3 to 8) (size 9 to 14) (size 15 to 20)
#    0.000    1.538    3.077    0.923    0.000    7.385 
#    8.308    3.077    0.000    0.000    0.000    0.000 
#    0.000    0.000    0.000    0.000    0.000    0.000 
#
# Total GULP energy -72659.950906 kJ/mol
# GULP energy per Si atom -5589.226993 kJ/mol
# Density = 2.691604 g / cm^3
# Si number density = 26.977438 Si / 1000 Ang^3
#
#
#
# Elastic Constant Matrix: (Units=GPa)
#
#
# Indices 1 2 3 4 5 6 
#
# 1 224.5258 69.9319 88.8114 -6.9300 18.1506 -29.6216
# 2 69.9319 98.7395 76.9067 -29.8551 25.3307 5.8506
# 3 88.8114 76.9067 186.2379 -17.2980 5.9778 -27.2865
# 4 -6.9300 -29.8551 -17.2980 69.9484 -8.4441 -1.7167
# 5 18.1506 25.3307 5.9778 -8.4441 60.1904 9.1466
# 6 -29.6216 5.8506 -27.2865 -1.7167 9.1466 34.2547
#
#
#
# Elastic Compliance Matrix: (Units=1/GPa)
#
#
# Indices 1 2 3 4 5 6 
#
# 1 0.007313 -0.005706 -0.000171 -0.001711 -0.001149 0.007383
# 2 -0.005706 0.025701 -0.009276 0.007151 -0.004884 -0.015051
# 3 -0.000171 -0.009276 0.010527 -0.000980 0.001342 0.009414
# 4 -0.001711 0.007151 -0.000980 0.016917 0.000393 -0.002738
# 5 -0.001149 -0.004884 0.001342 0.000393 0.019591 -0.004302
# 6 0.007383 -0.015051 0.009414 -0.002738 -0.004302 0.046659
#
#
# Mechanical properties :
#
#
# Convention : Reuss Voigt Hill
#
# Bulk Modulus (GPa) = 75.56425 108.97815 92.27120
# Shear Modulus (GPa) = 30.97386 51.13557 41.05472
#
# Velocity S-wave (km/s) = 3.39210 4.35845 3.90528
# Velocity P-wave (km/s) = 6.58883 8.11245 7.39001
#
# Compressibility (1/GPa) = 0.01323377
#
# Stress axis : x y z
#
# Youngs Moduli (GPa) = 136.74531 38.90903 94.99216
#
# Poissons Ratio (x) = 0.22200 0.01629
# Poissons Ratio (y) = 0.78023 0.88119
# Poissons Ratio (z) = 0.02344 0.36094
#
# Static dielectric constant tensor:
#      x y z
#    x 2.051610 0.115800 -0.037890 
#    y 0.115800 2.217880 0.039240 
#    z -0.037890 0.039240 2.184340 
# 
# From -- ./inp_files/493948.got.cif
#   From: 2010.05.17/outbox.cif.g08.bks.cpg/sg2_247_cif.got.tgz:493948.got - 2010.06.03 11:33:40.
