data_PCOD9080923
_publ_section_title
;
Structure prediction by ZEFSAII (Michael W. Deem and Ramdas Pophale) SiO2 
 PCOD9080923
Probable space group: P -1
;
_chemical_formula_sum "Si O2"
_cell_formula_units_Z 14
_cell_length_a 12.613695
_cell_length_b 19.727872
_cell_length_c 9.475179
_cell_angle_alpha 149.879378
_cell_angle_beta 140.317352
_cell_angle_gamma 26.298556
_cell_volume 524.035460
_symmetry_space_group_name_H-M "P -1"
_symmetry_group_IT_number 2
_symmetry_cell_setting 'triclinic'
loop_
_space_group_symop_operation_xyz
x,y,z
-x,-y,-z
loop_
_atom_site_type_symbol
_atom_site_label
_atom_site_fract_x
_atom_site_fract_y
_atom_site_fract_z
Si Si1 0.080091 0.034549 0.445978
Si Si2 0.774001 0.553468 0.562029
Si Si3 0.789904 0.823516 0.953120
Si Si4 0.366344 0.900601 0.259205
Si Si5 0.327988 0.939154 0.976514
Si Si6 0.636197 0.403136 0.316949
Si Si7 0.574892 0.611911 0.163211
O O1 0.079256 0.131642 0.753057
O O2 0.859463 0.072869 0.249156
O O3 0.171620 0.074609 0.480209
O O4 0.304291 0.802599 0.283275
O O5 0.549637 0.750856 0.775065
O O6 0.825024 0.402797 0.454334
O O7 0.717018 0.525360 0.297473
O O8 0.894468 0.623921 0.762601
O O9 0.791843 0.860980 0.859266
O O10 0.500000 0.000000 0.000000
O O11 0.593257 0.728014 0.279791
O O12 0.406939 0.930662 0.200114
O O13 0.556245 0.497233 0.830621
O O14 0.500000 0.500000 0.500000
O O15 0.734471 0.193546 0.041596
#
# Coordination Sequence:
#
# PCOD9080923 Si02
#       7
#     2   2   2   2   2   2   2
#     4   9  18  32  47  75  98 129 163 190 247 283
#     4  11  18  32  49  76 101 125 158 201 247 276
#     4  10  19  30  47  72 105 129 152 198 244 290
#     4   8  18  30  49  73  95 122 169 207 224 278
#     4  11  17  29  52  73  99 130 159 197 236 300
#     4   9  17  32  50  73  92 127 169 200 235 275
#     4   8  18  29  49  72  96 121 161 205 231 280
#
# _framework density 26.715748000000001
#
# number of rings (size 3 to 8) (size 9 to 14) (size 15 to 20)
#    1.714    0.571    4.286    1.286    0.000    0.000 
#    0.000    7.857    0.000    4.286    0.000    0.000 
#    0.000    0.000    0.000    0.000    0.000    0.000 
#
# Total GULP energy -77976.201630 kJ/mol
# GULP energy per Si atom -5569.728688 kJ/mol
# Density = 2.665494 g / cm^3
# Si number density = 26.715748 Si / 1000 Ang^3
#
#
#
# Elastic Constant Matrix: (Units=GPa)
#
#
# Indices 1 2 3 4 5 6 
#
# 1 145.8214 35.8653 29.8302 -12.7207 -34.3514 34.0681
# 2 35.8653 90.0127 12.8315 -14.6097 -1.0638 16.7223
# 3 29.8302 12.8315 117.7082 -3.5628 -14.5878 18.8950
# 4 -12.7207 -14.6097 -3.5628 19.2925 6.0061 -3.2024
# 5 -34.3514 -1.0638 -14.5878 6.0061 31.3629 -8.7090
# 6 34.0681 16.7223 18.8950 -3.2024 -8.7090 49.2801
#
#
#
# Elastic Compliance Matrix: (Units=1/GPa)
#
#
# Indices 1 2 3 4 5 6 
#
# 1 0.011487 -0.003395 -0.000428 0.000781 0.010824 -0.004662
# 2 -0.003395 0.014676 -0.000764 0.010236 -0.006312 -0.002790
# 3 -0.000428 -0.000764 0.009489 -0.000563 0.003324 -0.002532
# 4 0.000781 0.010236 -0.000563 0.063340 -0.011674 -0.001744
# 5 0.010824 -0.006312 0.003324 -0.011674 0.047596 0.001037
# 6 -0.004662 -0.002790 -0.002532 -0.001744 0.001037 0.025503
#
#
# Mechanical properties :
#
#
# Convention : Reuss Voigt Hill
#
# Bulk Modulus (GPa) = 37.76675 56.73293 47.24984
# Shear Modulus (GPa) = 26.30316 38.32147 32.31231
#
# Velocity S-wave (km/s) = 3.14117 3.79148 3.48154
# Velocity P-wave (km/s) = 5.22715 6.35995 5.82117
#
# Compressibility (1/GPa) = 0.02647832
#
# Stress axis : x y z
#
# Youngs Moduli (GPa) = 87.05261 68.13622 105.38923
#
# Poissons Ratio (x) = 0.23136 0.04507
# Poissons Ratio (y) = 0.29559 0.08050
# Poissons Ratio (z) = 0.03723 0.05205
#
# Static dielectric constant tensor:
#      x y z
#    x 2.274550 0.046460 0.031130 
#    y 0.046460 2.201470 0.022270 
#    z 0.031130 0.022270 2.072160 
# 
# From -- ./inp_files/278543.got.cif
#   From: 2010.05.17/outbox.cif.g08.bks.cpg/sg2_140_cif.got.tgz:278543.got - 2010.06.03 11:33:40.
