data_PCOD9080112
_publ_section_title
;
Structure prediction by ZEFSAII (Michael W. Deem and Ramdas Pophale) SiO2 
 PCOD9080112
Probable space group: P -1
;
_chemical_formula_sum "Si O2"
_cell_formula_units_Z 14
_cell_length_a 11.596752
_cell_length_b 7.083796
_cell_length_c 9.566338
_cell_angle_alpha 56.453740
_cell_angle_beta 64.060871
_cell_angle_gamma 89.762303
_cell_volume 558.615791
_symmetry_space_group_name_H-M "P -1"
_symmetry_group_IT_number 2
_symmetry_cell_setting 'triclinic'
loop_
_space_group_symop_operation_xyz
x,y,z
-x,-y,-z
loop_
_atom_site_type_symbol
_atom_site_label
_atom_site_fract_x
_atom_site_fract_y
_atom_site_fract_z
Si Si1 0.349602 0.468249 0.150700
Si Si2 0.028456 0.953088 0.844598
Si Si3 0.589721 0.005597 0.144135
Si Si4 0.209571 0.449213 0.514279
Si Si5 0.738606 0.646324 0.147536
Si Si6 0.304430 0.864015 0.685675
Si Si7 0.290070 0.963147 0.326336
O O1 0.264404 0.216815 0.228032
O O2 0.500000 0.500000 0.000000
O O3 0.322704 0.716857 0.032243
O O4 0.328563 0.609521 0.779475
O O5 0.082294 0.217005 0.640073
O O6 0.151805 0.847038 0.816098
O O7 0.807316 0.287588 0.578042
O O8 0.000000 0.000000 0.000000
O O9 0.597617 0.965724 0.323591
O O10 0.438804 0.974962 0.188667
O O11 0.655188 0.829500 0.106642
O O12 0.248650 0.403814 0.671663
O O13 0.322548 0.446648 0.340891
O O14 0.886977 0.765548 0.955172
O O15 0.307787 0.940418 0.492796
#
# Coordination Sequence:
#
# PCOD9080112 Si02
#       7
#     2   2   2   2   2   2   2
#     4  10  22  38  57  80 119 160 191 228 282 347
#     4  10  18  38  64  83 115 147 194 240 283 335
#     4  11  22  36  55  88 125 144 188 238 292 333
#     4  10  20  38  61  83 112 152 194 235 278 340
#     4  10  22  37  62  90 110 153 191 241 287 331
#     4  11  20  37  62  87 116 147 192 242 286 338
#     4  10  22  37  61  86 112 158 192 231 290 341
#
# _framework density 25.061947
#
# number of rings (size 3 to 8) (size 9 to 14) (size 15 to 20)
#    0.000    1.714    4.286    0.857    0.000    9.143 
#    0.000    0.714    0.000    1.714    0.000    0.000 
#    0.000    0.000    0.000    0.000    0.000    0.000 
#
# Total GULP energy -78238.603012 kJ/mol
# GULP energy per Si atom -5588.471644 kJ/mol
# Density = 2.500491 g / cm^3
# Si number density = 25.061947 Si / 1000 Ang^3
#
#
#
# Elastic Constant Matrix: (Units=GPa)
#
#
# Indices 1 2 3 4 5 6 
#
# 1 63.6433 20.9830 39.4295 9.4992 -6.6162 -17.8068
# 2 20.9830 166.0899 37.7771 -34.1674 -7.0963 -16.1855
# 3 39.4295 37.7771 97.1509 6.1398 -13.7710 -2.1004
# 4 9.4992 -34.1674 6.1398 58.3651 -2.8670 -2.9494
# 5 -6.6162 -7.0963 -13.7710 -2.8670 35.3536 2.1430
# 6 -17.8068 -16.1855 -2.1004 -2.9494 2.1430 36.1384
#
#
#
# Elastic Compliance Matrix: (Units=1/GPa)
#
#
# Indices 1 2 3 4 5 6 
#
# 1 0.025589 -0.000458 -0.009785 -0.002819 -0.000047 0.011608
# 2 -0.000458 0.008339 -0.003247 0.005513 0.000544 0.003738
# 3 -0.009785 -0.003247 0.016098 -0.002097 0.003966 -0.005747
# 4 -0.002819 0.005513 -0.002097 0.021238 0.001326 0.002613
# 5 -0.000047 0.000544 0.003966 0.001326 0.030113 -0.001226
# 6 0.011608 0.003738 -0.005747 0.002613 -0.001226 0.035017
#
#
# Mechanical properties :
#
#
# Convention : Reuss Voigt Hill
#
# Bulk Modulus (GPa) = 43.39245 58.14036 50.76641
# Shear Modulus (GPa) = 29.23008 41.21772 35.22390
#
# Velocity S-wave (km/s) = 3.41884 4.05981 3.75303
# Velocity P-wave (km/s) = 5.73901 6.72496 6.25145
#
# Compressibility (1/GPa) = 0.02304548
#
# Stress axis : x y z
#
# Youngs Moduli (GPa) = 39.07853 119.91800 62.12032
#
# Poissons Ratio (x) = 0.05492 0.60785
# Poissons Ratio (y) = 0.01790 0.20172
# Poissons Ratio (z) = 0.38239 0.38941
#
# Static dielectric constant tensor:
#      x y z
#    x 1.988650 0.023830 -0.039530 
#    y 0.023830 1.984260 -0.011620 
#    z -0.039530 -0.011620 2.138540 
# 
# From -- ./inp_files/242139.got.cif
#   From: 2010.05.17/outbox.cif.g08.bks.cpg/sg2_122_cif.got.tgz:242139.got - 2010.06.03 11:33:40.
