data_PCOD9080981
_publ_section_title
;
Structure prediction by ZEFSAII (Michael W. Deem and Ramdas Pophale) SiO2 
 PCOD9080981
Probable space group: P -1
;
_chemical_formula_sum "Si O2"
_cell_formula_units_Z 16
_cell_length_a 16.691999
_cell_length_b 23.304106
_cell_length_c 11.590985
_cell_angle_alpha 149.151961
_cell_angle_beta 24.107019
_cell_angle_gamma 151.321963
_cell_volume 844.569336
_symmetry_space_group_name_H-M "P -1"
_symmetry_group_IT_number 2
_symmetry_cell_setting 'triclinic'
loop_
_space_group_symop_operation_xyz
x,y,z
-x,-y,-z
loop_
_atom_site_type_symbol
_atom_site_label
_atom_site_fract_x
_atom_site_fract_y
_atom_site_fract_z
Si Si1 0.410070 0.174358 0.740703
Si Si2 0.296118 0.873669 0.581148
Si Si3 0.620116 0.881339 0.675941
Si Si4 0.738746 0.303724 0.339300
Si Si5 0.034602 0.224884 0.973547
Si Si6 0.756759 0.560131 0.733176
Si Si7 0.302949 0.934885 0.314909
Si Si8 0.034425 0.244884 0.396014
O O1 0.592136 0.209270 0.659731
O O2 0.536914 0.267893 0.632633
O O3 0.340904 0.037945 0.541447
O O4 0.197476 0.182008 0.075940
O O5 0.147718 0.816918 0.569142
O O6 0.500000 0.000000 0.500000
O O7 0.151115 0.884378 0.894737
O O8 0.393103 0.779919 0.740154
O O9 0.781582 0.818628 0.376973
O O10 0.726397 0.997067 0.645123
O O11 0.529162 0.925573 0.981053
O O12 0.832950 0.450638 0.448652
O O13 0.912337 0.262395 0.097578
O O14 0.130103 0.336636 0.136386
O O15 0.817173 0.621228 0.630363
O O16 0.500000 0.500000 0.000000
O O17 0.107161 0.801521 0.380350
#
# Coordination Sequence:
#
# PCOD9080981 Si02
#       8
#     2   2   2   2   2   2   2   2
#     4  10  19  33  55  79 109 139 171 221 275 316
#     4  10  19  30  50  81 108 133 169 215 270 328
#     4  10  21  38  53  75 110 148 183 218 257 321
#     4  10  19  36  56  80 106 138 182 218 266 319
#     4  10  21  34  56  81 107 144 173 221 278 310
#     4  11  18  35  59  83 107 136 176 227 273 317
#     4  10  20  35  55  77 109 145 183 218 259 325
#     4  11  21  34  55  82 112 141 169 226 278 307
#
# _framework density 18.944565999999998
#
# number of rings (size 3 to 8) (size 9 to 14) (size 15 to 20)
#    0.000    1.750    3.750    3.000    1.750    0.000 
#    0.000   13.125    0.000    0.750    0.000    0.000 
#    0.000    0.000    0.000    0.000    0.000    0.000 
#
# Total GULP energy -89076.988523 kJ/mol
# GULP energy per Si atom -5567.311783 kJ/mol
# Density = 1.890145 g / cm^3
# Si number density = 18.944566 Si / 1000 Ang^3
#
#
#
# Elastic Constant Matrix: (Units=GPa)
#
#
# Indices 1 2 3 4 5 6 
#
# 1 36.2092 10.9309 31.8818 -9.1143 -8.4756 -3.5000
# 2 10.9309 99.0318 18.0388 -8.6289 11.1321 -16.7614
# 3 31.8818 18.0388 132.3599 -10.2877 -28.6431 -23.1319
# 4 -9.1143 -8.6289 -10.2877 26.5191 0.3939 -2.0528
# 5 -8.4756 11.1321 -28.6431 0.3939 23.3807 -5.5434
# 6 -3.5000 -16.7614 -23.1319 -2.0528 -5.5434 29.6282
#
#
#
# Elastic Compliance Matrix: (Units=1/GPa)
#
#
# Indices 1 2 3 4 5 6 
#
# 1 0.038373 -0.003049 -0.006672 0.009470 0.006922 -0.000450
# 2 -0.003049 0.012661 -0.002012 0.002714 -0.008747 0.003783
# 3 -0.006672 -0.002012 0.018264 0.005111 0.024943 0.017354
# 4 0.009470 0.002714 0.005111 0.044579 0.010420 0.011682
# 5 0.006922 -0.008747 0.024943 0.010420 0.087516 0.032439
# 6 -0.000450 0.003783 0.017354 0.011682 0.032439 0.056266
#
#
# Mechanical properties :
#
#
# Convention : Reuss Voigt Hill
#
# Bulk Modulus (GPa) = 21.81875 43.25598 32.53736
# Shear Modulus (GPa) = 16.86897 29.68890 23.27893
#
# Velocity S-wave (km/s) = 2.98726 3.96301 3.50922
# Velocity P-wave (km/s) = 4.84153 6.61990 5.79929
#
# Compressibility (1/GPa) = 0.04583215
#
# Stress axis : x y z
#
# Youngs Moduli (GPa) = 26.06003 78.98399 54.75214
#
# Poissons Ratio (x) = 0.24085 0.36530
# Poissons Ratio (y) = 0.07947 0.11014
# Poissons Ratio (z) = 0.17387 0.15889
#
# Static dielectric constant tensor:
#      x y z
#    x 1.762480 -0.056060 0.029520 
#    y -0.056060 1.756180 -0.017890 
#    z 0.029520 -0.017890 1.654490 
# 
# From -- ./inp_files/345507.got.cif
#   From: 2010.05.17/outbox.cif.g08.bks.cpg/sg2_173_cif.got.tgz:345507.got - 2010.06.03 11:33:40.
