data_PCOD9080768
_publ_section_title
;
Structure prediction by ZEFSAII (Michael W. Deem and Ramdas Pophale) SiO2 
 PCOD9080768
Probable space group: P -1
;
_chemical_formula_sum "Si O2"
_cell_formula_units_Z 14
_cell_length_a 12.304876
_cell_length_b 10.341123
_cell_length_c 9.753720
_cell_angle_alpha 140.180180
_cell_angle_beta 125.208401
_cell_angle_gamma 62.704369
_cell_volume 649.093240
_symmetry_space_group_name_H-M "P -1"
_symmetry_group_IT_number 2
_symmetry_cell_setting 'triclinic'
loop_
_space_group_symop_operation_xyz
x,y,z
-x,-y,-z
loop_
_atom_site_type_symbol
_atom_site_label
_atom_site_fract_x
_atom_site_fract_y
_atom_site_fract_z
Si Si1 0.911281 0.329033 0.360661
Si Si2 0.529777 0.217364 0.768116
Si Si3 0.539316 0.726990 0.691147
Si Si4 0.821328 0.083835 0.844179
Si Si5 0.924981 0.931689 0.526195
Si Si6 0.629452 0.894192 0.178943
Si Si7 0.305426 0.338104 0.519758
O O1 0.773947 0.451984 0.388215
O O2 0.000000 0.500000 0.500000
O O3 0.981830 0.238063 0.471493
O O4 0.894671 0.157469 0.093583
O O5 0.686512 0.225340 0.862721
O O6 0.477207 0.195231 0.865968
O O7 0.430074 0.367123 0.735593
O O8 0.500000 0.000000 0.500000
O O9 0.500000 0.500000 0.500000
O O10 0.638513 0.739451 0.646586
O O11 0.412032 0.869956 0.677548
O O12 0.608646 0.801992 0.939929
O O13 0.897152 0.093208 0.761726
O O14 0.780130 0.848257 0.636761
O O15 0.777514 0.865223 0.321306
O O16 0.000000 0.000000 0.500000
#
# Coordination Sequence:
#
# PCOD9080768 Si02
#       7
#     2   2   2   2   2   2   2
#     4  12  27  45  70 100 135 186 238 273 328 420
#     4  10  18  43  73  98 126 170 222 289 334 403
#     4  11  26  41  70 104 137 173 218 287 353 402
#     4  11  23  46  75  95 136 184 229 283 350 397
#     4  12  27  46  69  99 141 188 227 278 343 407
#     4  11  23  47  67  97 140 172 221 279 351 397
#     4  11  23  45  68 102 136 171 235 280 339 412
#
# _framework density 21.568549999999998
#
# number of rings (size 3 to 8) (size 9 to 14) (size 15 to 20)
#    0.000    0.857    7.143    0.429    6.000    0.571 
#    7.714    1.429    0.000    0.000    0.000    0.000 
#    0.000    0.000    0.000    0.000    0.000    0.000 
#
# Total GULP energy -78276.108993 kJ/mol
# GULP energy per Si atom -5591.150642 kJ/mol
# Density = 2.151946 g / cm^3
# Si number density = 21.568550 Si / 1000 Ang^3
#
#
#
# Elastic Constant Matrix: (Units=GPa)
#
#
# Indices 1 2 3 4 5 6 
#
# 1 121.7640 72.2406 37.5468 -16.2265 -24.8803 0.9544
# 2 72.2406 180.4614 54.9735 -23.8204 -6.1264 -21.3234
# 3 37.5468 54.9735 75.9643 -14.6300 -10.4450 -2.2011
# 4 -16.2265 -23.8204 -14.6300 40.2661 5.5510 -1.7333
# 5 -24.8803 -6.1264 -10.4450 5.5510 33.6441 -9.7150
# 6 0.9544 -21.3234 -2.2011 -1.7333 -9.7150 53.9623
#
#
#
# Elastic Compliance Matrix: (Units=1/GPa)
#
#
# Indices 1 2 3 4 5 6 
#
# 1 0.013181 -0.004301 -0.002154 0.000859 0.007994 -0.000554
# 2 -0.004301 0.009206 -0.004259 0.002625 -0.002334 0.003204
# 3 -0.002154 -0.004259 0.018225 0.002844 0.002728 -0.000319
# 4 0.000859 0.002625 0.002844 0.028137 -0.002169 0.001651
# 5 0.007994 -0.002334 0.002728 -0.002169 0.038100 0.005837
# 6 -0.000554 0.003204 -0.000319 0.001651 0.005837 0.020898
#
#
# Mechanical properties :
#
#
# Convention : Reuss Voigt Hill
#
# Bulk Modulus (GPa) = 52.12731 78.63462 65.38097
# Shear Modulus (GPa) = 32.13998 39.80310 35.97154
#
# Velocity S-wave (km/s) = 3.86441 4.30050 4.08827
# Velocity P-wave (km/s) = 6.64321 7.82280 7.25701
#
# Compressibility (1/GPa) = 0.01918380
#
# Stress axis : x y z
#
# Youngs Moduli (GPa) = 75.86907 108.61973 54.87115
#
# Poissons Ratio (x) = 0.46716 0.11818
# Poissons Ratio (y) = 0.32631 0.23370
# Poissons Ratio (z) = 0.16341 0.46263
#
# Static dielectric constant tensor:
#      x y z
#    x 1.832820 -0.051140 0.021250 
#    y -0.051140 1.817970 0.017030 
#    z 0.021250 0.017030 1.790340 
# 
# From -- ./inp_files/246165.got.cif
#   From: 2010.05.17/outbox.cif.g08.bks.cpg/sg2_124_cif.got.tgz:246165.got - 2010.06.03 11:33:40.
