data_PCOD9080198
_publ_section_title
;
Structure prediction by ZEFSAII (Michael W. Deem and Ramdas Pophale) SiO2 
 PCOD9080198
Probable space group: P -1
;
_chemical_formula_sum "Si O2"
_cell_formula_units_Z 12
_cell_length_a 15.824848
_cell_length_b 12.549521
_cell_length_c 16.119220
_cell_angle_alpha 156.125262
_cell_angle_beta 26.140082
_cell_angle_gamma 156.478989
_cell_volume 481.011223
_symmetry_space_group_name_H-M "P -1"
_symmetry_group_IT_number 2
_symmetry_cell_setting 'triclinic'
loop_
_space_group_symop_operation_xyz
x,y,z
-x,-y,-z
loop_
_atom_site_type_symbol
_atom_site_label
_atom_site_fract_x
_atom_site_fract_y
_atom_site_fract_z
Si Si1 0.606589 0.123739 0.716753
Si Si2 0.843774 0.954777 0.879059
Si Si3 0.284299 0.671284 0.554670
Si Si4 0.216310 0.342102 0.541719
Si Si5 0.984309 0.726740 0.740525
Si Si6 0.281220 0.364098 0.685864
O O1 0.767478 0.486954 0.816291
O O2 0.529248 0.941357 0.566028
O O3 0.718046 0.957158 0.545410
O O4 0.387412 0.060124 0.913147
O O5 0.760908 0.626880 0.670593
O O6 0.944166 0.944459 0.872820
O O7 0.052866 0.250050 0.857514
O O8 0.166024 0.510042 0.632255
O O9 0.191254 0.842550 0.703680
O O10 0.263809 0.467652 0.683233
O O11 0.460651 0.388159 0.333097
O O12 0.000000 0.000000 0.500000
O O13 0.000000 0.500000 0.500000
#
# Coordination Sequence:
#
# PCOD9080198 Si02
#       6
#     2   2   2   2   2   2
#     4  11  22  41  62  91 125 162 198 248 305 358
#     4  11  22  41  62  92 124 159 204 249 300 358
#     4  10  22  40  63  88 121 163 201 245 305 356
#     4  10  18  38  66  83 120 166 194 249 313 345
#     4  10  20  40  62  89 128 157 199 254 293 358
#     4  10  21  39  61  89 125 154 201 261 290 354
#
# _framework density 24.947441999999999
#
# number of rings (size 3 to 8) (size 9 to 14) (size 15 to 20)
#    0.000    1.667    5.000    0.500    0.000    3.333 
#    6.000    8.333    0.000    0.000    0.000    0.000 
#    0.000    0.000    0.000    0.000    0.000    0.000 
#
# Total GULP energy -66983.947602 kJ/mol
# GULP energy per Si atom -5581.995634 kJ/mol
# Density = 2.489066 g / cm^3
# Si number density = 24.947442 Si / 1000 Ang^3
#
#
#
# Elastic Constant Matrix: (Units=GPa)
#
#
# Indices 1 2 3 4 5 6 
#
# 1 143.0952 -0.1122 32.4383 5.5783 -14.7868 -33.0985
# 2 -0.1122 88.8992 24.7005 -20.2788 -6.7078 -7.9710
# 3 32.4383 24.7005 91.3025 -26.6046 -0.1748 -4.3946
# 4 5.5783 -20.2788 -26.6046 43.5480 7.3585 7.0441
# 5 -14.7868 -6.7078 -0.1748 7.3585 29.1620 1.5475
# 6 -33.0985 -7.9710 -4.3946 7.0441 1.5475 46.0919
#
#
#
# Elastic Compliance Matrix: (Units=1/GPa)
#
#
# Indices 1 2 3 4 5 6 
#
# 1 0.011448 0.001413 -0.006118 -0.007218 0.007451 0.008735
# 2 0.001413 0.013266 -0.003009 0.003295 0.002790 0.002425
# 3 -0.006118 -0.003009 0.017102 0.011695 -0.006385 -0.004856
# 4 -0.007218 0.003295 0.011695 0.035890 -0.011432 -0.008600
# 5 0.007451 0.002790 -0.006385 -0.011432 0.041261 0.005586
# 6 0.008735 0.002425 -0.004856 -0.008600 0.005586 0.029051
#
#
# Mechanical properties :
#
#
# Convention : Reuss Voigt Hill
#
# Bulk Modulus (GPa) = 37.89530 48.59446 43.24488
# Shear Modulus (GPa) = 29.02881 41.51174 35.27028
#
# Velocity S-wave (km/s) = 3.41486 4.08360 3.76411
# Velocity P-wave (km/s) = 5.54719 6.46184 6.02191
#
# Compressibility (1/GPa) = 0.02638850
#
# Stress axis : x y z
#
# Youngs Moduli (GPa) = 87.34978 75.38076 58.47170
#
# Poissons Ratio (x) = -0.10654 0.35775
# Poissons Ratio (y) = -0.12345 0.17594
# Poissons Ratio (z) = 0.53443 0.22682
#
# Static dielectric constant tensor:
#      x y z
#    x 1.965400 0.035350 0.019910 
#    y 0.035350 2.039370 0.021950 
#    z 0.019910 0.021950 2.065800 
# 
# From -- ./inp_files/241429.got.cif
#   From: 2010.05.17/outbox.cif.g08.bks.cpg/sg2_121_cif.got.tgz:241429.got - 2010.06.03 11:33:40.
