data_PCOD9080034
_publ_section_title
;
Structure prediction by ZEFSAII (Michael W. Deem and Ramdas Pophale) SiO2 
 PCOD9080034
Probable space group: P -1
;
_chemical_formula_sum "Si O2"
_cell_formula_units_Z 16
_cell_length_a 6.700648
_cell_length_b 5.520259
_cell_length_c 18.155604
_cell_angle_alpha 88.732188
_cell_angle_beta 89.126896
_cell_angle_gamma 75.762521
_cell_volume 650.743421
_symmetry_space_group_name_H-M "P -1"
_symmetry_group_IT_number 2
_symmetry_cell_setting 'triclinic'
loop_
_space_group_symop_operation_xyz
x,y,z
-x,-y,-z
loop_
_atom_site_type_symbol
_atom_site_label
_atom_site_fract_x
_atom_site_fract_y
_atom_site_fract_z
Si Si1 0.942136 0.283290 0.909828
Si Si2 0.553059 0.863794 0.272913
Si Si3 0.194882 0.704233 0.936128
Si Si4 0.834758 0.363797 0.470176
Si Si5 0.587310 0.350409 0.211071
Si Si6 0.540393 0.175383 0.563197
Si Si7 0.005300 0.792690 0.686537
Si Si8 0.057210 0.694647 0.260244
O O1 0.061962 0.499995 0.923350
O O2 0.882501 0.326672 0.825321
O O3 0.079541 0.995241 0.917289
O O4 0.774374 0.304805 0.975791
O O5 0.488815 0.617140 0.246555
O O6 0.494279 0.929701 0.356976
O O7 0.804332 0.776293 0.266073
O O8 0.488501 0.116692 0.224758
O O9 0.374619 0.630362 0.875935
O O10 0.758298 0.222207 0.538759
O O11 0.633292 0.567025 0.442438
O O12 0.913484 0.212080 0.396992
O O13 0.000000 0.500000 0.500000
O O14 0.807922 0.271698 0.254105
O O15 0.500000 0.000000 0.500000
O O16 0.890973 0.569492 0.696649
O O17 0.882032 0.069092 0.706061
#
# Coordination Sequence:
#
# PCOD9080034 Si02
#       8
#     2   2   2   2   2   2   2   2
#     4  10  16  22  34  59  93 136 171 215 267 324
#     4  10  18  28  50  69  95 132 186 218 270 338
#     4  10  16  22  34  58  96 133 172 215 269 320
#     4  11  25  41  59  86 116 150 196 249 298 349
#     4  10  15  28  44  69  95 138 180 221 269 336
#     4  11  23  40  61  83 112 153 195 241 298 359
#     4  10  18  31  49  69  97 136 182 221 278 338
#     4  10  15  28  45  68  96 137 183 219 271 337
#
# _framework density 24.587264000000001
#
# number of rings (size 3 to 8) (size 9 to 14) (size 15 to 20)
#    0.000    1.750    7.500    1.500    1.750    0.500 
#    0.000    0.000    0.000    0.000    0.000    0.000 
#    0.000    0.000    0.000   12.375    0.000    1.500 
#
# Total GULP energy -89486.178421 kJ/mol
# GULP energy per Si atom -5592.886151 kJ/mol
# Density = 2.453130 g / cm^3
# Si number density = 24.587264 Si / 1000 Ang^3
#
#
#
# Elastic Constant Matrix: (Units=GPa)
#
#
# Indices 1 2 3 4 5 6 
#
# 1 58.4660 21.4506 34.1605 -7.0125 -1.5948 3.7471
# 2 21.4506 198.4716 41.3107 12.9931 -14.7027 11.0540
# 3 34.1605 41.3107 201.2213 13.2578 -31.6648 -7.5035
# 4 -7.0125 12.9931 13.2578 48.9708 2.0833 -8.3995
# 5 -1.5948 -14.7027 -31.6648 2.0833 26.3819 2.4648
# 6 3.7471 11.0540 -7.5035 -8.3995 2.4648 38.3893
#
#
#
# Elastic Compliance Matrix: (Units=1/GPa)
#
#
# Indices 1 2 3 4 5 6 
#
# 1 0.020844 -0.002010 -0.004311 0.004755 -0.005325 -0.000916
# 2 -0.002010 0.005824 -0.000290 -0.002273 0.003165 -0.002238
# 3 -0.004311 -0.000290 0.007308 -0.002745 0.008492 0.000787
# 4 0.004755 -0.002273 -0.002745 0.023630 -0.006631 0.005250
# 5 -0.005325 0.003165 0.008492 -0.006631 0.050382 -0.003417
# 6 -0.000916 -0.002238 0.000787 0.005250 -0.003417 0.028305
#
#
# Mechanical properties :
#
#
# Convention : Reuss Voigt Hill
#
# Bulk Modulus (GPa) = 48.18634 72.44473 60.31553
# Shear Modulus (GPa) = 31.96255 46.83086 39.39670
#
# Velocity S-wave (km/s) = 3.60941 4.36900 4.00724
# Velocity P-wave (km/s) = 6.08368 7.41479 6.78197
#
# Compressibility (1/GPa) = 0.02075277
#
# Stress axis : x y z
#
# Youngs Moduli (GPa) = 47.97492 171.70234 136.84290
#
# Poissons Ratio (x) = 0.34515 0.58997
# Poissons Ratio (y) = 0.09644 0.03970
# Poissons Ratio (z) = 0.20683 0.04981
#
# Static dielectric constant tensor:
#      x y z
#    x 2.003920 -0.002010 -0.015550 
#    y -0.002010 1.982090 -0.009280 
#    z -0.015550 -0.009280 1.857360 
# 
# From -- ./inp_files/552686.got.cif
#   From: 2010.05.17/outbox.cif.g08.bks.cpg/sg2_277_cif.got.tgz:552686.got - 2010.06.03 11:33:40.
