data_PCOD9080301
_publ_section_title
;
Structure prediction by ZEFSAII (Michael W. Deem and Ramdas Pophale) SiO2 
 PCOD9080301
Probable space group: P -1
;
_chemical_formula_sum "Si O2"
_cell_formula_units_Z 15
_cell_length_a 11.876546
_cell_length_b 8.407720
_cell_length_c 12.355491
_cell_angle_alpha 63.650927
_cell_angle_beta 33.027971
_cell_angle_gamma 69.290064
_cell_volume 602.160256
_symmetry_space_group_name_H-M "P -1"
_symmetry_group_IT_number 2
_symmetry_cell_setting 'triclinic'
loop_
_space_group_symop_operation_xyz
x,y,z
-x,-y,-z
loop_
_atom_site_type_symbol
_atom_site_label
_atom_site_fract_x
_atom_site_fract_y
_atom_site_fract_z
Si Si1 0.304496 0.620137 0.604415
Si Si2 0.841798 0.142554 0.900199
Si Si3 0.265117 0.507515 0.228879
Si Si4 0.426693 0.963100 0.269267
Si Si5 0.916004 0.656309 0.783796
Si Si6 0.709296 0.352367 0.157014
Si Si7 0.000000 0.000000 0.500000
Si Si8 0.717737 0.755821 0.530149
O O1 0.500000 0.500000 0.500000
O O2 0.117480 0.558213 0.694738
O O3 0.199310 0.653636 0.795534
O O4 0.391074 0.798020 0.426037
O O5 0.801954 0.294471 0.797012
O O6 0.087826 0.130123 0.704395
O O7 0.674192 0.989780 0.050980
O O8 0.794042 0.229016 0.030417
O O9 0.237273 0.432471 0.393497
O O10 0.134178 0.383514 0.288918
O O11 0.500000 0.500000 0.000000
O O12 0.254943 0.958948 0.314444
O O13 0.366062 0.138244 0.331483
O O14 0.960527 0.866409 0.677727
O O15 0.734395 0.553904 0.029048
O O16 0.472181 0.283194 0.383708
#
# Coordination Sequence:
#
# PCOD9080301 Si02
#       8
#     2   2   2   2   2   2   1   2
#     4  11  26  46  66  91 135 184 228 262 322 403
#     4  10  22  38  66 102 129 170 217 271 336 387
#     4  11  17  37  66  99 136 164 210 272 336 396
#     4  10  22  44  65  97 136 169 218 281 328 384
#     4  10  20  39  68  94 129 171 212 272 329 383
#     4  10  23  42  67  93 131 174 223 270 319 389
#     4  10  18  38  70  90 134 174 204 270 342 382
#     4  11  21  39  70 100 132 170 213 279 337 387
#
# _framework density 24.910312000000001
#
# number of rings (size 3 to 8) (size 9 to 14) (size 15 to 20)
#    0.000    1.600    5.333    0.800    3.733    2.133 
#    7.200    2.000    0.000    0.000    0.000    0.000 
#    0.000    0.000    0.000    0.000    0.000    0.000 
#
# Total GULP energy -83525.205666 kJ/mol
# GULP energy per Si atom -5568.347044 kJ/mol
# Density = 2.485361 g / cm^3
# Si number density = 24.910312 Si / 1000 Ang^3
#
#
#
# Elastic Constant Matrix: (Units=GPa)
#
#
# Indices 1 2 3 4 5 6 
#
# 1 113.0028 11.0013 30.8213 14.7357 -11.6058 -9.8262
# 2 11.0013 41.4873 11.7692 -3.2007 4.2167 -19.5946
# 3 30.8213 11.7692 165.4705 7.1208 -26.4152 0.1343
# 4 14.7357 -3.2007 7.1208 30.5276 -3.4002 2.2405
# 5 -11.6058 4.2167 -26.4152 -3.4002 30.4809 1.8517
# 6 -9.8262 -19.5946 0.1343 2.2405 1.8517 29.0123
#
#
#
# Elastic Compliance Matrix: (Units=1/GPa)
#
#
# Indices 1 2 3 4 5 6 
#
# 1 0.010473 -0.001887 -0.001209 -0.004875 0.002506 0.002495
# 2 -0.001887 0.039939 -0.004458 0.002895 -0.011416 0.026861
# 3 -0.001209 -0.004458 0.007737 -0.000623 0.007026 -0.003856
# 4 -0.004875 0.002895 -0.000623 0.035898 0.001363 -0.002552
# 5 0.002506 -0.011416 0.007026 0.001363 0.042171 -0.009691
# 6 0.002495 0.026861 -0.003856 -0.002552 -0.009691 0.054288
#
#
# Mechanical properties :
#
#
# Convention : Reuss Voigt Hill
#
# Bulk Modulus (GPa) = 23.23309 47.46047 35.34678
# Shear Modulus (GPa) = 22.73141 35.76207 29.24674
#
# Velocity S-wave (km/s) = 3.02409 3.79309 3.43020
# Velocity P-wave (km/s) = 4.64117 6.18686 5.46890
#
# Compressibility (1/GPa) = 0.04304205
#
# Stress axis : x y z
#
# Youngs Moduli (GPa) = 95.48650 25.03832 129.24543
#
# Poissons Ratio (x) = 0.04724 0.15623
# Poissons Ratio (y) = 0.18014 0.57618
# Poissons Ratio (z) = 0.11542 0.11162
#
# Static dielectric constant tensor:
#      x y z
#    x 1.966420 0.069460 -0.065030 
#    y 0.069460 2.286380 -0.074620 
#    z -0.065030 -0.074620 2.119590 
# 
# From -- ./inp_files/517655.got.cif
#   From: 2010.05.17/outbox.cif.g08.bks.cpg/sg2_259_cif.got.tgz:517655.got - 2010.06.03 11:33:40.
