data_PCOD9080533
_publ_section_title
;
Structure prediction by ZEFSAII (Michael W. Deem and Ramdas Pophale) SiO2 
 PCOD9080533
Probable space group: P -1
;
_chemical_formula_sum "Si O2"
_cell_formula_units_Z 15
_cell_length_a 19.099292
_cell_length_b 8.021761
_cell_length_c 11.729095
_cell_angle_alpha 111.189812
_cell_angle_beta 147.215691
_cell_angle_gamma 47.522688
_cell_volume 614.522758
_symmetry_space_group_name_H-M "P -1"
_symmetry_group_IT_number 2
_symmetry_cell_setting 'triclinic'
loop_
_space_group_symop_operation_xyz
x,y,z
-x,-y,-z
loop_
_atom_site_type_symbol
_atom_site_label
_atom_site_fract_x
_atom_site_fract_y
_atom_site_fract_z
Si Si1 0.608015 0.533115 0.230829
Si Si2 0.886959 0.499380 0.514974
Si Si3 0.294440 0.505818 0.180915
Si Si4 0.538602 0.338313 0.281276
Si Si5 0.882780 0.826673 0.767000
Si Si6 0.617710 0.068434 0.673198
Si Si7 0.500000 0.000000 0.000000
Si Si8 0.296899 0.097878 0.002233
O O1 0.810685 0.387121 0.427761
O O2 0.602918 0.445697 0.324288
O O3 0.500000 0.500000 0.000000
O O4 0.482872 0.844620 0.125911
O O5 0.899804 0.622609 0.670855
O O6 0.102936 0.257287 0.710997
O O7 0.732328 0.735691 0.275951
O O8 0.350865 0.559603 0.158852
O O9 0.456452 0.353536 0.461611
O O10 0.314258 0.286164 0.101861
O O11 0.084136 0.722954 0.000469
O O12 0.713784 0.107418 0.545285
O O13 0.507471 0.196806 0.122714
O O14 0.801049 0.873913 0.792826
O O15 0.500000 0.000000 0.500000
O O16 0.692684 0.014460 0.890749
#
# Coordination Sequence:
#
# PCOD9080533 Si02
#       8
#     2   2   2   2   2   2   1   2
#     4  12  24  40  58  82 122 163 195 247 298 345
#     4  10  21  38  60  87 119 152 197 243 291 357
#     4   9  19  37  62  90 118 153 196 246 290 356
#     4  10  21  37  59  83 118 156 198 246 291 348
#     4   9  19  37  61  92 117 153 198 239 299 345
#     4   9  17  33  62  92 122 148 189 248 295 348
#     4  10  18  40  60  82 112 154 196 252 292 334
#     4  10  22  38  59  92 117 154 198 241 294 355
#
# _framework density 24.409185000000001
#
# number of rings (size 3 to 8) (size 9 to 14) (size 15 to 20)
#    0.000    2.133    1.333    3.200    0.000    7.467 
#    2.400    5.333    0.000    4.800    0.000    0.000 
#    0.000    0.000    0.000    0.000    0.000    0.000 
#
# Total GULP energy -83622.681234 kJ/mol
# GULP energy per Si atom -5574.845416 kJ/mol
# Density = 2.435363 g / cm^3
# Si number density = 24.409185 Si / 1000 Ang^3
#
#
#
# Elastic Constant Matrix: (Units=GPa)
#
#
# Indices 1 2 3 4 5 6 
#
# 1 135.0842 6.5400 45.4694 -3.0193 30.0972 -7.3265
# 2 6.5400 64.8496 11.6514 6.8835 16.6458 12.1355
# 3 45.4694 11.6514 120.4104 2.3278 12.7957 -5.5902
# 4 -3.0193 6.8835 2.3278 23.2830 2.2907 7.9322
# 5 30.0972 16.6458 12.7957 2.2907 32.0449 -2.0949
# 6 -7.3265 12.1355 -5.5902 7.9322 -2.0949 33.4493
#
#
#
# Elastic Compliance Matrix: (Units=1/GPa)
#
#
# Indices 1 2 3 4 5 6 
#
# 1 0.010614 0.001778 -0.003181 0.002119 -0.009771 0.000034
# 2 0.001778 0.020186 -0.001679 -0.001842 -0.011845 -0.007520
# 3 -0.003181 -0.001679 0.009768 -0.001569 0.000198 0.001930
# 4 0.002119 -0.001842 -0.001569 0.048057 -0.004548 -0.010811
# 5 -0.009771 -0.011845 0.000198 -0.004548 0.047189 0.006224
# 6 0.000034 -0.007520 0.001930 -0.010811 0.006224 0.035908
#
#
# Mechanical properties :
#
#
# Convention : Reuss Voigt Hill
#
# Bulk Modulus (GPa) = 29.06783 49.74061 39.40422
# Shear Modulus (GPa) = 26.40571 34.86765 30.63668
#
# Velocity S-wave (km/s) = 3.29263 3.78360 3.54662
# Velocity P-wave (km/s) = 5.13709 6.28567 5.74018
#
# Compressibility (1/GPa) = 0.03440229
#
# Stress axis : x y z
#
# Youngs Moduli (GPa) = 94.21791 49.53967 102.38013
#
# Poissons Ratio (x) = -0.08809 0.32567
# Poissons Ratio (y) = -0.16753 0.17194
# Poissons Ratio (z) = 0.29971 0.08320
#
# Static dielectric constant tensor:
#      x y z
#    x 3.408970 -0.114290 -0.332520 
#    y -0.114290 2.021240 0.019790 
#    z -0.332520 0.019790 1.948730 
# 
# From -- ./inp_files/397096.got.cif
#   From: 2010.05.17/outbox.cif.g08.bks.cpg/sg2_199_cif.got.tgz:397096.got - 2010.06.03 11:33:40.
