data_PCOD9080467
_publ_section_title
;
Structure prediction by ZEFSAII (Michael W. Deem and Ramdas Pophale) SiO2 
 PCOD9080467
Probable space group: P -1
;
_chemical_formula_sum "Si O2"
_cell_formula_units_Z 14
_cell_length_a 10.734597
_cell_length_b 9.101113
_cell_length_c 14.160916
_cell_angle_alpha 141.176051
_cell_angle_beta 73.286294
_cell_angle_gamma 123.902153
_cell_volume 690.578504
_symmetry_space_group_name_H-M "P -1"
_symmetry_group_IT_number 2
_symmetry_cell_setting 'triclinic'
loop_
_space_group_symop_operation_xyz
x,y,z
-x,-y,-z
loop_
_atom_site_type_symbol
_atom_site_label
_atom_site_fract_x
_atom_site_fract_y
_atom_site_fract_z
Si Si1 0.048251 0.189827 0.180456
Si Si2 0.212852 0.769991 0.814259
Si Si3 0.989442 0.341475 0.018067
Si Si4 0.656395 0.341331 0.889961
Si Si5 0.609643 0.322278 0.603590
Si Si6 0.569546 0.312120 0.390270
Si Si7 0.482681 0.430710 0.112493
O O1 0.217110 0.480559 0.290880
O O2 0.910649 0.243504 0.240774
O O3 0.054931 0.978062 0.145776
O O4 0.000000 0.000000 0.000000
O O5 0.124108 0.662666 0.879913
O O6 0.296806 0.625269 0.682220
O O7 0.347865 0.101018 0.965041
O O8 0.166143 0.512825 0.103507
O O9 0.000000 0.500000 0.000000
O O10 0.564342 0.400519 0.861337
O O11 0.571829 0.011264 0.756992
O O12 0.637684 0.470816 0.055769
O O13 0.630312 0.327081 0.490130
O O14 0.520860 0.468748 0.732002
O O15 0.500000 0.000000 0.500000
O O16 0.500000 0.500000 0.500000
#
# Coordination Sequence:
#
# PCOD9080467 Si02
#       7
#     2   2   2   2   2   2   2
#     4  10  20  40  69  94 128 165 218 267 316 379
#     4  10  21  44  68  87 126 179 215 263 322 384
#     4  11  22  36  67  99 123 162 226 266 312 380
#     4  10  21  38  66  93 126 167 214 268 323 382
#     4  12  23  38  67 102 129 165 218 269 319 385
#     4  11  27  42  60  92 142 173 206 267 340 380
#     4  10  18  39  67  95 116 167 223 265 310 383
#
# _framework density 20.272859
#
# number of rings (size 3 to 8) (size 9 to 14) (size 15 to 20)
#    0.000    1.429    5.714    0.857    2.000    1.714 
#    0.000    3.571    0.000    0.000    0.000    0.000 
#    0.000    0.000    0.000    0.000    0.000    0.000 
#
# Total GULP energy -78093.664339 kJ/mol
# GULP energy per Si atom -5578.118881 kJ/mol
# Density = 2.022672 g / cm^3
# Si number density = 20.272859 Si / 1000 Ang^3
#
#
#
# Elastic Constant Matrix: (Units=GPa)
#
#
# Indices 1 2 3 4 5 6 
#
# 1 88.4810 55.1136 46.7729 9.5003 -23.7923 14.4904
# 2 55.1136 123.0129 36.9142 2.1797 -16.6183 12.5976
# 3 46.7729 36.9142 91.1979 7.1515 -16.0380 14.2116
# 4 9.5003 2.1797 7.1515 31.3208 9.8336 -3.6409
# 5 -23.7923 -16.6183 -16.0380 9.8336 38.2211 -2.2204
# 6 14.4904 12.5976 14.2116 -3.6409 -2.2204 35.9930
#
#
#
# Elastic Compliance Matrix: (Units=1/GPa)
#
#
# Indices 1 2 3 4 5 6 
#
# 1 0.023318 -0.006478 -0.005795 -0.009472 0.011408 -0.005086
# 2 -0.006478 0.011480 -0.001313 0.001375 0.000010 -0.000752
# 3 -0.005795 -0.001313 0.015810 -0.003135 0.003054 -0.003578
# 4 -0.009472 0.001375 -0.003135 0.041618 -0.016872 0.007739
# 5 0.011408 0.000010 0.003054 -0.016872 0.038594 -0.005128
# 6 -0.005086 -0.000752 -0.003578 0.007739 -0.005128 0.031973
#
#
# Mechanical properties :
#
#
# Convention : Reuss Voigt Hill
#
# Bulk Modulus (GPa) = 42.67291 64.47702 53.57497
# Shear Modulus (GPa) = 25.28087 32.03305 28.65696
#
# Velocity S-wave (km/s) = 3.53516 3.97935 3.76382
# Velocity P-wave (km/s) = 6.14477 7.27924 6.73593
#
# Compressibility (1/GPa) = 0.02343407
#
# Stress axis : x y z
#
# Youngs Moduli (GPa) = 42.88446 87.11024 63.25279
#
# Poissons Ratio (x) = 0.56433 0.36658
# Poissons Ratio (y) = 0.27782 0.08305
# Poissons Ratio (z) = 0.24854 0.11438
#
# Static dielectric constant tensor:
#      x y z
#    x 1.760640 -0.026720 -0.015130 
#    y -0.026720 1.795660 -0.036150 
#    z -0.015130 -0.036150 1.729010 
# 
# From -- ./inp_files/513824.got.cif
#   From: 2010.05.17/outbox.cif.g08.bks.cpg/sg2_257_cif.got.tgz:513824.got - 2010.06.03 11:33:40.
