data_PCOD9080850
_publ_section_title
;
Structure prediction by ZEFSAII (Michael W. Deem and Ramdas Pophale) SiO2 
 PCOD9080850
Probable space group: P -1
;
_chemical_formula_sum "Si O2"
_cell_formula_units_Z 16
_cell_length_a 7.956673
_cell_length_b 14.089635
_cell_length_c 9.705736
_cell_angle_alpha 52.048155
_cell_angle_beta 98.124927
_cell_angle_gamma 63.536488
_cell_volume 621.015151
_symmetry_space_group_name_H-M "P -1"
_symmetry_group_IT_number 2
_symmetry_cell_setting 'triclinic'
loop_
_space_group_symop_operation_xyz
x,y,z
-x,-y,-z
loop_
_atom_site_type_symbol
_atom_site_label
_atom_site_fract_x
_atom_site_fract_y
_atom_site_fract_z
Si Si1 0.444740 0.338432 0.038334
Si Si2 0.527672 0.265246 0.423300
Si Si3 0.654611 0.158359 0.946161
Si Si4 0.739337 0.858109 0.506894
Si Si5 0.227766 0.208212 0.149000
Si Si6 0.122438 0.065126 0.058941
Si Si7 0.768231 0.536002 0.549186
Si Si8 0.086925 0.615732 0.561572
O O1 0.552901 0.300542 0.237491
O O2 0.229901 0.349216 0.028164
O O3 0.615636 0.197098 0.069621
O O4 0.310072 0.505939 0.786748
O O5 0.359848 0.229529 0.426496
O O6 0.382230 0.421549 0.370290
O O7 0.748201 0.097008 0.678205
O O8 0.414631 0.308521 0.712006
O O9 0.733296 0.004031 0.004541
O O10 0.862894 0.145914 0.941842
O O11 0.873012 0.803794 0.715189
O O12 0.904751 0.791754 0.456615
O O13 0.503806 0.046230 0.321333
O O14 0.129680 0.189617 0.023405
O O15 0.849526 0.392485 0.582117
O O16 0.960406 0.544994 0.597935
#
# Coordination Sequence:
#
# PCOD9080850 Si02
#       8
#     2   2   2   2   2   2   2   2
#     4  10  19  29  48  79  99 112 154 213 239 260
#     4   8  15  27  44  68  95 118 150 195 238 272
#     4   9  18  31  48  70  94 126 166 194 223 281
#     4   8  15  28  45  67  98 131 154 182 237 297
#     4   9  17  29  47  72  99 121 151 199 243 273
#     4   9  17  32  49  64  95 138 159 178 235 300
#     4   8  15  28  45  65  91 125 160 188 224 281
#     4   9  16  28  48  71  95 126 160 191 231 284
#
# _framework density 25.764268000000001
#
# number of rings (size 3 to 8) (size 9 to 14) (size 15 to 20)
#    0.000    3.250    0.000    1.500    0.000    5.500 
#    0.000    0.000    0.000    3.750    0.000   12.250 
#    0.000    0.000    0.000    0.000    0.000    0.000 
#
# Total GULP energy -89207.401450 kJ/mol
# GULP energy per Si atom -5575.462591 kJ/mol
# Density = 2.570563 g / cm^3
# Si number density = 25.764268 Si / 1000 Ang^3
#
#
#
# Elastic Constant Matrix: (Units=GPa)
#
#
# Indices 1 2 3 4 5 6 
#
# 1 40.7712 10.8172 22.6476 4.4370 7.3547 0.8691
# 2 10.8172 122.5961 49.4141 43.2652 -6.6448 -15.0230
# 3 22.6476 49.4141 113.7325 24.1569 -19.4888 -7.2830
# 4 4.4370 43.2652 24.1569 32.3835 -14.1276 5.7439
# 5 7.3547 -6.6448 -19.4888 -14.1276 1.2679 10.2811
# 6 0.8691 -15.0230 -7.2830 5.7439 10.2811 20.7026
#
#
#
# Elastic Compliance Matrix: (Units=1/GPa)
#
#
# Indices 1 2 3 4 5 6 
#
# 1 0.027137 -0.006855 -0.005533 0.014646 0.005581 -0.014896
# 2 -0.006855 0.012401 0.001294 -0.008020 0.020401 0.001836
# 3 -0.005533 0.001294 0.012356 -0.013163 -0.002571 0.010447
# 4 0.014646 -0.008020 -0.013163 0.028395 -0.046480 0.004139
# 5 0.005581 0.020401 -0.002571 -0.046480 -0.029878 0.041399
# 6 -0.014896 0.001836 0.010447 0.004139 0.041399 0.032228
#
#
# Mechanical properties :
#
#
# Convention : Reuss Voigt Hill
#
# Bulk Modulus (GPa) = 33.66522 49.20640 41.43581
# Shear Modulus (GPa) = 43.58043 23.81885 33.69964
#
# Velocity S-wave (km/s) = 4.11725 3.04384 3.62055
# Velocity P-wave (km/s) = 5.97473 5.61191 5.79616
#
# Compressibility (1/GPa) = 0.02970425
#
# Stress axis : x y z
#
# Youngs Moduli (GPa) = 36.85065 80.63777 80.92959
#
# Poissons Ratio (x) = 0.55281 0.44782
# Poissons Ratio (y) = 0.25263 -0.10471
# Poissons Ratio (z) = 0.20391 -0.10434
#
# Static dielectric constant tensor:
#      x y z
#    x 1.973640 0.047330 -0.063950 
#    y 0.047330 2.132470 0.024060 
#    z -0.063950 0.024060 2.145500 
# 
# From -- ./inp_files/217058.got.cif
#   From: 2010.05.17/outbox.cif.g08.bks.cpg/sg2_109_cif.got.tgz:217058.got - 2010.06.03 11:33:40.
