data_PCOD9080946
_publ_section_title
;
Structure prediction by ZEFSAII (Michael W. Deem and Ramdas Pophale) SiO2 
 PCOD9080946
Probable space group: P -1
;
_chemical_formula_sum "Si O2"
_cell_formula_units_Z 16
_cell_length_a 20.314535
_cell_length_b 7.679726
_cell_length_c 9.095905
_cell_angle_alpha 130.605661
_cell_angle_beta 60.751190
_cell_angle_gamma 142.854945
_cell_volume 649.131866
_symmetry_space_group_name_H-M "P -1"
_symmetry_group_IT_number 2
_symmetry_cell_setting 'triclinic'
loop_
_space_group_symop_operation_xyz
x,y,z
-x,-y,-z
loop_
_atom_site_type_symbol
_atom_site_label
_atom_site_fract_x
_atom_site_fract_y
_atom_site_fract_z
Si Si1 0.109913 0.358695 0.499122
Si Si2 0.262748 0.264872 0.313822
Si Si3 0.481425 0.545789 0.309558
Si Si4 0.958606 0.999878 0.199079
Si Si5 0.227922 0.082898 0.595686
Si Si6 0.643120 0.059139 0.650268
Si Si7 0.115798 0.625353 0.922539
Si Si8 0.396074 0.616175 0.944444
O O1 0.208355 0.391800 0.416688
O O2 0.135780 0.623614 0.728125
O O3 0.000000 0.000000 0.500000
O O4 0.057558 0.272411 0.348719
O O5 0.392150 0.498088 0.296096
O O6 0.231192 0.142075 0.450919
O O7 0.204498 0.966047 0.099872
O O8 0.557485 0.870963 0.507028
O O9 0.414269 0.229340 0.320446
O O10 0.559376 0.534178 0.135225
O O11 0.883449 0.056286 0.301308
O O12 0.889668 0.637781 0.143100
O O13 0.000000 0.000000 0.000000
O O14 0.255590 0.876511 0.470464
O O15 0.324033 0.416058 0.767811
O O16 0.665641 0.356976 0.857615
O O17 0.000000 0.500000 0.000000
O O18 0.500000 0.000000 0.000000
#
# Coordination Sequence:
#
# PCOD9080946 Si02
#       8
#     2   2   2   2   2   2   2   2
#     4  10  19  37  53  74 109 139 182 234 270 314
#     4  11  18  30  54  79 106 140 184 216 281 319
#     4   8  16  24  40  74 104 133 167 221 266 329
#     4  11  23  39  55  78 114 150 185 227 270 322
#     4  10  19  30  48  76 108 149 177 220 274 324
#     4   8  15  27  42  64 111 139 170 209 278 321
#     4  11  20  35  59  77 104 147 183 228 277 316
#     4   9  16  27  43  71 108 141 172 220 275 325
#
# _framework density 24.648302000000001
#
# number of rings (size 3 to 8) (size 9 to 14) (size 15 to 20)
#    0.000    2.250    5.000    2.250    5.250    1.000 
#    0.000    2.500    0.000    0.000    0.000    3.500 
#    0.000    9.500    0.000    0.125    0.000    0.000 
#
# Total GULP energy -89548.492998 kJ/mol
# GULP energy per Si atom -5596.780812 kJ/mol
# Density = 2.459220 g / cm^3
# Si number density = 24.648302 Si / 1000 Ang^3
#
#
#
# Elastic Constant Matrix: (Units=GPa)
#
#
# Indices 1 2 3 4 5 6 
#
# 1 219.8938 50.6712 116.6818 8.0474 -7.5465 25.8132
# 2 50.6712 53.3675 54.4428 8.9744 8.5331 7.5867
# 3 116.6818 54.4428 252.0173 1.6910 -11.4109 21.4007
# 4 8.0474 8.9744 1.6910 48.8670 9.5532 -3.5550
# 5 -7.5465 8.5331 -11.4109 9.5532 45.9156 2.7791
# 6 25.8132 7.5867 21.4007 -3.5550 2.7791 45.5378
#
#
#
# Elastic Compliance Matrix: (Units=1/GPa)
#
#
# Indices 1 2 3 4 5 6 
#
# 1 0.007004 -0.004419 -0.001992 -0.000803 0.001794 -0.002470
# 2 -0.004419 0.029148 -0.004522 -0.003184 -0.006600 -0.000072
# 3 -0.001992 -0.004522 0.006042 0.000488 0.001976 -0.001039
# 4 -0.000803 -0.003184 0.000488 0.022185 -0.004201 0.002745
# 5 0.001794 -0.006600 0.001976 -0.004201 0.024828 -0.002689
# 6 -0.002470 -0.000072 -0.001039 0.002745 -0.002689 0.024239
#
#
# Mechanical properties :
#
#
# Convention : Reuss Voigt Hill
#
# Bulk Modulus (GPa) = 49.19413 107.65225 78.42319
# Shear Modulus (GPa) = 35.18997 48.29627 41.74312
#
# Velocity S-wave (km/s) = 3.78257 4.43133 4.11974
# Velocity P-wave (km/s) = 6.25131 8.36375 7.38347
#
# Compressibility (1/GPa) = 0.02032763
#
# Stress axis : x y z
#
# Youngs Moduli (GPa) = 142.78339 34.30805 165.52047
#
# Poissons Ratio (x) = 0.15159 0.32967
# Poissons Ratio (y) = 0.63089 0.74855
# Poissons Ratio (z) = 0.28438 0.15515
#
# Static dielectric constant tensor:
#      x y z
#    x 1.946840 -0.112460 -0.021770 
#    y -0.112460 2.379360 -0.122370 
#    z -0.021770 -0.122370 1.935070 
# 
# From -- ./inp_files/329567.got.cif
#   From: 2010.05.17/outbox.cif.g08.bks.cpg/sg2_165_cif.got.tgz:329567.got - 2010.06.03 11:33:40.
