data_PCOD9080620
_publ_section_title
;
Structure prediction by ZEFSAII (Michael W. Deem and Ramdas Pophale) SiO2 
 PCOD9080620
Probable space group: P -1
;
_chemical_formula_sum "Si O2"
_cell_formula_units_Z 15
_cell_length_a 7.721084
_cell_length_b 15.471994
_cell_length_c 6.422981
_cell_angle_alpha 125.770920
_cell_angle_beta 71.772479
_cell_angle_gamma 107.384286
_cell_volume 584.582961
_symmetry_space_group_name_H-M "P -1"
_symmetry_group_IT_number 2
_symmetry_cell_setting 'triclinic'
loop_
_space_group_symop_operation_xyz
x,y,z
-x,-y,-z
loop_
_atom_site_type_symbol
_atom_site_label
_atom_site_fract_x
_atom_site_fract_y
_atom_site_fract_z
Si Si1 0.929966 0.923994 0.108209
Si Si2 0.146578 0.694871 0.237701
Si Si3 0.416870 0.664247 0.714492
Si Si4 0.470866 0.813365 0.540853
Si Si5 0.161497 0.515738 0.296197
Si Si6 0.500000 0.000000 0.500000
Si Si7 0.811978 0.099107 0.653862
Si Si8 0.721751 0.699957 0.975635
O O1 0.099832 0.933439 0.217077
O O2 0.776737 0.990266 0.365241
O O3 0.855739 0.797796 0.950242
O O4 0.000000 0.000000 0.000000
O O5 0.267730 0.760621 0.467949
O O6 0.097406 0.583626 0.223384
O O7 0.052093 0.797403 0.337934
O O8 0.252584 0.668454 0.949733
O O9 0.481647 0.773567 0.715231
O O10 0.338998 0.580292 0.442833
O O11 0.587114 0.644350 0.766719
O O12 0.498773 0.937537 0.647735
O O13 0.611054 0.756329 0.268745
O O14 0.195869 0.394564 0.068832
O O15 0.000000 0.500000 0.500000
O O16 0.602640 0.115511 0.731722
#
# Coordination Sequence:
#
# PCOD9080620 Si02
#       8
#     2   2   2   2   2   1   2   2
#     4  11  26  42  66  98 135 180 217 269 336 398
#     4   9  22  43  66  97 129 171 219 272 328 393
#     4  10  23  43  69  97 126 179 216 273 334 387
#     4   9  20  40  67  93 132 164 222 274 317 389
#     4  11  26  44  67  98 135 169 220 281 330 390
#     4  10  18  40  66  96 124 174 212 268 328 384
#     4  10  23  43  65  94 138 168 220 276 326 392
#     4  11  24  44  66  99 127 178 227 264 330 400
#
# _framework density 25.659313999999998
#
# number of rings (size 3 to 8) (size 9 to 14) (size 15 to 20)
#    0.000    1.867    1.333    0.400    5.600    8.533 
#    0.000    2.667    0.000    0.000    0.000    0.000 
#    0.000    0.000    0.000    0.000    0.000    0.000 
#
# Total GULP energy -83507.547892 kJ/mol
# GULP energy per Si atom -5567.169859 kJ/mol
# Density = 2.560091 g / cm^3
# Si number density = 25.659314 Si / 1000 Ang^3
#
#
#
# Elastic Constant Matrix: (Units=GPa)
#
#
# Indices 1 2 3 4 5 6 
#
# 1 69.5178 38.9528 12.8074 -2.0980 16.1769 -7.4720
# 2 38.9528 256.0516 49.0944 -24.2236 7.2118 -34.2081
# 3 12.8074 49.0944 52.8673 -6.6570 10.1422 -3.2235
# 4 -2.0980 -24.2236 -6.6570 55.9833 1.4491 12.0659
# 5 16.1769 7.2118 10.1422 1.4491 22.3184 5.0413
# 6 -7.4720 -34.2081 -3.2235 12.0659 5.0413 50.6752
#
#
#
# Elastic Compliance Matrix: (Units=1/GPa)
#
#
# Indices 1 2 3 4 5 6 
#
# 1 0.019098 -0.002223 0.000202 -0.000471 -0.013821 0.002815
# 2 -0.002223 0.005556 -0.004534 0.001160 0.001182 0.002740
# 3 0.000202 -0.004534 0.025136 0.001463 -0.010022 -0.000783
# 4 -0.000471 0.001160 0.001463 0.019345 -0.001121 -0.003688
# 5 -0.013821 0.001182 -0.010022 -0.001121 0.060799 -0.007659
# 6 0.002815 0.002740 -0.000783 -0.003688 -0.007659 0.023588
#
#
# Mechanical properties :
#
#
# Convention : Reuss Voigt Hill
#
# Bulk Modulus (GPa) = 27.26408 64.46068 45.86238
# Shear Modulus (GPa) = 27.95503 44.30086 36.12795
#
# Velocity S-wave (km/s) = 3.30429 4.15963 3.75638
# Velocity P-wave (km/s) = 5.02058 6.94595 6.06022
#
# Compressibility (1/GPa) = 0.03667829
#
# Stress axis : x y z
#
# Youngs Moduli (GPa) = 52.36171 179.99885 39.78349
#
# Poissons Ratio (x) = 0.40018 -0.00803
# Poissons Ratio (y) = 0.11641 0.18039
# Poissons Ratio (z) = -0.01057 0.81615
#
# Static dielectric constant tensor:
#      x y z
#    x -0.519630 -0.202880 0.725970 
#    y -0.202880 2.137330 0.082060 
#    z 0.725970 0.082060 1.862590 
# 
# From -- ./inp_files/40194.got.cif
#   From: 2010.05.17/outbox.cif.g08.bks.cpg/sg2_21_cif.got.tgz:40194.got - 2010.06.03 11:33:40.
