data_PCOD9080435
_publ_section_title
;
Structure prediction by ZEFSAII (Michael W. Deem and Ramdas Pophale) SiO2 
 PCOD9080435
Probable space group: P -1
;
_chemical_formula_sum "Si O2"
_cell_formula_units_Z 14
_cell_length_a 11.958632
_cell_length_b 10.218031
_cell_length_c 8.668372
_cell_angle_alpha 43.988254
_cell_angle_beta 56.568170
_cell_angle_gamma 58.098782
_cell_volume 597.773888
_symmetry_space_group_name_H-M "P -1"
_symmetry_group_IT_number 2
_symmetry_cell_setting 'triclinic'
loop_
_space_group_symop_operation_xyz
x,y,z
-x,-y,-z
loop_
_atom_site_type_symbol
_atom_site_label
_atom_site_fract_x
_atom_site_fract_y
_atom_site_fract_z
Si Si1 0.931907 0.802754 0.886296
Si Si2 0.902312 0.513720 0.414957
Si Si3 0.553976 0.190089 0.756935
Si Si4 0.234284 0.807270 0.181716
Si Si5 0.814757 0.997266 0.522538
Si Si6 0.404284 0.258189 0.521624
Si Si7 0.349562 0.885963 0.740253
O O1 0.069816 0.882014 0.697767
O O2 0.823298 0.969648 0.919315
O O3 0.870519 0.815438 0.747959
O O4 0.945195 0.616819 0.142607
O O5 0.876696 0.303054 0.577000
O O6 0.749479 0.627503 0.486917
O O7 0.000000 0.500000 0.500000
O O8 0.614508 0.270105 0.793817
O O9 0.690636 0.129839 0.600534
O O10 0.440927 0.305558 0.628584
O O11 0.500000 0.000000 0.000000
O O12 0.250999 0.790412 0.000377
O O13 0.742455 0.975929 0.433921
O O14 0.528222 0.269541 0.301574
O O15 0.408631 0.028650 0.687943
#
# Coordination Sequence:
#
# PCOD9080435 Si02
#       7
#     2   2   2   2   2   2   2
#     4  10  21  44  60  91 130 170 212 258 305 382
#     4  12  26  41  64  96 130 168 213 262 311 381
#     4  10  18  39  65  93 123 163 211 261 309 381
#     4  11  23  39  69  96 124 171 211 255 326 369
#     4   9  20  35  68  90 125 169 209 256 317 372
#     4  10  21  38  61  93 128 163 209 259 315 369
#     4  10  19  37  67  96 118 168 210 256 324 368
#
# _framework density 23.420226
#
# number of rings (size 3 to 8) (size 9 to 14) (size 15 to 20)
#    0.000    1.714    2.857    1.714    2.000    2.286 
#    0.000    6.429    9.429    0.000    0.000    0.000 
#    0.000    0.000    0.000    0.000    0.000    0.000 
#
# Total GULP energy -78134.537246 kJ/mol
# GULP energy per Si atom -5581.038375 kJ/mol
# Density = 2.336692 g / cm^3
# Si number density = 23.420226 Si / 1000 Ang^3
#
#
#
# Elastic Constant Matrix: (Units=GPa)
#
#
# Indices 1 2 3 4 5 6 
#
# 1 147.7658 8.1290 51.6099 5.4802 29.9734 -10.6290
# 2 8.1290 43.8315 22.4571 10.6133 8.1218 -16.0261
# 3 51.6099 22.4571 174.8007 12.9184 16.8275 -3.0929
# 4 5.4802 10.6133 12.9184 34.8298 -2.3594 -6.2953
# 5 29.9734 8.1218 16.8275 -2.3594 40.1058 4.5628
# 6 -10.6290 -16.0261 -3.0929 -6.2953 4.5628 33.2827
#
#
#
# Elastic Compliance Matrix: (Units=1/GPa)
#
#
# Indices 1 2 3 4 5 6 
#
# 1 0.009232 0.002795 -0.002231 -0.001082 -0.007147 0.004862
# 2 0.002795 0.033719 -0.003390 -0.007082 -0.009825 0.016821
# 3 -0.002231 -0.003390 0.006938 -0.001569 -0.000429 -0.001938
# 4 -0.001082 -0.007082 -0.001569 0.032216 0.004619 0.001559
# 5 -0.007147 -0.009825 -0.000429 0.004619 0.033949 -0.010834
# 6 0.004862 0.016821 -0.001938 0.001559 -0.010834 0.041298
#
#
# Mechanical properties :
#
#
# Convention : Reuss Voigt Hill
#
# Bulk Modulus (GPa) = 22.60577 58.97665 40.79121
# Shear Modulus (GPa) = 28.12929 40.59045 34.35987
#
# Velocity S-wave (km/s) = 3.46940 4.16761 3.83443
# Velocity P-wave (km/s) = 5.07171 6.95667 6.08759
#
# Compressibility (1/GPa) = 0.04423650
#
# Stress axis : x y z
#
# Youngs Moduli (GPa) = 108.31402 29.65678 144.13458
#
# Poissons Ratio (x) = -0.08288 0.32155
# Poissons Ratio (y) = -0.30271 0.48865
# Poissons Ratio (z) = 0.24164 0.10054
#
# Static dielectric constant tensor:
#      x y z
#    x 1.949680 0.017920 0.031390 
#    y 0.017920 1.920160 -0.019210 
#    z 0.031390 -0.019210 1.969190 
# 
# From -- ./inp_files/255655.got.cif
#   From: 2010.05.17/outbox.cif.g08.bks.cpg/sg2_128_cif.got.tgz:255655.got - 2010.06.03 11:33:40.
