data_PCOD9080877
_publ_section_title
;
Structure prediction by ZEFSAII (Michael W. Deem and Ramdas Pophale) SiO2 
 PCOD9080877
Probable space group: P -1
;
_chemical_formula_sum "Si O2"
_cell_formula_units_Z 16
_cell_length_a 25.630204
_cell_length_b 12.120137
_cell_length_c 5.157728
_cell_angle_alpha 101.439301
_cell_angle_beta 86.422652
_cell_angle_gamma 38.428960
_cell_volume 911.568930
_symmetry_space_group_name_H-M "P -1"
_symmetry_group_IT_number 2
_symmetry_cell_setting 'triclinic'
loop_
_space_group_symop_operation_xyz
x,y,z
-x,-y,-z
loop_
_atom_site_type_symbol
_atom_site_label
_atom_site_fract_x
_atom_site_fract_y
_atom_site_fract_z
Si Si1 0.972138 0.121196 0.315818
Si Si2 0.592069 0.420298 0.686454
Si Si3 0.302399 0.789639 0.938922
Si Si4 0.851827 0.083396 0.798829
Si Si5 0.615656 0.762583 0.593745
Si Si6 0.403565 0.809272 0.713119
Si Si7 0.204177 0.676865 0.573136
Si Si8 0.588812 0.949405 0.197966
O O1 0.864273 0.309797 0.434504
O O2 0.000000 0.000000 0.500000
O O3 0.039722 0.108624 0.302693
O O4 0.000000 0.000000 0.000000
O O5 0.632605 0.369150 0.929410
O O6 0.496832 0.643447 0.766391
O O7 0.579017 0.308356 0.585192
O O8 0.664127 0.324042 0.394283
O O9 0.202654 0.933938 0.125091
O O10 0.326402 0.878448 0.928258
O O11 0.821192 0.190801 0.585140
O O12 0.818153 0.227571 0.100046
O O13 0.694353 0.542413 0.555570
O O14 0.632177 0.790849 0.323374
O O15 0.519284 0.870425 0.652173
O O16 0.607810 0.872112 0.867419
O O17 0.381790 0.974296 0.730542
#
# Coordination Sequence:
#
# PCOD9080877 Si02
#       8
#     2   2   2   2   2   2   2   2
#     4   8  16  30  46  72  97 124 151 184 240 290
#     4   9  20  31  45  71  92 121 162 186 229 306
#     4  10  19  30  44  75  94 120 155 182 234 304
#     4  10  19  29  51  76 103 122 149 195 239 290
#     4  10  22  36  46  72  87 128 173 195 227 276
#     4   9  21  32  50  63  98 123 154 200 239 272
#     4  10  19  33  51  69 100 131 156 193 235 283
#     4  10  22  35  49  64  98 123 164 208 229 257
#
# _framework density 17.552156
#
# number of rings (size 3 to 8) (size 9 to 14) (size 15 to 20)
#    0.750    1.750    0.000    1.875    5.250    0.000 
#    0.000    0.000    0.000    0.000    0.000    1.750 
#    0.000    0.000    0.000    0.000    0.000    0.000 
#
# Total GULP energy -89073.475737 kJ/mol
# GULP energy per Si atom -5567.092234 kJ/mol
# Density = 1.751221 g / cm^3
# Si number density = 17.552156 Si / 1000 Ang^3
#
#
#
# Elastic Constant Matrix: (Units=GPa)
#
#
# Indices 1 2 3 4 5 6 
#
# 1 63.2671 7.6366 3.5526 -3.3582 -16.9777 2.6813
# 2 7.6366 32.3125 8.5150 -11.6775 5.6634 -5.3113
# 3 3.5526 8.5150 49.9188 -22.0699 -4.0971 -2.4995
# 4 -3.3582 -11.6775 -22.0699 22.5024 -4.4506 2.8322
# 5 -16.9777 5.6634 -4.0971 -4.4506 21.3853 -1.1976
# 6 2.6813 -5.3113 -2.4995 2.8322 -1.1976 17.6363
#
#
#
# Elastic Compliance Matrix: (Units=1/GPa)
#
#
# Indices 1 2 3 4 5 6 
#
# 1 0.023793 -0.008533 0.006210 0.010689 0.024262 -0.005376
# 2 -0.008533 0.043386 0.000297 0.017426 -0.013984 0.010657
# 3 0.006210 0.000297 0.042132 0.046996 0.022654 -0.000892
# 4 0.010689 0.017426 0.046996 0.108743 0.035237 -0.004787
# 5 0.024262 -0.013984 0.022654 0.035237 0.081128 -0.004839
# 6 -0.005376 0.010657 -0.000892 -0.004787 -0.004839 0.061042
#
#
# Mechanical properties :
#
#
# Convention : Reuss Voigt Hill
#
# Bulk Modulus (GPa) = 9.50035 20.54520 15.02277
# Shear Modulus (GPa) = 12.51991 20.69109 16.60550
#
# Velocity S-wave (km/s) = 2.67366 3.43714 3.07916
# Velocity P-wave (km/s) = 3.86726 5.24238 4.60642
#
# Compressibility (1/GPa) = 0.10525926
#
# Stress axis : x y z
#
# Youngs Moduli (GPa) = 42.02891 23.04866 23.73467
#
# Poissons Ratio (x) = 0.19667 -0.14739
# Poissons Ratio (y) = 0.35863 -0.00704
# Poissons Ratio (z) = -0.26100 -0.00684
#
# Static dielectric constant tensor:
#      x y z
#    x 1.677650 -0.028710 -0.035070 
#    y -0.028710 1.562210 -0.014710 
#    z -0.035070 -0.014710 1.616330 
# 
# From -- ./inp_files/123458.got.cif
#   From: 2010.05.17/outbox.cif.g08.bks.cpg/sg2_62_cif.got.tgz:123458.got - 2010.06.03 11:33:40.
