data_PCOD9080508
_publ_section_title
;
Structure prediction by ZEFSAII (Michael W. Deem and Ramdas Pophale) SiO2 
 PCOD9080508
Probable space group: P -1
;
_chemical_formula_sum "Si O2"
_cell_formula_units_Z 14
_cell_length_a 13.391571
_cell_length_b 7.645703
_cell_length_c 13.530261
_cell_angle_alpha 98.289815
_cell_angle_beta 58.313527
_cell_angle_gamma 141.015524
_cell_volume 645.066812
_symmetry_space_group_name_H-M "P -1"
_symmetry_group_IT_number 2
_symmetry_cell_setting 'triclinic'
loop_
_space_group_symop_operation_xyz
x,y,z
-x,-y,-z
loop_
_atom_site_type_symbol
_atom_site_label
_atom_site_fract_x
_atom_site_fract_y
_atom_site_fract_z
Si Si1 0.598350 0.895278 0.213535
Si Si2 0.923803 0.008706 0.768966
Si Si3 0.103273 0.721085 0.343679
Si Si4 0.102296 0.285639 0.406889
Si Si5 0.476680 0.927860 0.891556
Si Si6 0.223841 0.247601 0.956288
Si Si7 0.735577 0.281632 0.358357
O O1 0.346751 0.597352 0.339078
O O2 0.632211 0.047647 0.107394
O O3 0.725800 0.152199 0.254831
O O4 0.660582 0.770865 0.157918
O O5 0.156386 0.390793 0.691480
O O6 0.817249 0.017158 0.749396
O O7 0.105897 0.601626 0.633265
O O8 0.812782 0.852702 0.918793
O O9 0.080030 0.185096 0.299078
O O10 0.032184 0.717792 0.483534
O O11 0.289898 0.814559 0.254777
O O12 0.000000 0.000000 0.500000
O O13 0.349800 0.588519 0.914306
O O14 0.500000 0.000000 0.000000
O O15 0.000000 0.000000 0.000000
O O16 0.500000 0.000000 0.500000
#
# Coordination Sequence:
#
# PCOD9080508 Si02
#       7
#     2   2   2   2   2   2   2
#     4  12  25  43  71  96 139 178 220 282 338 390
#     4   9  20  38  67  95 135 174 219 279 333 386
#     4   9  21  39  69  98 133 171 225 273 334 399
#     4  10  18  39  69  98 131 172 219 281 336 388
#     4  12  27  44  69 102 134 181 230 272 329 404
#     4  12  27  45  66 100 139 179 227 275 335 403
#     4  10  20  41  68  99 134 178 218 277 340 398
#
# _framework density 21.703178000000001
#
# number of rings (size 3 to 8) (size 9 to 14) (size 15 to 20)
#    0.857    0.571    1.429    4.286    2.000    3.429 
#    0.000    0.000    0.000    5.143    0.000    0.000 
#    0.000    0.000    0.000    0.000    0.000    0.000 
#
# Total GULP energy -78232.507678 kJ/mol
# GULP energy per Si atom -5588.036263 kJ/mol
# Density = 2.165378 g / cm^3
# Si number density = 21.703178 Si / 1000 Ang^3
#
#
#
# Elastic Constant Matrix: (Units=GPa)
#
#
# Indices 1 2 3 4 5 6 
#
# 1 79.8803 40.8913 14.0761 11.7865 -10.6985 -2.4341
# 2 40.8913 143.1113 11.9599 16.9421 -12.8495 13.3572
# 3 14.0761 11.9599 61.3563 18.2746 -9.0684 12.1776
# 4 11.7865 16.9421 18.2746 47.2673 4.7213 2.4086
# 5 -10.6985 -12.8495 -9.0684 4.7213 34.6862 6.1616
# 6 -2.4341 13.3572 12.1776 2.4086 6.1616 41.1898
#
#
#
# Elastic Compliance Matrix: (Units=1/GPa)
#
#
# Indices 1 2 3 4 5 6 
#
# 1 0.015740 -0.004100 -0.002415 -0.001908 0.002482 0.002714
# 2 -0.004100 0.009077 0.001343 -0.002903 0.003545 -0.003943
# 3 -0.002415 0.001343 0.021932 -0.008768 0.008057 -0.007755
# 4 -0.001908 -0.002903 -0.008768 0.026719 -0.008139 0.003076
# 5 0.002482 0.003545 0.008057 -0.008139 0.035585 -0.008232
# 6 0.002714 -0.003943 -0.007755 0.003076 -0.008232 0.029061
#
#
# Mechanical properties :
#
#
# Convention : Reuss Voigt Hill
#
# Bulk Modulus (GPa) = 27.47048 46.46694 36.96871
# Shear Modulus (GPa) = 31.13431 39.12337 35.12884
#
# Velocity S-wave (km/s) = 3.79166 4.25038 4.02755
# Velocity P-wave (km/s) = 5.64391 6.74865 6.22085
#
# Compressibility (1/GPa) = 0.03640272
#
# Stress axis : x y z
#
# Youngs Moduli (GPa) = 63.53300 110.16987 45.59507
#
# Poissons Ratio (x) = 0.45171 0.11013
# Poissons Ratio (y) = 0.26050 -0.06121
# Poissons Ratio (z) = 0.15346 -0.14791
#
# Static dielectric constant tensor:
#      x y z
#    x 1.809120 -0.068410 0.023060 
#    y -0.068410 1.865440 -0.030700 
#    z 0.023060 -0.030700 1.811720 
# 
# From -- ./inp_files/510946.got.cif
#   From: 2010.05.17/outbox.cif.g08.bks.cpg/sg2_256_cif.got.tgz:510946.got - 2010.06.03 11:33:40.
