data_PCOD9080444
_publ_section_title
;
Structure prediction by ZEFSAII (Michael W. Deem and Ramdas Pophale) SiO2 
 PCOD9080444
Probable space group: P -1
;
_chemical_formula_sum "Si O2"
_cell_formula_units_Z 16
_cell_length_a 7.033356
_cell_length_b 11.639184
_cell_length_c 14.108787
_cell_angle_alpha 47.902265
_cell_angle_beta 46.895761
_cell_angle_gamma 63.062514
_cell_volume 625.677147
_symmetry_space_group_name_H-M "P -1"
_symmetry_group_IT_number 2
_symmetry_cell_setting 'triclinic'
loop_
_space_group_symop_operation_xyz
x,y,z
-x,-y,-z
loop_
_atom_site_type_symbol
_atom_site_label
_atom_site_fract_x
_atom_site_fract_y
_atom_site_fract_z
Si Si1 0.923516 0.800759 0.158675
Si Si2 0.208132 0.549747 0.616800
Si Si3 0.252704 0.944190 0.807712
Si Si4 0.843247 0.621180 0.864936
Si Si5 0.791093 0.972299 0.669536
Si Si6 0.309919 0.503588 0.371549
Si Si7 0.636979 0.198832 0.732925
Si Si8 0.353885 0.656656 0.801365
O O1 0.872681 0.621725 0.294869
O O2 0.664681 0.844003 0.160116
O O3 0.934497 0.908543 0.188722
O O4 0.157934 0.835499 0.987823
O O5 0.962442 0.598284 0.734361
O O6 0.464057 0.537861 0.603935
O O7 0.266342 0.678335 0.448136
O O8 0.527488 0.031134 0.679286
O O9 0.307191 0.826361 0.768077
O O10 0.100541 0.629029 0.838245
O O11 0.735088 0.792599 0.807357
O O12 0.670515 0.478104 0.037382
O O13 0.811776 0.054227 0.720184
O O14 0.000000 0.000000 0.500000
O O15 0.361187 0.689920 0.236904
O O16 0.395340 0.386642 0.323582
O O17 0.000000 0.500000 0.500000
#
# Coordination Sequence:
#
# PCOD9080444 Si02
#       8
#     2   2   2   2   2   2   2   2
#     4   9  18  36  61  88 120 151 209 245 295 357
#     4  10  18  39  66  87 117 165 205 245 304 358
#     4  10  21  37  62  91 117 158 201 258 296 355
#     4  10  21  40  64  93 119 163 199 249 311 366
#     4  11  23  40  62  89 124 157 208 257 300 351
#     4  10  22  37  59  93 124 157 202 248 302 365
#     4  10  21  39  63  83 122 166 202 251 298 357
#     4  10  22  41  65  88 127 159 198 246 313 376
#
# _framework density 25.572295
#
# number of rings (size 3 to 8) (size 9 to 14) (size 15 to 20)
#    0.000    2.000    2.500    1.500    3.500    0.500 
#    4.500    5.000    0.000    0.000    0.000    0.000 
#    0.000    0.000    0.000    0.000    0.000    0.000 
#
# Total GULP energy -89188.790898 kJ/mol
# GULP energy per Si atom -5574.299431 kJ/mol
# Density = 2.551409 g / cm^3
# Si number density = 25.572295 Si / 1000 Ang^3
#
#
#
# Elastic Constant Matrix: (Units=GPa)
#
#
# Indices 1 2 3 4 5 6 
#
# 1 77.4312 13.8604 9.4941 6.5471 -12.0575 14.2583
# 2 13.8604 221.9188 28.4220 9.3573 -8.8085 23.2701
# 3 9.4941 28.4220 86.5555 15.0646 -25.0661 0.8229
# 4 6.5471 9.3573 15.0646 50.2240 -6.4580 -1.8873
# 5 -12.0575 -8.8085 -25.0661 -6.4580 27.8221 -1.9246
# 6 14.2583 23.2701 0.8229 -1.8873 -1.9246 41.4160
#
#
#
# Elastic Compliance Matrix: (Units=1/GPa)
#
#
# Indices 1 2 3 4 5 6 
#
# 1 0.014852 -0.000185 0.000517 -0.001443 0.006177 -0.004798
# 2 -0.000185 0.005024 -0.001569 -0.000574 -0.000228 -0.002765
# 3 0.000517 -0.001569 0.016578 -0.002907 0.014050 0.000895
# 4 -0.001443 -0.000574 -0.002907 0.021365 0.001666 0.001928
# 5 0.006177 -0.000228 0.014050 0.001666 0.051606 0.000196
# 6 -0.004798 -0.002765 0.000895 0.001928 0.000196 0.027430
#
#
# Mechanical properties :
#
#
# Convention : Reuss Voigt Hill
#
# Bulk Modulus (GPa) = 29.42858 54.38430 41.90644
# Shear Modulus (GPa) = 33.18853 46.16769 39.67811
#
# Velocity S-wave (km/s) = 3.60645 4.25359 3.94332
# Velocity P-wave (km/s) = 5.37354 6.74070 6.09557
#
# Compressibility (1/GPa) = 0.03398057
#
# Stress axis : x y z
#
# Youngs Moduli (GPa) = 67.33200 199.05570 60.32009
#
# Poissons Ratio (x) = 0.03676 -0.03120
# Poissons Ratio (y) = 0.01243 0.09465
# Poissons Ratio (z) = -0.03482 0.31233
#
# Static dielectric constant tensor:
#      x y z
#    x 2.228090 0.036960 0.064170 
#    y 0.036960 2.175340 0.046280 
#    z 0.064170 0.046280 1.975570 
# 
# From -- ./inp_files/559001.got.cif
#   From: 2010.05.17/outbox.cif.g08.bks.cpg/sg2_280_cif.got.tgz:559001.got - 2010.06.03 11:33:40.
