data_PCOD9080575
_publ_section_title
;
Structure prediction by ZEFSAII (Michael W. Deem and Ramdas Pophale) SiO2 
 PCOD9080575
Probable space group: P -1
;
_chemical_formula_sum "Si O2"
_cell_formula_units_Z 16
_cell_length_a 9.862185
_cell_length_b 8.775977
_cell_length_c 22.958253
_cell_angle_alpha 53.268373
_cell_angle_beta 143.011442
_cell_angle_gamma 137.034937
_cell_volume 814.360807
_symmetry_space_group_name_H-M "P -1"
_symmetry_group_IT_number 2
_symmetry_cell_setting 'triclinic'
loop_
_space_group_symop_operation_xyz
x,y,z
-x,-y,-z
loop_
_atom_site_type_symbol
_atom_site_label
_atom_site_fract_x
_atom_site_fract_y
_atom_site_fract_z
Si Si1 0.340197 0.784778 0.765735
Si Si2 0.911469 0.515243 0.901193
Si Si3 0.377121 0.412979 0.790917
Si Si4 0.767451 0.498916 0.592214
Si Si5 0.608841 0.013900 0.693367
Si Si6 0.100580 0.560209 0.585244
Si Si7 0.860973 0.007008 0.118144
Si Si8 0.213928 0.957567 0.052557
O O1 0.395711 0.598868 0.799650
O O2 0.484349 0.983168 0.722226
O O3 0.022244 0.669841 0.680888
O O4 0.498337 0.878706 0.858014
O O5 0.629450 0.488666 0.820390
O O6 0.100783 0.771092 0.888911
O O7 0.879309 0.300759 0.907562
O O8 0.000000 0.500000 0.000000
O O9 0.152514 0.381176 0.676037
O O10 0.331255 0.207422 0.860617
O O11 0.500000 0.500000 0.500000
O O12 0.890437 0.565146 0.554650
O O13 0.691134 0.250138 0.640354
O O14 0.866020 0.993376 0.789412
O O15 0.375005 0.800026 0.627894
O O16 0.000000 0.500000 0.500000
O O17 0.784492 0.005584 0.024779
O O18 0.000000 0.000000 0.000000
#
# Coordination Sequence:
#
# PCOD9080575 Si02
#       8
#     2   2   2   2   2   2   2   2
#     4  10  20  38  64  91 126 164 208 253 310 372
#     4  10  21  38  59  85 122 160 202 246 307 362
#     4  10  20  40  63  86 117 160 209 245 313 364
#     4  10  22  42  62  92 125 167 208 254 326 379
#     4  10  18  40  64  84 124 167 197 255 322 365
#     4  10  22  39  65  91 118 160 212 262 312 371
#     4  11  19  39  66  85 121 166 199 252 303 372
#     4  11  22  37  62  94 125 161 204 248 309 370
#
# _framework density 19.647310999999998
#
# number of rings (size 3 to 8) (size 9 to 14) (size 15 to 20)
#    0.000    2.000    6.250    0.750    0.000    5.000 
#    4.500    2.500    0.000    0.000    0.000    0.000 
#    0.000    0.000    0.000    0.000    0.000    0.000 
#
# Total GULP energy -89208.461373 kJ/mol
# GULP energy per Si atom -5575.528836 kJ/mol
# Density = 1.960259 g / cm^3
# Si number density = 19.647311 Si / 1000 Ang^3
#
#
#
# Elastic Constant Matrix: (Units=GPa)
#
#
# Indices 1 2 3 4 5 6 
#
# 1 43.8905 30.3692 45.5278 10.1291 1.5302 -1.6194
# 2 30.3692 114.2667 51.1161 -4.6630 -16.1169 -0.0598
# 3 45.5278 51.1161 127.5258 19.0231 -3.6767 -16.7961
# 4 10.1291 -4.6630 19.0231 30.6202 -1.2857 0.9824
# 5 1.5302 -16.1169 -3.6767 -1.2857 40.0380 -4.9494
# 6 -1.6194 -0.0598 -16.7961 0.9824 -4.9494 28.5584
#
#
#
# Elastic Compliance Matrix: (Units=1/GPa)
#
#
# Indices 1 2 3 4 5 6 
#
# 1 0.041695 -0.006996 -0.011856 -0.007586 -0.006419 -0.005475
# 2 -0.006996 0.013489 -0.004112 0.007213 0.005290 -0.002118
# 3 -0.011856 -0.004112 0.015990 -0.006883 0.001178 0.009164
# 4 -0.007586 0.007213 -0.006883 0.040848 0.003217 -0.005311
# 5 -0.006419 0.005290 0.001178 0.003217 0.028195 0.005116
# 6 -0.005475 -0.002118 0.009164 -0.005311 0.005116 0.041160
#
#
# Mechanical properties :
#
#
# Convention : Reuss Voigt Hill
#
# Bulk Modulus (GPa) = 39.60748 59.96770 49.78759
# Shear Modulus (GPa) = 21.21158 30.42132 25.81645
#
# Velocity S-wave (km/s) = 3.28932 3.93920 3.62884
# Velocity P-wave (km/s) = 5.88465 7.16087 6.55390
#
# Compressibility (1/GPa) = 0.02524776
#
# Stress axis : x y z
#
# Youngs Moduli (GPa) = 23.98357 74.13185 62.53880
#
# Poissons Ratio (x) = 0.51860 0.74145
# Poissons Ratio (y) = 0.16778 0.25715
# Poissons Ratio (z) = 0.28435 0.30482
#
# Static dielectric constant tensor:
#      x y z
#    x 1.654200 0.003040 -0.006330 
#    y 0.003040 1.725660 0.002560 
#    z -0.006330 0.002560 1.678290 
# 
# From -- ./inp_files/618075.got.cif
#   From: 2010.05.17/outbox.cif.g08.bks.cpg/sg2_310_cif.got.tgz:618075.got - 2010.06.03 11:33:40.
