data_PCOD9080827
_publ_section_title
;
Structure prediction by ZEFSAII (Michael W. Deem and Ramdas Pophale) SiO2 
 PCOD9080827
Probable space group: P -1
;
_chemical_formula_sum "Si O2"
_cell_formula_units_Z 14
_cell_length_a 11.363549
_cell_length_b 15.403150
_cell_length_c 14.128444
_cell_angle_alpha 19.469159
_cell_angle_beta 122.210594
_cell_angle_gamma 125.271808
_cell_volume 672.334239
_symmetry_space_group_name_H-M "P -1"
_symmetry_group_IT_number 2
_symmetry_cell_setting 'triclinic'
loop_
_space_group_symop_operation_xyz
x,y,z
-x,-y,-z
loop_
_atom_site_type_symbol
_atom_site_label
_atom_site_fract_x
_atom_site_fract_y
_atom_site_fract_z
Si Si1 0.228275 0.169353 0.760641
Si Si2 0.826156 0.175253 0.081615
Si Si3 0.841014 0.395977 0.578892
Si Si4 0.469221 0.718521 0.155195
Si Si5 0.264471 0.077621 0.488122
Si Si6 0.903627 0.477344 0.077041
Si Si7 0.540198 0.282263 0.495111
O O1 0.179935 0.401723 0.555482
O O2 0.403700 0.259140 0.737189
O O3 0.167309 0.061757 0.743595
O O4 0.183579 0.902731 0.081845
O O5 0.787418 0.041130 0.306752
O O6 0.694260 0.299674 0.867667
O O7 0.976211 0.403615 0.915210
O O8 0.713061 0.392698 0.451532
O O9 0.000000 0.500000 0.500000
O O10 0.480971 0.495381 0.312345
O O11 0.515022 0.008999 0.825201
O O12 0.437078 0.195837 0.449199
O O13 0.197848 0.825460 0.650217
O O14 0.194158 0.317528 0.188194
O O15 0.000000 0.500000 0.000000
#
# Coordination Sequence:
#
# PCOD9080827 Si02
#       7
#     2   2   2   2   2   2   2
#     4  10  21  33  51  74  97 129 160 191 245 292
#     4  10  19  31  48  72 104 134 159 194 228 278
#     4  10  21  37  53  73  95 119 160 208 246 290
#     4   9  18  30  45  70 102 129 154 186 229 290
#     4  10  19  31  45  69 100 132 162 190 225 277
#     4  10  19  29  44  67  99 136 165 189 221 266
#     4   9  17  31  50  69  93 127 160 192 237 283
#
# _framework density 20.822977000000002
#
# number of rings (size 3 to 8) (size 9 to 14) (size 15 to 20)
#    0.000    2.286    0.000    5.143    0.000    6.857 
#    0.000    8.571    0.000    0.000    0.000    6.000 
#    0.000    0.000    0.000    0.000    0.000    0.000 
#
# Total GULP energy -78189.435810 kJ/mol
# GULP energy per Si atom -5584.959701 kJ/mol
# Density = 2.077558 g / cm^3
# Si number density = 20.822977 Si / 1000 Ang^3
#
#
#
# Elastic Constant Matrix: (Units=GPa)
#
#
# Indices 1 2 3 4 5 6 
#
# 1 89.9613 47.5982 32.1489 0.3192 7.0927 42.9743
# 2 47.5982 129.7246 18.7987 -25.1403 7.6913 43.8161
# 3 32.1489 18.7987 112.9137 -26.2537 15.1513 9.5336
# 4 0.3192 -25.1403 -26.2537 34.2263 4.2282 -3.8306
# 5 7.0927 7.6913 15.1513 4.2282 22.7986 0.5550
# 6 42.9743 43.8161 9.5336 -3.8306 0.5550 30.1542
#
#
#
# Elastic Compliance Matrix: (Units=1/GPa)
#
#
# Indices 1 2 3 4 5 6 
#
# 1 0.050153 0.010397 -0.009661 -0.008576 -0.009044 -0.084452
# 2 0.010397 0.023496 0.002809 0.015822 -0.014805 -0.047565
# 3 -0.009661 0.002809 0.016022 0.016687 -0.011854 0.006958
# 4 -0.008576 0.015822 0.016687 0.055715 -0.023885 -0.008528
# 5 -0.009044 -0.014805 -0.011854 -0.023885 0.063151 0.033952
# 6 -0.084452 -0.047565 0.006958 -0.008528 0.033952 0.218726
#
#
# Mechanical properties :
#
#
# Convention : Reuss Voigt Hill
#
# Bulk Modulus (GPa) = 10.33450 58.85458 34.59454
# Shear Modulus (GPa) = 11.05149 33.03943 22.04546
#
# Velocity S-wave (km/s) = 2.30627 3.98764 3.25731
# Velocity P-wave (km/s) = 3.47356 7.03756 5.54946
#
# Compressibility (1/GPa) = 0.09676328
#
# Stress axis : x y z
#
# Youngs Moduli (GPa) = 19.93891 42.55959 62.41325
#
# Poissons Ratio (x) = -0.44248 0.60294
# Poissons Ratio (y) = -0.20730 -0.17535
# Poissons Ratio (z) = 0.19262 -0.11957
#
# Static dielectric constant tensor:
#      x y z
#    x 1.729980 0.048000 -0.029470 
#    y 0.048000 1.812910 0.011930 
#    z -0.029470 0.011930 1.789190 
# 
# From -- ./inp_files/63484.got.cif
#   From: 2010.05.17/outbox.cif.g08.bks.cpg/sg2_32_cif.got.tgz:63484.got - 2010.06.03 11:33:40.
