data_PCOD9080037
_publ_section_title
;
Structure prediction by ZEFSAII (Michael W. Deem and Ramdas Pophale) SiO2 
 PCOD9080037
Probable space group: P -1
;
_chemical_formula_sum "Si O2"
_cell_formula_units_Z 9
_cell_length_a 5.239042
_cell_length_b 15.364016
_cell_length_c 9.208320
_cell_angle_alpha 152.940090
_cell_angle_beta 95.970847
_cell_angle_gamma 86.286597
_cell_volume 334.723313
_symmetry_space_group_name_H-M "P -1"
_symmetry_group_IT_number 2
_symmetry_cell_setting 'triclinic'
loop_
_space_group_symop_operation_xyz
x,y,z
-x,-y,-z
loop_
_atom_site_type_symbol
_atom_site_label
_atom_site_fract_x
_atom_site_fract_y
_atom_site_fract_z
Si Si1 0.426041 0.210069 0.627603
Si Si2 0.559593 0.225669 0.335885
Si Si3 0.831671 0.140840 0.796309
Si Si4 0.000000 0.500000 0.000000
Si Si5 0.926846 0.563124 0.417876
O O1 0.591258 0.266477 0.575387
O O2 0.601908 0.193397 0.754140
O O3 0.201521 0.347051 0.851629
O O4 0.284744 0.997488 0.289428
O O5 0.814230 0.304693 0.388958
O O6 0.324633 0.325446 0.394170
O O7 0.500000 0.000000 0.000000
O O8 0.000000 0.000000 0.500000
O O9 0.952720 0.348920 0.165114
O O10 0.128979 0.473097 0.810209
#
# Coordination Sequence:
#
# PCOD9080037 Si02
#       5
#     2   2   2   1   2
#     4  10  23  39  66  95 137 164 213 266 334 382
#     4  11  25  44  64  91 128 178 226 262 305 385
#     4  11  22  40  63 102 134 162 203 274 343 389
#     4  10  18  38  62 100 118 164 206 272 324 374
#     4  11  22  39  66  92 129 166 216 267 323 380
#
# _framework density 26.887879999999999
#
# number of rings (size 3 to 8) (size 9 to 14) (size 15 to 20)
#    0.000    1.333    2.222    3.333    6.222    3.556 
#    0.000    2.222    0.000    0.000    0.000    0.000 
#    0.000    0.000    0.000    0.000    0.000    0.000 
#
# Total GULP energy -50177.640208 kJ/mol
# GULP energy per Si atom -5575.293356 kJ/mol
# Density = 2.682668 g / cm^3
# Si number density = 26.887880 Si / 1000 Ang^3
#
#
#
# Elastic Constant Matrix: (Units=GPa)
#
#
# Indices 1 2 3 4 5 6 
#
# 1 102.3148 37.4915 53.7585 29.1308 7.7131 -23.3021
# 2 37.4915 91.7190 9.2343 25.1087 -1.3439 0.7037
# 3 53.7585 9.2343 197.5692 42.7685 32.3107 -9.8655
# 4 29.1308 25.1087 42.7685 42.1642 7.2054 -0.5979
# 5 7.7131 -1.3439 32.3107 7.2054 48.0877 34.3904
# 6 -23.3021 0.7037 -9.8655 -0.5979 34.3904 60.1334
#
#
#
# Elastic Compliance Matrix: (Units=1/GPa)
#
#
# Indices 1 2 3 4 5 6 
#
# 1 0.017824 -0.005836 -0.000884 -0.005913 -0.010803 0.012950
# 2 -0.005836 0.015313 0.001314 -0.007433 0.005481 -0.005434
# 3 -0.000884 0.001314 0.008539 -0.007254 -0.008741 0.005970
# 4 -0.005913 -0.007433 -0.007254 0.038960 0.003262 -0.004872
# 5 -0.010803 0.005481 -0.008741 0.003262 0.054329 -0.036723
# 6 0.012950 -0.005434 0.005970 -0.004872 -0.036723 0.043645
#
#
# Mechanical properties :
#
#
# Convention : Reuss Voigt Hill
#
# Bulk Modulus (GPa) = 32.40058 65.84128 49.12093
# Shear Modulus (GPa) = 25.03654 49.48496 37.26075
#
# Velocity S-wave (km/s) = 3.05478 4.29466 3.72665
# Velocity P-wave (km/s) = 4.95163 7.00947 6.06842
#
# Compressibility (1/GPa) = 0.03086364
#
# Stress axis : x y z
#
# Youngs Moduli (GPa) = 56.10524 65.30443 117.11510
#
# Poissons Ratio (x) = 0.38110 0.10348
# Poissons Ratio (y) = 0.32741 -0.15383
# Poissons Ratio (z) = 0.04958 -0.08578
#
# Static dielectric constant tensor:
#      x y z
#    x 2.364110 -0.302290 0.161430 
#    y -0.302290 2.330890 -0.269930 
#    z 0.161430 -0.269930 2.204830 
# 
# From -- ./inp_files/15141.got.cif
#   From: 2010.05.17/outbox.cif.g08.bks.cpg/sg2_8_cif.got.tgz:15141.got - 2010.06.03 11:33:40.
