data_PCOD9080885
_publ_section_title
;
Structure prediction by ZEFSAII (Michael W. Deem and Ramdas Pophale) SiO2 
 PCOD9080885
Probable space group: P -1
;
_chemical_formula_sum "Si O2"
_cell_formula_units_Z 14
_cell_length_a 17.591922
_cell_length_b 11.587344
_cell_length_c 14.393883
_cell_angle_alpha 27.179786
_cell_angle_beta 33.704493
_cell_angle_gamma 34.466876
_cell_volume 701.274314
_symmetry_space_group_name_H-M "P -1"
_symmetry_group_IT_number 2
_symmetry_cell_setting 'triclinic'
loop_
_space_group_symop_operation_xyz
x,y,z
-x,-y,-z
loop_
_atom_site_type_symbol
_atom_site_label
_atom_site_fract_x
_atom_site_fract_y
_atom_site_fract_z
Si Si1 0.419105 0.150478 0.371641
Si Si2 0.495278 0.352709 0.484062
Si Si3 0.295519 0.765836 0.269486
Si Si4 0.418157 0.534978 0.923353
Si Si5 0.602250 0.792680 0.117778
Si Si6 0.870050 0.429509 0.576560
Si Si7 0.901859 0.286538 0.858367
O O1 0.541696 0.204132 0.273048
O O2 0.261804 0.288582 0.478270
O O3 0.454582 0.866069 0.490653
O O4 0.418189 0.349563 0.144240
O O5 0.341449 0.577151 0.449166
O O6 0.612375 0.503208 0.274647
O O7 0.471036 0.215566 0.701908
O O8 0.449975 0.645539 0.143818
O O9 0.177442 0.714583 0.358446
O O10 0.271550 0.077554 0.089480
O O11 0.252378 0.624905 0.996325
O O12 0.500000 0.000000 0.000000
O O13 0.879768 0.279731 0.773282
O O14 0.016126 0.498066 0.364617
O O15 0.000000 0.000000 0.000000
#
# Coordination Sequence:
#
# PCOD9080885 Si02
#       7
#     2   2   2   2   2   2   2
#     4   9  17  31  52  76 104 132 171 205 252 300
#     4  10  19  29  53  77 103 134 167 206 265 305
#     4  10  19  32  55  77 105 132 171 213 252 295
#     4   9  18  31  49  77 107 134 163 213 246 297
#     4   9  19  34  46  77 109 128 162 218 261 298
#     4   9  21  35  47  77 108 138 166 210 248 299
#     4  10  21  33  47  69 112 144 171 196 248 307
#
# _framework density 19.963657000000001
#
# number of rings (size 3 to 8) (size 9 to 14) (size 15 to 20)
#    0.000    2.571    1.429    0.857    4.000    1.143 
#    0.000    0.000    0.000    0.000    0.000   20.000 
#    0.000    0.857    0.000    0.000    0.000    0.000 
#
# Total GULP energy -78008.205464 kJ/mol
# GULP energy per Si atom -5572.014676 kJ/mol
# Density = 1.991822 g / cm^3
# Si number density = 19.963657 Si / 1000 Ang^3
#
#
#
# Elastic Constant Matrix: (Units=GPa)
#
#
# Indices 1 2 3 4 5 6 
#
# 1 124.4278 17.3063 44.6338 -10.2446 -10.1025 5.2954
# 2 17.3063 31.3467 18.4846 -4.0949 -10.8652 -3.2751
# 3 44.6338 18.4846 93.7264 -16.6563 -12.8752 5.4956
# 4 -10.2446 -4.0949 -16.6563 38.0804 7.1950 -9.9271
# 5 -10.1025 -10.8652 -12.8752 7.1950 39.5511 -8.1251
# 6 5.2954 -3.2751 5.4956 -9.9271 -8.1251 30.4103
#
#
#
# Elastic Compliance Matrix: (Units=1/GPa)
#
#
# Indices 1 2 3 4 5 6 
#
# 1 0.010001 -0.003246 -0.003995 0.000252 0.000055 -0.001272
# 2 -0.003246 0.041776 -0.005506 0.001683 0.010482 0.009410
# 3 -0.003995 -0.005506 0.014644 0.004286 0.001290 -0.000800
# 4 0.000252 0.001683 0.004286 0.031088 -0.001883 0.009008
# 5 0.000055 0.010482 0.001290 -0.001883 0.030679 0.008469
# 6 -0.001272 0.009410 -0.000800 0.009008 0.008469 0.039466
#
#
# Mechanical properties :
#
#
# Convention : Reuss Voigt Hill
#
# Bulk Modulus (GPa) = 24.43456 45.59449 35.01453
# Shear Modulus (GPa) = 24.17896 32.88011 28.52953
#
# Velocity S-wave (km/s) = 3.48393 4.06273 3.78441
# Velocity P-wave (km/s) = 5.33384 6.70045 6.05581
#
# Compressibility (1/GPa) = 0.04092563
#
# Stress axis : x y z
#
# Youngs Moduli (GPa) = 99.99141 23.93695 68.28905
#
# Poissons Ratio (x) = 0.07771 0.27284
# Poissons Ratio (y) = 0.32461 0.37599
# Poissons Ratio (z) = 0.39951 0.13179
#
# Static dielectric constant tensor:
#      x y z
#    x 1.785910 -0.001200 0.025420 
#    y -0.001200 1.685090 -0.033390 
#    z 0.025420 -0.033390 1.781510 
# 
# From -- ./inp_files/349488.got.cif
#   From: 2010.05.17/outbox.cif.g08.bks.cpg/sg2_175_cif.got.tgz:349488.got - 2010.06.03 11:33:40.
