data_PCOD9080364
_publ_section_title
;
Structure prediction by ZEFSAII (Michael W. Deem and Ramdas Pophale) SiO2 
 PCOD9080364
Probable space group: P -1
;
_chemical_formula_sum "Si O2"
_cell_formula_units_Z 14
_cell_length_a 19.279738
_cell_length_b 11.663780
_cell_length_c 9.019769
_cell_angle_alpha 62.395779
_cell_angle_beta 132.237393
_cell_angle_gamma 154.408981
_cell_volume 580.289487
_symmetry_space_group_name_H-M "P -1"
_symmetry_group_IT_number 2
_symmetry_cell_setting 'triclinic'
loop_
_space_group_symop_operation_xyz
x,y,z
-x,-y,-z
loop_
_atom_site_type_symbol
_atom_site_label
_atom_site_fract_x
_atom_site_fract_y
_atom_site_fract_z
Si Si1 0.671499 0.851169 0.409535
Si Si2 0.505561 0.572175 0.804438
Si Si3 0.718459 0.185002 0.120173
Si Si4 0.142747 0.412419 0.734721
Si Si5 0.927883 0.513451 0.696086
Si Si6 0.653228 0.021151 0.813499
Si Si7 0.777209 0.743533 0.913249
O O1 0.907348 0.124730 0.648073
O O2 0.432880 0.542568 0.322029
O O3 0.674133 0.997677 0.256434
O O4 0.662218 0.723274 0.351826
O O5 0.491534 0.708896 0.717079
O O6 0.500000 0.500000 0.000000
O O7 0.712003 0.305473 0.134746
O O8 0.599411 0.029288 0.883646
O O9 0.970263 0.476392 0.260891
O O10 0.111954 0.423009 0.516325
O O11 0.231451 0.379561 0.900791
O O12 0.722907 0.806971 0.883985
O O13 0.126735 0.781628 0.935176
O O14 0.726582 0.211512 0.678892
O O15 0.000000 0.000000 0.000000
#
# Coordination Sequence:
#
# PCOD9080364 Si02
#       7
#     2   2   2   2   2   2   2
#     4   9  20  37  59  92 120 169 202 253 318 369
#     4  10  18  39  62  83 129 166 206 247 313 382
#     4   9  17  32  61  89 120 158 207 254 312 364
#     4  11  20  39  62  93 123 161 210 260 314 373
#     4   8  17  30  54  93 111 157 210 245 306 365
#     4   9  16  31  59  92 112 165 209 244 309 373
#     4  10  25  38  60  96 126 165 203 264 317 364
#
# _framework density 24.125892
#
# number of rings (size 3 to 8) (size 9 to 14) (size 15 to 20)
#    1.714    0.857    1.429    1.714    2.000    1.143 
#    0.000    2.857    0.000    3.429    0.000    1.000 
#    0.000    0.000    0.000    0.000    0.000    0.000 
#
# Total GULP energy -78007.269544 kJ/mol
# GULP energy per Si atom -5571.947825 kJ/mol
# Density = 2.407098 g / cm^3
# Si number density = 24.125892 Si / 1000 Ang^3
#
#
#
# Elastic Constant Matrix: (Units=GPa)
#
#
# Indices 1 2 3 4 5 6 
#
# 1 93.7773 43.2978 15.8937 0.1690 -12.2126 3.9206
# 2 43.2978 95.9768 31.0790 15.6862 -15.0039 0.7953
# 3 15.8937 31.0790 81.4888 -17.9657 9.9527 -5.0581
# 4 0.1690 15.6862 -17.9657 48.7165 4.4506 -0.7924
# 5 -12.2126 -15.0039 9.9527 4.4506 27.6628 9.0349
# 6 3.9206 0.7953 -5.0581 -0.7924 9.0349 46.7359
#
#
#
# Elastic Compliance Matrix: (Units=1/GPa)
#
#
# Indices 1 2 3 4 5 6 
#
# 1 0.013975 -0.005448 -0.001072 0.000904 0.004099 -0.001973
# 2 -0.005448 0.022151 -0.012909 -0.013609 0.018091 -0.005045
# 3 -0.001072 -0.012909 0.023659 0.014893 -0.020711 0.007126
# 4 0.000904 -0.013609 0.014893 0.032281 -0.019523 0.006089
# 5 0.004099 0.018091 -0.020711 -0.019523 0.063421 -0.015485
# 6 -0.001973 -0.005045 0.007126 0.006089 -0.015485 0.025516
#
#
# Mechanical properties :
#
#
# Convention : Reuss Voigt Hill
#
# Bulk Modulus (GPa) = 47.78131 50.19823 48.98977
# Shear Modulus (GPa) = 22.04225 36.68786 29.36505
#
# Velocity S-wave (km/s) = 3.02592 3.90383 3.49257
# Velocity P-wave (km/s) = 5.66182 6.41652 6.05095
#
# Compressibility (1/GPa) = 0.02092868
#
# Stress axis : x y z
#
# Youngs Moduli (GPa) = 71.55429 45.14437 42.26690
#
# Poissons Ratio (x) = 0.24596 0.04530
# Poissons Ratio (y) = 0.38984 0.54561
# Poissons Ratio (z) = 0.07669 0.58275
#
# Static dielectric constant tensor:
#      x y z
#    x 1.904740 0.095930 0.003760 
#    y 0.095930 1.998590 0.015540 
#    z 0.003760 0.015540 1.963510 
# 
# From -- ./inp_files/344168.got.cif
#   From: 2010.05.17/outbox.cif.g08.bks.cpg/sg2_173_cif.got.tgz:344168.got - 2010.06.03 11:33:40.
