data_PCOD9080614
_publ_section_title
;
Structure prediction by ZEFSAII (Michael W. Deem and Ramdas Pophale) SiO2 
 PCOD9080614
Probable space group: P -1
;
_chemical_formula_sum "Si O2"
_cell_formula_units_Z 13
_cell_length_a 14.408744
_cell_length_b 6.364681
_cell_length_c 11.641886
_cell_angle_alpha 103.116407
_cell_angle_beta 33.425074
_cell_angle_gamma 90.421455
_cell_volume 538.780411
_symmetry_space_group_name_H-M "P -1"
_symmetry_group_IT_number 2
_symmetry_cell_setting 'triclinic'
loop_
_space_group_symop_operation_xyz
x,y,z
-x,-y,-z
loop_
_atom_site_type_symbol
_atom_site_label
_atom_site_fract_x
_atom_site_fract_y
_atom_site_fract_z
Si Si1 0.596965 0.885083 0.770522
Si Si2 0.167231 0.547222 0.016345
Si Si3 0.389854 0.063003 0.788574
Si Si4 0.000000 0.500000 0.000000
Si Si5 0.762146 0.018912 0.286636
Si Si6 0.958235 0.006527 0.408721
Si Si7 0.847629 0.391422 0.395397
O O1 0.442101 0.951907 0.843750
O O2 0.762093 0.980928 0.591022
O O3 0.694079 0.610864 0.631769
O O4 0.500000 0.000000 0.000000
O O5 0.105888 0.785693 0.172504
O O6 0.977701 0.486301 0.194109
O O7 0.204476 0.501670 0.838905
O O8 0.301569 0.339179 0.921663
O O9 0.264943 0.978022 0.822650
O O10 0.580294 0.003538 0.524315
O O11 0.078370 0.211478 0.875680
O O12 0.786016 0.229875 0.356050
O O13 0.951590 0.234707 0.374894
O O14 0.000000 0.000000 0.500000
#
# Coordination Sequence:
#
# PCOD9080614 Si02
#       7
#     2   2   2   1   2   2   2
#     4  11  26  43  64  95 135 166 213 270 317 383
#     4  10  23  40  67  93 131 163 219 264 315 381
#     4  10  22  41  63  96 132 164 205 272 319 374
#     4  10  18  40  66  92 128 164 202 266 312 380
#     4  10  20  41  68  94 127 170 210 263 325 372
#     4  11  25  44  65  91 126 174 218 264 314 384
#     4  11  23  44  67  92 126 174 216 259 322 386
#
# _framework density 24.128568000000001
#
# number of rings (size 3 to 8) (size 9 to 14) (size 15 to 20)
#    0.000    1.538    3.077    0.923    4.308    6.154 
#    0.000    0.000    0.000    0.000    0.000    0.000 
#    0.000    0.000    0.000    0.000    0.000    0.000 
#
# Total GULP energy -72551.387632 kJ/mol
# GULP energy per Si atom -5580.875972 kJ/mol
# Density = 2.407365 g / cm^3
# Si number density = 24.128568 Si / 1000 Ang^3
#
#
#
# Elastic Constant Matrix: (Units=GPa)
#
#
# Indices 1 2 3 4 5 6 
#
# 1 155.9217 65.6615 33.6980 15.7031 21.8072 -23.6975
# 2 65.6615 110.3146 59.9376 34.8395 9.9074 -15.0191
# 3 33.6980 59.9376 140.6311 41.7966 15.8067 -7.2313
# 4 15.7031 34.8395 41.7966 57.7790 2.4374 -7.5534
# 5 21.8072 9.9074 15.8067 2.4374 44.8904 -2.2176
# 6 -23.6975 -15.0191 -7.2313 -7.5534 -2.2176 37.1102
#
#
#
# Elastic Compliance Matrix: (Units=1/GPa)
#
#
# Indices 1 2 3 4 5 6 
#
# 1 0.009586 -0.005328 0.000237 0.001107 -0.003425 0.004032
# 2 -0.005328 0.016230 -0.004109 -0.005223 0.000803 0.001351
# 3 0.000237 -0.004109 0.010636 -0.005254 -0.002701 -0.000670
# 4 0.001107 -0.005223 -0.005254 0.024240 0.001276 0.002579
# 5 -0.003425 0.000803 -0.002701 0.001276 0.024612 -0.000658
# 6 0.004032 0.001351 -0.000670 0.002579 -0.000658 0.030423
#
#
# Mechanical properties :
#
#
# Convention : Reuss Voigt Hill
#
# Bulk Modulus (GPa) = 55.39429 80.60684 68.00057
# Shear Modulus (GPa) = 35.67695 44.46060 40.06878
#
# Velocity S-wave (km/s) = 3.84945 4.29727 4.07951
# Velocity P-wave (km/s) = 6.53954 7.62245 7.10167
#
# Compressibility (1/GPa) = 0.01805240
#
# Stress axis : x y z
#
# Youngs Moduli (GPa) = 104.31566 61.61345 94.01867
#
# Poissons Ratio (x) = 0.32827 -0.02227
# Poissons Ratio (y) = 0.55577 0.38634
# Poissons Ratio (z) = -0.02471 0.25318
#
# Static dielectric constant tensor:
#      x y z
#    x 3.289080 -0.667320 0.758440 
#    y -0.667320 2.391970 -0.489710 
#    z 0.758440 -0.489710 2.372790 
# 
# From -- ./inp_files/23183.got.cif
#   From: 2010.05.17/outbox.cif.g08.bks.cpg/sg2_12_cif.got.tgz:23183.got - 2010.06.03 11:33:40.
