data_PCOD9080265
_publ_section_title
;
Structure prediction by ZEFSAII (Michael W. Deem and Ramdas Pophale) SiO2 
 PCOD9080265
Probable space group: P -1
;
_chemical_formula_sum "Si O2"
_cell_formula_units_Z 14
_cell_length_a 12.229868
_cell_length_b 23.369276
_cell_length_c 15.019653
_cell_angle_alpha 160.839600
_cell_angle_beta 150.693328
_cell_angle_gamma 28.693642
_cell_volume 650.286901
_symmetry_space_group_name_H-M "P -1"
_symmetry_group_IT_number 2
_symmetry_cell_setting 'triclinic'
loop_
_space_group_symop_operation_xyz
x,y,z
-x,-y,-z
loop_
_atom_site_type_symbol
_atom_site_label
_atom_site_fract_x
_atom_site_fract_y
_atom_site_fract_z
Si Si1 0.068782 0.288272 0.122722
Si Si2 0.242126 0.933184 0.465169
Si Si3 0.289192 0.323316 0.517348
Si Si4 0.300366 0.305900 0.128189
Si Si5 0.807715 0.327976 0.484595
Si Si6 0.934672 0.195826 0.191818
Si Si7 0.732194 0.015709 0.644724
O O1 0.224912 0.264446 0.287689
O O2 0.189343 0.344333 0.204856
O O3 0.832715 0.457888 0.232356
O O4 0.000979 0.110584 0.783647
O O5 0.431811 0.760911 0.395468
O O6 0.317865 0.941501 0.429925
O O7 0.253185 0.119374 0.791032
O O8 0.161697 0.237093 0.375681
O O9 0.578328 0.288296 0.301249
O O10 0.196118 0.461107 0.204660
O O11 0.794976 0.319380 0.354694
O O12 0.043414 0.171940 0.457254
O O13 0.790602 0.179751 0.978660
O O14 0.000000 0.000000 0.000000
O O15 0.500000 0.000000 0.500000
#
# Coordination Sequence:
#
# PCOD9080265 Si02
#       7
#     2   2   2   2   2   2   2
#     4  11  25  45  67  97 131 181 225 273 331 388
#     4  12  24  42  66 102 133 175 222 270 336 397
#     4  11  23  45  69  96 131 171 231 281 322 389
#     4  11  24  43  68  94 140 180 214 272 333 409
#     4  10  22  43  67  99 134 175 222 270 340 395
#     4  10  18  38  68  93 125 168 216 279 324 376
#     4  11  22  38  68 103 133 165 223 285 330 385
#
# _framework density 21.528959
#
# number of rings (size 3 to 8) (size 9 to 14) (size 15 to 20)
#    0.000    1.143    2.857    5.143    0.000    1.143 
#    2.571    0.000    0.000    0.000    0.000    0.000 
#    0.000    0.000    0.000    0.000    0.000    0.000 
#
# Total GULP energy -78117.986511 kJ/mol
# GULP energy per Si atom -5579.856179 kJ/mol
# Density = 2.147996 g / cm^3
# Si number density = 21.528959 Si / 1000 Ang^3
#
#
#
# Elastic Constant Matrix: (Units=GPa)
#
#
# Indices 1 2 3 4 5 6 
#
# 1 98.4196 3.4901 36.1738 -7.3059 4.4649 9.3148
# 2 3.4901 85.7701 33.3822 -11.4111 -9.3987 12.1795
# 3 36.1738 33.3822 73.1276 -6.7454 4.7357 -0.4132
# 4 -7.3059 -11.4111 -6.7454 17.5093 8.1349 3.5867
# 5 4.4649 -9.3987 4.7357 8.1349 33.5939 -6.2589
# 6 9.3148 12.1795 -0.4132 3.5867 -6.2589 25.2136
#
#
#
# Elastic Compliance Matrix: (Units=1/GPa)
#
#
# Indices 1 2 3 4 5 6 
#
# 1 0.015145 0.005271 -0.008759 0.010337 -0.003800 -0.010699
# 2 0.005271 0.019077 -0.010203 0.013177 0.000445 -0.013094
# 3 -0.008759 -0.010203 0.022733 -0.001828 -0.002950 0.008065
# 4 0.010337 0.013177 -0.001828 0.086041 -0.023537 -0.028296
# 5 -0.003800 0.000445 -0.002950 -0.023537 0.039160 0.014210
# 6 -0.010699 -0.013094 0.008065 -0.028296 0.014210 0.057623
#
#
# Mechanical properties :
#
#
# Convention : Reuss Voigt Hill
#
# Bulk Modulus (GPa) = 33.81456 44.82327 39.31892
# Shear Modulus (GPa) = 18.04933 27.54811 22.79872
#
# Velocity S-wave (km/s) = 2.89861 3.58101 3.25773
# Velocity P-wave (km/s) = 5.19069 6.16144 5.69678
#
# Compressibility (1/GPa) = 0.02957306
#
# Stress axis : x y z
#
# Youngs Moduli (GPa) = 66.02727 52.41969 43.98887
#
# Poissons Ratio (x) = -0.27629 0.38529
# Poissons Ratio (y) = -0.34802 0.44882
# Poissons Ratio (z) = 0.57832 0.53484
#
# Static dielectric constant tensor:
#      x y z
#    x 1.781280 -0.006010 -0.008460 
#    y -0.006010 1.832530 0.105800 
#    z -0.008460 0.105800 1.926940 
# 
# From -- ./inp_files/524441.got.cif
#   From: 2010.05.17/outbox.cif.g08.bks.cpg/sg2_263_cif.got.tgz:524441.got - 2010.06.03 11:33:40.
