data_PCOD9080118
_publ_section_title
;
Structure prediction by ZEFSAII (Michael W. Deem and Ramdas Pophale) SiO2 
 PCOD9080118
Probable space group: P -1
;
_chemical_formula_sum "Si O2"
_cell_formula_units_Z 12
_cell_length_a 13.201207
_cell_length_b 13.354420
_cell_length_c 7.745423
_cell_angle_alpha 146.140335
_cell_angle_beta 69.908940
_cell_angle_gamma 125.120695
_cell_volume 594.680581
_symmetry_space_group_name_H-M "P -1"
_symmetry_group_IT_number 2
_symmetry_cell_setting 'triclinic'
loop_
_space_group_symop_operation_xyz
x,y,z
-x,-y,-z
loop_
_atom_site_type_symbol
_atom_site_label
_atom_site_fract_x
_atom_site_fract_y
_atom_site_fract_z
Si Si1 0.800681 0.633785 0.498225
Si Si2 0.316211 0.326638 0.704015
Si Si3 0.912501 0.086840 0.627729
Si Si4 0.391609 0.443849 0.219981
Si Si5 0.799178 0.995147 0.185594
Si Si6 0.018889 0.552290 0.362848
O O1 0.747363 0.590885 0.273543
O O2 0.685548 0.505663 0.524770
O O3 0.912682 0.597682 0.422550
O O4 0.844346 0.880519 0.864154
O O5 0.454838 0.398919 0.648924
O O6 0.220593 0.068051 0.410930
O O7 0.340768 0.420356 0.019215
O O8 0.874356 0.039011 0.383088
O O9 0.987666 0.338252 0.980604
O O10 0.000000 0.000000 0.500000
O O11 0.346815 0.201852 0.963582
O O12 0.840382 0.228432 0.433366
O O13 0.000000 0.500000 0.500000
#
# Coordination Sequence:
#
# PCOD9080118 Si02
#       6
#     2   2   2   2   2   2
#     4  10  20  37  61  90 115 154 194 241 290 342
#     4  10  18  38  64  85 117 157 193 233 296 347
#     4  11  22  37  59  85 116 156 196 243 294 345
#     4   8  20  35  64  89 115 155 192 236 291 351
#     4   9  20  37  57  84 119 147 195 235 293 342
#     4  12  23  36  57  88 121 153 199 242 291 344
#
# _framework density 20.178899000000001
#
# number of rings (size 3 to 8) (size 9 to 14) (size 15 to 20)
#    1.000    1.000    0.000    4.500    0.000    0.000 
#    0.000    0.833    0.000    4.000    0.000    0.000 
#    0.000    0.000    0.000    0.000    0.000    0.000 
#
# Total GULP energy -66885.803875 kJ/mol
# GULP energy per Si atom -5573.816990 kJ/mol
# Density = 2.013297 g / cm^3
# Si number density = 20.178899 Si / 1000 Ang^3
#
#
#
# Elastic Constant Matrix: (Units=GPa)
#
#
# Indices 1 2 3 4 5 6 
#
# 1 54.1959 44.4062 32.6652 9.3045 6.3960 8.0954
# 2 44.4062 117.5487 19.7148 16.4823 9.0866 9.2810
# 3 32.6652 19.7148 92.2696 19.2826 3.0709 12.3369
# 4 9.3045 16.4823 19.2826 30.2469 2.7977 14.3492
# 5 6.3960 9.0866 3.0709 2.7977 16.6517 4.1191
# 6 8.0954 9.2810 12.3369 14.3492 4.1191 40.7987
#
#
#
# Elastic Compliance Matrix: (Units=1/GPa)
#
#
# Indices 1 2 3 4 5 6 
#
# 1 0.033734 -0.010998 -0.009853 0.003248 -0.005233 -0.001826
# 2 -0.010998 0.013187 0.002175 -0.005247 -0.002649 0.000637
# 3 -0.009853 0.002175 0.015551 -0.007902 0.001202 -0.000584
# 4 0.003248 -0.005247 -0.007902 0.046366 -0.001446 -0.013222
# 5 -0.005233 -0.002649 0.001202 -0.001446 0.064705 -0.004747
# 6 -0.001826 0.000637 -0.000584 -0.013222 -0.004747 0.030034
#
#
# Mechanical properties :
#
#
# Convention : Reuss Voigt Hill
#
# Bulk Modulus (GPa) = 39.80767 50.84295 45.32531
# Shear Modulus (GPa) = 20.05599 28.68799 24.37199
#
# Velocity S-wave (km/s) = 3.15605 3.77461 3.47911
# Velocity P-wave (km/s) = 5.74901 6.65190 6.21686
#
# Compressibility (1/GPa) = 0.02512079
#
# Stress axis : x y z
#
# Youngs Moduli (GPa) = 29.64328 75.83166 64.30577
#
# Poissons Ratio (x) = 0.83399 0.63361
# Poissons Ratio (y) = 0.32602 -0.13989
# Poissons Ratio (z) = 0.29208 -0.16496
#
# Static dielectric constant tensor:
#      x y z
#    x 1.698340 0.044670 0.016420 
#    y 0.044670 1.758300 0.041720 
#    z 0.016420 0.041720 1.663390 
# 
# From -- ./inp_files/261216.got.cif
#   From: 2010.05.17/outbox.cif.g08.bks.cpg/sg2_131_cif.got.tgz:261216.got - 2010.06.03 11:33:40.
