data_PCOD9080621
_publ_section_title
;
Structure prediction by ZEFSAII (Michael W. Deem and Ramdas Pophale) SiO2 
 PCOD9080621
Probable space group: P -1
;
_chemical_formula_sum "Si O2"
_cell_formula_units_Z 15
_cell_length_a 11.242572
_cell_length_b 12.004116
_cell_length_c 12.014351
_cell_angle_alpha 128.559995
_cell_angle_beta 129.117795
_cell_angle_gamma 94.469157
_cell_volume 619.624644
_symmetry_space_group_name_H-M "P -1"
_symmetry_group_IT_number 2
_symmetry_cell_setting 'triclinic'
loop_
_space_group_symop_operation_xyz
x,y,z
-x,-y,-z
loop_
_atom_site_type_symbol
_atom_site_label
_atom_site_fract_x
_atom_site_fract_y
_atom_site_fract_z
Si Si1 0.702814 0.425198 0.106010
Si Si2 0.381819 0.759997 0.682340
Si Si3 0.256807 0.797805 0.164609
Si Si4 0.123567 0.278083 0.194247
Si Si5 0.900607 0.017886 0.129635
Si Si6 0.145102 0.059352 0.513234
Si Si7 0.052697 0.688205 0.286937
Si Si8 0.000000 0.500000 0.500000
O O1 0.869521 0.615374 0.228734
O O2 0.840700 0.515271 0.358703
O O3 0.705866 0.260290 0.965616
O O4 0.430177 0.281178 0.846938
O O5 0.284872 0.535260 0.446666
O O6 0.295140 0.809736 0.568479
O O7 0.217330 0.673871 0.639573
O O8 0.671157 0.952452 0.983311
O O9 0.500000 0.000000 0.500000
O O10 0.128129 0.850569 0.090035
O O11 0.090875 0.561316 0.984065
O O12 0.210078 0.207036 0.130385
O O13 0.062247 0.192552 0.231538
O O14 0.054601 0.081111 0.366714
O O15 0.100106 0.855836 0.340404
O O16 0.000000 0.000000 0.500000
#
# Coordination Sequence:
#
# PCOD9080621 Si02
#       8
#     2   2   2   2   2   2   2   1
#     4   9  21  39  64  93 131 173 225 280 340 395
#     4  10  21  41  66  94 130 179 229 282 332 408
#     4   9  18  42  69  93 130 176 226 287 339 395
#     4  10  22  44  62  97 133 181 233 274 347 404
#     4  11  25  40  65  95 141 180 223 283 346 410
#     4  12  25  43  63 103 138 178 229 281 357 418
#     4   8  22  40  64  95 127 171 233 271 336 408
#     4  10  18  40  66  96 130 172 228 290 326 404
#
# _framework density 24.208205
#
# number of rings (size 3 to 8) (size 9 to 14) (size 15 to 20)
#    0.800    1.333    1.333    2.000    1.867    3.733 
#    4.800    6.000    0.000    0.000    0.000    0.000 
#    0.000    0.000    0.000    0.000    0.000    0.000 
#
# Total GULP energy -83570.413171 kJ/mol
# GULP energy per Si atom -5571.360878 kJ/mol
# Density = 2.415311 g / cm^3
# Si number density = 24.208205 Si / 1000 Ang^3
#
#
#
# Elastic Constant Matrix: (Units=GPa)
#
#
# Indices 1 2 3 4 5 6 
#
# 1 121.2653 31.3410 41.8276 -9.6943 20.0202 -6.3219
# 2 31.3410 146.1259 50.6591 -27.2790 13.4804 -6.1436
# 3 41.8276 50.6591 94.6587 -29.4885 37.8873 -15.7815
# 4 -9.6943 -27.2790 -29.4885 32.3756 -17.1428 -3.9913
# 5 20.0202 13.4804 37.8873 -17.1428 47.9831 0.3829
# 6 -6.3219 -6.1436 -15.7815 -3.9913 0.3829 31.5146
#
#
#
# Elastic Compliance Matrix: (Units=1/GPa)
#
#
# Indices 1 2 3 4 5 6 
#
# 1 0.009956 -0.001069 -0.004105 -0.002529 -0.001511 -0.000569
# 2 -0.001069 0.009167 -0.003806 0.005476 0.002829 0.000326
# 3 -0.004105 -0.003806 0.026372 0.014372 -0.013016 0.013619
# 4 -0.002529 0.005476 0.014372 0.053387 0.007127 0.014432
# 5 -0.001511 0.002829 -0.013016 0.007127 0.033546 -0.005774
# 6 -0.000569 0.000326 0.013619 0.014432 -0.005774 0.040399
#
#
# Mechanical properties :
#
#
# Convention : Reuss Voigt Hill
#
# Bulk Modulus (GPa) = 36.31650 67.74503 52.03076
# Shear Modulus (GPa) = 25.00425 38.25614 31.63020
#
# Velocity S-wave (km/s) = 3.21734 3.97961 3.61860
# Velocity P-wave (km/s) = 5.36991 7.01152 6.24489
#
# Compressibility (1/GPa) = 0.02753569
#
# Stress axis : x y z
#
# Youngs Moduli (GPa) = 100.43899 109.08680 37.91830
#
# Poissons Ratio (x) = 0.11659 0.15566
# Poissons Ratio (y) = 0.10735 0.14432
# Poissons Ratio (z) = 0.41232 0.41520
#
# Static dielectric constant tensor:
#      x y z
#    x 1.946900 -0.023380 -0.022900 
#    y -0.023380 1.905450 0.012550 
#    z -0.022900 0.012550 1.898200 
# 
# From -- ./inp_files/428806.got.cif
#   From: 2010.05.17/outbox.cif.g08.bks.cpg/sg2_215_cif.got.tgz:428806.got - 2010.06.03 11:33:40.
