data_PCOD9080228
_publ_section_title
;
Structure prediction by ZEFSAII (Michael W. Deem and Ramdas Pophale) SiO2 
 PCOD9080228
Probable space group: P -1
;
_chemical_formula_sum "Si O2"
_cell_formula_units_Z 16
_cell_length_a 5.159376
_cell_length_b 8.048859
_cell_length_c 17.316327
_cell_angle_alpha 68.296694
_cell_angle_beta 69.476153
_cell_angle_gamma 92.056249
_cell_volume 614.286181
_symmetry_space_group_name_H-M "P -1"
_symmetry_group_IT_number 2
_symmetry_cell_setting 'triclinic'
loop_
_space_group_symop_operation_xyz
x,y,z
-x,-y,-z
loop_
_atom_site_type_symbol
_atom_site_label
_atom_site_fract_x
_atom_site_fract_y
_atom_site_fract_z
Si Si1 0.941772 0.219197 0.814138
Si Si2 0.735637 0.000448 0.267978
Si Si3 0.299262 0.451623 0.456100
Si Si4 0.470303 0.912839 0.878547
Si Si5 0.810829 0.656577 0.905789
Si Si6 0.391111 0.767595 0.635755
Si Si7 0.944032 0.708359 0.049469
Si Si8 0.240087 0.455025 0.294603
O O1 0.141248 0.248844 0.863028
O O2 0.792739 0.389219 0.787841
O O3 0.704624 0.041327 0.881888
O O4 0.111587 0.170510 0.729911
O O5 0.520712 0.988876 0.221729
O O6 0.631001 0.040538 0.356450
O O7 0.956501 0.183326 0.185520
O O8 0.500000 0.500000 0.500000
O O9 0.377793 0.259534 0.448818
O O10 0.331752 0.548578 0.351893
O O11 0.000000 0.500000 0.500000
O O12 0.537556 0.712638 0.887718
O O13 0.187088 0.868481 0.964122
O O14 0.921767 0.471644 0.921407
O O15 0.749413 0.677837 0.000163
O O16 0.519301 0.666955 0.712246
O O17 0.079170 0.670248 0.654995
#
# Coordination Sequence:
#
# PCOD9080228 Si02
#       8
#     2   2   2   2   2   2   2   2
#     4  11  24  36  57  87 127 158 211 261 317 371
#     4  10  23  37  57  83 125 162 207 258 317 370
#     4  10  18  38  67 101 126 154 201 251 299 368
#     4  10  22  37  54  80 117 168 207 263 319 370
#     4   9  20  37  56  79 112 156 222 267 312 366
#     4  10  22  39  67  94 125 163 205 247 309 365
#     4  10  20  37  56  81 111 163 216 271 313 361
#     4  10  23  39  66  98 124 164 203 259 302 367
#
# _framework density 26.046491
#
# number of rings (size 3 to 8) (size 9 to 14) (size 15 to 20)
#    0.750    1.250    1.250    1.500    7.000    5.500 
#    0.000    0.000    0.000    1.500    0.000    0.000 
#    0.000    0.000    0.000    0.000    0.000    0.000 
#
# Total GULP energy -89108.936774 kJ/mol
# GULP energy per Si atom -5569.308548 kJ/mol
# Density = 2.598721 g / cm^3
# Si number density = 26.046491 Si / 1000 Ang^3
#
#
#
# Elastic Constant Matrix: (Units=GPa)
#
#
# Indices 1 2 3 4 5 6 
#
# 1 128.7131 16.4027 23.2493 11.0223 15.8453 -10.1845
# 2 16.4027 44.0338 24.7740 15.9678 5.9374 -9.5893
# 3 23.2493 24.7740 84.5870 34.0026 25.4099 -0.1232
# 4 11.0223 15.9678 34.0026 54.6424 -3.8258 4.3033
# 5 15.8453 5.9374 25.4099 -3.8258 43.2581 -1.8593
# 6 -10.1845 -9.5893 -0.1232 4.3033 -1.8593 24.5014
#
#
#
# Elastic Compliance Matrix: (Units=1/GPa)
#
#
# Indices 1 2 3 4 5 6 
#
# 1 0.008751 -0.001343 -0.000659 -0.001395 -0.002622 0.003155
# 2 -0.001343 0.031881 -0.006529 -0.006003 -0.000024 0.012939
# 3 -0.000659 -0.006529 0.023498 -0.013445 -0.013915 -0.001406
# 4 -0.001395 -0.006003 -0.013445 0.030096 0.011576 -0.007404
# 5 -0.002622 -0.000024 -0.013915 0.011576 0.033249 -0.000679
# 6 0.003155 0.012939 -0.001406 -0.007404 -0.000679 0.048431
#
#
# Mechanical properties :
#
#
# Convention : Reuss Voigt Hill
#
# Bulk Modulus (GPa) = 21.24574 42.90956 32.07765
# Shear Modulus (GPa) = 23.96252 37.34090 30.65171
#
# Velocity S-wave (km/s) = 3.03642 3.79043 3.43418
# Velocity P-wave (km/s) = 4.52413 5.97214 5.29784
#
# Compressibility (1/GPa) = 0.04706827
#
# Stress axis : x y z
#
# Youngs Moduli (GPa) = 114.26983 31.36628 42.55650
#
# Poissons Ratio (x) = 0.04211 0.02806
# Poissons Ratio (y) = 0.15342 0.27786
# Poissons Ratio (z) = 0.07534 0.20480
#
# Static dielectric constant tensor:
#      x y z
#    x 2.112770 -0.002820 -0.052410 
#    y -0.002820 2.148450 0.049500 
#    z -0.052410 0.049500 2.109740 
# 
# From -- ./inp_files/547145.got.cif
#   From: 2010.05.17/outbox.cif.g08.bks.cpg/sg2_274_cif.got.tgz:547145.got - 2010.06.03 11:33:40.
