data_PCOD9080161
_publ_section_title
;
Structure prediction by ZEFSAII (Michael W. Deem and Ramdas Pophale) SiO2 
 PCOD9080161
Probable space group: P -1
;
_chemical_formula_sum "Si O2"
_cell_formula_units_Z 16
_cell_length_a 12.911168
_cell_length_b 8.249441
_cell_length_c 8.861202
_cell_angle_alpha 95.935617
_cell_angle_beta 86.446114
_cell_angle_gamma 45.485979
_cell_volume 657.255747
_symmetry_space_group_name_H-M "P -1"
_symmetry_group_IT_number 2
_symmetry_cell_setting 'triclinic'
loop_
_space_group_symop_operation_xyz
x,y,z
-x,-y,-z
loop_
_atom_site_type_symbol
_atom_site_label
_atom_site_fract_x
_atom_site_fract_y
_atom_site_fract_z
Si Si1 0.534755 0.901056 0.151484
Si Si2 0.282576 0.986801 0.876148
Si Si3 0.065405 0.608178 0.687005
Si Si4 0.215293 0.595178 0.969258
Si Si5 0.776350 0.088621 0.815084
Si Si6 0.637980 0.773769 0.565192
Si Si7 0.454202 0.479712 0.340636
Si Si8 0.017673 0.597992 0.152883
O O1 0.658133 0.904085 0.182276
O O2 0.387985 0.074425 0.280226
O O3 0.617340 0.637237 0.112372
O O4 0.500000 0.000000 0.000000
O O5 0.401768 0.721307 0.790625
O O6 0.126233 0.127668 0.823954
O O7 0.263696 0.000261 0.060128
O O8 0.207889 0.417515 0.552499
O O9 0.001255 0.500306 0.716846
O O10 0.122809 0.640756 0.835853
O O11 0.920401 0.874613 0.686039
O O12 0.191656 0.797072 0.061028
O O13 0.164729 0.533077 0.104934
O O14 0.654578 0.288782 0.727569
O O15 0.610594 0.625489 0.622318
O O16 0.500000 0.000000 0.500000
O O17 0.500000 0.500000 0.500000
O O18 0.000000 0.500000 0.000000
#
# Coordination Sequence:
#
# PCOD9080161 Si02
#       8
#     2   2   2   2   2   2   2   2
#     4  11  22  40  66  97 131 173 226 276 315 387
#     4  11  21  42  69  96 130 168 228 272 324 400
#     4  11  21  40  70  99 140 172 220 272 337 395
#     4  11  20  37  67 103 133 166 218 278 328 390
#     4  12  25  41  68 103 131 174 227 269 333 410
#     4  11  23  43  69  95 130 179 220 271 333 392
#     4  11  28  46  62  92 138 179 217 277 338 391
#     4  10  18  38  65 101 128 169 211 275 329 385
#
# _framework density 24.343646
#
# number of rings (size 3 to 8) (size 9 to 14) (size 15 to 20)
#    0.000    1.000    6.250    3.000    1.750    1.500 
#    0.000    2.500    0.000    5.250    0.000    0.000 
#    0.000    0.000    0.000    0.000    0.000    0.000 
#
# Total GULP energy -89399.691874 kJ/mol
# GULP energy per Si atom -5587.480742 kJ/mol
# Density = 2.428824 g / cm^3
# Si number density = 24.343646 Si / 1000 Ang^3
#
#
#
# Elastic Constant Matrix: (Units=GPa)
#
#
# Indices 1 2 3 4 5 6 
#
# 1 64.8973 31.1971 38.2058 14.4659 -13.4297 7.2505
# 2 31.1971 206.1501 63.6947 27.8593 -15.5261 -25.1694
# 3 38.2058 63.6947 115.1139 31.1964 -18.7214 -17.1043
# 4 14.4659 27.8593 31.1964 51.9105 -14.0524 -9.1266
# 5 -13.4297 -15.5261 -18.7214 -14.0524 38.5092 -1.1783
# 6 7.2505 -25.1694 -17.1043 -9.1266 -1.1783 35.2357
#
#
#
# Elastic Compliance Matrix: (Units=1/GPa)
#
#
# Indices 1 2 3 4 5 6 
#
# 1 0.022507 -0.002018 -0.006813 -0.002106 0.002654 -0.009836
# 2 -0.002018 0.006397 -0.001955 -0.000818 0.000744 0.003848
# 3 -0.006813 -0.001955 0.014425 -0.003952 0.002592 0.006070
# 4 -0.002106 -0.000818 -0.003952 0.025206 0.006356 0.004672
# 5 0.002654 0.000744 0.002592 0.006356 0.030893 0.003923
# 6 -0.009836 0.003848 0.006070 0.004672 0.003923 0.037441
#
#
# Mechanical properties :
#
#
# Convention : Reuss Voigt Hill
#
# Bulk Modulus (GPa) = 45.96236 72.48406 59.22321
# Shear Modulus (GPa) = 30.17624 42.00201 36.08912
#
# Velocity S-wave (km/s) = 3.52461 4.15827 3.85448
# Velocity P-wave (km/s) = 5.95696 7.27289 6.64757
#
# Compressibility (1/GPa) = 0.02175694
#
# Stress axis : x y z
#
# Youngs Moduli (GPa) = 44.43014 156.33040 69.32582
#
# Poissons Ratio (x) = 0.31540 0.47231
# Poissons Ratio (y) = 0.08964 0.13556
# Poissons Ratio (z) = 0.30270 0.30569
#
# Static dielectric constant tensor:
#      x y z
#    x 2.055950 0.017490 0.017910 
#    y 0.017490 1.984740 0.012330 
#    z 0.017910 0.012330 1.974120 
# 
# From -- ./inp_files/298488.got.cif
#   From: 2010.05.17/outbox.cif.g08.bks.cpg/sg2_150_cif.got.tgz:298488.got - 2010.06.03 11:33:40.
