data_PCOD9080875
_publ_section_title
;
Structure prediction by ZEFSAII (Michael W. Deem and Ramdas Pophale) SiO2 
 PCOD9080875
Probable space group: P -1
;
_chemical_formula_sum "Si O2"
_cell_formula_units_Z 14
_cell_length_a 27.931873
_cell_length_b 13.962395
_cell_length_c 14.978913
_cell_angle_alpha 159.812064
_cell_angle_beta 155.503233
_cell_angle_gamma 25.328053
_cell_volume 783.668255
_symmetry_space_group_name_H-M "P -1"
_symmetry_group_IT_number 2
_symmetry_cell_setting 'triclinic'
loop_
_space_group_symop_operation_xyz
x,y,z
-x,-y,-z
loop_
_atom_site_type_symbol
_atom_site_label
_atom_site_fract_x
_atom_site_fract_y
_atom_site_fract_z
Si Si1 0.839650 0.428896 0.621361
Si Si2 0.370061 0.490041 0.808570
Si Si3 0.893007 0.751811 0.157840
Si Si4 0.575685 0.651500 0.822018
Si Si5 0.289801 0.316376 0.083316
Si Si6 0.560079 0.121667 0.626211
Si Si7 0.562976 0.378236 0.279459
O O1 0.728238 0.483478 0.411834
O O2 0.963177 0.407647 0.758469
O O3 0.865353 0.102683 0.420403
O O4 0.823149 0.665729 0.879669
O O5 0.500000 0.500000 0.000000
O O6 0.334661 0.765830 0.057127
O O7 0.531839 0.595161 0.332230
O O8 0.841743 0.653898 0.074161
O O9 0.500000 0.500000 0.500000
O O10 0.697624 0.613877 0.938688
O O11 0.562042 0.556414 0.816750
O O12 0.500000 0.000000 0.000000
O O13 0.344153 0.524040 0.415273
O O14 0.376021 0.970417 0.942744
O O15 0.500000 0.000000 0.500000
O O16 0.604808 0.831218 0.386251
#
# Coordination Sequence:
#
# PCOD9080875 Si02
#       7
#     2   2   2   2   2   2   2
#     4  10  21  36  46  69  99 128 164 203 232 291
#     4  10  21  32  47  65  96 126 166 194 233 278
#     4  10  21  32  52  69  93 131 163 197 248 277
#     4   8  16  30  44  68  94 122 153 196 244 285
#     4  10  19  29  51  71  92 127 162 192 248 291
#     4  10  21  30  43  71  92 131 162 184 239 280
#     4  10  19  31  47  69 104 124 154 203 236 290
#
# _framework density 17.864702000000001
#
# number of rings (size 3 to 8) (size 9 to 14) (size 15 to 20)
#    0.000    2.286    0.000    2.571   12.000    0.000 
#    0.000    0.000    0.000    0.000    0.000    2.000 
#    0.000    0.000    0.000    0.000    0.000    0.000 
#
# Total GULP energy -77938.422420 kJ/mol
# GULP energy per Si atom -5567.030173 kJ/mol
# Density = 1.782404 g / cm^3
# Si number density = 17.864702 Si / 1000 Ang^3
#
#
#
# Elastic Constant Matrix: (Units=GPa)
#
#
# Indices 1 2 3 4 5 6 
#
# 1 92.5464 -6.8702 5.4231 -2.5479 23.6823 0.6582
# 2 -6.8702 26.2893 12.3650 6.6562 0.2316 5.0167
# 3 5.4231 12.3650 101.9234 16.7603 -5.6929 -9.0580
# 4 -2.5479 6.6562 16.7603 36.2666 -6.8403 0.3043
# 5 23.6823 0.2316 -5.6929 -6.8403 26.4746 2.0441
# 6 0.6582 5.0167 -9.0580 0.3043 2.0441 16.1014
#
#
#
# Elastic Compliance Matrix: (Units=1/GPa)
#
#
# Indices 1 2 3 4 5 6 
#
# 1 0.014968 0.005836 -0.002185 -0.001673 -0.014201 -0.001825
# 2 0.005836 0.048054 -0.007121 -0.006365 -0.007415 -0.018155
# 3 -0.002185 -0.007121 0.012432 -0.004115 0.002931 0.009008
# 4 -0.001673 -0.006365 -0.004115 0.032271 0.009163 -0.002036
# 5 -0.014201 -0.007415 0.002931 0.009163 0.053727 -0.002454
# 6 -0.001825 -0.018155 0.009008 -0.002036 -0.002454 0.073255
#
#
# Mechanical properties :
#
#
# Convention : Reuss Voigt Hill
#
# Bulk Modulus (GPa) = 14.59556 26.95499 20.77528
# Shear Modulus (GPa) = 18.90463 29.75793 24.33128
#
# Velocity S-wave (km/s) = 3.25655 4.08577 3.69450
# Velocity P-wave (km/s) = 4.72524 6.11386 5.46384
#
# Compressibility (1/GPa) = 0.06851397
#
# Stress axis : x y z
#
# Youngs Moduli (GPa) = 66.81118 20.80987 80.43560
#
# Poissons Ratio (x) = -0.12144 0.17572
# Poissons Ratio (y) = -0.38990 0.57280
# Poissons Ratio (z) = 0.14596 0.14819
#
# Static dielectric constant tensor:
#      x y z
#    x 1.734900 -0.035730 -0.042270 
#    y -0.035730 1.645530 0.044200 
#    z -0.042270 0.044200 1.675120 
# 
# From -- ./inp_files/474800.got.cif
#   From: 2010.05.17/outbox.cif.g08.bks.cpg/sg2_238_cif.got.tgz:474800.got - 2010.06.03 11:33:40.
