data_PCOD9080900
_publ_section_title
;
Structure prediction by ZEFSAII (Michael W. Deem and Ramdas Pophale) SiO2 
 PCOD9080900
Probable space group: P -1
;
_chemical_formula_sum "Si O2"
_cell_formula_units_Z 16
_cell_length_a 21.231839
_cell_length_b 24.021853
_cell_length_c 9.024685
_cell_angle_alpha 71.016930
_cell_angle_beta 98.946243
_cell_angle_gamma 160.947576
_cell_volume 1236.708986
_symmetry_space_group_name_H-M "P -1"
_symmetry_group_IT_number 2
_symmetry_cell_setting 'triclinic'
loop_
_space_group_symop_operation_xyz
x,y,z
-x,-y,-z
loop_
_atom_site_type_symbol
_atom_site_label
_atom_site_fract_x
_atom_site_fract_y
_atom_site_fract_z
Si Si1 0.751712 0.913499 0.143378
Si Si2 0.983138 0.803188 0.236213
Si Si3 0.513058 0.333110 0.471254
Si Si4 0.867751 0.778451 0.747667
Si Si5 0.292939 0.267984 0.464073
Si Si6 0.378493 0.289192 0.992298
Si Si7 0.802168 0.963956 0.618152
Si Si8 0.224138 0.249093 0.777390
O O1 0.560134 0.759411 0.321458
O O2 0.646015 0.773075 0.110713
O O3 0.965489 0.082188 0.174548
O O4 0.847128 0.050642 0.962079
O O5 0.767522 0.573485 0.343317
O O6 0.902324 0.801001 0.207980
O O7 0.109635 0.910356 0.343656
O O8 0.377060 0.275738 0.470612
O O9 0.408305 0.204791 0.410205
O O10 0.825905 0.809099 0.656350
O O11 0.630611 0.535880 0.895450
O O12 0.996378 0.869318 0.568088
O O13 0.185016 0.185016 0.657494
O O14 0.517579 0.504825 0.345547
O O15 0.220446 0.203641 0.959080
O O16 0.287277 0.170579 0.199068
#
# Coordination Sequence:
#
# PCOD9080900 Si02
#       8
#     2   2   2   2   2   2   2   2
#     4  10  20  27  40  50  50  68  78  74  96 106
#     4  10  19  30  37  46  59  63  72  87  89  98
#     4  10  19  30  37  46  59  63  72  87  89  98
#     4  10  19  30  37  46  59  63  72  87  89  98
#     4   9  16  26  38  45  53  66  71  79  94  97
#     4  10  19  30  37  46  59  63  72  87  89  98
#     4  10  20  27  40  50  50  68  78  74  96 106
#     4   9  16  26  38  45  53  66  71  79  94  97
#
# _framework density 12.937563000000001
#
# number of rings (size 3 to 8) (size 9 to 14) (size 15 to 20)
#    0.000    2.250    2.500    1.500    0.000    7.000 
#    0.000    3.750    0.000    0.000    0.000    0.000 
#    0.000    0.000    0.000    0.000    0.000    0.000 
#
# Total GULP energy -89164.352191 kJ/mol
# GULP energy per Si atom -5572.772012 kJ/mol
# Density = 1.290812 g / cm^3
# Si number density = 12.937563 Si / 1000 Ang^3
#
#
#
# Elastic Constant Matrix: (Units=GPa)
#
#
# Indices 1 2 3 4 5 6 
#
# 1 0.0884 1.9050 0.3707 0.5333 -0.1313 -0.4078
# 2 1.9050 56.4510 4.8635 -6.9638 0.9587 -10.3027
# 3 0.3707 4.8635 50.8871 -3.9287 -3.2083 -0.6284
# 4 0.5333 -6.9638 -3.9287 27.2101 -4.9220 -0.7811
# 5 -0.1313 0.9587 -3.2083 -4.9220 1.1956 0.1991
# 6 -0.4078 -10.3027 -0.6284 -0.7811 0.1991 2.0403
#
#
#
# Elastic Compliance Matrix: (Units=1/GPa)
#
#
# Indices 1 2 3 4 5 6 
#
# 1 ********************213.057123359.961951********************
# 2 **********238.770329204.590130601.509925********************
# 3 213.057123204.590130259.048451721.960528********************
# 4 359.961952601.509925721.960528******************************
# 5 ************************************************************
# 6 ************************************************************
#
#
# Mechanical properties :
#
#
# Convention : Reuss Voigt Hill
#
# Bulk Modulus (GPa) = -0.00075 13.52276 6.76101
# Shear Modulus (GPa) = 0.00010 12.77501 6.38755
#
# Velocity S-wave (km/s) = 0.00890 3.14576 2.22440
# Velocity P-wave (km/s) = 0.02177 4.86512 3.44013
#
# Compressibility (1/GPa) = *************
#
# Stress axis : x y z
#
# Youngs Moduli (GPa) = -0.00054 0.00419 0.00386
#
# Poissons Ratio (x) = 1.71129 -0.82246
# Poissons Ratio (y) = -0.22060 -0.78978
# Poissons Ratio (z) = 0.11503 -0.85685
#
# Static dielectric constant tensor:
#      x y z
#    x 1.355610 -0.026780 -0.007850 
#    y -0.026780 1.505150 0.000230 
#    z -0.007850 0.000230 1.510860 
# 
# From -- ./inp_files/349801.got.cif
#   From: 2010.05.17/outbox.cif.g08.bks.cpg/sg2_175_cif.got.tgz:349801.got - 2010.06.03 11:33:40.
