data_PCOD9080436
_publ_section_title
;
Structure prediction by ZEFSAII (Michael W. Deem and Ramdas Pophale) SiO2 
 PCOD9080436
Probable space group: P -1
;
_chemical_formula_sum "Si O2"
_cell_formula_units_Z 16
_cell_length_a 14.450753
_cell_length_b 12.514486
_cell_length_c 9.110827
_cell_angle_alpha 78.105465
_cell_angle_beta 27.981278
_cell_angle_gamma 68.075468
_cell_volume 687.597975
_symmetry_space_group_name_H-M "P -1"
_symmetry_group_IT_number 2
_symmetry_cell_setting 'triclinic'
loop_
_space_group_symop_operation_xyz
x,y,z
-x,-y,-z
loop_
_atom_site_type_symbol
_atom_site_label
_atom_site_fract_x
_atom_site_fract_y
_atom_site_fract_z
Si Si1 0.495614 0.509311 0.748773
Si Si2 0.028791 0.712719 0.263736
Si Si3 0.401041 0.663415 0.110383
Si Si4 0.097061 0.533739 0.999120
Si Si5 0.014544 0.023379 0.803669
Si Si6 0.686210 0.931534 0.144965
Si Si7 0.088102 0.315941 0.244302
Si Si8 0.249977 0.939946 0.233641
O O1 0.495966 0.391925 0.862032
O O2 0.674658 0.475659 0.382498
O O3 0.263983 0.604587 0.993299
O O4 0.538371 0.578993 0.809780
O O5 0.059904 0.834855 0.162729
O O6 0.890929 0.717565 0.602096
O O7 0.960361 0.664493 0.225763
O O8 0.357382 0.798742 0.102600
O O9 0.159335 0.665556 0.447982
O O10 0.114776 0.434389 0.124656
O O11 0.000000 0.500000 0.000000
O O12 0.236695 0.967242 0.416572
O O13 0.882399 0.954682 0.934750
O O14 0.000000 0.000000 0.000000
O O15 0.500000 0.000000 0.500000
O O16 0.757509 0.793270 0.043993
O O17 0.630441 0.999560 0.048702
O O18 0.000000 0.000000 0.500000
#
# Coordination Sequence:
#
# PCOD9080436 Si02
#       8
#     2   2   2   2   2   2   2   2
#     4  10  22  40  63  97 126 170 219 271 310 386
#     4  11  25  46  65  94 134 176 224 263 328 399
#     4  10  19  37  66  93 130 169 220 258 319 392
#     4  12  26  40  66  96 132 173 219 276 328 378
#     4  11  24  42  70  96 126 172 224 268 324 402
#     4  11  23  41  69 100 130 168 217 274 334 389
#     4  11  21  42  67  92 135 174 215 263 336 394
#     4  10  18  39  65  94 123 173 214 259 323 399
#
# _framework density 23.269411000000002
#
# number of rings (size 3 to 8) (size 9 to 14) (size 15 to 20)
#    0.000    1.250    5.000    3.000    7.000    0.000 
#    0.000    0.625    0.000    0.000    0.000    0.000 
#    0.000    0.000    0.000    0.000    0.000    0.000 
#
# Total GULP energy -89354.378050 kJ/mol
# GULP energy per Si atom -5584.648628 kJ/mol
# Density = 2.321645 g / cm^3
# Si number density = 23.269411 Si / 1000 Ang^3
#
#
#
# Elastic Constant Matrix: (Units=GPa)
#
#
# Indices 1 2 3 4 5 6 
#
# 1 64.4994 -9.3108 13.2271 -2.3717 24.8012 4.4335
# 2 -9.3108 103.6579 -7.1666 14.8413 3.6831 -0.7560
# 3 13.2271 -7.1666 93.4697 10.1158 43.7295 -0.4543
# 4 -2.3717 14.8413 10.1158 36.2457 -0.4939 12.8259
# 5 24.8012 3.6831 43.7295 -0.4939 38.3965 -1.5378
# 6 4.4335 -0.7560 -0.4543 12.8259 -1.5378 32.1807
#
#
#
# Elastic Compliance Matrix: (Units=1/GPa)
#
#
# Indices 1 2 3 4 5 6 
#
# 1 0.025214 0.004271 0.010398 -0.002054 -0.028717 -0.003780
# 2 0.004271 0.011913 0.006280 -0.007261 -0.011062 0.002146
# 3 0.010398 0.006280 0.030929 -0.011738 -0.042623 0.001793
# 4 -0.002054 -0.007261 -0.011738 0.039202 0.015298 -0.014946
# 5 -0.028717 -0.011062 -0.042623 0.015298 0.094454 0.001511
# 6 -0.003780 0.002146 0.001793 -0.014946 0.001511 0.037700
#
#
# Mechanical properties :
#
#
# Convention : Reuss Voigt Hill
#
# Bulk Modulus (GPa) = 9.09462 28.34738 18.72100
# Shear Modulus (GPa) = 21.35247 39.02305 30.18776
#
# Velocity S-wave (km/s) = 3.03251 4.09957 3.60573
# Velocity P-wave (km/s) = 4.02224 5.88365 5.03963
#
# Compressibility (1/GPa) = 0.10995507
#
# Stress axis : x y z
#
# Youngs Moduli (GPa) = 39.65980 83.94001 32.33250
#
# Poissons Ratio (x) = -0.35848 -0.33620
# Poissons Ratio (y) = -0.16937 -0.20306
# Poissons Ratio (z) = -0.41239 -0.52718
#
# Static dielectric constant tensor:
#      x y z
#    x 2.032460 0.025970 -0.006890 
#    y 0.025970 1.881470 -0.007540 
#    z -0.006890 -0.007540 1.899970 
# 
# From -- ./inp_files/305093.got.cif
#   From: 2010.05.17/outbox.cif.g08.bks.cpg/sg2_153_cif.got.tgz:305093.got - 2010.06.03 11:33:40.
