data_PCOD9080005
_publ_section_title
;
Structure prediction by ZEFSAII (Michael W. Deem and Ramdas Pophale) SiO2 
 PCOD9080005
Probable space group: P -1
;
_chemical_formula_sum "Si O2"
_cell_formula_units_Z 14
_cell_length_a 13.118478
_cell_length_b 11.854356
_cell_length_c 13.297872
_cell_angle_alpha 45.112652
_cell_angle_beta 33.815409
_cell_angle_gamma 32.845086
_cell_volume 623.989957
_symmetry_space_group_name_H-M "P -1"
_symmetry_group_IT_number 2
_symmetry_cell_setting 'triclinic'
loop_
_space_group_symop_operation_xyz
x,y,z
-x,-y,-z
loop_
_atom_site_type_symbol
_atom_site_label
_atom_site_fract_x
_atom_site_fract_y
_atom_site_fract_z
Si Si1 0.967853 0.085183 0.626522
Si Si2 0.745816 0.059909 0.152550
Si Si3 0.544080 0.172984 0.039465
Si Si4 0.227568 0.502742 0.933176
Si Si5 0.661544 0.180964 0.362954
Si Si6 0.358251 0.688810 0.419675
Si Si7 0.709852 0.776881 0.233921
O O1 0.126714 0.044968 0.618221
O O2 0.164004 0.890299 0.518518
O O3 0.802908 0.280744 0.563202
O O4 0.773539 0.076470 0.841459
O O5 0.605934 0.207450 0.077573
O O6 0.610702 0.153857 0.308952
O O7 0.786119 0.856977 0.210338
O O8 0.000000 0.000000 0.000000
O O9 0.532654 0.989891 0.180867
O O10 0.323030 0.378816 0.037795
O O11 0.254351 0.681269 0.795752
O O12 0.422532 0.337745 0.795068
O O13 0.953338 0.605616 0.083447
O O14 0.435516 0.278895 0.558030
O O15 0.500000 0.500000 0.500000
#
# Coordination Sequence:
#
# PCOD9080005 Si02
#       7
#     2   2   2   2   2   2   2
#     4  10  19  35  61  87 112 156 193 235 292 349
#     4  10  18  38  61  81 119 160 192 231 292 342
#     4   9  20  38  58  84 116 157 187 240 284 342
#     4  11  21  39  60  86 115 154 196 240 290 343
#     4  12  20  38  62  88 118 155 195 240 290 341
#     4  10  19  35  63  86 112 152 197 235 293 347
#     4  10  22  39  57  85 124 154 191 243 283 344
#
# _framework density 22.436259
#
# number of rings (size 3 to 8) (size 9 to 14) (size 15 to 20)
#    0.857    0.857    5.714    0.429    0.000    0.571 
#    5.143    1.429    0.000    5.143    0.000    0.000 
#    0.000    0.000    0.000    0.000    0.000    0.000 
#
# Total GULP energy -77968.959914 kJ/mol
# GULP energy per Si atom -5569.211422 kJ/mol
# Density = 2.238519 g / cm^3
# Si number density = 22.436259 Si / 1000 Ang^3
#
#
#
# Elastic Constant Matrix: (Units=GPa)
#
#
# Indices 1 2 3 4 5 6 
#
# 1 99.9790 40.1128 31.4258 -19.2790 17.4590 -22.2996
# 2 40.1128 105.7140 46.2356 -10.8448 3.5348 -42.1712
# 3 31.4258 46.2356 121.4455 6.8678 17.5344 -12.2664
# 4 -19.2790 -10.8448 6.8678 26.3145 -5.9791 14.6312
# 5 17.4590 3.5348 17.5344 -5.9791 34.2774 -3.2562
# 6 -22.2996 -42.1712 -12.2664 14.6312 -3.2562 45.4865
#
#
#
# Elastic Compliance Matrix: (Units=1/GPa)
#
#
# Indices 1 2 3 4 5 6 
#
# 1 0.014598 -0.003359 -0.002342 0.008784 -0.004332 0.000275
# 2 -0.003359 0.018752 -0.005272 -0.000748 0.003752 0.014826
# 3 -0.002342 -0.005272 0.012095 -0.008051 -0.005912 -0.000608
# 4 0.008784 -0.000748 -0.008051 0.057181 0.008140 -0.016368
# 5 -0.004332 0.003752 -0.005912 0.008140 0.035407 -0.000324
# 6 0.000275 0.014826 -0.000608 -0.016368 -0.000324 0.040943
#
#
# Mechanical properties :
#
#
# Convention : Reuss Voigt Hill
#
# Bulk Modulus (GPa) = 42.55558 62.52074 52.53816
# Shear Modulus (GPa) = 23.95169 35.17329 29.56249
#
# Velocity S-wave (km/s) = 3.27087 3.96371 3.63384
# Velocity P-wave (km/s) = 5.76830 6.99103 6.40889
#
# Compressibility (1/GPa) = 0.02349868
#
# Stress axis : x y z
#
# Youngs Moduli (GPa) = 68.50380 53.32805 82.68077
#
# Poissons Ratio (x) = 0.17913 0.19364
# Poissons Ratio (y) = 0.23010 0.43587
# Poissons Ratio (z) = 0.16044 0.28113
#
# Static dielectric constant tensor:
#      x y z
#    x 1.900680 0.021390 0.011700 
#    y 0.021390 1.857690 -0.011640 
#    z 0.011700 -0.011640 1.847210 
# 
# From -- ./inp_files/533205.got.cif
#   From: 2010.05.17/outbox.cif.g08.bks.cpg/sg2_267_cif.got.tgz:533205.got - 2010.06.03 11:33:40.
