data_PCOD9080142
_publ_section_title
;
Structure prediction by ZEFSAII (Michael W. Deem and Ramdas Pophale) SiO2 
 PCOD9080142
Probable space group: P -1
;
_chemical_formula_sum "Si O2"
_cell_formula_units_Z 14
_cell_length_a 11.968171
_cell_length_b 19.924384
_cell_length_c 11.627839
_cell_angle_alpha 23.943570
_cell_angle_beta 130.836225
_cell_angle_gamma 141.065994
_cell_volume 689.249760
_symmetry_space_group_name_H-M "P -1"
_symmetry_group_IT_number 2
_symmetry_cell_setting 'triclinic'
loop_
_space_group_symop_operation_xyz
x,y,z
-x,-y,-z
loop_
_atom_site_type_symbol
_atom_site_label
_atom_site_fract_x
_atom_site_fract_y
_atom_site_fract_z
Si Si1 0.306707 0.663879 0.493025
Si Si2 0.130196 0.163900 0.660593
Si Si3 0.926130 0.350689 0.818527
Si Si4 0.083506 0.935493 0.560588
Si Si5 0.487972 0.525445 0.665085
Si Si6 0.086924 0.278923 0.690767
Si Si7 0.485836 0.322082 0.193545
O O1 0.229102 0.760538 0.210482
O O2 0.439210 0.646952 0.526237
O O3 0.404753 0.743567 0.556994
O O4 0.121590 0.441022 0.750476
O O5 0.347830 0.317724 0.552550
O O6 0.065658 0.240090 0.601092
O O7 0.045718 0.155799 0.493551
O O8 0.053199 0.933903 0.005388
O O9 0.934689 0.546846 0.557260
O O10 0.891673 0.217812 0.113586
O O11 0.277422 0.132262 0.344270
O O12 0.000000 0.000000 0.500000
O O13 0.294493 0.361213 0.732505
O O14 0.547743 0.415024 0.962647
O O15 0.500000 0.500000 0.000000
#
# Coordination Sequence:
#
# PCOD9080142 Si02
#       7
#     2   2   2   2   2   2   2
#     4   9  19  36  56  88 126 154 193 251 315 353
#     4  11  23  40  68  90 121 171 209 247 306 369
#     4  10  22  39  60  88 129 161 198 264 306 362
#     4  12  23  37  64  92 121 164 208 252 318 367
#     4  10  18  38  64  91 122 158 207 257 301 361
#     4  10  23  43  62  92 127 163 212 250 298 371
#     4  10  19  35  55  88 126 153 201 253 298 369
#
# _framework density 20.311941000000001
#
# number of rings (size 3 to 8) (size 9 to 14) (size 15 to 20)
#    0.000    1.714    1.429    4.714    4.000    1.143 
#    5.143    0.000    0.000    1.714    0.000    0.000 
#    0.000    0.000    0.000    0.000    0.000    0.000 
#
# Total GULP energy -78137.820554 kJ/mol
# GULP energy per Si atom -5581.272897 kJ/mol
# Density = 2.026571 g / cm^3
# Si number density = 20.311941 Si / 1000 Ang^3
#
#
#
# Elastic Constant Matrix: (Units=GPa)
#
#
# Indices 1 2 3 4 5 6 
#
# 1 68.7992 26.1693 47.5183 2.0975 -17.8227 0.7805
# 2 26.1693 62.3712 21.8833 15.6903 -7.4100 -13.6429
# 3 47.5183 21.8833 102.0366 0.5079 -21.5504 -4.3517
# 4 2.0975 15.6903 0.5079 35.0363 2.0824 -10.4182
# 5 -17.8227 -7.4100 -21.5504 2.0824 32.0764 -4.7663
# 6 0.7805 -13.6429 -4.3517 -10.4182 -4.7663 30.9318
#
#
#
# Elastic Compliance Matrix: (Units=1/GPa)
#
#
# Indices 1 2 3 4 5 6 
#
# 1 0.025255 -0.007836 -0.009128 0.000508 0.005407 -0.004373
# 2 -0.007836 0.023551 -0.000482 -0.007754 0.002498 0.008291
# 3 -0.009128 -0.000482 0.015493 0.001238 0.005664 0.003487
# 4 0.000508 -0.007754 0.001238 0.034473 -0.001714 0.008088
# 5 0.005407 0.002498 0.005664 -0.001714 0.039760 0.007312
# 6 -0.004373 0.008291 0.003487 0.008088 0.007312 0.040438
#
#
# Mechanical properties :
#
#
# Convention : Reuss Voigt Hill
#
# Bulk Modulus (GPa) = 34.00416 47.14987 40.57702
# Shear Modulus (GPa) = 22.35514 28.78463 25.56989
#
# Velocity S-wave (km/s) = 3.32111 3.76856 3.55189
# Velocity P-wave (km/s) = 5.61104 6.49610 6.06972
#
# Compressibility (1/GPa) = 0.02940816
#
# Stress axis : x y z
#
# Youngs Moduli (GPa) = 39.59672 42.46172 64.54415
#
# Poissons Ratio (x) = 0.33271 0.58913
# Poissons Ratio (y) = 0.31027 0.03111
# Poissons Ratio (z) = 0.36142 0.02046
#
# Static dielectric constant tensor:
#      x y z
#    x 1.707090 0.011820 0.010760 
#    y 0.011820 1.776400 0.038560 
#    z 0.010760 0.038560 1.755300 
# 
# From -- ./inp_files/177001.got.cif
#   From: 2010.05.17/outbox.cif.g08.bks.cpg/sg2_89_cif.got.tgz:177001.got - 2010.06.03 11:33:40.
