data_PCOD9080949
_publ_section_title
;
Structure prediction by ZEFSAII (Michael W. Deem and Ramdas Pophale) SiO2 
 PCOD9080949
Probable space group: P -1
;
_chemical_formula_sum "Si O2"
_cell_formula_units_Z 16
_cell_length_a 18.420808
_cell_length_b 6.956419
_cell_length_c 11.597713
_cell_angle_alpha 121.329635
_cell_angle_beta 66.230716
_cell_angle_gamma 68.310490
_cell_volume 780.334059
_symmetry_space_group_name_H-M "P -1"
_symmetry_group_IT_number 2
_symmetry_cell_setting 'triclinic'
loop_
_space_group_symop_operation_xyz
x,y,z
-x,-y,-z
loop_
_atom_site_type_symbol
_atom_site_label
_atom_site_fract_x
_atom_site_fract_y
_atom_site_fract_z
Si Si1 0.377615 0.049010 0.258429
Si Si2 0.248220 0.514678 0.676923
Si Si3 0.641998 0.640158 0.981962
Si Si4 0.131511 0.156255 0.840297
Si Si5 0.571332 0.258554 0.098186
Si Si6 0.308362 0.666220 0.374153
Si Si7 0.280545 0.247726 0.825592
Si Si8 0.540344 0.682318 0.433881
O O1 0.285093 0.237052 0.480375
O O2 0.343292 0.352689 0.310466
O O3 0.513391 0.796131 0.133913
O O4 0.373803 0.871242 0.105026
O O5 0.244281 0.429341 0.781868
O O6 0.361436 0.447758 0.579369
O O7 0.143382 0.892140 0.816348
O O8 0.713033 0.347358 0.750311
O O9 0.710730 0.571517 0.030339
O O10 0.608968 0.948844 0.039989
O O11 0.191415 0.230907 0.899016
O O12 0.207605 0.974588 0.616720
O O13 0.000000 0.500000 0.000000
O O14 0.429799 0.550749 0.264716
O O15 0.596318 0.407450 0.215287
O O16 0.414225 0.861972 0.616836
O O17 0.500000 0.000000 0.500000
#
# Coordination Sequence:
#
# PCOD9080949 Si02
#       8
#     2   2   2   2   2   2   2   2
#     4   8  15  28  50  79 112 144 171 213 269 328
#     4  10  21  36  54  83 117 136 178 231 261 333
#     4   9  16  28  53  81 109 141 174 216 277 330
#     4  11  23  39  59  77 101 149 195 227 269 311
#     4   9  15  28  50  78 112 148 176 209 267 330
#     4   8  16  31  51  79 106 137 185 226 258 320
#     4  11  21  34  55  82 112 144 175 220 283 321
#     4  10  19  30  48  80 116 143 167 212 273 332
#
# _framework density 20.50404
#
# number of rings (size 3 to 8) (size 9 to 14) (size 15 to 20)
#    0.000    2.500    2.500    2.250    0.000    1.500 
#    0.000    5.625    0.000    0.750    0.000    0.000 
#    0.000    0.000    0.000    0.000    0.000    0.000 
#
# Total GULP energy -89349.464855 kJ/mol
# GULP energy per Si atom -5584.341553 kJ/mol
# Density = 2.045737 g / cm^3
# Si number density = 20.504040 Si / 1000 Ang^3
#
#
#
# Elastic Constant Matrix: (Units=GPa)
#
#
# Indices 1 2 3 4 5 6 
#
# 1 38.6966 2.6672 22.7844 -6.3045 15.4071 -9.2510
# 2 2.6672 94.6169 35.6940 -1.3264 6.7113 -1.9299
# 3 22.7844 35.6940 87.2179 -5.9592 23.7863 -21.4887
# 4 -6.3045 -1.3264 -5.9592 37.8835 -16.9738 6.7166
# 5 15.4071 6.7113 23.7863 -16.9738 31.7256 -7.9816
# 6 -9.2510 -1.9299 -21.4887 6.7166 -7.9816 29.7127
#
#
#
# Elastic Compliance Matrix: (Units=1/GPa)
#
#
# Indices 1 2 3 4 5 6 
#
# 1 0.034829 0.002101 -0.005571 -0.001523 -0.013042 0.003792
# 2 0.002101 0.012992 -0.006919 0.000753 0.000962 -0.003418
# 3 -0.005571 -0.006919 0.021385 -0.005063 -0.011737 0.011274
# 4 -0.001523 0.000753 -0.005063 0.036491 0.022303 -0.006344
# 5 -0.013042 0.000962 -0.011737 0.022303 0.057885 -0.001979
# 6 0.003792 -0.003418 0.011274 -0.006344 -0.001979 0.043670
#
#
# Mechanical properties :
#
#
# Convention : Reuss Voigt Hill
#
# Bulk Modulus (GPa) = 20.64926 38.09142 29.37034
# Shear Modulus (GPa) = 20.47725 30.49009 25.48367
#
# Velocity S-wave (km/s) = 3.16364 3.86038 3.52925
# Velocity P-wave (km/s) = 4.84123 6.20386 5.56442
#
# Compressibility (1/GPa) = 0.04842789
#
# Stress axis : x y z
#
# Youngs Moduli (GPa) = 28.71194 76.96755 46.76167
#
# Poissons Ratio (x) = -0.16171 0.26052
# Poissons Ratio (y) = -0.06032 0.32354
# Poissons Ratio (z) = 0.15996 0.53253
#
# Static dielectric constant tensor:
#      x y z
#    x 1.769220 0.057810 0.030890 
#    y 0.057810 1.833350 -0.042990 
#    z 0.030890 -0.042990 1.744450 
# 
# From -- ./inp_files/269666.got.cif
#   From: 2010.05.17/outbox.cif.g08.bks.cpg/sg2_135_cif.got.tgz:269666.got - 2010.06.03 11:33:40.
