data_PCOD9080710
_publ_section_title
;
Structure prediction by ZEFSAII (Michael W. Deem and Ramdas Pophale) SiO2 
 PCOD9080710
Probable space group: P -1
;
_chemical_formula_sum "Si O2"
_cell_formula_units_Z 14
_cell_length_a 7.736195
_cell_length_b 11.332465
_cell_length_c 8.382348
_cell_angle_alpha 122.961797
_cell_angle_beta 93.625079
_cell_angle_gamma 107.987048
_cell_volume 561.295214
_symmetry_space_group_name_H-M "P -1"
_symmetry_group_IT_number 2
_symmetry_cell_setting 'triclinic'
loop_
_space_group_symop_operation_xyz
x,y,z
-x,-y,-z
loop_
_atom_site_type_symbol
_atom_site_label
_atom_site_fract_x
_atom_site_fract_y
_atom_site_fract_z
Si Si1 0.768939 0.758507 0.696589
Si Si2 0.872454 0.314935 0.001051
Si Si3 0.662193 0.867424 0.081856
Si Si4 0.757855 0.467098 0.618551
Si Si5 0.797606 0.195572 0.235331
Si Si6 0.927790 0.035780 0.687940
Si Si7 0.424007 0.624319 0.139622
O O1 0.714613 0.574350 0.565038
O O2 0.997968 0.813528 0.775872
O O3 0.779736 0.877942 0.643800
O O4 0.639729 0.783209 0.847232
O O5 0.741529 0.223815 0.075798
O O6 0.068693 0.418492 0.176698
O O7 0.868839 0.179231 0.784682
O O8 0.781488 0.415437 0.980262
O O9 0.552610 0.779061 0.166987
O O10 0.880902 0.895259 0.146628
O O11 0.661883 0.034536 0.184122
O O12 0.815528 0.341308 0.447380
O O13 0.593921 0.382006 0.675517
O O14 0.000000 0.000000 0.500000
O O15 0.500000 0.500000 0.000000
#
# Coordination Sequence:
#
# PCOD9080710 Si02
#       7
#     2   2   2   2   2   2   2
#     4  10  18  41  69  89 133 167 212 268 328 382
#     4  11  22  43  68  97 128 176 225 269 328 393
#     4  11  21  44  67  90 142 173 210 272 336 388
#     4  11  23  43  70  96 131 175 222 271 325 394
#     4  10  21  41  70 100 124 171 226 271 325 392
#     4  11  22  40  70 105 124 168 228 275 321 393
#     4  12  26  43  63  93 139 180 215 275 333 382
#
# _framework density 24.942311
#
# number of rings (size 3 to 8) (size 9 to 14) (size 15 to 20)
#    0.000    1.143    5.714    3.000    4.000    1.143 
#    5.143    0.714    0.000    0.000    0.000    0.000 
#    0.000    0.000    0.000    0.000    0.000    0.000 
#
# Total GULP energy -78219.180402 kJ/mol
# GULP energy per Si atom -5587.084314 kJ/mol
# Density = 2.488554 g / cm^3
# Si number density = 24.942311 Si / 1000 Ang^3
#
#
#
# Elastic Constant Matrix: (Units=GPa)
#
#
# Indices 1 2 3 4 5 6 
#
# 1 68.4750 17.4251 23.6574 12.6115 -7.9985 -0.3505
# 2 17.4251 153.8432 43.7516 8.2395 -11.3830 12.1208
# 3 23.6574 43.7516 128.4685 16.2030 -49.7200 -0.5861
# 4 12.6115 8.2395 16.2030 30.4128 8.5719 -13.6434
# 5 -7.9985 -11.3830 -49.7200 8.5719 37.9777 5.3180
# 6 -0.3505 12.1208 -0.5861 -13.6434 5.3180 51.5177
#
#
#
# Elastic Compliance Matrix: (Units=1/GPa)
#
#
# Indices 1 2 3 4 5 6 
#
# 1 0.017643 -0.000972 0.003381 -0.014207 0.011699 -0.004583
# 2 -0.000972 0.007487 -0.002701 -0.000729 -0.001069 -0.001881
# 3 0.003381 -0.002701 0.038487 -0.047093 0.063429 -0.017923
# 4 -0.014207 -0.000729 -0.047093 0.107635 -0.094451 0.037794
# 5 0.011699 -0.001069 0.063429 -0.094451 0.138186 -0.038225
# 6 -0.004583 -0.001881 -0.017923 0.037794 -0.038225 0.033573
#
#
# Mechanical properties :
#
#
# Convention : Reuss Voigt Hill
#
# Bulk Modulus (GPa) = 15.86483 57.82832 36.84658
# Shear Modulus (GPa) = 13.71342 41.71181 27.71261
#
# Velocity S-wave (km/s) = 2.34734 4.09385 3.33689
# Velocity P-wave (km/s) = 3.70420 6.75139 5.44529
#
# Compressibility (1/GPa) = 0.06303250
#
# Stress axis : x y z
#
# Youngs Moduli (GPa) = 56.67984 133.57295 25.98259
#
# Poissons Ratio (x) = 0.12986 -0.08785
# Poissons Ratio (y) = 0.05511 0.07018
# Poissons Ratio (z) = -0.19164 0.36078
#
# Static dielectric constant tensor:
#      x y z
#    x 2.094300 0.030260 0.072650 
#    y 0.030260 2.046370 0.008920 
#    z 0.072650 0.008920 2.022590 
# 
# From -- ./inp_files/183176.got.cif
#   From: 2010.05.17/outbox.cif.g08.bks.cpg/sg2_92_cif.got.tgz:183176.got - 2010.06.03 11:33:40.
