data_PCOD9080546
_publ_section_title
;
Structure prediction by ZEFSAII (Michael W. Deem and Ramdas Pophale) SiO2 
 PCOD9080546
Probable space group: P -1
;
_chemical_formula_sum "Si O2"
_cell_formula_units_Z 14
_cell_length_a 8.301604
_cell_length_b 19.523080
_cell_length_c 11.917123
_cell_angle_alpha 32.254720
_cell_angle_beta 137.352622
_cell_angle_gamma 130.866223
_cell_volume 695.551772
_symmetry_space_group_name_H-M "P -1"
_symmetry_group_IT_number 2
_symmetry_cell_setting 'triclinic'
loop_
_space_group_symop_operation_xyz
x,y,z
-x,-y,-z
loop_
_atom_site_type_symbol
_atom_site_label
_atom_site_fract_x
_atom_site_fract_y
_atom_site_fract_z
Si Si1 0.829464 0.843674 0.237537
Si Si2 0.499965 0.707133 0.693374
Si Si3 0.812640 0.331060 0.216041
Si Si4 0.004280 0.382344 0.004230
Si Si5 0.781232 0.400134 0.495698
Si Si6 0.424810 0.619940 0.364145
Si Si7 0.176931 0.869994 0.174886
O O1 0.592031 0.748233 0.249094
O O2 0.019801 0.774317 0.504581
O O3 0.945461 0.856673 0.155054
O O4 0.792568 0.988261 0.055982
O O5 0.439645 0.694648 0.811508
O O6 0.759201 0.686886 0.807904
O O7 0.401511 0.838022 0.412796
O O8 0.681250 0.399285 0.319124
O O9 0.841270 0.327733 0.101471
O O10 0.920647 0.470815 0.122662
O O11 0.843009 0.370996 0.826879
O O12 0.569296 0.415314 0.452996
O O13 0.844680 0.252481 0.748191
O O14 0.000000 0.500000 0.500000
O O15 0.500000 0.500000 0.500000
#
# Coordination Sequence:
#
# PCOD9080546 Si02
#       7
#     2   2   2   2   2   2   2
#     4  10  18  40  62  84 116 156 205 242 293 356
#     4   9  20  39  58  88 115 158 197 241 302 357
#     4  10  20  36  60  82 119 159 195 243 295 363
#     4  11  22  36  54  91 120 157 195 242 308 350
#     4  10  20  37  60  90 116 147 200 251 291 346
#     4  12  23  36  58  89 121 153 199 257 292 345
#     4   8  20  37  65  84 113 157 199 246 295 355
#
# _framework density 20.127905999999999
#
# number of rings (size 3 to 8) (size 9 to 14) (size 15 to 20)
#    0.857    1.143    1.429    3.000    2.000    0.571 
#    2.571    0.714    0.000    2.571    0.000    0.000 
#    0.000    0.000    0.000    0.000    0.000    0.000 
#
# Total GULP energy -78029.325865 kJ/mol
# GULP energy per Si atom -5573.523276 kJ/mol
# Density = 2.008209 g / cm^3
# Si number density = 20.127906 Si / 1000 Ang^3
#
#
#
# Elastic Constant Matrix: (Units=GPa)
#
#
# Indices 1 2 3 4 5 6 
#
# 1 114.3866 22.3839 30.5161 -4.6924 0.6100 -11.4907
# 2 22.3839 39.6751 7.6021 -13.8661 6.8055 1.7674
# 3 30.5161 7.6021 63.7378 -19.8901 9.4751 2.2733
# 4 -4.6924 -13.8661 -19.8901 36.0333 -0.1055 -0.3522
# 5 0.6100 6.8055 9.4751 -0.1055 28.2607 4.3041
# 6 -11.4907 1.7674 2.2733 -0.3522 4.3041 28.6739
#
#
#
# Elastic Compliance Matrix: (Units=1/GPa)
#
#
# Indices 1 2 3 4 5 6 
#
# 1 0.012772 -0.008617 -0.007611 -0.005788 0.003467 0.005661
# 2 -0.008617 0.036490 0.006570 0.016473 -0.010055 -0.004512
# 3 -0.007611 0.006570 0.024761 0.015141 -0.009074 -0.003870
# 4 -0.005788 0.016473 0.015141 0.041643 -0.008341 -0.002772
# 5 0.003467 -0.010055 -0.009074 -0.008341 0.041286 -0.003571
# 6 0.005661 -0.004512 -0.003870 -0.002772 -0.003571 0.038230
#
#
# Mechanical properties :
#
#
# Convention : Reuss Voigt Hill
#
# Bulk Modulus (GPa) = 18.27922 37.64486 27.96204
# Shear Modulus (GPa) = 21.48362 29.08006 25.28184
#
# Velocity S-wave (km/s) = 3.27058 3.80513 3.54794
# Velocity P-wave (km/s) = 4.83359 6.16837 5.54131
#
# Compressibility (1/GPa) = 0.05470692
#
# Stress axis : x y z
#
# Youngs Moduli (GPa) = 78.29831 27.40443 40.38575
#
# Poissons Ratio (x) = 0.23615 0.30736
# Poissons Ratio (y) = 0.67471 -0.26532
# Poissons Ratio (z) = 0.59590 -0.18004
#
# Static dielectric constant tensor:
#      x y z
#    x 1.761280 -0.012500 0.009480 
#    y -0.012500 1.677350 0.006270 
#    z 0.009480 0.006270 1.760360 
# 
# From -- ./inp_files/402763.got.cif
#   From: 2010.05.17/outbox.cif.g08.bks.cpg/sg2_202_cif.got.tgz:402763.got - 2010.06.03 11:33:40.
