data_PCOD9080761
_publ_section_title
;
Structure prediction by ZEFSAII (Michael W. Deem and Ramdas Pophale) SiO2 
 PCOD9080761
Probable space group: P -1
;
_chemical_formula_sum "Si O2"
_cell_formula_units_Z 13
_cell_length_a 8.626601
_cell_length_b 14.515568
_cell_length_c 9.995604
_cell_angle_alpha 130.776533
_cell_angle_beta 125.420035
_cell_angle_gamma 39.351452
_cell_volume 593.709351
_symmetry_space_group_name_H-M "P -1"
_symmetry_group_IT_number 2
_symmetry_cell_setting 'triclinic'
loop_
_space_group_symop_operation_xyz
x,y,z
-x,-y,-z
loop_
_atom_site_type_symbol
_atom_site_label
_atom_site_fract_x
_atom_site_fract_y
_atom_site_fract_z
Si Si1 0.090190 0.718618 0.504646
Si Si2 0.500000 0.000000 0.500000
Si Si3 0.978395 0.521671 0.848836
Si Si4 0.346504 0.153463 0.160028
Si Si5 0.728890 0.172110 0.514301
Si Si6 0.472189 0.718812 0.195888
Si Si7 0.072847 0.827987 0.886592
O O1 0.118491 0.565115 0.344081
O O2 0.242241 0.734271 0.490041
O O3 0.158173 0.735622 0.702498
O O4 0.797709 0.867886 0.487082
O O5 0.534526 0.131668 0.678393
O O6 0.800796 0.699504 0.875395
O O7 0.248990 0.434494 0.839358
O O8 0.000000 0.500000 0.000000
O O9 0.531960 0.153350 0.346613
O O10 0.161739 0.153136 0.161492
O O11 0.500000 0.000000 0.000000
O O12 0.629470 0.264467 0.691346
O O13 0.000000 0.000000 0.500000
O O14 0.288874 0.734316 0.013448
O O15 0.000000 0.000000 0.000000
#
# Coordination Sequence:
#
# PCOD9080761 Si02
#       7
#     2   1   2   2   2   2   2
#     4  11  25  45  76 109 155 201 253 313 387 453
#     4  10  18  42  74 102 146 200 246 302 364 464
#     4  11  30  51  76 110 158 208 255 327 389 451
#     4  12  29  49  77 111 153 201 263 325 386 464
#     4  12  25  46  78 117 151 202 255 315 385 466
#     4  11  25  45  76 109 155 201 253 313 387 453
#     4  12  25  46  78 117 151 202 255 315 385 466
#
# _framework density 21.896236999999999
#
# number of rings (size 3 to 8) (size 9 to 14) (size 15 to 20)
#    0.000    0.615    3.077    3.692    8.615    3.692 
#    0.000    0.000    0.000    0.000    0.000    0.000 
#    0.000    0.000    0.000    0.000    0.000    0.000 
#
# Total GULP energy -72606.452466 kJ/mol
# GULP energy per Si atom -5585.111728 kJ/mol
# Density = 2.184640 g / cm^3
# Si number density = 21.896237 Si / 1000 Ang^3
#
#
#
# Elastic Constant Matrix: (Units=GPa)
#
#
# Indices 1 2 3 4 5 6 
#
# 1 161.3243 66.5280 106.8535 -25.5798 3.8231 -9.1950
# 2 66.5280 135.6619 71.5193 15.1040 -4.6857 1.9355
# 3 106.8535 71.5193 182.8100 -12.2087 -27.9991 7.8112
# 4 -25.5798 15.1040 -12.2087 37.1833 1.4126 -0.7091
# 5 3.8231 -4.6857 -27.9991 1.4126 47.0416 -2.5315
# 6 -9.1950 1.9355 7.8112 -0.7091 -2.5315 23.0592
#
#
#
# Elastic Compliance Matrix: (Units=1/GPa)
#
#
# Indices 1 2 3 4 5 6 
#
# 1 0.016062 -0.005246 -0.007977 0.010980 -0.006411 0.009181
# 2 -0.005246 0.012153 -0.002119 -0.009311 0.000514 -0.002624
# 3 -0.007977 -0.002119 0.012309 -0.000990 0.007450 -0.006385
# 4 0.010980 -0.009311 -0.000990 0.038147 -0.003215 0.006315
# 5 -0.006411 0.000514 0.007450 -0.003215 0.026235 -0.002342
# 6 0.009181 -0.002624 -0.006385 0.006315 -0.002342 0.049348
#
#
# Mechanical properties :
#
#
# Convention : Reuss Voigt Hill
#
# Bulk Modulus (GPa) = 101.62479 107.73309 104.67894
# Shear Modulus (GPa) = 26.56497 37.11652 31.84074
#
# Velocity S-wave (km/s) = 3.48691 4.12164 3.81749
# Velocity P-wave (km/s) = 7.91986 8.48286 8.20619
#
# Compressibility (1/GPa) = 0.00984012
#
# Stress axis : x y z
#
# Youngs Moduli (GPa) = 62.25928 82.28428 81.23954
#
# Poissons Ratio (x) = 0.43169 0.64802
# Poissons Ratio (y) = 0.32664 0.17214
# Poissons Ratio (z) = 0.49662 0.17436
#
# Static dielectric constant tensor:
#      x y z
#    x 1.801040 -0.001900 -0.001100 
#    y -0.001900 1.675490 -0.061140 
#    z -0.001100 -0.061140 1.772360 
# 
# From -- ./inp_files/204479.got.cif
#   From: 2010.05.17/outbox.cif.g08.bks.cpg/sg2_103_cif.got.tgz:204479.got - 2010.06.03 11:33:40.
