data_PCOD9080318
_publ_section_title
;
Structure prediction by ZEFSAII (Michael W. Deem and Ramdas Pophale) SiO2 
 PCOD9080318
Probable space group: P -1
;
_chemical_formula_sum "Si O2"
_cell_formula_units_Z 16
_cell_length_a 8.409020
_cell_length_b 15.469794
_cell_length_c 13.694810
_cell_angle_alpha 133.228257
_cell_angle_beta 134.973848
_cell_angle_gamma 33.481828
_cell_volume 674.170049
_symmetry_space_group_name_H-M "P -1"
_symmetry_group_IT_number 2
_symmetry_cell_setting 'triclinic'
loop_
_space_group_symop_operation_xyz
x,y,z
-x,-y,-z
loop_
_atom_site_type_symbol
_atom_site_label
_atom_site_fract_x
_atom_site_fract_y
_atom_site_fract_z
Si Si1 0.255079 0.910286 0.627473
Si Si2 0.921822 0.013499 0.774268
Si Si3 0.288979 0.101509 0.081094
Si Si4 0.084020 0.389496 0.092708
Si Si5 0.624463 0.531209 0.487320
Si Si6 0.338778 0.689473 0.802356
Si Si7 0.730568 0.668501 0.303892
Si Si8 0.489776 0.511626 0.121614
O O1 0.077126 0.965397 0.697029
O O2 0.483728 0.943330 0.765363
O O3 0.466943 0.715979 0.558938
O O4 0.000000 0.000000 0.500000
O O5 0.040559 0.851607 0.751136
O O6 0.557058 0.148583 0.707783
O O7 0.058041 0.072545 0.946007
O O8 0.149423 0.278761 0.126038
O O9 0.500000 0.000000 0.000000
O O10 0.011421 0.603255 0.443020
O O11 0.388130 0.319889 0.116051
O O12 0.855953 0.399488 0.932055
O O13 0.500000 0.500000 0.500000
O O14 0.561642 0.473372 0.322429
O O15 0.303468 0.664943 0.879364
O O16 0.898898 0.563992 0.196396
O O17 0.500000 0.500000 0.000000
O O18 0.579069 0.613674 0.254612
#
# Coordination Sequence:
#
# PCOD9080318 Si02
#       8
#     2   2   2   2   2   2   2   2
#     4  11  24  43  67 106 147 189 239 293 352 431
#     4  11  23  42  70 109 141 189 243 303 356 416
#     4  10  18  38  72 101 142 185 240 294 345 419
#     4  11  19  42  72 100 137 188 235 286 353 428
#     4  12  23  47  71  99 144 190 238 288 359 441
#     4  12  24  44  73 103 143 191 241 289 359 435
#     4  11  23  42  73  99 144 188 228 299 357 426
#     4  10  25  43  67 104 140 181 241 299 359 419
#
# _framework density 23.732883000000001
#
# number of rings (size 3 to 8) (size 9 to 14) (size 15 to 20)
#    0.000    1.000    7.500    0.375    1.750    1.000 
#    2.250    2.500    0.000    0.000    0.000    0.000 
#    0.000    0.000    0.000    0.000    0.000    0.000 
#
# Total GULP energy -89310.588521 kJ/mol
# GULP energy per Si atom -5581.911783 kJ/mol
# Density = 2.367887 g / cm^3
# Si number density = 23.732883 Si / 1000 Ang^3
#
#
#
# Elastic Constant Matrix: (Units=GPa)
#
#
# Indices 1 2 3 4 5 6 
#
# 1 45.0430 44.4074 24.0989 -3.0259 -4.1013 4.4799
# 2 44.4074 166.4523 50.3738 -16.8417 -1.1954 -7.3379
# 3 24.0989 50.3738 129.8588 -14.3945 17.8621 -4.0312
# 4 -3.0259 -16.8417 -14.3945 44.3749 -8.5994 -6.3334
# 5 -4.1013 -1.1954 17.8621 -8.5994 33.4160 -6.4021
# 6 4.4799 -7.3379 -4.0312 -6.3334 -6.4021 38.4714
#
#
#
# Elastic Compliance Matrix: (Units=1/GPa)
#
#
# Indices 1 2 3 4 5 6 
#
# 1 0.033048 -0.008012 -0.004016 -0.002016 0.004362 -0.005403
# 2 -0.008012 0.009190 -0.001872 0.003153 0.001791 0.003307
# 3 -0.004016 -0.001872 0.010090 0.001281 -0.005536 0.000458
# 4 -0.002016 0.003153 0.001281 0.026334 0.007204 0.006505
# 5 0.004362 0.001791 -0.005536 0.007204 0.036589 0.006528
# 6 -0.005403 0.003307 0.000458 0.006505 0.006528 0.029458
#
#
# Mechanical properties :
#
#
# Convention : Reuss Voigt Hill
#
# Bulk Modulus (GPa) = 40.77207 64.34603 52.55905
# Shear Modulus (GPa) = 27.67235 38.08406 32.87821
#
# Velocity S-wave (km/s) = 3.41837 4.01021 3.72606
# Velocity P-wave (km/s) = 5.72688 6.97236 6.38009
#
# Compressibility (1/GPa) = 0.02452659
#
# Stress axis : x y z
#
# Youngs Moduli (GPa) = 30.25890 108.81982 99.10971
#
# Poissons Ratio (x) = 0.87189 0.39804
# Poissons Ratio (y) = 0.24244 0.18553
# Poissons Ratio (z) = 0.12152 0.20371
#
# Static dielectric constant tensor:
#      x y z
#    x 2.025930 -0.031000 -0.033500 
#    y -0.031000 2.468620 -0.230250 
#    z -0.033500 -0.230250 2.139440 
# 
# From -- ./inp_files/333154.got.cif
#   From: 2010.05.17/outbox.cif.g08.bks.cpg/sg2_167_cif.got.tgz:333154.got - 2010.06.03 11:33:40.
