data_PCOD9080522
_publ_section_title
;
Structure prediction by ZEFSAII (Michael W. Deem and Ramdas Pophale) SiO2 
 PCOD9080522
Probable space group: P -1
;
_chemical_formula_sum "Si O2"
_cell_formula_units_Z 16
_cell_length_a 13.350445
_cell_length_b 18.880208
_cell_length_c 7.660852
_cell_angle_alpha 139.540327
_cell_angle_beta 43.292727
_cell_angle_gamma 146.125661
_cell_volume 673.285133
_symmetry_space_group_name_H-M "P -1"
_symmetry_group_IT_number 2
_symmetry_cell_setting 'triclinic'
loop_
_space_group_symop_operation_xyz
x,y,z
-x,-y,-z
loop_
_atom_site_type_symbol
_atom_site_label
_atom_site_fract_x
_atom_site_fract_y
_atom_site_fract_z
Si Si1 0.455910 0.469563 0.290025
Si Si2 0.146785 0.666762 0.130584
Si Si3 0.153688 0.413444 0.107074
Si Si4 0.784958 0.301863 0.519075
Si Si5 0.602976 0.894876 0.504206
Si Si6 0.044465 0.823328 0.382022
Si Si7 0.726171 0.824547 0.891641
Si Si8 0.474812 0.714381 0.651067
O O1 0.500000 0.500000 0.500000
O O2 0.337517 0.305713 0.146034
O O3 0.380983 0.550988 0.475800
O O4 0.638503 0.537379 0.065751
O O5 0.262054 0.714955 0.251051
O O6 0.055320 0.741895 0.372078
O O7 0.301085 0.716548 0.881339
O O8 0.000000 0.500000 0.000000
O O9 0.187536 0.558112 0.303492
O O10 0.984165 0.335116 0.311617
O O11 0.062140 0.300064 0.855218
O O12 0.609119 0.171638 0.397122
O O13 0.584894 0.791238 0.478649
O O14 0.745539 0.047463 0.689897
O O15 0.694883 0.907752 0.223016
O O16 0.928673 0.878964 0.673238
O O17 0.606567 0.780947 0.781769
#
# Coordination Sequence:
#
# PCOD9080522 Si02
#       8
#     2   2   2   2   2   2   2   2
#     4  10  18  39  72  99 131 179 227 286 340 395
#     4  12  24  43  73 104 134 184 236 285 352 406
#     4  11  21  41  68  99 136 180 228 284 343 402
#     4  11  24  43  67 102 146 177 229 299 336 412
#     4  12  27  46  68 105 145 183 231 285 345 422
#     4  12  26  45  71 101 141 185 232 284 349 415
#     4  11  23  48  71 101 144 181 233 292 336 411
#     4  11  24  43  74 100 140 189 224 284 361 404
#
# _framework density 23.764075999999999
#
# number of rings (size 3 to 8) (size 9 to 14) (size 15 to 20)
#    0.000    0.750    6.250    2.625    1.750    4.500 
#    2.250    0.000    0.000    0.000    0.000    0.000 
#    0.000    0.000    0.000    0.000    0.000    0.000 
#
# Total GULP energy -89263.445746 kJ/mol
# GULP energy per Si atom -5578.965359 kJ/mol
# Density = 2.370999 g / cm^3
# Si number density = 23.764076 Si / 1000 Ang^3
#
#
#
# Elastic Constant Matrix: (Units=GPa)
#
#
# Indices 1 2 3 4 5 6 
#
# 1 71.4205 36.6113 10.4155 -13.1853 -0.1610 14.4134
# 2 36.6113 135.3215 -8.9633 -22.6382 -14.7483 41.7749
# 3 10.4155 -8.9633 86.5794 -22.4313 6.7200 2.7431
# 4 -13.1853 -22.6382 -22.4313 32.9861 10.7530 -11.0791
# 5 -0.1610 -14.7483 6.7200 10.7530 43.8755 -15.4468
# 6 14.4134 41.7749 2.7431 -11.0791 -15.4468 42.1871
#
#
#
# Elastic Compliance Matrix: (Units=1/GPa)
#
#
# Indices 1 2 3 4 5 6 
#
# 1 0.017198 -0.003787 -0.001266 0.003575 -0.002619 -0.002063
# 2 -0.003787 0.012969 0.004147 0.007238 -0.001785 -0.010570
# 3 -0.001266 0.004147 0.016379 0.014307 -0.005707 -0.003071
# 4 0.003575 0.007238 0.014307 0.050234 -0.012275 -0.000621
# 5 -0.002619 -0.001785 -0.005707 -0.012275 0.029845 0.010737
# 6 -0.002063 -0.010570 -0.003071 -0.000621 0.010737 0.038844
#
#
# Mechanical properties :
#
#
# Convention : Reuss Voigt Hill
#
# Bulk Modulus (GPa) = 22.35518 41.04981 31.70249
# Shear Modulus (GPa) = 27.44365 40.82694 34.13529
#
# Velocity S-wave (km/s) = 3.40198 4.14939 3.79413
# Velocity P-wave (km/s) = 4.98586 6.34570 5.70643
#
# Compressibility (1/GPa) = 0.04473236
#
# Stress axis : x y z
#
# Youngs Moduli (GPa) = 58.14598 77.10921 61.05537
#
# Poissons Ratio (x) = 0.29203 0.07731
# Poissons Ratio (y) = 0.22021 -0.25319
# Poissons Ratio (z) = 0.07362 -0.31977
#
# Static dielectric constant tensor:
#      x y z
#    x 1.885320 0.039770 0.009180 
#    y 0.039770 1.892910 0.011190 
#    z 0.009180 0.011190 1.962450 
# 
# From -- ./inp_files/319087.got.cif
#   From: 2010.05.17/outbox.cif.g08.bks.cpg/sg2_160_cif.got.tgz:319087.got - 2010.06.03 11:33:40.
