data_PCOD9080459
_publ_section_title
;
Structure prediction by ZEFSAII (Michael W. Deem and Ramdas Pophale) SiO2 
 PCOD9080459
Probable space group: P -1
;
_chemical_formula_sum "Si O2"
_cell_formula_units_Z 16
_cell_length_a 10.159829
_cell_length_b 26.050382
_cell_length_c 10.184452
_cell_angle_alpha 154.978284
_cell_angle_beta 123.574984
_cell_angle_gamma 50.821548
_cell_volume 882.226020
_symmetry_space_group_name_H-M "P -1"
_symmetry_group_IT_number 2
_symmetry_cell_setting 'triclinic'
loop_
_space_group_symop_operation_xyz
x,y,z
-x,-y,-z
loop_
_atom_site_type_symbol
_atom_site_label
_atom_site_fract_x
_atom_site_fract_y
_atom_site_fract_z
Si Si1 0.692804 0.491300 0.578578
Si Si2 0.750430 0.749471 0.813513
Si Si3 0.544409 0.025846 0.231378
Si Si4 0.016231 0.222672 0.753366
Si Si5 0.184304 0.511087 0.650079
Si Si6 0.979756 0.719928 0.620462
Si Si7 0.777739 0.740804 0.294363
Si Si8 0.095440 0.986058 0.658989
O O1 0.500000 0.500000 0.500000
O O2 0.748732 0.464892 0.396770
O O3 0.826953 0.375305 0.469064
O O4 0.721283 0.623613 0.942374
O O5 0.700663 0.628914 0.552395
O O6 0.866745 0.701460 0.636664
O O7 0.864149 0.776007 0.053255
O O8 0.604756 0.887516 0.019910
O O9 0.388278 0.137249 0.470953
O O10 0.707927 0.065025 0.393562
O O11 0.500000 0.000000 0.000000
O O12 0.949872 0.108294 0.485125
O O13 0.124417 0.216478 0.668695
O O14 0.858978 0.361862 0.989902
O O15 0.000000 0.500000 0.500000
O O16 0.901317 0.697671 0.388839
O O17 0.954543 0.871630 0.973332
O O18 0.000000 0.000000 0.500000
#
# Coordination Sequence:
#
# PCOD9080459 Si02
#       8
#     2   2   2   2   2   2   2   2
#     4  12  25  40  67 100 127 161 217 274 308 380
#     4  10  18  39  67  85 120 174 211 246 311 386
#     4  11  23  42  62  97 128 166 209 267 324 370
#     4  11  21  39  68  95 122 174 219 256 311 385
#     4  10  18  40  63  90 121 166 212 254 312 375
#     4  11  22  43  65  92 131 171 207 258 329 380
#     4  12  25  41  66  97 128 166 214 265 325 373
#     4  11  21  40  69  89 123 179 215 249 312 389
#
# _framework density 18.135942
#
# number of rings (size 3 to 8) (size 9 to 14) (size 15 to 20)
#    0.000    1.000   10.000    0.375    3.500    1.000 
#    2.250    0.000    0.000    2.250    0.000    0.000 
#    0.000    0.000    0.000    0.000    0.000    0.000 
#
# Total GULP energy -89281.701030 kJ/mol
# GULP energy per Si atom -5580.106314 kJ/mol
# Density = 1.809466 g / cm^3
# Si number density = 18.135942 Si / 1000 Ang^3
#
#
#
# Elastic Constant Matrix: (Units=GPa)
#
#
# Indices 1 2 3 4 5 6 
#
# 1 145.5247 59.0607 51.5022 3.0062 -10.1377 0.6351
# 2 59.0607 101.6357 27.1572 10.0036 -6.2148 -1.7686
# 3 51.5022 27.1572 78.0385 15.3295 -6.6674 -0.3023
# 4 3.0062 10.0036 15.3295 42.2249 3.7350 -2.4667
# 5 -10.1377 -6.2148 -6.6674 3.7350 32.7387 4.7549
# 6 0.6351 -1.7686 -0.3023 -2.4667 4.7549 29.2349
#
#
#
# Elastic Compliance Matrix: (Units=1/GPa)
#
#
# Indices 1 2 3 4 5 6 
#
# 1 0.011027 -0.005009 -0.005922 0.002424 0.001064 -0.000572
# 2 -0.005009 0.013268 -0.000711 -0.002591 0.001043 0.000516
# 3 -0.005922 -0.000711 0.018443 -0.006377 0.002615 -0.000687
# 4 0.002424 -0.002591 -0.006377 0.026999 -0.004518 0.002737
# 5 0.001064 0.001043 0.002615 -0.004518 0.032944 -0.005672
# 6 -0.000572 0.000516 -0.000687 0.002737 -0.005672 0.035396
#
#
# Mechanical properties :
#
#
# Convention : Reuss Voigt Hill
#
# Bulk Modulus (GPa) = 51.40390 66.73769 59.07079
# Shear Modulus (GPa) = 29.78952 33.33830 31.56391
#
# Velocity S-wave (km/s) = 4.05726 4.29213 4.17634
# Velocity P-wave (km/s) = 7.09603 7.83847 7.47647
#
# Compressibility (1/GPa) = 0.01945378
#
# Stress axis : x y z
#
# Youngs Moduli (GPa) = 90.68841 75.37171 54.22071
#
# Poissons Ratio (x) = 0.37753 0.32107
# Poissons Ratio (y) = 0.45425 0.03857
# Poissons Ratio (z) = 0.53702 0.05362
#
# Static dielectric constant tensor:
#      x y z
#    x 1.589750 0.014060 -0.003130 
#    y 0.014060 1.628240 0.054150 
#    z -0.003130 0.054150 1.624170 
# 
# From -- ./inp_files/226800.got.cif
#   From: 2010.05.17/outbox.cif.g08.bks.cpg/sg2_114_cif.got.tgz:226800.got - 2010.06.03 11:33:40.
