data_PCOD9080808
_publ_section_title
;
Structure prediction by ZEFSAII (Michael W. Deem and Ramdas Pophale) SiO2 
 PCOD9080808
Probable space group: P -1
;
_chemical_formula_sum "Si O2"
_cell_formula_units_Z 16
_cell_length_a 6.855875
_cell_length_b 12.408575
_cell_length_c 15.607826
_cell_angle_alpha 105.636310
_cell_angle_beta 73.926284
_cell_angle_gamma 58.341126
_cell_volume 935.949855
_symmetry_space_group_name_H-M "P -1"
_symmetry_group_IT_number 2
_symmetry_cell_setting 'triclinic'
loop_
_space_group_symop_operation_xyz
x,y,z
-x,-y,-z
loop_
_atom_site_type_symbol
_atom_site_label
_atom_site_fract_x
_atom_site_fract_y
_atom_site_fract_z
Si Si1 0.906721 0.162157 0.043988
Si Si2 0.122191 0.547500 0.431116
Si Si3 0.847650 0.236297 0.425513
Si Si4 0.431293 0.201373 0.524466
Si Si5 0.433323 0.976054 0.367790
Si Si6 0.348035 0.032987 0.835895
Si Si7 0.897985 0.808210 0.795710
Si Si8 0.574335 0.719347 0.780720
O O1 0.589360 0.266775 0.114972
O O2 0.995135 0.192294 0.126559
O O3 0.069629 0.153219 0.942469
O O4 0.000000 0.000000 0.000000
O O5 0.203011 0.626558 0.493189
O O6 0.349760 0.406189 0.318933
O O7 0.000000 0.500000 0.500000
O O8 0.881110 0.665956 0.422422
O O9 0.606288 0.239912 0.474875
O O10 0.917697 0.227182 0.315037
O O11 0.123500 0.090718 0.402048
O O12 0.505347 0.146190 0.601267
O O13 0.491714 0.069516 0.432490
O O14 0.607576 0.921438 0.248957
O O15 0.605146 0.969245 0.850612
O O16 0.399822 0.879191 0.787894
O O17 0.830899 0.700044 0.773419
#
# Coordination Sequence:
#
# PCOD9080808 Si02
#       8
#     2   2   2   2   2   2   2   2
#     4  10  19  28  50  72  99 130 165 205 251 300
#     4  11  20  35  47  75 109 135 165 202 243 301
#     4  10  20  31  53  76 104 130 169 201 245 311
#     4  10  21  31  54  71 101 142 163 203 252 295
#     4   9  18  37  49  74 102 128 172 212 247 288
#     4   8  17  33  50  71 100 126 162 215 243 296
#     4   9  18  29  46  74 102 126 156 201 251 296
#     4   9  19  32  47  70 108 129 158 207 242 298
#
# _framework density 17.094932
#
# number of rings (size 3 to 8) (size 9 to 14) (size 15 to 20)
#    0.750    1.750    1.250    1.500    5.250    1.500 
#    0.000    0.000    0.000    0.750    0.000    1.750 
#    0.000    0.000    0.000    0.000    0.000    0.000 
#
# Total GULP energy -89087.169135 kJ/mol
# GULP energy per Si atom -5567.948071 kJ/mol
# Density = 1.705602 g / cm^3
# Si number density = 17.094932 Si / 1000 Ang^3
#
#
#
# Elastic Constant Matrix: (Units=GPa)
#
#
# Indices 1 2 3 4 5 6 
#
# 1 60.8265 13.3958 24.1504 -4.5846 -7.4386 8.1667
# 2 13.3958 32.9614 24.1973 -2.7578 -0.4563 0.4244
# 3 24.1504 24.1973 100.0667 -3.2390 -13.6959 4.4813
# 4 -4.5846 -2.7578 -3.2390 18.4307 4.8607 3.7634
# 5 -7.4386 -0.4563 -13.6959 4.8607 23.3575 -8.2196
# 6 8.1667 0.4244 4.4813 3.7634 -8.2196 13.1655
#
#
#
# Elastic Compliance Matrix: (Units=1/GPa)
#
#
# Indices 1 2 3 4 5 6 
#
# 1 0.021309 -0.005519 -0.003171 0.007694 -0.002262 -0.015572
# 2 -0.005519 0.039601 -0.009092 0.005243 -0.007804 -0.001129
# 3 -0.003171 -0.009092 0.013913 -0.002868 0.008952 0.003933
# 4 0.007694 0.005243 -0.002868 0.073106 -0.029594 -0.043339
# 5 -0.002262 -0.007804 0.008952 -0.029594 0.071555 0.051741
# 6 -0.015572 -0.001129 0.003933 -0.043339 0.051741 0.129006
#
#
# Mechanical properties :
#
#
# Convention : Reuss Voigt Hill
#
# Bulk Modulus (GPa) = 25.47190 35.26016 30.36603
# Shear Modulus (GPa) = 12.58998 19.79813 16.19406
#
# Velocity S-wave (km/s) = 2.71675 3.40682 3.08117
# Velocity P-wave (km/s) = 4.97731 6.01216 5.51904
#
# Compressibility (1/GPa) = 0.03925895
#
# Stress axis : x y z
#
# Youngs Moduli (GPa) = 46.92887 25.25175 71.87284
#
# Poissons Ratio (x) = 0.13937 0.22794
# Poissons Ratio (y) = 0.25900 0.65346
# Poissons Ratio (z) = 0.14883 0.22959
#
# Static dielectric constant tensor:
#      x y z
#    x 1.620370 -0.007490 -0.022560 
#    y -0.007490 1.572140 -0.000410 
#    z -0.022560 -0.000410 1.590530 
# 
# From -- ./inp_files/548907.got.cif
#   From: 2010.05.17/outbox.cif.g08.bks.cpg/sg2_275_cif.got.tgz:548907.got - 2010.06.03 11:33:40.
