data_PCOD9080306
_publ_section_title
;
Structure prediction by ZEFSAII (Michael W. Deem and Ramdas Pophale) SiO2 
 PCOD9080306
Probable space group: P -1
;
_chemical_formula_sum "Si O2"
_cell_formula_units_Z 16
_cell_length_a 17.160035
_cell_length_b 10.370203
_cell_length_c 14.816917
_cell_angle_alpha 53.270214
_cell_angle_beta 31.985504
_cell_angle_gamma 30.854320
_cell_volume 628.813877
_symmetry_space_group_name_H-M "P -1"
_symmetry_group_IT_number 2
_symmetry_cell_setting 'triclinic'
loop_
_space_group_symop_operation_xyz
x,y,z
-x,-y,-z
loop_
_atom_site_type_symbol
_atom_site_label
_atom_site_fract_x
_atom_site_fract_y
_atom_site_fract_z
Si Si1 0.514426 0.589654 0.791218
Si Si2 0.730944 0.041554 0.414874
Si Si3 0.147756 0.484860 0.789659
Si Si4 0.061819 0.849328 0.909437
Si Si5 0.935808 0.216325 0.405562
Si Si6 0.828383 0.494201 0.672889
Si Si7 0.482014 0.803861 0.041516
Si Si8 0.961384 0.425058 0.848266
O O1 0.637922 0.513917 0.603778
O O2 0.714741 0.502136 0.695942
O O3 0.492743 0.415815 0.896012
O O4 0.221520 0.915732 0.955576
O O5 0.444354 0.237511 0.635010
O O6 0.735912 0.224872 0.309963
O O7 0.962994 0.811367 0.355853
O O8 0.844229 0.837207 0.303848
O O9 0.060137 0.741840 0.724573
O O10 0.123969 0.405810 0.752862
O O11 0.000000 0.500000 0.000000
O O12 0.151572 0.595969 0.957420
O O13 0.000000 0.000000 0.000000
O O14 0.000000 0.000000 0.500000
O O15 0.185679 0.095711 0.240255
O O16 0.000000 0.500000 0.500000
O O17 0.570483 0.771938 0.868111
O O18 0.698022 0.687704 0.940353
#
# Coordination Sequence:
#
# PCOD9080306 Si02
#       8
#     2   2   2   2   2   2   2   2
#     4  11  21  41  70  96 129 178 226 280 334 403
#     4  10  23  43  66  96 134 178 228 277 337 414
#     4  12  28  45  66 101 144 179 219 286 353 400
#     4  10  18  38  70  97 123 167 232 281 325 402
#     4  10  25  44  71  93 133 185 230 265 338 421
#     4  11  25  38  65 102 137 170 229 284 340 390
#     4  10  22  43  65  96 132 173 230 277 330 406
#     4  10  22  41  71  99 127 176 227 283 340 398
#
# _framework density 25.444731000000001
#
# number of rings (size 3 to 8) (size 9 to 14) (size 15 to 20)
#    0.000    1.500    3.750    2.250    8.750    1.500 
#    2.250    0.625    0.000    0.000    0.000    0.000 
#    0.000    0.000    0.000    0.000    0.000    0.000 
#
# Total GULP energy -89146.505928 kJ/mol
# GULP energy per Si atom -5571.656620 kJ/mol
# Density = 2.538682 g / cm^3
# Si number density = 25.444731 Si / 1000 Ang^3
#
#
#
# Elastic Constant Matrix: (Units=GPa)
#
#
# Indices 1 2 3 4 5 6 
#
# 1 113.2905 23.3679 31.4556 3.8213 -23.1953 -8.6952
# 2 23.3679 61.5559 28.9746 -11.0702 5.8125 -16.8749
# 3 31.4556 28.9746 209.3897 -0.8296 -7.7784 -10.3371
# 4 3.8213 -11.0702 -0.8296 38.4430 -6.9900 -9.7452
# 5 -23.1953 5.8125 -7.7784 -6.9900 28.5988 -4.2981
# 6 -8.6952 -16.8749 -10.3371 -9.7452 -4.2981 20.8662
#
#
#
# Elastic Compliance Matrix: (Units=1/GPa)
#
#
# Indices 1 2 3 4 5 6 
#
# 1 0.012590 -0.004317 -0.000651 0.000672 0.011701 0.004156
# 2 -0.004317 0.029496 -0.002072 0.015569 -0.002066 0.027874
# 3 -0.000651 -0.002072 0.005268 0.000117 0.001508 0.001028
# 4 0.000672 0.015569 0.000117 0.041649 0.012857 0.035028
# 5 0.011701 -0.002066 0.001508 0.012857 0.051520 0.020569
# 6 0.004156 0.027874 0.001028 0.035028 0.020569 0.093304
#
#
# Mechanical properties :
#
#
# Convention : Reuss Voigt Hill
#
# Bulk Modulus (GPa) = 30.05526 61.31469 45.68497
# Shear Modulus (GPa) = 19.30515 37.61080 28.45798
#
# Velocity S-wave (km/s) = 2.75746 3.84883 3.34791
# Velocity P-wave (km/s) = 4.68783 6.62577 5.73919
#
# Compressibility (1/GPa) = 0.03327205
#
# Stress axis : x y z
#
# Youngs Moduli (GPa) = 79.42680 33.90315 189.84056
#
# Poissons Ratio (x) = 0.14637 0.12367
# Poissons Ratio (y) = 0.34292 0.39334
# Poissons Ratio (z) = 0.05174 0.07024
#
# Static dielectric constant tensor:
#      x y z
#    x 2.136480 0.036110 0.100440 
#    y 0.036110 2.231020 -0.058740 
#    z 0.100440 -0.058740 1.990460 
# 
# From -- ./inp_files/538409.got.cif
#   From: 2010.05.17/outbox.cif.g08.bks.cpg/sg2_270_cif.got.tgz:538409.got - 2010.06.03 11:33:40.
