data_PCOD9080253
_publ_section_title
;
Structure prediction by ZEFSAII (Michael W. Deem and Ramdas Pophale) SiO2 
 PCOD9080253
Probable space group: P -1
;
_chemical_formula_sum "Si O2"
_cell_formula_units_Z 16
_cell_length_a 9.302279
_cell_length_b 11.202468
_cell_length_c 9.235667
_cell_angle_alpha 95.921873
_cell_angle_beta 90.143168
_cell_angle_gamma 131.853451
_cell_volume 709.734527
_symmetry_space_group_name_H-M "P -1"
_symmetry_group_IT_number 2
_symmetry_cell_setting 'triclinic'
loop_
_space_group_symop_operation_xyz
x,y,z
-x,-y,-z
loop_
_atom_site_type_symbol
_atom_site_label
_atom_site_fract_x
_atom_site_fract_y
_atom_site_fract_z
Si Si1 0.543164 0.163154 0.012517
Si Si2 0.010816 0.114011 0.631541
Si Si3 0.420141 0.499602 0.151386
Si Si4 0.198008 0.639227 0.675701
Si Si5 0.631202 0.508335 0.386471
Si Si6 0.289561 0.922484 0.539080
Si Si7 0.279205 0.126932 0.803443
Si Si8 0.140194 0.549886 0.140461
O O1 0.346633 0.123333 0.962183
O O2 0.677207 0.268003 0.885222
O O3 0.660875 0.262416 0.170675
O O4 0.500000 0.000000 0.000000
O O5 0.178606 0.305031 0.620459
O O6 0.076777 0.084467 0.775169
O O7 0.815743 0.078556 0.600752
O O8 0.000000 0.000000 0.500000
O O9 0.477047 0.421315 0.243324
O O10 0.561315 0.686686 0.225041
O O11 0.214665 0.452522 0.134942
O O12 0.500000 0.500000 0.000000
O O13 0.291781 0.579399 0.586878
O O14 0.189935 0.750996 0.589775
O O15 0.986158 0.493465 0.724128
O O16 0.500000 0.500000 0.500000
O O17 0.500000 0.000000 0.500000
O O18 0.285882 0.019483 0.679391
O O19 0.000000 0.500000 0.000000
#
# Coordination Sequence:
#
# PCOD9080253 Si02
#       8
#     2   2   2   2   2   2   2   2
#     4  10  18  38  68 101 130 169 216 278 335 397
#     4   9  22  42  62  87 129 175 217 268 327 396
#     4  10  20  39  68  90 130 178 215 267 338 405
#     4  11  24  41  66 101 134 171 228 279 339 399
#     4  11  25  41  64  97 134 174 221 278 340 403
#     4  11  24  40  66  96 132 180 228 277 328 395
#     4   9  19  39  66  91 128 168 218 270 330 390
#     4   9  20  37  63  96 131 164 218 273 331 389
#
# _framework density 22.543641000000001
#
# number of rings (size 3 to 8) (size 9 to 14) (size 15 to 20)
#    0.000    2.000    1.250    2.250    7.000    2.500 
#    0.000    1.250    0.000    1.500    0.000    0.000 
#    0.000    0.000    0.000    0.000    0.000    0.000 
#
# Total GULP energy -89190.812952 kJ/mol
# GULP energy per Si atom -5574.425810 kJ/mol
# Density = 2.249233 g / cm^3
# Si number density = 22.543641 Si / 1000 Ang^3
#
#
#
# Elastic Constant Matrix: (Units=GPa)
#
#
# Indices 1 2 3 4 5 6 
#
# 1 189.9253 29.2100 36.8127 4.2097 20.6834 1.3287
# 2 29.2100 60.0961 4.1948 3.4947 -3.8799 -16.8075
# 3 36.8127 4.1948 60.6164 2.2771 7.0213 5.7635
# 4 4.2097 3.4947 2.2771 25.7581 3.9463 -0.6292
# 5 20.6834 -3.8799 7.0213 3.9463 53.4472 4.8098
# 6 1.3287 -16.8075 5.7635 -0.6292 4.8098 33.8682
#
#
#
# Elastic Compliance Matrix: (Units=1/GPa)
#
#
# Indices 1 2 3 4 5 6 
#
# 1 0.006733 -0.003478 -0.003480 0.000006 -0.002305 -0.001071
# 2 -0.003478 0.021616 -0.000558 -0.002395 0.002211 0.010600
# 3 -0.003480 -0.000558 0.019096 -0.000997 -0.000833 -0.003290
# 4 0.000006 -0.002395 -0.000997 0.039696 -0.002989 0.000143
# 5 -0.002305 0.002211 -0.000833 -0.002989 0.020237 -0.001600
# 6 -0.001071 0.010600 -0.003290 0.000143 -0.001600 0.035618
#
#
# Mechanical properties :
#
#
# Convention : Reuss Voigt Hill
#
# Bulk Modulus (GPa) = 30.85109 50.11922 40.48516
# Shear Modulus (GPa) = 29.61522 38.64273 34.12898
#
# Velocity S-wave (km/s) = 3.62841 4.14470 3.89512
# Velocity P-wave (km/s) = 5.59183 6.72198 6.18278
#
# Compressibility (1/GPa) = 0.03241377
#
# Stress axis : x y z
#
# Youngs Moduli (GPa) = 148.52124 46.26149 52.36772
#
# Poissons Ratio (x) = 0.16091 0.18223
# Poissons Ratio (y) = 0.51661 0.02920
# Poissons Ratio (z) = 0.51681 0.02579
#
# Static dielectric constant tensor:
#      x y z
#    x 1.879900 0.073610 -0.003440 
#    y 0.073610 1.767530 0.143730 
#    z -0.003440 0.143730 1.422650 
# 
# From -- ./inp_files/188471.got.cif
#   From: 2010.05.17/outbox.cif.g08.bks.cpg/sg2_95_cif.got.tgz:188471.got - 2010.06.03 11:33:40.
