data_PCOD9080176
_publ_section_title
;
Structure prediction by ZEFSAII (Michael W. Deem and Ramdas Pophale) SiO2 
 PCOD9080176
Probable space group: P -1
;
_chemical_formula_sum "Si O2"
_cell_formula_units_Z 16
_cell_length_a 8.888233
_cell_length_b 7.104716
_cell_length_c 11.895766
_cell_angle_alpha 94.331523
_cell_angle_beta 104.718478
_cell_angle_gamma 110.174145
_cell_volume 670.870854
_symmetry_space_group_name_H-M "P -1"
_symmetry_group_IT_number 2
_symmetry_cell_setting 'triclinic'
loop_
_space_group_symop_operation_xyz
x,y,z
-x,-y,-z
loop_
_atom_site_type_symbol
_atom_site_label
_atom_site_fract_x
_atom_site_fract_y
_atom_site_fract_z
Si Si1 0.185907 0.811346 0.506069
Si Si2 0.192700 0.634173 0.064618
Si Si3 0.683717 0.867699 0.283280
Si Si4 0.189023 0.411555 0.590767
Si Si5 0.212049 0.244885 0.141836
Si Si6 0.809297 0.056417 0.077395
Si Si7 0.672535 0.190441 0.686514
Si Si8 0.326159 0.395862 0.395060
O O1 0.240205 0.648751 0.579547
O O2 0.303206 0.917802 0.426874
O O3 0.004237 0.679380 0.414087
O O4 0.179672 0.972840 0.602774
O O5 0.271253 0.471238 0.108038
O O6 0.256654 0.772176 0.973326
O O7 0.206465 0.777398 0.182389
O O8 0.000000 0.500000 0.000000
O O9 0.697149 0.651280 0.303231
O O10 0.723289 0.942965 0.168051
O O11 0.511282 0.876920 0.297876
O O12 0.198249 0.307382 0.467999
O O13 0.313240 0.257430 0.277612
O O14 0.224014 0.101563 0.038199
O O15 0.013036 0.165261 0.134262
O O16 0.713472 0.417377 0.655591
O O17 0.500000 0.500000 0.500000
#
# Coordination Sequence:
#
# PCOD9080176 Si02
#       8
#     2   2   2   2   2   2   2   2
#     4  10  23  40  63  94 124 167 212 254 311 375
#     4   9  20  41  64  83 120 164 210 261 304 366
#     4  12  23  39  61  93 134 161 202 264 317 369
#     4  10  22  39  62  93 128 162 214 255 307 376
#     4   9  20  39  64  90 118 163 211 257 309 370
#     4  10  22  38  61  93 120 163 217 251 310 376
#     4  10  22  40  63  93 125 163 214 254 320 379
#     4  10  18  38  65  90 127 163 203 255 317 375
#
# _framework density 23.849596999999999
#
# number of rings (size 3 to 8) (size 9 to 14) (size 15 to 20)
#    0.000    2.000    1.250    1.500    0.000    8.500 
#    4.500    2.500    2.750    0.000    0.000    0.000 
#    0.000    0.000    0.000    0.000    0.000    0.000 
#
# Total GULP energy -89352.689938 kJ/mol
# GULP energy per Si atom -5584.543121 kJ/mol
# Density = 2.379531 g / cm^3
# Si number density = 23.849597 Si / 1000 Ang^3
#
#
#
# Elastic Constant Matrix: (Units=GPa)
#
#
# Indices 1 2 3 4 5 6 
#
# 1 94.4683 23.3398 38.8508 -15.3940 -14.1084 23.0485
# 2 23.3398 96.4204 48.0604 -33.7692 -17.8670 6.5623
# 3 38.8508 48.0604 145.0373 -20.7346 -10.3943 13.6374
# 4 -15.3940 -33.7692 -20.7346 49.9997 13.2486 -8.0928
# 5 -14.1084 -17.8670 -10.3943 13.2486 28.6972 -8.9092
# 6 23.0485 6.5623 13.6374 -8.0928 -8.9092 28.3413
#
#
#
# Elastic Compliance Matrix: (Units=1/GPa)
#
#
# Indices 1 2 3 4 5 6 
#
# 1 0.014627 -0.001016 -0.002420 0.000624 0.002428 -0.009554
# 2 -0.001016 0.016131 -0.003812 0.008055 0.005347 0.002906
# 3 -0.002420 -0.003812 0.008945 0.000391 -0.001020 -0.001663
# 4 0.000624 0.008055 0.000391 0.028052 -0.006422 0.003430
# 5 0.002428 0.005347 -0.001020 -0.006422 0.044936 0.009570
# 6 -0.009554 0.002906 -0.001663 0.003430 0.009570 0.047169
#
#
# Mechanical properties :
#
#
# Convention : Reuss Voigt Hill
#
# Bulk Modulus (GPa) = 39.66892 61.82533 50.74712
# Shear Modulus (GPa) = 27.35858 36.45265 31.90562
#
# Velocity S-wave (km/s) = 3.39060 3.91377 3.66154
# Velocity P-wave (km/s) = 5.65662 6.81195 6.26099
#
# Compressibility (1/GPa) = 0.02520865
#
# Stress axis : x y z
#
# Youngs Moduli (GPa) = 68.36614 61.99192 111.79109
#
# Poissons Ratio (x) = 0.06297 0.27053
# Poissons Ratio (y) = 0.06944 0.42612
# Poissons Ratio (z) = 0.16544 0.23630
#
# Static dielectric constant tensor:
#      x y z
#    x 1.987310 -0.089300 0.017580 
#    y -0.089300 2.006520 0.022070 
#    z 0.017580 0.022070 1.927340 
# 
# From -- ./inp_files/491176.got.cif
#   From: 2010.05.17/outbox.cif.g08.bks.cpg/sg2_246_cif.got.tgz:491176.got - 2010.06.03 11:33:40.
