data_PCOD9080353
_publ_section_title
;
Structure prediction by ZEFSAII (Michael W. Deem and Ramdas Pophale) SiO2 
 PCOD9080353
Probable space group: P -1
;
_chemical_formula_sum "Si O2"
_cell_formula_units_Z 12
_cell_length_a 8.909159
_cell_length_b 7.746772
_cell_length_c 8.663024
_cell_angle_alpha 101.696974
_cell_angle_beta 52.730637
_cell_angle_gamma 93.826493
_cell_volume 464.718688
_symmetry_space_group_name_H-M "P -1"
_symmetry_group_IT_number 2
_symmetry_cell_setting 'triclinic'
loop_
_space_group_symop_operation_xyz
x,y,z
-x,-y,-z
loop_
_atom_site_type_symbol
_atom_site_label
_atom_site_fract_x
_atom_site_fract_y
_atom_site_fract_z
Si Si1 0.044371 0.677566 0.851600
Si Si2 0.735082 0.432515 0.019344
Si Si3 0.528903 0.926308 0.223610
Si Si4 0.801585 0.016843 0.348301
Si Si5 0.945114 0.672191 0.389377
Si Si6 0.624529 0.731967 0.814420
O O1 0.046833 0.855067 0.786146
O O2 0.128867 0.504969 0.673354
O O3 0.842475 0.609522 0.014630
O O4 0.174316 0.691582 0.923445
O O5 0.830673 0.360490 0.786343
O O6 0.513156 0.425024 0.154936
O O7 0.346799 0.876594 0.426453
O O8 0.683815 0.959709 0.263039
O O9 0.459200 0.111015 0.216756
O O10 0.593331 0.801043 0.019128
O O11 0.885153 0.847910 0.360866
O O12 0.840848 0.690381 0.620818
#
# Coordination Sequence:
#
# PCOD9080353 Si02
#       6
#     2   2   2   2   2   2
#     4   9  19  38  59  91 120 152 199 250 288 355
#     4   9  19  38  58  91 119 155 198 244 296 354
#     4   9  20  34  59  91 120 155 198 250 292 345
#     4  10  18  39  62  89 118 153 206 247 284 360
#     4   9  21  36  67  89 111 164 195 242 309 336
#     4  10  18  39  61  85 125 158 191 247 302 355
#
# _framework density 25.822073
#
# number of rings (size 3 to 8) (size 9 to 14) (size 15 to 20)
#    1.000    1.667    1.667    0.000    0.000    1.333 
#    0.000    9.167    3.667    0.000    0.000    0.000 
#    0.000    0.000    0.000    0.000    0.000    0.000 
#
# Total GULP energy -67082.058167 kJ/mol
# GULP energy per Si atom -5590.171514 kJ/mol
# Density = 2.576330 g / cm^3
# Si number density = 25.822073 Si / 1000 Ang^3
#
#
#
# Elastic Constant Matrix: (Units=GPa)
#
#
# Indices 1 2 3 4 5 6 
#
# 1 82.3678 16.2442 25.8953 -14.4268 8.7469 0.1284
# 2 16.2442 78.3470 28.6684 -16.1201 9.8064 -10.7105
# 3 25.8953 28.6684 165.0214 8.4330 5.2086 10.5642
# 4 -14.4268 -16.1201 8.4330 38.7113 -1.3161 5.2220
# 5 8.7469 9.8064 5.2086 -1.3161 29.0166 -5.9627
# 6 0.1284 -10.7105 10.5642 5.2220 -5.9627 33.8249
#
#
#
# Elastic Compliance Matrix: (Units=1/GPa)
#
#
# Indices 1 2 3 4 5 6 
#
# 1 0.014344 -0.000706 -0.002227 0.005559 -0.003656 -0.001085
# 2 -0.000706 0.016545 -0.003285 0.006598 -0.003539 0.004625
# 3 -0.002227 -0.003285 0.007346 -0.003424 -0.000277 -0.002846
# 4 0.005559 0.006598 -0.003424 0.031609 -0.002299 -0.002148
# 5 -0.003656 -0.003539 -0.000277 -0.002299 0.037945 0.006024
# 6 -0.001085 0.004625 -0.002846 -0.002148 0.006024 0.033315
#
#
# Mechanical properties :
#
#
# Convention : Reuss Voigt Hill
#
# Bulk Modulus (GPa) = 38.76263 51.92800 45.34531
# Shear Modulus (GPa) = 30.83769 37.30576 34.07173
#
# Velocity S-wave (km/s) = 3.45952 3.80508 3.63641
# Velocity P-wave (km/s) = 5.56792 6.28159 5.93549
#
# Compressibility (1/GPa) = 0.02579804
#
# Stress axis : x y z
#
# Youngs Moduli (GPa) = 69.71671 60.44135 136.12895
#
# Poissons Ratio (x) = 0.04266 0.30322
# Poissons Ratio (y) = 0.04921 0.44719
# Poissons Ratio (z) = 0.15529 0.19855
#
# Static dielectric constant tensor:
#      x y z
#    x 2.014820 -0.042130 -0.006250 
#    y -0.042130 2.022030 0.022010 
#    z -0.006250 0.022010 2.030590 
# 
# From -- ./inp_files/234028.got.cif
#   From: 2010.05.17/outbox.cif.g08.bks.cpg/sg2_118_cif.got.tgz:234028.got - 2010.06.03 11:33:40.
