data_PCOD9080912
_publ_section_title
;
Structure prediction by ZEFSAII (Michael W. Deem and Ramdas Pophale) SiO2 
 PCOD9080912
Probable space group: P -1
;
_chemical_formula_sum "Si O2"
_cell_formula_units_Z 12
_cell_length_a 14.625652
_cell_length_b 12.984701
_cell_length_c 4.939955
_cell_angle_alpha 103.747915
_cell_angle_beta 115.174807
_cell_angle_gamma 56.985936
_cell_volume 711.925695
_symmetry_space_group_name_H-M "P -1"
_symmetry_group_IT_number 2
_symmetry_cell_setting 'triclinic'
loop_
_space_group_symop_operation_xyz
x,y,z
-x,-y,-z
loop_
_atom_site_type_symbol
_atom_site_label
_atom_site_fract_x
_atom_site_fract_y
_atom_site_fract_z
Si Si1 0.494315 0.867025 0.200310
Si Si2 0.355789 0.021823 0.619403
Si Si3 0.356122 0.630293 0.112451
Si Si4 0.131830 0.864004 0.798158
Si Si5 0.494614 0.638829 0.788142
Si Si6 0.130060 0.013469 0.399404
O O1 0.425154 0.909560 0.423289
O O2 0.610977 0.877168 0.369469
O O3 0.410535 0.972823 0.951514
O O4 0.514240 0.742498 0.012532
O O5 0.222000 0.058686 0.505191
O O6 0.424821 0.669343 0.436765
O O7 0.388161 0.494742 0.164827
O O8 0.222580 0.733507 0.960015
O O9 0.412634 0.620139 0.884700
O O10 0.001086 0.888023 0.608923
O O11 0.173429 0.901093 0.599578
O O12 0.121468 0.962656 0.066479
#
# Coordination Sequence:
#
# PCOD9080912 Si02
#       6
#     2   2   2   2   2   2
#     4  10  19  30  46  67  91 119 149 184 225 267
#     4  10  19  30  46  67  91 119 149 184 225 267
#     4  10  19  30  46  67  91 119 149 184 225 267
#     4  10  19  30  46  67  91 119 149 184 225 267
#     4  10  19  30  46  67  91 119 149 184 225 267
#     4  10  19  30  46  67  91 119 149 184 225 267
#
# _framework density 16.855692000000001
#
# number of rings (size 3 to 8) (size 9 to 14) (size 15 to 20)
#    0.000    2.000    0.000    6.000    0.000    0.000 
#    0.000    0.000    0.000    1.000    0.000    0.000 
#    0.000   24.000    0.000    0.000    0.000    8.000 
#
# Total GULP energy -66841.825267 kJ/mol
# GULP energy per Si atom -5570.152106 kJ/mol
# Density = 1.681733 g / cm^3
# Si number density = 16.855692 Si / 1000 Ang^3
#
#
#
# Elastic Constant Matrix: (Units=GPa)
#
#
# Indices 1 2 3 4 5 6 
#
# 1 63.3634 12.7408 11.4870 -7.9061 11.7890 -4.9188
# 2 12.7408 66.9484 5.8986 -1.5716 24.4324 -7.0008
# 3 11.4870 5.8986 63.5601 -6.3351 -6.7327 -2.1043
# 4 -7.9061 -1.5716 -6.3351 30.3221 1.4521 4.7686
# 5 11.7890 24.4324 -6.7327 1.4521 34.3941 -4.4236
# 6 -4.9188 -7.0008 -2.1043 4.7686 -4.4236 16.0904
#
#
#
# Elastic Compliance Matrix: (Units=1/GPa)
#
#
# Indices 1 2 3 4 5 6 
#
# 1 0.018393 -0.000501 -0.003504 0.004046 -0.006555 0.001945
# 2 -0.000501 0.021281 -0.003299 0.000303 -0.015032 0.004452
# 3 -0.003504 -0.003299 0.017666 0.002091 0.007059 0.001125
# 4 0.004046 0.000303 0.002091 0.036288 -0.004039 -0.010223
# 5 -0.006555 -0.015032 0.007059 -0.004039 0.044292 0.005753
# 6 0.001945 0.004452 0.001125 -0.010223 0.005753 0.069439
#
#
# Mechanical properties :
#
#
# Convention : Reuss Voigt Hill
#
# Bulk Modulus (GPa) = 23.40173 28.23608 25.81891
# Shear Modulus (GPa) = 21.16734 27.07768 24.12251
#
# Velocity S-wave (km/s) = 3.54757 4.01239 3.78712
# Velocity P-wave (km/s) = 5.54022 6.18496 5.87145
#
# Compressibility (1/GPa) = 0.04273188
#
# Stress axis : x y z
#
# Youngs Moduli (GPa) = 54.36708 46.98962 56.60553
#
# Poissons Ratio (x) = 0.02354 0.19837
# Poissons Ratio (y) = 0.02723 0.18675
# Poissons Ratio (z) = 0.19053 0.15503
#
# Static dielectric constant tensor:
#      x y z
#    x 1.609270 -0.004290 0.007090 
#    y -0.004290 1.619280 -0.004690 
#    z 0.007090 -0.004690 1.586560 
# 
# From -- ./inp_files/91891.got.cif
#   From: 2010.05.17/outbox.cif.g08.bks.cpg/sg2_46_cif.got.tgz:91891.got - 2010.06.03 11:33:40.
