data_PCOD9080275
_publ_section_title
;
Structure prediction by ZEFSAII (Michael W. Deem and Ramdas Pophale) SiO2 
 PCOD9080275
Probable space group: P -1
;
_chemical_formula_sum "Si O2"
_cell_formula_units_Z 12
_cell_length_a 12.888577
_cell_length_b 6.983208
_cell_length_c 9.869433
_cell_angle_alpha 115.713704
_cell_angle_beta 53.222321
_cell_angle_gamma 134.647380
_cell_volume 506.047802
_symmetry_space_group_name_H-M "P -1"
_symmetry_group_IT_number 2
_symmetry_cell_setting 'triclinic'
loop_
_space_group_symop_operation_xyz
x,y,z
-x,-y,-z
loop_
_atom_site_type_symbol
_atom_site_label
_atom_site_fract_x
_atom_site_fract_y
_atom_site_fract_z
Si Si1 0.089483 0.344947 0.288772
Si Si2 0.814616 0.101083 0.633797
Si Si3 0.462874 0.804311 0.844452
Si Si4 0.014821 0.463058 0.815347
Si Si5 0.357781 0.901160 0.685734
Si Si6 0.805398 0.806020 0.054969
O O1 0.189360 0.657139 0.349277
O O2 0.952325 0.141538 0.441234
O O3 0.008610 0.369415 0.224321
O O4 0.194065 0.256556 0.123674
O O5 0.628875 0.838058 0.697285
O O6 0.500000 0.000000 0.000000
O O7 0.425147 0.916633 0.784114
O O8 0.305505 0.494885 0.889805
O O9 0.116921 0.820842 0.241805
O O10 0.202752 0.588650 0.686433
O O11 0.000000 0.500000 0.000000
O O12 0.500000 0.000000 0.500000
O O13 0.283135 0.063473 0.799416
O O14 0.000000 0.000000 0.000000
#
# Coordination Sequence:
#
# PCOD9080275 Si02
#       6
#     2   2   2   2   2   2
#     4   9  18  38  68  93 131 185 232 273 354 420
#     4   9  19  39  69  94 138 188 226 285 361 415
#     4  12  25  46  72 108 147 189 236 305 363 426
#     4  10  18  38  68  97 130 187 230 274 350 423
#     4  12  28  44  72 108 146 185 244 303 359 425
#     4  12  25  46  75 106 143 195 242 295 367 436
#
# _framework density 23.713175
#
# number of rings (size 3 to 8) (size 9 to 14) (size 15 to 20)
#    1.000    0.333    3.333    3.000    0.000    1.333 
#    0.000    0.000    0.000    3.000    0.000    0.000 
#    0.000    0.000    0.000    0.000    0.000    0.000 
#
# Total GULP energy -66839.775537 kJ/mol
# GULP energy per Si atom -5569.981295 kJ/mol
# Density = 2.365920 g / cm^3
# Si number density = 23.713175 Si / 1000 Ang^3
#
#
#
# Elastic Constant Matrix: (Units=GPa)
#
#
# Indices 1 2 3 4 5 6 
#
# 1 107.3301 48.0815 49.3185 -16.9078 11.8072 3.5910
# 2 48.0815 94.8984 57.6609 -22.3422 -10.1166 6.3034
# 3 49.3185 57.6609 183.2139 -27.1465 -12.5529 -4.2260
# 4 -16.9078 -22.3422 -27.1465 43.0564 -0.3218 -17.2485
# 5 11.8072 -10.1166 -12.5529 -0.3218 39.4672 -12.4077
# 6 3.5910 6.3034 -4.2260 -17.2485 -12.4077 23.5624
#
#
#
# Elastic Compliance Matrix: (Units=1/GPa)
#
#
# Indices 1 2 3 4 5 6 
#
# 1 0.014652 -0.006739 -0.003176 -0.003247 -0.009838 -0.008557
# 2 -0.006739 0.017285 -0.001878 0.007403 0.007641 0.005509
# 3 -0.003176 -0.001878 0.008992 0.008650 0.007438 0.012848
# 4 -0.003247 0.007403 0.008650 0.050822 0.021273 0.048472
# 5 -0.009838 0.007641 0.007438 0.021273 0.045446 0.040293
# 6 -0.008557 0.005509 0.012848 0.048472 0.040293 0.101276
#
#
# Mechanical properties :
#
#
# Convention : Reuss Voigt Hill
#
# Bulk Modulus (GPa) = 57.66113 77.28493 67.47303
# Shear Modulus (GPa) = 18.66783 36.57594 27.62189
#
# Velocity S-wave (km/s) = 2.80881 3.93164 3.41667
# Velocity P-wave (km/s) = 5.90662 7.29882 6.63931
#
# Compressibility (1/GPa) = 0.01734270
#
# Stress axis : x y z
#
# Youngs Moduli (GPa) = 68.24887 57.85449 111.21236
#
# Poissons Ratio (x) = 0.38987 0.35319
# Poissons Ratio (y) = 0.45992 0.20890
# Poissons Ratio (z) = 0.21674 0.10867
#
# Static dielectric constant tensor:
#      x y z
#    x 1.890860 -0.024600 -0.040310 
#    y -0.024600 2.095060 0.056560 
#    z -0.040310 0.056560 2.013570 
# 
# From -- ./inp_files/443285.got.cif
#   From: 2010.05.17/outbox.cif.g08.bks.cpg/sg2_222_cif.got.tgz:443285.got - 2010.06.03 11:33:40.
