data_PCOD9080590
_publ_section_title
;
Structure prediction by ZEFSAII (Michael W. Deem and Ramdas Pophale) SiO2 
 PCOD9080590
Probable space group: P -1
;
_chemical_formula_sum "Si O2"
_cell_formula_units_Z 16
_cell_length_a 19.256410
_cell_length_b 24.298921
_cell_length_c 13.285179
_cell_angle_alpha 29.705283
_cell_angle_beta 157.600332
_cell_angle_gamma 160.211113
_cell_volume 801.925985
_symmetry_space_group_name_H-M "P -1"
_symmetry_group_IT_number 2
_symmetry_cell_setting 'triclinic'
loop_
_space_group_symop_operation_xyz
x,y,z
-x,-y,-z
loop_
_atom_site_type_symbol
_atom_site_label
_atom_site_fract_x
_atom_site_fract_y
_atom_site_fract_z
Si Si1 0.214701 0.137890 0.147713
Si Si2 0.534593 0.564381 0.719489
Si Si3 0.946062 0.943727 0.719396
Si Si4 0.925421 0.669375 0.367184
Si Si5 0.249975 0.552174 0.705670
Si Si6 0.695313 0.378648 0.809087
Si Si7 0.508053 0.129079 0.105643
Si Si8 0.385655 0.041155 0.857560
O O1 0.168476 0.249441 0.916529
O O2 0.514847 0.261696 0.312374
O O3 0.153178 0.061112 0.296414
O O4 0.000000 0.000000 0.000000
O O5 0.425377 0.555008 0.480256
O O6 0.771052 0.756110 0.757046
O O7 0.274486 0.461671 0.605401
O O8 0.630860 0.483174 0.998671
O O9 0.892881 0.024548 0.444321
O O10 0.251651 0.039657 0.971841
O O11 0.861821 0.565360 0.352310
O O12 0.233247 0.808465 0.594242
O O13 0.000000 0.500000 0.500000
O O14 0.615818 0.294374 0.943796
O O15 0.568302 0.232596 0.793293
O O16 0.000000 0.500000 0.000000
O O17 0.410465 0.023796 0.038017
O O18 0.500000 0.000000 0.000000
#
# Coordination Sequence:
#
# PCOD9080590 Si02
#       8
#     2   2   2   2   2   2   2   2
#     4  11  25  40  64  91 123 168 206 257 316 373
#     4  10  18  40  65  81 117 170 201 245 312 371
#     4  11  21  40  61  88 127 161 203 254 317 365
#     4  11  21  42  63  86 126 165 208 252 314 373
#     4  11  24  42  62  93 122 164 216 260 306 374
#     4   9  18  36  64  87 113 160 206 241 308 367
#     4  10  23  34  64  93 120 159 207 252 308 374
#     4   9  21  38  60  89 121 158 204 254 306 365
#
# _framework density 19.951965999999999
#
# number of rings (size 3 to 8) (size 9 to 14) (size 15 to 20)
#    0.750    1.000    3.750    1.125    3.500    1.500 
#    0.000    0.000    0.000    1.500    0.000    0.000 
#    0.000    0.000    0.000    0.000    0.000    0.000 
#
# Total GULP energy -89102.373147 kJ/mol
# GULP energy per Si atom -5568.898322 kJ/mol
# Density = 1.990655 g / cm^3
# Si number density = 19.951966 Si / 1000 Ang^3
#
#
#
# Elastic Constant Matrix: (Units=GPa)
#
#
# Indices 1 2 3 4 5 6 
#
# 1 38.1711 16.2993 9.5213 8.7792 12.4053 6.7503
# 2 16.2993 52.5965 9.2993 24.0573 14.2164 13.0173
# 3 9.5213 9.2993 87.7753 22.7629 9.5526 19.3077
# 4 8.7792 24.0573 22.7629 34.2534 9.3560 4.8289
# 5 12.4053 14.2164 9.5526 9.3560 33.1028 3.6694
# 6 6.7503 13.0173 19.3077 4.8289 3.6694 23.7318
#
#
#
# Elastic Compliance Matrix: (Units=1/GPa)
#
#
# Indices 1 2 3 4 5 6 
#
# 1 0.032792 -0.006771 -0.001153 -0.000047 -0.008666 -0.003326
# 2 -0.006771 0.038275 0.008528 -0.026194 -0.006782 -0.019629
# 3 -0.001153 0.008528 0.018215 -0.014886 -0.002534 -0.015748
# 4 -0.000047 -0.026194 -0.014886 0.055849 -0.001932 0.015427
# 5 -0.008666 -0.006782 -0.002534 -0.001932 0.037329 0.002868
# 6 -0.003326 -0.019629 -0.015748 0.015427 0.002868 0.063080
#
#
# Mechanical properties :
#
#
# Convention : Reuss Voigt Hill
#
# Bulk Modulus (GPa) = 11.05087 27.64252 19.34670
# Shear Modulus (GPa) = 18.21528 27.77914 22.99721
#
# Velocity S-wave (km/s) = 3.02480 3.73540 3.39872
# Velocity P-wave (km/s) = 4.21307 5.69991 5.01193
#
# Compressibility (1/GPa) = 0.09049058
#
# Stress axis : x y z
#
# Youngs Moduli (GPa) = 30.49512 26.12641 54.90100
#
# Poissons Ratio (x) = 0.17691 0.06329
# Poissons Ratio (y) = 0.20649 -0.46821
# Poissons Ratio (z) = 0.03516 -0.22281
#
# Static dielectric constant tensor:
#      x y z
#    x 1.742380 0.007210 -0.076480 
#    y 0.007210 1.721760 0.009280 
#    z -0.076480 0.009280 1.803540 
# 
# From -- ./inp_files/541817.got.cif
#   From: 2010.05.17/outbox.cif.g08.bks.cpg/sg2_271_cif.got.tgz:541817.got - 2010.06.03 11:33:40.
