data_PCOD9080334
_publ_section_title
;
Structure prediction by ZEFSAII (Michael W. Deem and Ramdas Pophale) SiO2 
 PCOD9080334
Probable space group: P -1
;
_chemical_formula_sum "Si O2"
_cell_formula_units_Z 14
_cell_length_a 9.463172
_cell_length_b 18.785906
_cell_length_c 8.671338
_cell_angle_alpha 116.545817
_cell_angle_beta 33.493123
_cell_angle_gamma 91.650224
_cell_volume 545.952047
_symmetry_space_group_name_H-M "P -1"
_symmetry_group_IT_number 2
_symmetry_cell_setting 'triclinic'
loop_
_space_group_symop_operation_xyz
x,y,z
-x,-y,-z
loop_
_atom_site_type_symbol
_atom_site_label
_atom_site_fract_x
_atom_site_fract_y
_atom_site_fract_z
Si Si1 0.652387 0.094438 0.309346
Si Si2 0.226919 0.379386 0.099096
Si Si3 0.046531 0.132794 0.843350
Si Si4 0.887783 0.326171 0.574524
Si Si5 0.785168 0.242377 0.852769
Si Si6 0.116590 0.949174 0.510478
Si Si7 0.369899 0.483169 0.448789
O O1 0.274739 0.143527 0.748236
O O2 0.693890 0.175696 0.293831
O O3 0.000000 0.000000 0.000000
O O4 0.737831 0.021980 0.012529
O O5 0.138797 0.321296 0.228083
O O6 0.027728 0.413578 0.148392
O O7 0.000000 0.500000 0.500000
O O8 0.623264 0.327046 0.716546
O O9 0.946671 0.192301 0.826881
O O10 0.252042 0.002967 0.510686
O O11 0.024817 0.239317 0.506908
O O12 0.635099 0.440719 0.018940
O O13 0.707141 0.173985 0.782833
O O14 0.441135 0.373663 0.307298
O O15 0.000000 0.000000 0.500000
O O16 0.500000 0.500000 0.500000
#
# Coordination Sequence:
#
# PCOD9080334 Si02
#       7
#     2   2   2   2   2   2   2
#     4  10  20  37  60  83 117 158 188 234 295 345
#     4  10  18  39  58  81 113 153 188 240 291 344
#     4   9  20  37  60  84 120 150 192 240 286 341
#     4   9  21  36  62  81 113 151 195 238 290 347
#     4   9  19  37  57  90 113 150 203 237 293 342
#     4   8  18  36  56  83 113 154 186 240 281 346
#     4   9  19  36  61  85 118 154 196 240 299 347
#
# _framework density 25.643279
#
# number of rings (size 3 to 8) (size 9 to 14) (size 15 to 20)
#    1.714    1.143    0.000    2.143    0.000    3.429 
#    2.571    9.286    0.000    0.000    0.000    0.000 
#    0.000    0.000    0.000    0.000    0.000    0.000 
#
# Total GULP energy -77951.845781 kJ/mol
# GULP energy per Si atom -5567.988984 kJ/mol
# Density = 2.558491 g / cm^3
# Si number density = 25.643279 Si / 1000 Ang^3
#
#
#
# Elastic Constant Matrix: (Units=GPa)
#
#
# Indices 1 2 3 4 5 6 
#
# 1 122.7193 57.4750 47.9804 -12.6776 -13.5143 -13.5800
# 2 57.4750 186.3778 52.6474 -12.7171 -22.7775 -0.7852
# 3 47.9804 52.6474 75.3567 -1.3200 -13.9656 13.8489
# 4 -12.6776 -12.7171 -1.3200 47.8909 14.8723 -5.6168
# 5 -13.5143 -22.7775 -13.9656 14.8723 33.4211 5.6253
# 6 -13.5800 -0.7852 13.8489 -5.6168 5.6253 52.6118
#
#
#
# Elastic Compliance Matrix: (Units=1/GPa)
#
#
# Indices 1 2 3 4 5 6 
#
# 1 0.013265 -0.001539 -0.008942 0.004382 -0.002464 0.006486
# 2 -0.001539 0.007229 -0.003721 0.000747 0.002329 0.000521
# 3 -0.008942 -0.003721 0.025099 -0.006752 0.009136 -0.010668
# 4 0.004382 0.000747 -0.006752 0.027222 -0.013884 0.007310
# 5 -0.002464 0.002329 0.009136 -0.013884 0.042020 -0.008981
# 6 0.006486 0.000521 -0.010668 0.007310 -0.008981 0.025238
#
#
# Mechanical properties :
#
#
# Convention : Reuss Voigt Hill
#
# Bulk Modulus (GPa) = 58.18273 77.85104 68.01689
# Shear Modulus (GPa) = 28.70107 41.87482 35.28795
#
# Velocity S-wave (km/s) = 3.34914 4.04539 3.71362
# Velocity P-wave (km/s) = 6.13956 7.22810 6.70595
#
# Compressibility (1/GPa) = 0.01718723
#
# Stress axis : x y z
#
# Youngs Moduli (GPa) = 75.38643 138.32717 39.84173
#
# Poissons Ratio (x) = 0.21294 0.35627
# Poissons Ratio (y) = 0.11605 0.14827
# Poissons Ratio (z) = 0.67412 0.51478
#
# Static dielectric constant tensor:
#      x y z
#    x 2.096340 0.037430 0.034400 
#    y 0.037430 2.041030 -0.016480 
#    z 0.034400 -0.016480 2.223090 
# 
# From -- ./inp_files/210833.got.cif
#   From: 2010.05.17/outbox.cif.g08.bks.cpg/sg2_106_cif.got.tgz:210833.got - 2010.06.03 11:33:40.
