data_PCOD9080315
_publ_section_title
;
Structure prediction by ZEFSAII (Michael W. Deem and Ramdas Pophale) SiO2 
 PCOD9080315
Probable space group: P -1
;
_chemical_formula_sum "Si O2"
_cell_formula_units_Z 14
_cell_length_a 14.698924
_cell_length_b 9.967035
_cell_length_c 7.581755
_cell_angle_alpha 128.641672
_cell_angle_beta 107.881223
_cell_angle_gamma 44.115849
_cell_volume 583.190942
_symmetry_space_group_name_H-M "P -1"
_symmetry_group_IT_number 2
_symmetry_cell_setting 'triclinic'
loop_
_space_group_symop_operation_xyz
x,y,z
-x,-y,-z
loop_
_atom_site_type_symbol
_atom_site_label
_atom_site_fract_x
_atom_site_fract_y
_atom_site_fract_z
Si Si1 0.247400 0.254914 0.001139
Si Si2 0.427532 0.957357 0.552516
Si Si3 0.696738 0.181313 0.867354
Si Si4 0.871281 0.275209 0.085362
Si Si5 0.708782 0.501555 0.517759
Si Si6 0.055056 0.334020 0.220394
Si Si7 0.384890 0.722782 0.738341
O O1 0.305979 0.193574 0.787772
O O2 0.343816 0.970818 0.886391
O O3 0.270629 0.409541 0.228375
O O4 0.109157 0.373535 0.117712
O O5 0.500000 0.000000 0.500000
O O6 0.358362 0.880648 0.357891
O O7 0.555795 0.733565 0.558224
O O8 0.817999 0.930192 0.838005
O O9 0.762396 0.282222 0.939813
O O10 0.586508 0.338919 0.087652
O O11 0.800422 0.437340 0.353488
O O12 0.943185 0.342834 0.089397
O O13 0.000000 0.000000 0.000000
O O14 0.732988 0.267391 0.364092
O O15 0.000000 0.500000 0.500000
O O16 0.500000 0.500000 0.500000
#
# Coordination Sequence:
#
# PCOD9080315 Si02
#       7
#     2   2   2   2   2   2   2
#     4  11  23  41  64  98 126 170 225 265 311 391
#     4  12  25  39  61  96 141 171 204 264 337 390
#     4   9  22  38  57  93 128 158 209 265 322 380
#     4   9  19  38  66  94 115 160 219 266 312 372
#     4  11  22  40  69  93 129 172 214 267 323 383
#     4  10  18  38  71  85 114 163 224 263 304 371
#     4  10  20  37  62  89 120 165 220 258 309 377
#
# _framework density 24.005863000000002
#
# number of rings (size 3 to 8) (size 9 to 14) (size 15 to 20)
#    0.000    1.714    2.857    3.000    2.000    2.286 
#    0.000    1.429    0.000    0.000    0.000    0.000 
#    0.000    0.000    0.000    0.000    0.000    0.000 
#
# Total GULP energy -78051.433656 kJ/mol
# GULP energy per Si atom -5575.102404 kJ/mol
# Density = 2.395122 g / cm^3
# Si number density = 24.005863 Si / 1000 Ang^3
#
#
#
# Elastic Constant Matrix: (Units=GPa)
#
#
# Indices 1 2 3 4 5 6 
#
# 1 146.0262 8.3692 61.7651 -24.8435 -18.3991 -3.5756
# 2 8.3692 39.7132 3.3184 11.3435 -5.7803 -8.9076
# 3 61.7651 3.3184 192.6504 -11.2933 -9.7216 -15.9997
# 4 -24.8435 11.3435 -11.2933 28.3023 -8.4264 4.5810
# 5 -18.3991 -5.7803 -9.7216 -8.4264 51.1706 1.6174
# 6 -3.5756 -8.9076 -15.9997 4.5810 1.6174 29.1944
#
#
#
# Elastic Compliance Matrix: (Units=1/GPa)
#
#
# Indices 1 2 3 4 5 6 
#
# 1 0.011234 -0.006241 -0.002814 0.013502 0.005165 -0.004475
# 2 -0.006241 0.035674 0.001168 -0.022266 -0.002113 0.014371
# 3 -0.002814 0.001168 0.006318 -0.000992 0.000043 0.003628
# 4 0.013502 -0.022266 -0.000992 0.062168 0.012899 -0.016153
# 5 0.005165 -0.002113 0.000043 0.012899 0.023398 -0.003309
# 6 -0.004475 0.014371 0.003628 -0.016153 -0.003309 0.042796
#
#
# Mechanical properties :
#
#
# Convention : Reuss Voigt Hill
#
# Bulk Modulus (GPa) = 26.70035 58.36614 42.53324
# Shear Modulus (GPa) = 23.82703 42.06261 32.94482
#
# Velocity S-wave (km/s) = 3.15389 4.19045 3.70856
# Velocity P-wave (km/s) = 4.94058 6.91225 6.00785
#
# Compressibility (1/GPa) = 0.03745269
#
# Stress axis : x y z
#
# Youngs Moduli (GPa) = 89.01375 28.03166 158.27659
#
# Poissons Ratio (x) = 0.17495 0.44536
# Poissons Ratio (y) = 0.55554 -0.18489
# Poissons Ratio (z) = 0.25047 -0.03274
#
# Static dielectric constant tensor:
#      x y z
#    x 1.937200 0.050990 0.048770 
#    y 0.050990 1.999550 0.005780 
#    z 0.048770 0.005780 1.900150 
# 
# From -- ./inp_files/308815.got.cif
#   From: 2010.05.17/outbox.cif.g08.bks.cpg/sg2_155_cif.got.tgz:308815.got - 2010.06.03 11:33:40.
