data_PCOD9080189
_publ_section_title
;
Structure prediction by ZEFSAII (Michael W. Deem and Ramdas Pophale) SiO2 
 PCOD9080189
Probable space group: P -1
;
_chemical_formula_sum "Si O2"
_cell_formula_units_Z 13
_cell_length_a 14.247521
_cell_length_b 7.321068
_cell_length_c 10.203491
_cell_angle_alpha 118.422310
_cell_angle_beta 49.026625
_cell_angle_gamma 129.892254
_cell_volume 613.703059
_symmetry_space_group_name_H-M "P -1"
_symmetry_group_IT_number 2
_symmetry_cell_setting 'triclinic'
loop_
_space_group_symop_operation_xyz
x,y,z
-x,-y,-z
loop_
_atom_site_type_symbol
_atom_site_label
_atom_site_fract_x
_atom_site_fract_y
_atom_site_fract_z
Si Si1 0.371838 0.726041 0.529057
Si Si2 0.143817 0.741600 0.925156
Si Si3 0.738106 0.534048 0.961781
Si Si4 0.448310 0.322126 0.295777
Si Si5 0.646562 0.183189 0.705468
Si Si6 0.000000 0.000000 0.000000
Si Si7 0.653690 0.847235 0.958785
O O1 0.259767 0.697016 0.731214
O O2 0.428542 0.540493 0.435085
O O3 0.621764 0.915701 0.633796
O O4 0.300400 0.686918 0.437161
O O5 0.107998 0.908978 0.924349
O O6 0.214282 0.892116 0.043687
O O7 0.000000 0.500000 0.000000
O O8 0.738495 0.334635 0.797548
O O9 0.886925 0.726330 0.952869
O O10 0.614264 0.410899 0.142744
O O11 0.679254 0.667380 0.964065
O O12 0.369836 0.234650 0.196913
O O13 0.490221 0.155703 0.864036
O O14 0.500000 0.000000 0.500000
#
# Coordination Sequence:
#
# PCOD9080189 Si02
#       7
#     2   2   2   2   2   1   2
#     4  12  23  44  63  98 131 160 213 280 317 361
#     4  11  26  42  67  89 131 172 211 260 321 390
#     4  10  18  38  65  96 131 170 212 260 316 384
#     4  11  22  36  71  97 124 162 219 270 316 371
#     4  11  21  36  68  98 126 163 215 269 315 369
#     4  10  24  40  64  90 126 178 210 244 318 396
#     4  10  18  41  64  95 126 171 209 263 318 372
#
# _framework density 21.182880999999998
#
# number of rings (size 3 to 8) (size 9 to 14) (size 15 to 20)
#    0.000    1.231    4.615    3.692    4.308    1.846 
#    0.000    1.538    0.000    0.000    0.000    0.000 
#    0.000    0.000    0.000    0.000    0.000    0.000 
#
# Total GULP energy -72450.880260 kJ/mol
# GULP energy per Si atom -5573.144635 kJ/mol
# Density = 2.113467 g / cm^3
# Si number density = 21.182881 Si / 1000 Ang^3
#
#
#
# Elastic Constant Matrix: (Units=GPa)
#
#
# Indices 1 2 3 4 5 6 
#
# 1 82.3244 20.4506 21.2149 15.8851 10.6964 4.7663
# 2 20.4506 133.2923 41.3253 30.1782 -0.9034 16.2774
# 3 21.2149 41.3253 73.8664 18.6671 -8.2025 1.3507
# 4 15.8851 30.1782 18.6671 34.5155 -4.6871 2.6993
# 5 10.6964 -0.9034 -8.2025 -4.6871 14.5826 9.9988
# 6 4.7663 16.2774 1.3507 2.6993 9.9988 56.9849
#
#
#
# Elastic Compliance Matrix: (Units=1/GPa)
#
#
# Indices 1 2 3 4 5 6 
#
# 1 0.017592 0.000487 -0.005483 -0.008524 -0.020415 0.002506
# 2 0.000487 0.010771 -0.004611 -0.007424 -0.003238 -0.002088
# 3 -0.005483 -0.004611 0.019918 -0.002063 0.015137 -0.001255
# 4 -0.008524 -0.007424 -0.002063 0.043507 0.020521 -0.002779
# 5 -0.020415 -0.003238 0.015137 0.020521 0.110910 -0.018159
# 6 0.002506 -0.002088 -0.001255 -0.002779 -0.018159 0.021283
#
#
# Mechanical properties :
#
#
# Convention : Reuss Voigt Hill
#
# Bulk Modulus (GPa) = 34.40529 50.60720 42.50625
# Shear Modulus (GPa) = 19.77188 34.98275 27.37731
#
# Velocity S-wave (km/s) = 3.05846 4.06823 3.59893
# Velocity P-wave (km/s) = 5.36186 6.78305 6.11389
#
# Compressibility (1/GPa) = 0.02906529
#
# Stress axis : x y z
#
# Youngs Moduli (GPa) = 56.84541 92.84054 50.20664
#
# Poissons Ratio (x) = -0.04518 0.27530
# Poissons Ratio (y) = -0.02766 0.23150
# Poissons Ratio (z) = 0.31170 0.42808
#
# Static dielectric constant tensor:
#      x y z
#    x 1.793630 -0.044960 0.052790 
#    y -0.044960 1.807000 0.029990 
#    z 0.052790 0.029990 1.759080 
# 
# From -- ./inp_files/293355.got.cif
#   From: 2010.05.17/outbox.cif.g08.bks.cpg/sg2_147_cif.got.tgz:293355.got - 2010.06.03 11:33:40.
