data_PCOD9080252
_publ_section_title
;
Structure prediction by ZEFSAII (Michael W. Deem and Ramdas Pophale) SiO2 
 PCOD9080252
Probable space group: P -1
;
_chemical_formula_sum "Si O2"
_cell_formula_units_Z 16
_cell_length_a 15.065297
_cell_length_b 6.964642
_cell_length_c 14.448609
_cell_angle_alpha 72.121363
_cell_angle_beta 38.904430
_cell_angle_gamma 94.040600
_cell_volume 775.287828
_symmetry_space_group_name_H-M "P -1"
_symmetry_group_IT_number 2
_symmetry_cell_setting 'triclinic'
loop_
_space_group_symop_operation_xyz
x,y,z
-x,-y,-z
loop_
_atom_site_type_symbol
_atom_site_label
_atom_site_fract_x
_atom_site_fract_y
_atom_site_fract_z
Si Si1 0.518340 0.761326 0.947295
Si Si2 0.271846 0.528594 0.561284
Si Si3 0.127538 0.007489 0.821606
Si Si4 0.147022 0.059457 0.442657
Si Si5 0.443189 0.041574 0.637538
Si Si6 0.368830 0.642951 0.898474
Si Si7 0.018283 0.696584 0.773076
Si Si8 0.612803 0.444894 0.737056
O O1 0.704745 0.936551 0.736366
O O2 0.396870 0.735834 0.967520
O O3 0.536370 0.233631 0.904743
O O4 0.500000 0.500000 0.000000
O O5 0.217876 0.260040 0.660364
O O6 0.327509 0.603265 0.399720
O O7 0.121730 0.566119 0.703075
O O8 0.428673 0.695745 0.472482
O O9 0.260179 0.984874 0.777732
O O10 0.050953 0.818460 0.829088
O O11 0.000000 0.000000 0.000000
O O12 0.232675 0.323756 0.375967
O O13 0.000000 0.000000 0.500000
O O14 0.086364 0.885059 0.605447
O O15 0.445639 0.865186 0.735946
O O16 0.500000 0.000000 0.500000
O O17 0.473154 0.513211 0.820691
O O18 0.176797 0.473709 0.058182
#
# Coordination Sequence:
#
# PCOD9080252 Si02
#       8
#     2   2   2   2   2   2   2   2
#     4   8  17  35  62  95 129 167 215 255 321 390
#     4  12  25  45  68  98 134 167 224 276 321 395
#     4  12  28  45  66  98 130 175 222 270 334 387
#     4  10  18  38  67  99 130 175 213 265 328 386
#     4  12  25  44  67  93 129 176 222 272 330 380
#     4  10  22  41  66  95 131 176 217 265 327 390
#     4  12  24  43  68  96 138 170 214 277 328 385
#     4  10  20  40  66  99 132 170 221 263 328 395
#
# _framework density 20.637497
#
# number of rings (size 3 to 8) (size 9 to 14) (size 15 to 20)
#    0.000    1.500    2.500    5.625    3.500    1.000 
#    0.000    5.000    0.000    0.000    0.000    0.000 
#    0.000    0.000    0.000    0.000    0.000    0.000 
#
# Total GULP energy -89452.239075 kJ/mol
# GULP energy per Si atom -5590.764942 kJ/mol
# Density = 2.059052 g / cm^3
# Si number density = 20.637497 Si / 1000 Ang^3
#
#
#
# Elastic Constant Matrix: (Units=GPa)
#
#
# Indices 1 2 3 4 5 6 
#
# 1 127.4266 34.0631 21.5298 10.6283 -14.9406 13.5359
# 2 34.0631 55.1764 18.5829 18.8575 -1.3033 14.7376
# 3 21.5298 18.5829 69.2152 14.2052 -5.4705 12.7834
# 4 10.6283 18.8575 14.2052 36.8376 0.5311 8.2977
# 5 -14.9406 -1.3033 -5.4705 0.5311 52.4245 -5.9230
# 6 13.5359 14.7376 12.7834 8.2977 -5.9230 38.8482
#
#
#
# Elastic Compliance Matrix: (Units=1/GPa)
#
#
# Indices 1 2 3 4 5 6 
#
# 1 0.009889 -0.005645 -0.001391 0.000676 0.002456 -0.000616
# 2 -0.005645 0.027416 -0.002622 -0.010090 -0.001740 -0.005681
# 3 -0.001391 -0.002622 0.017092 -0.004163 0.001014 -0.003101
# 4 0.000676 -0.010090 -0.004163 0.034309 -0.001127 -0.002538
# 5 0.002456 -0.001740 0.001014 -0.001127 0.020164 0.002786
# 6 -0.000616 -0.005681 -0.003101 -0.002538 0.002786 0.030098
#
#
# Mechanical properties :
#
#
# Convention : Reuss Voigt Hill
#
# Bulk Modulus (GPa) = 28.50630 44.46330 36.48480
# Shear Modulus (GPa) = 29.41542 37.46489 33.44015
#
# Velocity S-wave (km/s) = 3.77946 4.26535 4.02974
# Velocity P-wave (km/s) = 5.73486 6.77121 6.27447
#
# Compressibility (1/GPa) = 0.03507997
#
# Stress axis : x y z
#
# Youngs Moduli (GPa) = 101.12550 36.47441 58.50770
#
# Poissons Ratio (x) = 0.20589 0.08140
# Poissons Ratio (y) = 0.57083 0.15343
# Poissons Ratio (z) = 0.14070 0.09565
#
# Static dielectric constant tensor:
#      x y z
#    x 1.709420 -0.007070 0.035760 
#    y -0.007070 1.789990 0.002690 
#    z 0.035760 0.002690 1.733160 
# 
# From -- ./inp_files/143342.got.cif
#   From: 2010.05.17/outbox.cif.g08.bks.cpg/sg2_72_cif.got.tgz:143342.got - 2010.06.03 11:33:40.
