data_PCOD9080641
_publ_section_title
;
Structure prediction by ZEFSAII (Michael W. Deem and Ramdas Pophale) SiO2 
 PCOD9080641
Probable space group: P -1
;
_chemical_formula_sum "Si O2"
_cell_formula_units_Z 15
_cell_length_a 15.014515
_cell_length_b 8.863952
_cell_length_c 8.834261
_cell_angle_alpha 109.466515
_cell_angle_beta 125.740974
_cell_angle_gamma 107.369582
_cell_volume 687.973006
_symmetry_space_group_name_H-M "P -1"
_symmetry_group_IT_number 2
_symmetry_cell_setting 'triclinic'
loop_
_space_group_symop_operation_xyz
x,y,z
-x,-y,-z
loop_
_atom_site_type_symbol
_atom_site_label
_atom_site_fract_x
_atom_site_fract_y
_atom_site_fract_z
Si Si1 0.179272 0.733822 0.453534
Si Si2 0.870133 0.001661 0.369085
Si Si3 0.500000 0.000000 0.000000
Si Si4 0.154006 0.340150 0.326446
Si Si5 0.150717 0.068269 0.012467
Si Si6 0.392599 0.766201 0.137200
Si Si7 0.709369 0.066054 0.686079
Si Si8 0.337287 0.403441 0.797897
O O1 0.340730 0.888177 0.731814
O O2 0.129327 0.504654 0.341513
O O3 0.192200 0.798300 0.313581
O O4 0.090367 0.780704 0.475642
O O5 0.803212 0.924643 0.109835
O O6 0.758898 0.835710 0.328711
O O7 0.000000 0.000000 0.500000
O O8 0.574730 0.112935 0.946841
O O9 0.290858 0.429856 0.598194
O O10 0.171188 0.267645 0.158856
O O11 0.017558 0.132940 0.204967
O O12 0.231611 0.029759 0.197037
O O13 0.302064 0.793447 0.166596
O O14 0.546887 0.879364 0.406647
O O15 0.318674 0.530058 0.940774
O O16 0.500000 0.500000 0.000000
#
# Coordination Sequence:
#
# PCOD9080641 Si02
#       8
#     2   2   1   2   2   2   2   2
#     4  11  24  42  70 102 133 188 230 293 349 423
#     4  12  27  46  70 101 142 184 239 288 356 423
#     4  10  18  40  68 102 136 170 232 292 344 404
#     4  11  25  44  71  99 138 181 234 284 360 415
#     4  11  25  46  65  99 142 182 226 293 348 426
#     4  10  21  39  68 101 138 180 233 288 349 414
#     4  10  23  42  66  98 144 179 230 290 357 416
#     4  12  24  45  71 102 140 187 235 292 353 425
#
# _framework density 21.803180999999999
#
# number of rings (size 3 to 8) (size 9 to 14) (size 15 to 20)
#    0.000    1.067    2.667    4.000    3.733    2.133 
#    0.000    1.333    0.000    0.000    0.000    0.000 
#    0.000    0.000    0.000    0.000    0.000    0.000 
#
# Total GULP energy -83673.045012 kJ/mol
# GULP energy per Si atom -5578.203001 kJ/mol
# Density = 2.175356 g / cm^3
# Si number density = 21.803181 Si / 1000 Ang^3
#
#
#
# Elastic Constant Matrix: (Units=GPa)
#
#
# Indices 1 2 3 4 5 6 
#
# 1 86.8489 41.0265 34.1528 3.2027 -21.5888 -24.2802
# 2 41.0265 91.2224 42.0302 -11.0710 -24.1202 -26.7788
# 3 34.1528 42.0302 66.8710 -16.3051 -13.4821 -17.7279
# 4 3.2027 -11.0710 -16.3051 37.4902 -2.4487 -14.3109
# 5 -21.5888 -24.1202 -13.4821 -2.4487 41.6210 6.2607
# 6 -24.2802 -26.7788 -17.7279 -14.3109 6.2607 37.4167
#
#
#
# Elastic Compliance Matrix: (Units=1/GPa)
#
#
# Indices 1 2 3 4 5 6 
#
# 1 0.017801 -0.003071 -0.005545 -0.002651 0.004762 0.004916
# 2 -0.003071 0.022118 -0.003936 0.011317 0.008375 0.014899
# 3 -0.005545 -0.003936 0.028424 0.016827 0.003089 0.012971
# 4 -0.002651 0.011317 0.016827 0.050411 0.008761 0.032166
# 5 0.004762 0.008375 0.003089 0.008761 0.031570 0.008616
# 6 0.004916 0.014899 0.012971 0.032166 0.008616 0.057586
#
#
# Mechanical properties :
#
#
# Convention : Reuss Voigt Hill
#
# Bulk Modulus (GPa) = 23.12615 53.26237 38.19426
# Shear Modulus (GPa) = 20.20798 31.82111 26.01454
#
# Velocity S-wave (km/s) = 3.04770 3.82445 3.45795
# Velocity P-wave (km/s) = 4.79734 6.63201 5.78783
#
# Compressibility (1/GPa) = 0.04324109
#
# Stress axis : x y z
#
# Youngs Moduli (GPa) = 56.17620 45.21133 35.18127
#
# Poissons Ratio (x) = 0.13884 0.19507
# Poissons Ratio (y) = 0.17251 0.13847
# Poissons Ratio (z) = 0.31148 0.17795
#
# Static dielectric constant tensor:
#      x y z
#    x 1.784580 -0.028030 -0.015480 
#    y -0.028030 1.787760 0.011310 
#    z -0.015480 0.011310 1.799240 
# 
# From -- ./inp_files/204726.got.cif
#   From: 2010.05.17/outbox.cif.g08.bks.cpg/sg2_103_cif.got.tgz:204726.got - 2010.06.03 11:33:40.
