data_PCOD9080071
_publ_section_title
;
Structure prediction by ZEFSAII (Michael W. Deem and Ramdas Pophale) SiO2 
 PCOD9080071
Probable space group: P -1
;
_chemical_formula_sum "Si O2"
_cell_formula_units_Z 16
_cell_length_a 10.475974
_cell_length_b 14.228329
_cell_length_c 19.046142
_cell_angle_alpha 149.550322
_cell_angle_beta 144.281100
_cell_angle_gamma 55.201576
_cell_volume 755.591548
_symmetry_space_group_name_H-M "P -1"
_symmetry_group_IT_number 2
_symmetry_cell_setting 'triclinic'
loop_
_space_group_symop_operation_xyz
x,y,z
-x,-y,-z
loop_
_atom_site_type_symbol
_atom_site_label
_atom_site_fract_x
_atom_site_fract_y
_atom_site_fract_z
Si Si1 0.516449 0.272100 0.245566
Si Si2 0.989326 0.594933 0.630532
Si Si3 0.252021 0.044108 0.843702
Si Si4 0.174118 0.035579 0.492505
Si Si5 0.861257 0.659881 0.209946
Si Si6 0.292661 0.800031 0.125406
Si Si7 0.428989 0.690189 0.971947
Si Si8 0.924256 0.959085 0.020750
O O1 0.713929 0.504669 0.475372
O O2 0.681088 0.146645 0.239859
O O3 0.345643 0.186332 0.045736
O O4 0.341173 0.223925 0.202459
O O5 0.000000 0.500000 0.500000
O O6 0.164087 0.552068 0.734783
O O7 0.092288 0.839128 0.827638
O O8 0.414096 0.170231 0.931368
O O9 0.978122 0.986871 0.660763
O O10 0.130119 0.201617 0.629170
O O11 0.461554 0.107543 0.659664
O O12 0.051893 0.819043 0.342376
O O13 0.868592 0.445305 0.091849
O O14 0.590945 0.587781 0.010471
O O15 0.121745 0.914089 0.122514
O O16 0.394328 0.819109 0.103376
O O17 0.000000 0.000000 0.000000
#
# Coordination Sequence:
#
# PCOD9080071 Si02
#       8
#     2   2   2   2   2   2   2   2
#     4  11  23  38  62  93 125 167 211 256 316 383
#     4  12  23  41  69  96 122 169 213 266 319 371
#     4  10  19  38  62  92 126 155 212 270 314 359
#     4   9  19  35  62  91 124 163 209 270 307 361
#     4   9  20  34  59  96 120 163 213 261 311 368
#     4  11  22  39  60  89 133 166 210 252 320 384
#     4  10  18  38  62  93 126 155 209 272 303 363
#     4  12  26  46  61  92 138 168 206 264 316 384
#
# _framework density 21.175460999999999
#
# number of rings (size 3 to 8) (size 9 to 14) (size 15 to 20)
#    0.000    1.500    3.750    3.000    3.500    1.500 
#    0.000    0.625    0.000    2.250    0.000    0.000 
#    0.000    0.000    0.000    0.000    0.000    0.000 
#
# Total GULP energy -89368.906585 kJ/mol
# GULP energy per Si atom -5585.556662 kJ/mol
# Density = 2.112726 g / cm^3
# Si number density = 21.175461 Si / 1000 Ang^3
#
#
#
# Elastic Constant Matrix: (Units=GPa)
#
#
# Indices 1 2 3 4 5 6 
#
# 1 49.5206 8.5582 16.4590 -0.5349 12.7840 7.6035
# 2 8.5582 76.3817 34.9084 -10.4629 -1.7158 3.4356
# 3 16.4590 34.9084 104.1112 -25.9190 16.3648 4.6441
# 4 -0.5349 -10.4629 -25.9190 35.2579 6.8937 1.8698
# 5 12.7840 -1.7158 16.3648 6.8937 33.5105 -2.4960
# 6 7.6035 3.4356 4.6441 1.8698 -2.4960 24.9880
#
#
#
# Elastic Compliance Matrix: (Units=1/GPa)
#
#
# Indices 1 2 3 4 5 6 
#
# 1 0.024696 -0.001994 -0.000933 0.001482 -0.009982 -0.008175
# 2 -0.001994 0.016051 -0.005911 -0.000506 0.004573 -0.000007
# 3 -0.000933 -0.005911 0.016948 0.013106 -0.011229 -0.004156
# 4 0.001482 -0.000506 0.013106 0.041411 -0.016071 -0.007521
# 5 -0.009982 0.004573 -0.011229 -0.016071 0.043421 0.010035
# 6 -0.008175 -0.000007 -0.004156 -0.007521 0.010035 0.044845
#
#
# Mechanical properties :
#
#
# Convention : Reuss Voigt Hill
#
# Bulk Modulus (GPa) = 24.98829 38.87384 31.93106
# Shear Modulus (GPa) = 22.89503 30.09046 26.49275
#
# Velocity S-wave (km/s) = 3.29174 3.77371 3.54094
# Velocity P-wave (km/s) = 5.12578 6.11438 5.64178
#
# Compressibility (1/GPa) = 0.04001875
#
# Stress axis : x y z
#
# Youngs Moduli (GPa) = 40.49162 62.30232 59.00434
#
# Poissons Ratio (x) = 0.12424 0.05505
# Poissons Ratio (y) = 0.08075 0.34878
# Poissons Ratio (z) = 0.03777 0.36827
#
# Static dielectric constant tensor:
#      x y z
#    x 1.754580 0.030010 0.025240 
#    y 0.030010 1.792470 -0.007220 
#    z 0.025240 -0.007220 1.791770 
# 
# From -- ./inp_files/595670.got.cif
#   From: 2010.05.17/outbox.cif.g08.bks.cpg/sg2_298_cif.got.tgz:595670.got - 2010.06.03 11:33:40.
