data_PCOD9080743
_publ_section_title
;
Structure prediction by ZEFSAII (Michael W. Deem and Ramdas Pophale) SiO2 
 PCOD9080743
Probable space group: P -1
;
_chemical_formula_sum "Si O2"
_cell_formula_units_Z 14
_cell_length_a 9.024878
_cell_length_b 11.163128
_cell_length_c 9.621882
_cell_angle_alpha 94.065760
_cell_angle_beta 58.350048
_cell_angle_gamma 61.869832
_cell_volume 659.069592
_symmetry_space_group_name_H-M "P -1"
_symmetry_group_IT_number 2
_symmetry_cell_setting 'triclinic'
loop_
_space_group_symop_operation_xyz
x,y,z
-x,-y,-z
loop_
_atom_site_type_symbol
_atom_site_label
_atom_site_fract_x
_atom_site_fract_y
_atom_site_fract_z
Si Si1 0.821422 0.977529 0.632861
Si Si2 0.605230 0.296377 0.829598
Si Si3 0.977321 0.654897 0.014048
Si Si4 0.463132 0.526035 0.683793
Si Si5 0.734677 0.838633 0.876305
Si Si6 0.039360 0.258137 0.666092
Si Si7 0.724777 0.580449 0.752785
O O1 0.886829 0.873955 0.727354
O O2 0.794627 0.890153 0.517756
O O3 0.625870 0.146458 0.782389
O O4 0.000000 0.000000 0.500000
O O5 0.572734 0.373112 0.704734
O O6 0.825577 0.260669 0.780904
O O7 0.411892 0.401498 0.040176
O O8 0.823270 0.763171 0.975437
O O9 0.211533 0.616238 0.858062
O O10 0.000000 0.500000 0.000000
O O11 0.896015 0.732289 0.210588
O O12 0.500000 0.500000 0.500000
O O13 0.584284 0.592482 0.692974
O O14 0.739187 0.716205 0.772166
O O15 0.500000 0.000000 0.000000
O O16 0.949607 0.414387 0.644084
#
# Coordination Sequence:
#
# PCOD9080743 Si02
#       7
#     2   2   2   2   2   2   2
#     4  10  24  41  66  96 136 176 218 272 340 400
#     4  10  18  42  67  93 135 177 213 267 347 394
#     4  12  24  43  69 103 134 175 231 279 327 401
#     4  11  24  40  70 103 130 171 232 283 324 397
#     4  12  26  44  68  99 137 181 221 277 341 396
#     4  10  20  40  66  98 129 177 219 274 330 397
#     4  11  20  43  70  92 135 179 221 267 342 401
#
# _framework density 21.242065
#
# number of rings (size 3 to 8) (size 9 to 14) (size 15 to 20)
#    0.000    1.143    5.714    0.857    6.000    1.714 
#    2.571    4.286    0.000    0.000    0.000    0.000 
#    0.000    0.000    0.000    0.000    0.000    0.000 
#
# Total GULP energy -78182.401098 kJ/mol
# GULP energy per Si atom -5584.457221 kJ/mol
# Density = 2.119372 g / cm^3
# Si number density = 21.242065 Si / 1000 Ang^3
#
#
#
# Elastic Constant Matrix: (Units=GPa)
#
#
# Indices 1 2 3 4 5 6 
#
# 1 98.3088 63.7423 34.5531 -5.8062 29.8182 -4.9639
# 2 63.7423 132.1263 42.3298 -1.0188 29.5966 12.5916
# 3 34.5531 42.3298 99.5930 -0.2550 45.3133 -4.8232
# 4 -5.8062 -1.0188 -0.2550 47.0890 6.1754 8.5824
# 5 29.8182 29.5966 45.3133 6.1754 46.8828 -2.8688
# 6 -4.9639 12.5916 -4.8232 8.5824 -2.8688 31.4471
#
#
#
# Elastic Compliance Matrix: (Units=1/GPa)
#
#
# Indices 1 2 3 4 5 6 
#
# 1 0.017150 -0.007334 0.000433 0.002005 -0.006681 0.004554
# 2 -0.007334 0.012977 -0.002604 0.000867 -0.001562 -0.007132
# 3 0.000433 -0.002604 0.018809 0.001974 -0.016954 0.001910
# 4 0.002005 0.000867 0.001974 0.023718 -0.007275 -0.006865
# 5 -0.006681 -0.001562 -0.016954 -0.007275 0.044092 0.002978
# 6 0.004554 -0.007132 0.001910 -0.006865 0.002978 0.037812
#
#
# Mechanical properties :
#
#
# Convention : Reuss Voigt Hill
#
# Bulk Modulus (GPa) = 33.41641 67.91983 50.66812
# Shear Modulus (GPa) = 27.24140 37.71063 32.47601
#
# Velocity S-wave (km/s) = 3.58498 4.21798 3.91430
# Velocity P-wave (km/s) = 5.73599 7.46762 6.65834
#
# Compressibility (1/GPa) = 0.02992542
#
# Stress axis : x y z
#
# Youngs Moduli (GPa) = 58.30781 77.05782 53.16720
#
# Poissons Ratio (x) = 0.56517 -0.02301
# Poissons Ratio (y) = 0.42765 0.13843
# Poissons Ratio (z) = -0.02523 0.20064
#
# Static dielectric constant tensor:
#      x y z
#    x 1.798160 0.020760 -0.050090 
#    y 0.020760 1.775130 0.011270 
#    z -0.050090 0.011270 1.834560 
# 
# From -- ./inp_files/180029.got.cif
#   From: 2010.05.17/outbox.cif.g08.bks.cpg/sg2_91_cif.got.tgz:180029.got - 2010.06.03 11:33:40.
