data_PCOD9080619
_publ_section_title
;
Structure prediction by ZEFSAII (Michael W. Deem and Ramdas Pophale) SiO2 
 PCOD9080619
Probable space group: P -1
;
_chemical_formula_sum "Si O2"
_cell_formula_units_Z 14
_cell_length_a 6.576224
_cell_length_b 15.126380
_cell_length_c 10.404136
_cell_angle_alpha 87.172345
_cell_angle_beta 141.285381
_cell_angle_gamma 104.421398
_cell_volume 608.676771
_symmetry_space_group_name_H-M "P -1"
_symmetry_group_IT_number 2
_symmetry_cell_setting 'triclinic'
loop_
_space_group_symop_operation_xyz
x,y,z
-x,-y,-z
loop_
_atom_site_type_symbol
_atom_site_label
_atom_site_fract_x
_atom_site_fract_y
_atom_site_fract_z
Si Si1 0.203992 0.288879 0.281051
Si Si2 0.790171 0.156776 0.316320
Si Si3 0.376433 0.037772 0.806818
Si Si4 0.966365 0.850852 0.029612
Si Si5 0.883618 0.787603 0.264101
Si Si6 0.294719 0.598038 0.030510
Si Si7 0.282041 0.560753 0.327132
O O1 0.168460 0.223464 0.145942
O O2 0.576129 0.345585 0.522807
O O3 0.976655 0.226329 0.289048
O O4 0.019811 0.360789 0.133959
O O5 0.376587 0.125631 0.108955
O O6 0.896191 0.208063 0.500589
O O7 0.891394 0.062125 0.366659
O O8 0.276708 0.129415 0.786654
O O9 0.694982 0.071756 0.862902
O O10 0.500000 0.000000 0.000000
O O11 0.066564 0.813710 0.215606
O O12 0.607822 0.683541 0.123111
O O13 0.125094 0.500920 0.875070
O O14 0.371020 0.582098 0.218193
O O15 0.500000 0.500000 0.500000
#
# Coordination Sequence:
#
# PCOD9080619 Si02
#       7
#     2   2   2   2   2   2   2
#     4  11  21  41  67  93 131 172 211 259 323 380
#     4  12  25  41  66  96 131 173 218 265 316 379
#     4  12  23  45  66  90 133 175 217 266 317 374
#     4  12  24  41  65  94 133 172 214 265 320 373
#     4  12  25  41  66  96 132 170 217 266 320 379
#     4  10  18  40  66  95 126 167 212 262 319 380
#     4   9  20  35  71  97 120 167 214 258 322 385
#
# _framework density 23.000713000000001
#
# number of rings (size 3 to 8) (size 9 to 14) (size 15 to 20)
#    0.000    0.857    7.143    0.857    0.000    2.857 
#    0.000    0.714    0.000    5.143    0.000    0.000 
#    0.000    0.000    0.000    0.000    0.000    0.000 
#
# Total GULP energy -78111.107390 kJ/mol
# GULP energy per Si atom -5579.364814 kJ/mol
# Density = 2.294836 g / cm^3
# Si number density = 23.000713 Si / 1000 Ang^3
#
#
#
# Elastic Constant Matrix: (Units=GPa)
#
#
# Indices 1 2 3 4 5 6 
#
# 1 76.6567 41.6728 40.1127 -3.9257 -28.3758 19.3157
# 2 41.6728 127.4401 43.2357 2.4549 -18.3057 21.8867
# 3 40.1127 43.2357 113.0837 8.7555 -40.0215 6.9064
# 4 -3.9257 2.4549 8.7555 52.0128 -5.2724 -6.1693
# 5 -28.3758 -18.3057 -40.0215 -5.2724 42.3205 -7.4231
# 6 19.3157 21.8867 6.9064 -6.1693 -7.4231 28.8989
#
#
#
# Elastic Compliance Matrix: (Units=1/GPa)
#
#
# Indices 1 2 3 4 5 6 
#
# 1 0.022231 -0.003511 -0.002840 0.002261 0.009474 -0.008605
# 2 -0.003511 0.010798 -0.003054 -0.001122 -0.001725 -0.005784
# 3 -0.002840 -0.003054 0.014902 -0.001035 0.011324 0.003337
# 4 0.002261 -0.001122 -0.001035 0.020552 0.003466 0.004863
# 5 0.009474 -0.001725 0.011324 0.003466 0.040996 0.003539
# 6 -0.008605 -0.005784 0.003337 0.004863 0.003539 0.045885
#
#
# Mechanical properties :
#
#
# Convention : Reuss Voigt Hill
#
# Bulk Modulus (GPa) = 34.33876 63.02477 48.68177
# Shear Modulus (GPa) = 27.19169 37.45705 32.32437
#
# Velocity S-wave (km/s) = 3.44206 4.03987 3.75288
# Velocity P-wave (km/s) = 5.54607 7.01580 6.32378
#
# Compressibility (1/GPa) = 0.02912161
#
# Stress axis : x y z
#
# Youngs Moduli (GPa) = 44.98258 92.60979 67.10607
#
# Poissons Ratio (x) = 0.32514 0.19058
# Poissons Ratio (y) = 0.15793 0.20492
# Poissons Ratio (z) = 0.12775 0.28279
#
# Static dielectric constant tensor:
#      x y z
#    x 1.863090 -0.068870 -0.028400 
#    y -0.068870 1.922440 0.030250 
#    z -0.028400 0.030250 1.998250 
# 
# From -- ./inp_files/48786.got.cif
#   From: 2010.05.17/outbox.cif.g08.bks.cpg/sg2_25_cif.got.tgz:48786.got - 2010.06.03 11:33:40.
