data_PCOD9080098
_publ_section_title
;
Structure prediction by ZEFSAII (Michael W. Deem and Ramdas Pophale) SiO2 
 PCOD9080098
Probable space group: P -1
;
_chemical_formula_sum "Si O2"
_cell_formula_units_Z 16
_cell_length_a 13.511767
_cell_length_b 11.731921
_cell_length_c 15.226125
_cell_angle_alpha 27.344276
_cell_angle_beta 70.374552
_cell_angle_gamma 54.327090
_cell_volume 786.072125
_symmetry_space_group_name_H-M "P -1"
_symmetry_group_IT_number 2
_symmetry_cell_setting 'triclinic'
loop_
_space_group_symop_operation_xyz
x,y,z
-x,-y,-z
loop_
_atom_site_type_symbol
_atom_site_label
_atom_site_fract_x
_atom_site_fract_y
_atom_site_fract_z
Si Si1 0.486081 0.168831 0.479610
Si Si2 0.790288 0.569763 0.832722
Si Si3 0.909907 0.731268 0.077714
Si Si4 0.152535 0.129242 0.188972
Si Si5 0.840238 0.282133 0.381308
Si Si6 0.755589 0.184979 0.968713
Si Si7 0.295936 0.415737 0.966445
Si Si8 0.567283 0.172997 0.144313
O O1 0.384906 0.551034 0.227725
O O2 0.500000 0.000000 0.500000
O O3 0.644900 0.948160 0.615815
O O4 0.410912 0.097670 0.616286
O O5 0.786320 0.378589 0.885705
O O6 0.923392 0.536510 0.803115
O O7 0.790102 0.419052 0.028699
O O8 0.836308 0.577165 0.209439
O O9 0.856578 0.945304 0.857834
O O10 0.875277 0.929139 0.041017
O O11 0.185331 0.867502 0.429136
O O12 0.268580 0.164784 0.133027
O O13 0.000000 0.500000 0.000000
O O14 0.755615 0.383021 0.246517
O O15 0.000000 0.000000 0.500000
O O16 0.707822 0.047892 0.143972
O O17 0.449155 0.272704 0.042133
O O18 0.500000 0.500000 0.000000
#
# Coordination Sequence:
#
# PCOD9080098 Si02
#       8
#     2   2   2   2   2   2   2   2
#     4   9  19  36  59  85 118 168 205 237 290 362
#     4  10  18  38  63  91 126 160 206 248 300 377
#     4  11  23  38  62  94 126 157 201 261 316 355
#     4  11  20  40  59  89 121 155 210 259 300 360
#     4  11  20  38  63  88 115 162 210 250 302 360
#     4  11  23  39  58  93 135 160 191 258 319 361
#     4  10  20  35  63  94 112 154 212 258 289 353
#     4  11  20  38  61  89 123 161 212 244 288 380
#
# _framework density 20.354365999999999
#
# number of rings (size 3 to 8) (size 9 to 14) (size 15 to 20)
#    0.000    1.500    7.500    0.375    0.000    4.000 
#    0.000    2.500    0.000   19.500    0.000    0.000 
#    0.000    0.000    0.000    0.000    0.000    0.000 
#
# Total GULP energy -89204.448479 kJ/mol
# GULP energy per Si atom -5575.278030 kJ/mol
# Density = 2.030804 g / cm^3
# Si number density = 20.354366 Si / 1000 Ang^3
#
#
#
# Elastic Constant Matrix: (Units=GPa)
#
#
# Indices 1 2 3 4 5 6 
#
# 1 88.0444 12.3357 17.2045 19.6395 2.4596 -1.1799
# 2 12.3357 76.7678 24.9414 24.7428 -6.3893 0.7124
# 3 17.2045 24.9414 80.7467 40.6236 -4.9493 -3.3080
# 4 19.6395 24.7428 40.6236 34.9293 -0.6456 0.3313
# 5 2.4596 -6.3893 -4.9493 -0.6456 20.7170 5.9463
# 6 -1.1799 0.7124 -3.3080 0.3313 5.9463 30.8003
#
#
#
# Elastic Compliance Matrix: (Units=1/GPa)
#
#
# Indices 1 2 3 4 5 6 
#
# 1 0.013233 0.000325 0.002191 -0.010258 -0.001598 0.001154
# 2 0.000325 0.017660 0.002694 -0.015706 0.005869 -0.001071
# 3 0.002191 0.002694 0.031587 -0.039788 0.006113 0.002662
# 4 -0.010258 -0.015706 -0.039788 0.091659 -0.009271 -0.003499
# 5 -0.001598 0.005869 0.006113 -0.009271 0.054289 -0.009922
# 6 0.001154 -0.001071 0.002662 -0.003499 -0.009922 0.034775
#
#
# Mechanical properties :
#
#
# Convention : Reuss Voigt Hill
#
# Bulk Modulus (GPa) = 13.71801 39.39134 26.55468
# Shear Modulus (GPa) = 19.44891 30.02781 24.73836
#
# Velocity S-wave (km/s) = 3.09450 3.84507 3.49002
# Velocity P-wave (km/s) = 4.41838 6.25360 5.41431
#
# Compressibility (1/GPa) = 0.07289686
#
# Stress axis : x y z
#
# Youngs Moduli (GPa) = 75.56997 56.62623 31.65884
#
# Poissons Ratio (x) = -0.01838 -0.06935
# Poissons Ratio (y) = -0.02453 -0.08528
# Poissons Ratio (z) = -0.16554 -0.15254
#
# Static dielectric constant tensor:
#      x y z
#    x 1.754050 0.000180 0.004730 
#    y 0.000180 1.918900 0.080510 
#    z 0.004730 0.080510 1.776470 
# 
# From -- ./inp_files/532271.got.cif
#   From: 2010.05.17/outbox.cif.g08.bks.cpg/sg2_267_cif.got.tgz:532271.got - 2010.06.03 11:33:40.
