data_PCOD9080114
_publ_section_title
;
Structure prediction by ZEFSAII (Michael W. Deem and Ramdas Pophale) SiO2 
 PCOD9080114
Probable space group: P -1
;
_chemical_formula_sum "Si O2"
_cell_formula_units_Z 16
_cell_length_a 7.918022
_cell_length_b 7.963297
_cell_length_c 20.379136
_cell_angle_alpha 61.901587
_cell_angle_beta 37.053750
_cell_angle_gamma 76.644248
_cell_volume 657.161582
_symmetry_space_group_name_H-M "P -1"
_symmetry_group_IT_number 2
_symmetry_cell_setting 'triclinic'
loop_
_space_group_symop_operation_xyz
x,y,z
-x,-y,-z
loop_
_atom_site_type_symbol
_atom_site_label
_atom_site_fract_x
_atom_site_fract_y
_atom_site_fract_z
Si Si1 0.011394 0.079708 0.748665
Si Si2 0.929260 0.693721 0.917299
Si Si3 0.613283 0.759640 0.674465
Si Si4 0.367210 0.919842 0.486268
Si Si5 0.335646 0.982323 0.261790
Si Si6 0.751613 0.500829 0.369714
Si Si7 0.100524 0.726539 0.008242
Si Si8 0.475210 0.390890 0.712558
O O1 0.355770 0.096160 0.640377
O O2 0.998606 0.292382 0.740712
O O3 0.913656 0.057771 0.707672
O O4 0.852327 0.880930 0.874041
O O5 0.774046 0.466856 0.988817
O O6 0.260099 0.709276 0.788826
O O7 0.947256 0.711700 0.986884
O O8 0.658348 0.549124 0.679075
O O9 0.747058 0.920205 0.547419
O O10 0.673829 0.861054 0.707720
O O11 0.165751 0.700387 0.602916
O O12 0.500000 0.000000 0.500000
O O13 0.365914 0.777663 0.320238
O O14 0.631810 0.080860 0.111220
O O15 0.500000 0.500000 0.500000
O O16 0.590810 0.492713 0.351483
O O17 0.847349 0.716145 0.140378
#
# Coordination Sequence:
#
# PCOD9080114 Si02
#       8
#     2   2   2   2   2   2   2   2
#     4  10  22  37  56  88 119 153 182 242 305 340
#     4   8  16  35  59  82 114 150 199 235 280 342
#     4   9  19  37  61  86 112 153 195 240 286 344
#     4  10  18  38  64  84 104 147 206 242 277 344
#     4  11  22  38  55  86 130 152 183 241 301 344
#     4  10  20  37  62  83 110 150 198 241 287 345
#     4   9  18  34  61  85 108 158 200 235 277 345
#     4  11  20  37  62  86 112 156 205 234 279 349
#
# _framework density 24.347131000000001
#
# number of rings (size 3 to 8) (size 9 to 14) (size 15 to 20)
#    0.000    2.250    1.250    4.125    0.000    0.500 
#    2.250    8.750    0.000    0.000    0.000    0.000 
#    0.000    0.000    0.000    0.000    0.000    0.000 
#
# Total GULP energy -89394.481972 kJ/mol
# GULP energy per Si atom -5587.155123 kJ/mol
# Density = 2.429172 g / cm^3
# Si number density = 24.347131 Si / 1000 Ang^3
#
#
#
# Elastic Constant Matrix: (Units=GPa)
#
#
# Indices 1 2 3 4 5 6 
#
# 1 66.7485 31.1595 17.4191 -8.0739 8.1667 14.6656
# 2 31.1595 118.2043 24.5633 -35.7992 2.3562 8.5807
# 3 17.4191 24.5633 76.4194 -15.9912 23.2877 -11.3693
# 4 -8.0739 -35.7992 -15.9912 46.6564 1.6198 4.4381
# 5 8.1667 2.3562 23.2877 1.6198 29.3774 0.7875
# 6 14.6656 8.5807 -11.3693 4.4381 0.7875 31.2433
#
#
#
# Elastic Compliance Matrix: (Units=1/GPa)
#
#
# Indices 1 2 3 4 5 6 
#
# 1 0.020261 -0.003569 -0.004451 0.000262 -0.001561 -0.010148
# 2 -0.003569 0.012828 -0.002610 0.008660 0.001664 -0.004070
# 3 -0.004451 -0.002610 0.022727 0.004578 -0.017113 0.010857
# 4 0.000262 0.008660 0.004578 0.030374 -0.005937 -0.005000
# 5 -0.001561 0.001664 -0.017113 -0.005937 0.048403 -0.006329
# 6 -0.010148 -0.004070 0.010857 -0.005000 -0.006329 0.042709
#
#
# Mechanical properties :
#
#
# Convention : Reuss Voigt Hill
#
# Bulk Modulus (GPa) = 28.93751 45.29511 37.11631
# Shear Modulus (GPa) = 23.80022 34.00411 28.90217
#
# Velocity S-wave (km/s) = 3.12995 3.74122 3.44915
# Velocity P-wave (km/s) = 4.99733 6.10791 5.58032
#
# Compressibility (1/GPa) = 0.03455723
#
# Stress axis : x y z
#
# Youngs Moduli (GPa) = 49.35471 77.95304 43.99972
#
# Poissons Ratio (x) = 0.27823 0.19583
# Poissons Ratio (y) = 0.17616 0.11485
# Poissons Ratio (z) = 0.21966 0.20347
#
# Static dielectric constant tensor:
#      x y z
#    x 1.947040 -0.039900 -0.015850 
#    y -0.039900 2.022600 -0.039070 
#    z -0.015850 -0.039070 1.978910 
# 
# From -- ./inp_files/586665.got.cif
#   From: 2010.05.17/outbox.cif.g08.bks.cpg/sg2_294_cif.got.tgz:586665.got - 2010.06.03 11:33:40.
