data_PCOD9080169
_publ_section_title
;
Structure prediction by ZEFSAII (Michael W. Deem and Ramdas Pophale) SiO2 
 PCOD9080169
Probable space group: P -1
;
_chemical_formula_sum "Si O2"
_cell_formula_units_Z 16
_cell_length_a 5.012584
_cell_length_b 7.172618
_cell_length_c 18.724561
_cell_angle_alpha 98.543113
_cell_angle_beta 90.146952
_cell_angle_gamma 116.274309
_cell_volume 595.185250
_symmetry_space_group_name_H-M "P -1"
_symmetry_group_IT_number 2
_symmetry_cell_setting 'triclinic'
loop_
_space_group_symop_operation_xyz
x,y,z
-x,-y,-z
loop_
_atom_site_type_symbol
_atom_site_label
_atom_site_fract_x
_atom_site_fract_y
_atom_site_fract_z
Si Si1 0.698677 0.334064 0.584485
Si Si2 0.874856 0.539435 0.217944
Si Si3 0.635101 0.773085 0.874407
Si Si4 0.481645 0.840582 0.291861
Si Si5 0.204259 0.519297 0.068566
Si Si6 0.692849 0.942324 0.138486
Si Si7 0.285097 0.701252 0.648516
Si Si8 0.734703 0.896097 0.551700
O O1 0.526673 0.328410 0.658445
O O2 0.507693 0.278769 0.510446
O O3 0.017238 0.532671 0.592035
O O4 0.728921 0.117210 0.582871
O O5 0.529893 0.438804 0.185906
O O6 0.809570 0.382009 0.276348
O O7 0.128350 0.756982 0.264855
O O8 0.029315 0.523558 0.142253
O O9 0.713196 0.674659 0.937825
O O10 0.427297 0.890741 0.876815
O O11 0.954009 0.948390 0.860116
O O12 0.622881 0.867848 0.215823
O O13 0.696550 0.067592 0.338614
O O14 0.504039 0.735846 0.081158
O O15 0.000000 0.500000 0.000000
O O16 0.614982 0.761851 0.618486
O O17 0.000000 0.000000 0.500000
#
# Coordination Sequence:
#
# PCOD9080169 Si02
#       8
#     2   2   2   2   2   2   2   2
#     4   9  20  37  58  87 127 170 225 279 344 419
#     4  10  22  43  66 100 135 180 241 289 359 432
#     4  12  24  47  71 105 144 187 244 300 361 441
#     4   9  19  40  64  94 131 179 229 293 353 417
#     4  11  27  48  74 107 148 190 238 306 367 433
#     4  11  26  45  74 107 144 192 245 299 364 435
#     4  10  18  38  65  86 132 175 225 284 346 415
#     4  10  21  36  56  90 128 172 223 279 346 412
#
# _framework density 26.882386
#
# number of rings (size 3 to 8) (size 9 to 14) (size 15 to 20)
#    0.000    1.750    2.500    0.375    3.500    3.000 
#    0.000   10.000    0.000    0.000    0.000    0.000 
#    0.000    0.000    0.000    0.000    0.000    0.000 
#
# Total GULP energy -89138.572017 kJ/mol
# GULP energy per Si atom -5571.160751 kJ/mol
# Density = 2.682120 g / cm^3
# Si number density = 26.882386 Si / 1000 Ang^3
#
#
#
# Elastic Constant Matrix: (Units=GPa)
#
#
# Indices 1 2 3 4 5 6 
#
# 1 46.8612 39.2721 18.4410 -5.8059 -5.0039 36.5103
# 2 39.2721 188.5290 59.9192 2.4278 -5.0208 52.2277
# 3 18.4410 59.9192 116.9130 -12.9690 -27.8167 27.8031
# 4 -5.8059 2.4278 -12.9690 -5.6771 -13.2074 45.0161
# 5 -5.0039 -5.0208 -27.8167 -13.2074 16.1286 16.9241
# 6 36.5103 52.2277 27.8031 45.0161 16.9241 36.6103
#
#
#
# Elastic Compliance Matrix: (Units=1/GPa)
#
#
# Indices 1 2 3 4 5 6 
#
# 1 0.025186 -0.003424 -0.004775 -0.009449 -0.007748 -0.001407
# 2 -0.003424 0.007853 -0.003546 -0.000923 -0.002590 -0.002763
# 3 -0.004775 -0.003546 0.011310 -0.005513 0.007770 0.004418
# 4 -0.009449 -0.000923 -0.005513 0.008343 -0.020963 0.014359
# 5 -0.007748 -0.002590 0.007770 -0.020963 0.043089 0.011377
# 6 -0.001407 -0.002763 0.004418 0.014359 0.011377 0.006389
#
#
# Mechanical properties :
#
#
# Convention : Reuss Voigt Hill
#
# Bulk Modulus (GPa) = 47.93836 65.28529 56.61183
# Shear Modulus (GPa) = 37.70358 25.05709 31.38034
#
# Velocity S-wave (km/s) = 3.74911 3.05634 3.42031
# Velocity P-wave (km/s) = 6.05082 6.06574 6.05829
#
# Compressibility (1/GPa) = 0.02086012
#
# Stress axis : x y z
#
# Youngs Moduli (GPa) = 39.70393 127.34268 88.41405
#
# Poissons Ratio (x) = 0.43599 0.42216
# Poissons Ratio (y) = 0.13594 0.31353
# Poissons Ratio (z) = 0.18958 0.45158
#
# Static dielectric constant tensor:
#      x y z
#    x 2.436820 -0.032120 -0.219120 
#    y -0.032120 2.088420 -0.043220 
#    z -0.219120 -0.043220 2.357940 
# 
# From -- ./inp_files/581966.got.cif
#   From: 2010.05.17/outbox.cif.g08.bks.cpg/sg2_291_cif.got.tgz:581966.got - 2010.06.03 11:33:40.
