data_PCOD9080954
_publ_section_title
;
Structure prediction by ZEFSAII (Michael W. Deem and Ramdas Pophale) SiO2 
 PCOD9080954
Probable space group: P -1
;
_chemical_formula_sum "Si O2"
_cell_formula_units_Z 16
_cell_length_a 15.710501
_cell_length_b 24.922154
_cell_length_c 5.221995
_cell_angle_alpha 81.647503
_cell_angle_beta 123.377112
_cell_angle_gamma 140.881090
_cell_volume 910.521865
_symmetry_space_group_name_H-M "P -1"
_symmetry_group_IT_number 2
_symmetry_cell_setting 'triclinic'
loop_
_space_group_symop_operation_xyz
x,y,z
-x,-y,-z
loop_
_atom_site_type_symbol
_atom_site_label
_atom_site_fract_x
_atom_site_fract_y
_atom_site_fract_z
Si Si1 0.415159 0.335598 0.433543
Si Si2 0.405011 0.217203 0.578319
Si Si3 0.032199 0.875112 0.183226
Si Si4 0.955549 0.188304 0.248899
Si Si5 0.382142 0.094719 0.457238
Si Si6 0.782017 0.898994 0.147974
Si Si7 0.425136 0.934813 0.173055
Si Si8 0.601399 0.602122 0.146196
O O1 0.514970 0.321827 0.632576
O O2 0.247231 0.142308 0.145305
O O3 0.435325 0.374119 0.169526
O O4 0.191081 0.220927 0.175824
O O5 0.487086 0.193224 0.691965
O O6 0.320497 0.180321 0.746277
O O7 0.463755 0.398015 0.700412
O O8 0.052594 0.861962 0.512690
O O9 0.174474 0.989122 0.307096
O O10 0.094803 0.859737 0.077952
O O11 0.171790 0.304941 0.522139
O O12 0.801467 0.162452 0.105702
O O13 0.499133 0.092468 0.673657
O O14 0.324268 0.091145 0.082022
O O15 0.000000 0.000000 0.500000
O O16 0.500000 0.000000 0.500000
O O17 0.500000 0.000000 0.000000
O O18 0.500000 0.500000 0.000000
#
# Coordination Sequence:
#
# PCOD9080954 Si02
#       8
#     2   2   2   2   2   2   2   2
#     4  10  20  34  53  78 107 132 166 214 269 324
#     4  10  22  33  45  73 102 142 173 211 253 308
#     4  10  19  30  49  71 103 140 173 210 247 302
#     4  10  20  35  49  75 103 136 177 215 259 303
#     4  10  23  30  51  68 107 144 186 202 248 294
#     4  10  21  31  45  67 101 140 183 211 241 293
#     4  12  22  35  50  73 105 149 185 215 248 298
#     4  10  21  37  59  81 102 129 170 223 280 326
#
# _framework density 17.572340000000001
#
# number of rings (size 3 to 8) (size 9 to 14) (size 15 to 20)
#    0.750    1.000    2.500    2.250    5.250    1.000 
#    0.000    0.000    0.000    0.000    0.000    1.750 
#    0.000    0.000    0.000    0.000    0.000    0.000 
#
# Total GULP energy -89113.612026 kJ/mol
# GULP energy per Si atom -5569.600752 kJ/mol
# Density = 1.753234 g / cm^3
# Si number density = 17.572340 Si / 1000 Ang^3
#
#
#
# Elastic Constant Matrix: (Units=GPa)
#
#
# Indices 1 2 3 4 5 6 
#
# 1 44.3366 12.9336 11.9426 -3.5402 3.7410 -14.1130
# 2 12.9336 69.7280 20.4378 -5.0102 9.5853 -20.2360
# 3 11.9426 20.4378 46.5355 -10.9636 -5.7887 -2.9584
# 4 -3.5402 -5.0102 -10.9636 26.1180 -2.4712 -3.4271
# 5 3.7410 9.5853 -5.7887 -2.4712 15.8115 -6.6240
# 6 -14.1130 -20.2360 -2.9584 -3.4271 -6.6240 32.1863
#
#
#
# Elastic Compliance Matrix: (Units=1/GPa)
#
#
# Indices 1 2 3 4 5 6 
#
# 1 0.028470 0.000992 -0.007063 0.002182 -0.004668 0.011729
# 2 0.000992 0.022337 -0.011066 -0.000085 -0.013356 0.010704
# 3 -0.007063 -0.011066 0.034022 0.013217 0.022531 -0.000883
# 4 0.002182 -0.000085 0.013217 0.047007 0.016093 0.010435
# 5 -0.004668 -0.013356 0.022531 0.016093 0.088008 0.011453
# 6 0.011729 0.010704 -0.000883 0.010435 0.011453 0.046329
#
#
# Mechanical properties :
#
#
# Convention : Reuss Voigt Hill
#
# Bulk Modulus (GPa) = 19.78028 27.91425 23.84727
# Shear Modulus (GPa) = 15.75806 22.50890 19.13348
#
# Velocity S-wave (km/s) = 2.99783 3.58289 3.30334
# Velocity P-wave (km/s) = 4.82324 5.74769 5.30564
#
# Compressibility (1/GPa) = 0.05055539
#
# Stress axis : x y z
#
# Youngs Moduli (GPa) = 35.12529 44.76840 29.39280
#
# Poissons Ratio (x) = -0.04441 0.20760
# Poissons Ratio (y) = -0.03484 0.32525
# Poissons Ratio (z) = 0.24808 0.49539
#
# Static dielectric constant tensor:
#      x y z
#    x 1.665670 -0.046240 0.014010 
#    y -0.046240 1.611510 -0.028420 
#    z 0.014010 -0.028420 1.617590 
# 
# From -- ./inp_files/99727.got.cif
#   From: 2010.05.17/outbox.cif.g08.bks.cpg/sg2_50_cif.got.tgz:99727.got - 2010.06.03 11:33:40.
