data_PCOD9080487
_publ_section_title
;
Structure prediction by ZEFSAII (Michael W. Deem and Ramdas Pophale) SiO2 
 PCOD9080487
Probable space group: P -1
;
_chemical_formula_sum "Si O2"
_cell_formula_units_Z 16
_cell_length_a 15.174963
_cell_length_b 13.494330
_cell_length_c 9.847441
_cell_angle_alpha 55.597096
_cell_angle_beta 38.960498
_cell_angle_gamma 29.329067
_cell_volume 577.843481
_symmetry_space_group_name_H-M "P -1"
_symmetry_group_IT_number 2
_symmetry_cell_setting 'triclinic'
loop_
_space_group_symop_operation_xyz
x,y,z
-x,-y,-z
loop_
_atom_site_type_symbol
_atom_site_label
_atom_site_fract_x
_atom_site_fract_y
_atom_site_fract_z
Si Si1 0.078488 0.738629 0.502919
Si Si2 0.578441 0.175945 0.071255
Si Si3 0.684912 0.275978 0.089693
Si Si4 0.909455 0.529844 0.381539
Si Si5 0.266052 0.577752 0.693995
Si Si6 0.689888 0.104943 0.478576
Si Si7 0.807345 0.435399 0.919398
Si Si8 0.424049 0.084846 0.681401
O O1 0.380295 0.523492 0.266185
O O2 0.972301 0.680740 0.640021
O O3 0.106009 0.734694 0.635061
O O4 0.887627 0.959661 0.477835
O O5 0.736298 0.150255 0.000002
O O6 0.324970 0.341053 0.341872
O O7 0.637672 0.995436 0.111018
O O8 0.484622 0.314325 0.944884
O O9 0.740327 0.161421 0.249537
O O10 0.823376 0.306637 0.903533
O O11 0.808472 0.660538 0.262218
O O12 0.049288 0.540092 0.279319
O O13 0.500000 0.500000 0.500000
O O14 0.412963 0.347825 0.671540
O O15 0.125041 0.664752 0.937474
O O16 0.644207 0.005599 0.546428
O O17 0.500000 0.000000 0.500000
#
# Coordination Sequence:
#
# PCOD9080487 Si02
#       8
#     2   2   2   2   2   2   2   2
#     4  10  21  42  71  90 122 177 213 253 326 371
#     4  10  21  41  67  91 129 169 207 264 326 379
#     4  10  21  43  62  97 134 159 209 271 314 381
#     4  10  21  41  65  93 128 165 208 268 321 370
#     4  11  23  45  63  91 135 167 211 268 306 378
#     4  11  20  41  70  93 124 173 213 259 317 375
#     4  12  23  40  64  94 130 169 211 260 324 375
#     4  10  18  39  68  93 128 164 212 264 314 375
#
# _framework density 27.689160999999999
#
# number of rings (size 3 to 8) (size 9 to 14) (size 15 to 20)
#    0.000    1.500    7.500    1.500    0.000    4.000 
#    4.500    1.875    0.000    0.000    0.000    0.000 
#    0.000    0.000    0.000    0.000    0.000    0.000 
#
# Total GULP energy -89523.144916 kJ/mol
# GULP energy per Si atom -5595.196557 kJ/mol
# Density = 2.762614 g / cm^3
# Si number density = 27.689161 Si / 1000 Ang^3
#
#
#
# Elastic Constant Matrix: (Units=GPa)
#
#
# Indices 1 2 3 4 5 6 
#
# 1 174.0876 54.9193 69.4283 -19.7382 -43.7184 -23.5544
# 2 54.9193 148.9998 21.4716 -34.2705 -11.0482 -51.0622
# 3 69.4283 21.4716 107.4181 -13.1273 -42.2423 1.5310
# 4 -19.7382 -34.2705 -13.1273 37.1411 5.5975 0.5817
# 5 -43.7184 -11.0482 -42.2423 5.5975 54.4042 -10.2864
# 6 -23.5544 -51.0622 1.5310 0.5817 -10.2864 56.8053
#
#
#
# Elastic Compliance Matrix: (Units=1/GPa)
#
#
# Indices 1 2 3 4 5 6 
#
# 1 0.009657 -0.000451 -0.003820 0.002491 0.005324 0.004640
# 2 -0.000451 0.014726 0.000338 0.012625 0.004176 0.013668
# 3 -0.003820 0.000338 0.015432 0.002427 0.008705 -0.000144
# 4 0.002491 0.012625 0.002427 0.039836 0.004766 0.012771
# 5 0.005324 0.004176 0.008705 0.004766 0.031943 0.011462
# 6 0.004640 0.013668 -0.000144 0.012771 0.011462 0.033763
#
#
# Mechanical properties :
#
#
# Convention : Reuss Voigt Hill
#
# Bulk Modulus (GPa) = 31.29812 80.23820 55.76816
# Shear Modulus (GPa) = 30.51119 48.64919 39.58019
#
# Velocity S-wave (km/s) = 3.32312 4.19618 3.78490
# Velocity P-wave (km/s) = 5.10412 7.24695 6.26779
#
# Compressibility (1/GPa) = 0.03195080
#
# Stress axis : x y z
#
# Youngs Moduli (GPa) = 103.55007 67.90512 64.79854
#
# Poissons Ratio (x) = 0.03064 0.24751
# Poissons Ratio (y) = 0.04672 -0.02191
# Poissons Ratio (z) = 0.39553 -0.02297
#
# Static dielectric constant tensor:
#      x y z
#    x 2.187360 0.025590 -0.002340 
#    y 0.025590 2.322710 0.056840 
#    z -0.002340 0.056840 2.208090 
# 
# From -- ./inp_files/454609.got.cif
#   From: 2010.05.17/outbox.cif.g08.bks.cpg/sg2_228_cif.got.tgz:454609.got - 2010.06.03 11:33:40.
