data_PCOD9080291
_publ_section_title
;
Structure prediction by ZEFSAII (Michael W. Deem and Ramdas Pophale) SiO2 
 PCOD9080291
Probable space group: P -1
;
_chemical_formula_sum "Si O2"
_cell_formula_units_Z 16
_cell_length_a 21.064245
_cell_length_b 9.784661
_cell_length_c 19.604716
_cell_angle_alpha 42.362245
_cell_angle_beta 154.480908
_cell_angle_gamma 151.929869
_cell_volume 785.609648
_symmetry_space_group_name_H-M "P -1"
_symmetry_group_IT_number 2
_symmetry_cell_setting 'triclinic'
loop_
_space_group_symop_operation_xyz
x,y,z
-x,-y,-z
loop_
_atom_site_type_symbol
_atom_site_label
_atom_site_fract_x
_atom_site_fract_y
_atom_site_fract_z
Si Si1 0.287683 0.412897 0.755855
Si Si2 0.932875 0.345872 0.375684
Si Si3 0.076118 0.194506 0.767221
Si Si4 0.420067 0.332809 0.698752
Si Si5 0.021731 0.250850 0.349943
Si Si6 0.607115 0.550711 0.514369
Si Si7 0.310414 0.788530 0.336398
Si Si8 0.685632 0.803511 0.896057
O O1 0.276843 0.385994 0.837038
O O2 0.503766 0.671685 0.825795
O O3 0.117298 0.421178 0.571495
O O4 0.181175 0.096696 0.739844
O O5 0.941980 0.593381 0.304293
O O6 0.981298 0.326111 0.352796
O O7 0.698438 0.005037 0.292289
O O8 0.116140 0.088911 0.908890
O O9 0.854433 0.894045 0.625934
O O10 0.226903 0.303223 0.537405
O O11 0.506052 0.479115 0.653065
O O12 0.590499 0.539156 0.848662
O O13 0.094576 0.483925 0.277303
O O14 0.500000 0.500000 0.500000
O O15 0.615593 0.317378 0.602129
O O16 0.500000 0.000000 0.500000
O O17 0.273961 0.957441 0.198454
#
# Coordination Sequence:
#
# PCOD9080291 Si02
#       8
#     2   2   2   2   2   2   2   2
#     4  11  20  43  65  94 126 174 214 260 308 389
#     4  11  20  37  71  92 125 169 219 254 316 377
#     4  12  27  39  60 104 137 155 207 283 326 358
#     4  10  19  40  66  93 122 167 224 254 296 398
#     4  10  18  38  69  92 115 166 234 256 285 385
#     4  11  25  42  63  95 131 164 216 270 315 374
#     4  11  21  41  70  91 119 177 227 246 304 397
#     4  12  24  40  69  96 131 168 213 264 320 377
#
# _framework density 20.366349
#
# number of rings (size 3 to 8) (size 9 to 14) (size 15 to 20)
#    0.000    1.000    8.750    1.500    3.500    1.000 
#    0.000    2.500    0.000    0.000    0.000    0.000 
#    0.000    0.000    0.000    0.000    0.000    0.000 
#
# Total GULP energy -89414.574310 kJ/mol
# GULP energy per Si atom -5588.410894 kJ/mol
# Density = 2.031999 g / cm^3
# Si number density = 20.366349 Si / 1000 Ang^3
#
#
#
# Elastic Constant Matrix: (Units=GPa)
#
#
# Indices 1 2 3 4 5 6 
#
# 1 90.0757 10.6537 20.8179 -8.4681 -15.1891 -10.9352
# 2 10.6537 80.5531 27.4314 -30.7402 6.2151 -12.1468
# 3 20.8179 27.4314 71.9231 -23.8268 -25.0490 -5.6343
# 4 -8.4681 -30.7402 -23.8268 25.3188 3.2261 -2.9822
# 5 -15.1891 6.2151 -25.0490 3.2261 21.2965 -2.8386
# 6 -10.9352 -12.1468 -5.6343 -2.9822 -2.8386 39.5203
#
#
#
# Elastic Compliance Matrix: (Units=1/GPa)
#
#
# Indices 1 2 3 4 5 6 
#
# 1 0.014065 -0.001507 0.003898 0.005276 0.014984 0.005459
# 2 -0.001507 0.031655 -0.007277 0.035098 -0.022953 0.009275
# 3 0.003898 -0.007277 0.045736 0.029776 0.055736 0.011613
# 4 0.005276 0.035098 0.029776 0.113071 0.014892 0.026094
# 5 0.014984 -0.022953 0.055736 0.014892 0.129706 0.015478
# 6 0.005459 0.009275 0.011613 0.026094 0.015478 0.034401
#
#
# Mechanical properties :
#
#
# Convention : Reuss Voigt Hill
#
# Bulk Modulus (GPa) = 12.24233 40.03975 26.14104
# Shear Modulus (GPa) = 12.32639 29.47038 20.89839
#
# Velocity S-wave (km/s) = 2.46282 3.80809 3.20679
# Velocity P-wave (km/s) = 3.75651 6.24803 5.15506
#
# Compressibility (1/GPa) = 0.08168377
#
# Stress axis : x y z
#
# Youngs Moduli (GPa) = 71.10087 31.59073 21.86440
#
# Poissons Ratio (x) = 0.04761 -0.08523
# Poissons Ratio (y) = 0.10715 0.15911
# Poissons Ratio (z) = -0.27715 0.22988
#
# Static dielectric constant tensor:
#      x y z
#    x 1.734550 0.028580 -0.010970 
#    y 0.028580 1.719040 0.011550 
#    z -0.010970 0.011550 1.729600 
# 
# From -- ./inp_files/557628.got.cif
#   From: 2010.05.17/outbox.cif.g08.bks.cpg/sg2_279_cif.got.tgz:557628.got - 2010.06.03 11:33:40.
