data_PCOD9080840
_publ_section_title
;
Structure prediction by ZEFSAII (Michael W. Deem and Ramdas Pophale) SiO2 
 PCOD9080840
Probable space group: P -1
;
_chemical_formula_sum "Si O2"
_cell_formula_units_Z 14
_cell_length_a 12.572936
_cell_length_b 6.740112
_cell_length_c 10.220476
_cell_angle_alpha 42.995209
_cell_angle_beta 107.122715
_cell_angle_gamma 80.419058
_cell_volume 457.460569
_symmetry_space_group_name_H-M "P -1"
_symmetry_group_IT_number 2
_symmetry_cell_setting 'triclinic'
loop_
_space_group_symop_operation_xyz
x,y,z
-x,-y,-z
loop_
_atom_site_type_symbol
_atom_site_label
_atom_site_fract_x
_atom_site_fract_y
_atom_site_fract_z
Si Si1 0.017762 0.959763 0.252226
Si Si2 0.643449 0.145757 0.177268
Si Si3 0.931966 0.678106 0.599248
Si Si4 0.218832 0.243975 0.998833
Si Si5 0.537092 0.243024 0.512212
Si Si6 0.688816 0.507716 0.333031
Si Si7 0.259436 0.611685 0.147636
O O1 0.974765 0.843428 0.421846
O O2 0.048710 0.660624 0.300783
O O3 0.167886 0.851184 0.390460
O O4 0.884952 0.320851 0.968274
O O5 0.768324 0.957442 0.419968
O O6 0.500000 0.500000 0.000000
O O7 0.637830 0.832688 0.261346
O O8 0.703818 0.249090 0.031881
O O9 0.054922 0.534565 0.817340
O O10 0.324394 0.125089 0.212888
O O11 0.230243 0.903164 0.107161
O O12 0.274782 0.373759 0.842787
O O13 0.500000 0.500000 0.500000
O O14 0.575903 0.429937 0.330967
O O15 0.403635 0.259415 0.419206
#
# Coordination Sequence:
#
# PCOD9080840 Si02
#       7
#     2   2   2   2   2   2   2
#     4   7  11  24  44  65  88 118 152 195 238 271
#     4   9  16  27  47  71  97 131 165 196 232 279
#     4   7  11  23  42  65  90 118 154 197 233 270
#     4   8  15  28  46  68  96 122 149 195 244 283
#     4  10  19  29  46  76 105 123 146 196 257 295
#     4   9  17  30  50  74  96 125 161 192 238 294
#     4   8  15  27  44  69  97 120 150 196 242 279
#
# _framework density 30.603729999999999
#
# number of rings (size 3 to 8) (size 9 to 14) (size 15 to 20)
#    0.000    3.714    0.000    3.429    0.000    5.143 
#    0.000   11.429    0.000   10.286    0.000   49.000 
#    0.000    0.000    0.000    0.000    0.000    0.000 
#
# Total GULP energy -78554.124493 kJ/mol
# GULP energy per Si atom -5611.008892 kJ/mol
# Density = 3.053407 g / cm^3
# Si number density = 30.603730 Si / 1000 Ang^3
#
#
#
# Elastic Constant Matrix: (Units=GPa)
#
#
# Indices 1 2 3 4 5 6 
#
# 1 186.8131 39.4344 71.9624 13.1078 20.7752 -5.9917
# 2 39.4344 109.5594 67.3493 -14.9532 15.4093 4.6009
# 3 71.9624 67.3493 274.9731 9.3008 74.8817 -1.4734
# 4 13.1078 -14.9532 9.3008 76.0653 2.0423 9.8918
# 5 20.7752 15.4093 74.8817 2.0423 60.1519 -0.8367
# 6 -5.9917 4.6009 -1.4734 9.8918 -0.8367 48.3484
#
#
#
# Elastic Compliance Matrix: (Units=1/GPa)
#
#
# Indices 1 2 3 4 5 6 
#
# 1 0.006327 -0.001830 -0.001062 -0.001470 -0.000327 0.001221
# 2 -0.001830 0.011918 -0.002820 0.003250 0.000950 -0.002095
# 3 -0.001062 -0.002820 0.006558 -0.001040 -0.007034 0.000428
# 4 -0.001470 0.003250 -0.001040 0.014610 0.000425 -0.003505
# 5 -0.000327 0.000950 -0.007034 0.000425 0.025236 0.000004
# 6 0.001221 -0.002095 0.000428 -0.003505 0.000004 0.021764
#
#
# Mechanical properties :
#
#
# Convention : Reuss Voigt Hill
#
# Bulk Modulus (GPa) = 74.74756 103.20420 88.97588
# Shear Modulus (GPa) = 48.87679 63.08643 55.98161
#
# Velocity S-wave (km/s) = 4.00069 4.54519 4.28160
# Velocity P-wave (km/s) = 6.76890 7.83204 7.31980
#
# Compressibility (1/GPa) = 0.01337836
#
# Stress axis : x y z
#
# Youngs Moduli (GPa) = 158.04799 83.90893 152.47834
#
# Poissons Ratio (x) = 0.15358 0.16196
# Poissons Ratio (y) = 0.28929 0.42997
# Poissons Ratio (z) = 0.16788 0.23661
#
# Static dielectric constant tensor:
#      x y z
#    x 2.227520 -0.036040 0.002670 
#    y -0.036040 2.386400 -0.009190 
#    z 0.002670 -0.009190 2.443150 
# 
# From -- ./inp_files/446802.got.cif
#   From: 2010.05.17/outbox.cif.g08.bks.cpg/sg2_224_cif.got.tgz:446802.got - 2010.06.03 11:33:40.
