data_PCOD9080889
_publ_section_title
;
Structure prediction by ZEFSAII (Michael W. Deem and Ramdas Pophale) SiO2 
 PCOD9080889
Probable space group: P -1
;
_chemical_formula_sum "Si O2"
_cell_formula_units_Z 14
_cell_length_a 10.256743
_cell_length_b 10.057096
_cell_length_c 7.002454
_cell_angle_alpha 58.344995
_cell_angle_beta 105.321652
_cell_angle_gamma 98.474269
_cell_volume 592.972770
_symmetry_space_group_name_H-M "P -1"
_symmetry_group_IT_number 2
_symmetry_cell_setting 'triclinic'
loop_
_space_group_symop_operation_xyz
x,y,z
-x,-y,-z
loop_
_atom_site_type_symbol
_atom_site_label
_atom_site_fract_x
_atom_site_fract_y
_atom_site_fract_z
Si Si1 0.159345 0.013265 0.582088
Si Si2 0.310517 0.299707 0.404304
Si Si3 0.573509 0.127644 0.796419
Si Si4 0.925641 0.855366 0.178234
Si Si5 0.444356 0.584603 0.217764
Si Si6 0.785446 0.228420 0.503087
Si Si7 0.264610 0.406154 0.734709
O O1 0.211097 0.170403 0.380261
O O2 0.175787 0.059719 0.774969
O O3 0.226707 0.860994 0.636091
O O4 0.000000 0.000000 0.500000
O O5 0.445631 0.202087 0.577728
O O6 0.353535 0.451979 0.187427
O O7 0.250039 0.373612 0.522281
O O8 0.629267 0.263544 0.855295
O O9 0.692854 0.120888 0.690937
O O10 0.500000 0.000000 0.000000
O O11 0.843333 0.720708 0.136549
O O12 0.055019 0.773077 0.386208
O O13 0.000000 0.000000 0.000000
O O14 0.500000 0.500000 0.500000
O O15 0.580703 0.636982 0.127394
O O16 0.746585 0.410109 0.364725
#
# Coordination Sequence:
#
# PCOD9080889 Si02
#       7
#     2   2   2   2   2   2   2
#     4   9  21  36  52  78 110 141 178 218 266 316
#     4   9  16  34  55  74 108 139 177 214 258 321
#     4  10  19  29  53  89 108 131 175 228 258 306
#     4  10  22  35  56  79 103 141 182 225 268 303
#     4   8  14  30  50  74 105 131 178 215 252 311
#     4  11  19  34  55  81 106 140 183 214 264 322
#     4   9  16  33  53  79 100 142 182 211 253 328
#
# _framework density 23.609853999999999
#
# number of rings (size 3 to 8) (size 9 to 14) (size 15 to 20)
#    0.000    2.857    4.286    0.429    6.000    0.571 
#    0.000    0.714    0.000    4.286    0.000    0.000 
#    0.000    0.000    0.000    0.000    0.000    0.000 
#
# Total GULP energy -77939.293119 kJ/mol
# GULP energy per Si atom -5567.092366 kJ/mol
# Density = 2.355612 g / cm^3
# Si number density = 23.609854 Si / 1000 Ang^3
#
#
#
# Elastic Constant Matrix: (Units=GPa)
#
#
# Indices 1 2 3 4 5 6 
#
# 1 92.7225 35.6154 18.8178 -6.2849 -31.2115 11.5427
# 2 35.6154 142.0439 33.5134 -24.2556 -26.7979 -1.4649
# 3 18.8178 33.5134 67.1832 -0.2994 -20.3793 7.8041
# 4 -6.2849 -24.2556 -0.2994 29.6073 8.8299 -22.2358
# 5 -31.2115 -26.7979 -20.3793 8.8299 29.6114 -14.6129
# 6 11.5427 -1.4649 7.8041 -22.2358 -14.6129 51.2219
#
#
#
# Elastic Compliance Matrix: (Units=1/GPa)
#
#
# Indices 1 2 3 4 5 6 
#
# 1 0.017188 -0.001917 0.001800 -0.003874 0.018472 -0.000614
# 2 -0.001917 0.012675 -0.004960 0.015660 0.006385 0.010170
# 3 0.001800 -0.004960 0.021296 -0.010981 0.012936 -0.004868
# 4 -0.003874 0.015660 -0.010981 0.071389 -0.002310 0.033325
# 5 0.018472 0.006385 0.012936 -0.002310 0.075860 0.014688
# 6 -0.000614 0.010170 -0.004868 0.033325 0.014688 0.039351
#
#
# Mechanical properties :
#
#
# Convention : Reuss Voigt Hill
#
# Bulk Modulus (GPa) = 24.38892 53.09364 38.74128
# Shear Modulus (GPa) = 19.11451 36.35498 27.73474
#
# Velocity S-wave (km/s) = 2.84843 3.92831 3.43112
# Velocity P-wave (km/s) = 4.60114 6.56599 5.66934
#
# Compressibility (1/GPa) = 0.04100223
#
# Stress axis : x y z
#
# Youngs Moduli (GPa) = 58.18039 78.89694 46.95809
#
# Poissons Ratio (x) = 0.15125 -0.08450
# Poissons Ratio (y) = 0.11154 0.23293
# Poissons Ratio (z) = -0.10470 0.39137
#
# Static dielectric constant tensor:
#      x y z
#    x 1.950780 0.026750 -0.053180 
#    y 0.026750 1.982640 0.032220 
#    z -0.053180 0.032220 2.086610 
# 
# From -- ./inp_files/233488.got.cif
#   From: 2010.05.17/outbox.cif.g08.bks.cpg/sg2_117_cif.got.tgz:233488.got - 2010.06.03 11:33:40.
