data_PCOD9080960
_publ_section_title
;
Structure prediction by ZEFSAII (Michael W. Deem and Ramdas Pophale) SiO2 
 PCOD9080960
Probable space group: P -1
;
_chemical_formula_sum "Si O2"
_cell_formula_units_Z 16
_cell_length_a 9.717075
_cell_length_b 18.451719
_cell_length_c 18.180124
_cell_angle_alpha 158.435723
_cell_angle_beta 33.519958
_cell_angle_gamma 144.941225
_cell_volume 646.426936
_symmetry_space_group_name_H-M "P -1"
_symmetry_group_IT_number 2
_symmetry_cell_setting 'triclinic'
loop_
_space_group_symop_operation_xyz
x,y,z
-x,-y,-z
loop_
_atom_site_type_symbol
_atom_site_label
_atom_site_fract_x
_atom_site_fract_y
_atom_site_fract_z
Si Si1 0.959887 0.475831 0.582021
Si Si2 0.998972 0.097125 0.958057
Si Si3 0.314195 0.337249 0.600527
Si Si4 0.628367 0.598594 0.199694
Si Si5 0.515985 0.706361 0.145491
Si Si6 0.423729 0.993758 0.775950
Si Si7 0.807116 0.030059 0.500233
Si Si8 0.401336 0.248287 0.171850
O O1 0.666305 0.378196 0.639878
O O2 0.000000 0.500000 0.500000
O O3 0.162133 0.347469 0.392596
O O4 0.011860 0.689860 0.800490
O O5 0.201289 0.161790 0.864195
O O6 0.160130 0.992099 0.847398
O O7 0.718695 0.969029 0.942797
O O8 0.262341 0.401610 0.767623
O O9 0.377271 0.548817 0.727560
O O10 0.083843 0.167430 0.514358
O O11 0.537282 0.209633 0.391686
O O12 0.787517 0.794059 0.271752
O O13 0.597167 0.390919 0.974488
O O14 0.333854 0.854360 0.386185
O O15 0.500000 0.500000 0.000000
O O16 0.649459 0.020329 0.639226
O O17 0.433834 0.167971 0.997791
#
# Coordination Sequence:
#
# PCOD9080960 Si02
#       8
#     2   2   2   2   2   2   2   2
#     4  11  18  30  47  76 115 143 173 208 270 329
#     4  10  21  31  50  81 107 141 180 224 271 320
#     4  11  21  33  50  81 120 151 171 207 267 344
#     4  10  20  35  55  83 114 144 172 225 269 321
#     4  10  22  41  60  79 102 138 192 237 269 305
#     4  10  19  30  49  75 113 149 176 210 264 327
#     4  10  22  36  53  80 112 147 185 214 265 328
#     4  12  20  28  49  76 117 147 170 211 266 328
#
# _framework density 24.751442999999998
#
# number of rings (size 3 to 8) (size 9 to 14) (size 15 to 20)
#    0.000    1.500    2.500    6.375    1.750    3.500 
#    0.000    0.000    0.000    0.750    0.000    8.750 
#    0.000    0.000    0.000    0.000    0.000    0.000 
#
# Total GULP energy -89213.694802 kJ/mol
# GULP energy per Si atom -5575.855925 kJ/mol
# Density = 2.469511 g / cm^3
# Si number density = 24.751443 Si / 1000 Ang^3
#
#
#
# Elastic Constant Matrix: (Units=GPa)
#
#
# Indices 1 2 3 4 5 6 
#
# 1 20.6642 24.9249 6.7385 0.3582 3.0422 6.6382
# 2 24.9249 155.6335 13.0678 48.4824 7.5722 27.2022
# 3 6.7385 13.0678 97.0818 18.4005 15.6495 14.2331
# 4 0.3582 48.4824 18.4005 39.7569 4.2471 5.5387
# 5 3.0422 7.5722 15.6495 4.2471 17.3276 11.0444
# 6 6.6382 27.2022 14.2331 5.5387 11.0444 27.0345
#
#
#
# Elastic Compliance Matrix: (Units=1/GPa)
#
#
# Indices 1 2 3 4 5 6 
#
# 1 0.074341 -0.019902 -0.006976 0.027158 -0.006266 0.002440
# 2 -0.019902 0.018606 0.004348 -0.023235 0.005915 -0.013780
# 3 -0.006976 0.004348 0.014113 -0.010265 -0.007860 -0.004777
# 4 0.027158 -0.023235 -0.010265 0.056940 -0.008058 0.013741
# 5 -0.006266 0.005915 -0.007860 -0.008058 0.087105 -0.034209
# 6 0.002440 -0.013780 -0.004777 0.013741 -0.034209 0.063931
#
#
# Mechanical properties :
#
#
# Convention : Reuss Voigt Hill
#
# Bulk Modulus (GPa) = 16.12927 40.31577 28.22252
# Shear Modulus (GPa) = 13.13146 32.06702 22.59924
#
# Velocity S-wave (km/s) = 2.30583 3.60330 3.02495
# Velocity P-wave (km/s) = 3.69050 5.79959 4.86081
#
# Compressibility (1/GPa) = 0.06199909
#
# Stress axis : x y z
#
# Youngs Moduli (GPa) = 13.45148 53.74477 70.85813
#
# Poissons Ratio (x) = 1.06962 0.49433
# Poissons Ratio (y) = 0.26771 -0.30806
# Poissons Ratio (z) = 0.09384 -0.23366
#
# Static dielectric constant tensor:
#      x y z
#    x 1.978280 -0.074560 0.102590 
#    y -0.074560 2.102230 0.087870 
#    z 0.102590 0.087870 1.787090 
# 
# From -- ./inp_files/596196.got.cif
#   From: 2010.05.17/outbox.cif.g08.bks.cpg/sg2_299_cif.got.tgz:596196.got - 2010.06.03 11:33:40.
