data_PCOD9080072
_publ_section_title
;
Structure prediction by ZEFSAII (Michael W. Deem and Ramdas Pophale) SiO2 
 PCOD9080072
Probable space group: P -1
;
_chemical_formula_sum "Si O2"
_cell_formula_units_Z 16
_cell_length_a 10.747373
_cell_length_b 7.720867
_cell_length_c 9.610381
_cell_angle_alpha 57.080962
_cell_angle_beta 91.959599
_cell_angle_gamma 103.057555
_cell_volume 648.272778
_symmetry_space_group_name_H-M "P -1"
_symmetry_group_IT_number 2
_symmetry_cell_setting 'triclinic'
loop_
_space_group_symop_operation_xyz
x,y,z
-x,-y,-z
loop_
_atom_site_type_symbol
_atom_site_label
_atom_site_fract_x
_atom_site_fract_y
_atom_site_fract_z
Si Si1 0.403882 0.848022 0.711206
Si Si2 0.043390 0.533271 0.826418
Si Si3 0.183638 0.476752 0.374208
Si Si4 0.361686 0.570108 0.090148
Si Si5 0.395530 0.143318 0.943332
Si Si6 0.818354 0.000069 0.456970
Si Si7 0.269600 0.464383 0.691722
Si Si8 0.300668 0.080531 0.240326
O O1 0.372574 0.671033 0.665688
O O2 0.554881 0.934082 0.705862
O O3 0.327502 0.020766 0.592117
O O4 0.337436 0.732268 0.901003
O O5 0.156800 0.432345 0.817445
O O6 0.928620 0.457154 0.744336
O O7 0.096363 0.788221 0.698716
O O8 0.000000 0.500000 0.000000
O O9 0.308276 0.573393 0.241879
O O10 0.147094 0.218998 0.475471
O O11 0.216338 0.520604 0.517416
O O12 0.515144 0.643681 0.074170
O O13 0.304368 0.329185 0.149306
O O14 0.326831 0.255170 0.776185
O O15 0.289980 0.028164 0.100741
O O16 0.500000 0.000000 0.000000
O O17 0.807040 0.034113 0.607269
#
# Coordination Sequence:
#
# PCOD9080072 Si02
#       8
#     2   2   2   2   2   2   2   2
#     4  10  18  38  62  93 130 181 211 247 314 396
#     4  11  25  48  74  86 122 176 226 264 321 389
#     4  11  24  41  65 101 132 160 217 276 321 372
#     4  10  20  40  66  89 135 177 218 249 316 397
#     4  11  23  38  63 100 140 172 210 262 324 384
#     4  10  23  37  68  96 123 162 222 270 315 375
#     4  11  23  41  65  97 133 169 212 266 331 372
#     4  10  19  38  63  92 134 170 220 255 308 393
#
# _framework density 24.680968
#
# number of rings (size 3 to 8) (size 9 to 14) (size 15 to 20)
#    0.000    1.500    2.500    3.375    5.250    2.500 
#    0.000    0.625    0.000    0.000    0.000    0.000 
#    0.000    0.000    0.000    0.000    0.000    0.000 
#
# Total GULP energy -89338.904617 kJ/mol
# GULP energy per Si atom -5583.681539 kJ/mol
# Density = 2.462479 g / cm^3
# Si number density = 24.680968 Si / 1000 Ang^3
#
#
#
# Elastic Constant Matrix: (Units=GPa)
#
#
# Indices 1 2 3 4 5 6 
#
# 1 49.4176 2.5808 37.6166 -1.1952 6.8828 0.3897
# 2 2.5808 90.2285 34.5278 -0.0234 -0.1818 -13.2175
# 3 37.6166 34.5278 160.8591 16.0509 -20.2390 -0.9868
# 4 -1.1952 -0.0234 16.0509 41.1037 1.1260 4.6366
# 5 6.8828 -0.1818 -20.2390 1.1260 61.4246 -4.2173
# 6 0.3897 -13.2175 -0.9868 4.6366 -4.2173 28.5983
#
#
#
# Elastic Compliance Matrix: (Units=1/GPa)
#
#
# Indices 1 2 3 4 5 6 
#
# 1 0.027086 0.002072 -0.007934 0.004183 -0.005803 -0.001219
# 2 0.002072 0.013185 -0.003483 0.000815 -0.000966 0.005671
# 3 -0.007934 -0.003483 0.009763 -0.004174 0.004181 0.000129
# 4 0.004183 0.000815 -0.004174 0.026665 -0.002642 -0.004537
# 5 -0.005803 -0.000966 0.004181 -0.002642 0.018556 0.002941
# 6 -0.001219 0.005671 0.000129 -0.004537 0.002941 0.038779
#
#
# Mechanical properties :
#
#
# Convention : Reuss Voigt Hill
#
# Bulk Modulus (GPa) = 31.90305 49.99508 40.94906
# Shear Modulus (GPa) = 30.64277 41.27732 35.96005
#
# Velocity S-wave (km/s) = 3.52739 4.09398 3.82120
# Velocity P-wave (km/s) = 5.43546 6.53055 6.00801
#
# Compressibility (1/GPa) = 0.03134497
#
# Stress axis : x y z
#
# Youngs Moduli (GPa) = 36.91972 75.84091 102.42939
#
# Poissons Ratio (x) = -0.15715 0.81266
# Poissons Ratio (y) = -0.07650 0.35675
# Poissons Ratio (z) = 0.29291 0.26414
#
# Static dielectric constant tensor:
#      x y z
#    x 2.004260 -0.016990 0.023040 
#    y -0.016990 2.038180 0.018610 
#    z 0.023040 0.018610 2.023840 
# 
# From -- ./inp_files/237166.got.cif
#   From: 2010.05.17/outbox.cif.g08.bks.cpg/sg2_119_cif.got.tgz:237166.got - 2010.06.03 11:33:40.
