data_PCOD9080539
_publ_section_title
;
Structure prediction by ZEFSAII (Michael W. Deem and Ramdas Pophale) SiO2 
 PCOD9080539
Probable space group: P -1
;
_chemical_formula_sum "Si O2"
_cell_formula_units_Z 16
_cell_length_a 13.762240
_cell_length_b 5.240407
_cell_length_c 15.430797
_cell_angle_alpha 100.495703
_cell_angle_beta 44.998355
_cell_angle_gamma 77.604590
_cell_volume 672.717574
_symmetry_space_group_name_H-M "P -1"
_symmetry_group_IT_number 2
_symmetry_cell_setting 'triclinic'
loop_
_space_group_symop_operation_xyz
x,y,z
-x,-y,-z
loop_
_atom_site_type_symbol
_atom_site_label
_atom_site_fract_x
_atom_site_fract_y
_atom_site_fract_z
Si Si1 0.110517 0.778184 0.843446
Si Si2 0.890657 0.769068 0.264225
Si Si3 0.205055 0.677371 0.348882
Si Si4 0.942753 0.745771 0.418672
Si Si5 0.377600 0.832260 0.126011
Si Si6 0.572840 0.406632 0.268746
Si Si7 0.446496 0.882902 0.899185
Si Si8 0.629136 0.888916 0.565819
O O1 0.064047 0.526134 0.836782
O O2 0.286835 0.630802 0.760945
O O3 0.102621 0.972566 0.776913
O O4 0.000000 0.000000 0.000000
O O5 0.714729 0.869316 0.419051
O O6 0.990934 0.694122 0.284779
O O7 0.128190 0.906326 0.489308
O O8 0.222913 0.866093 0.269770
O O9 0.384666 0.425145 0.228795
O O10 0.089035 0.567287 0.378360
O O11 0.783550 0.721638 0.521174
O O12 0.478653 0.900816 0.136635
O O13 0.500000 0.500000 0.000000
O O14 0.645817 0.018886 0.944878
O O15 0.638932 0.180937 0.129781
O O16 0.475260 0.757857 0.327912
O O17 0.466440 0.287452 0.376526
#
# Coordination Sequence:
#
# PCOD9080539 Si02
#       8
#     2   2   2   2   2   2   2   2
#     4  12  27  48  69  98 133 175 222 272 335 399
#     4  10  24  47  68  99 135 167 225 271 329 397
#     4  10  18  40  60  93 131 169 216 259 337 379
#     4   9  21  39  65  94 132 168 207 277 322 393
#     4   9  20  36  57  84 130 169 220 267 306 395
#     4  12  24  42  72  97 133 175 217 283 328 388
#     4  10  20  37  58  95 125 172 224 260 318 391
#     4  10  23  43  67 103 129 170 219 271 334 385
#
# _framework density 23.784127000000002
#
# number of rings (size 3 to 8) (size 9 to 14) (size 15 to 20)
#    0.750    1.000    1.250    2.625    1.750    4.000 
#   11.250    1.875    0.000    0.000    0.000    0.000 
#    0.000    0.000    0.000    0.000    0.000    0.000 
#
# Total GULP energy -89260.449944 kJ/mol
# GULP energy per Si atom -5578.778122 kJ/mol
# Density = 2.372999 g / cm^3
# Si number density = 23.784127 Si / 1000 Ang^3
#
#
#
# Elastic Constant Matrix: (Units=GPa)
#
#
# Indices 1 2 3 4 5 6 
#
# 1 69.1045 -12.7485 -2.6710 9.8541 5.0705 6.4092
# 2 -12.7485 57.0826 7.7245 0.4308 -1.7946 10.6770
# 3 -2.6710 7.7245 45.9920 -1.2023 11.5195 2.4543
# 4 9.8541 0.4308 -1.2023 34.6178 9.5478 12.2606
# 5 5.0705 -1.7946 11.5195 9.5478 34.3517 2.7116
# 6 6.4092 10.6770 2.4543 12.2606 2.7116 19.3038
#
#
#
# Elastic Compliance Matrix: (Units=1/GPa)
#
#
# Indices 1 2 3 4 5 6 
#
# 1 0.016389 0.004792 0.000802 -0.001917 -0.001369 -0.006784
# 2 0.004792 0.021956 -0.002914 0.003361 0.001725 -0.015742
# 3 0.000802 -0.002914 0.024991 0.004522 -0.009644 -0.003350
# 4 -0.001917 0.003361 0.004522 0.042039 -0.010611 -0.027008
# 5 -0.001369 0.001725 -0.009644 -0.010611 0.035389 0.002495
# 6 -0.006784 -0.015742 -0.003350 -0.027008 0.002495 0.079991
#
#
# Mechanical properties :
#
#
# Convention : Reuss Voigt Hill
#
# Bulk Modulus (GPa) = 14.55668 17.42099 15.98884
# Shear Modulus (GPa) = 20.98245 29.64626 25.31436
#
# Velocity S-wave (km/s) = 2.97341 3.53437 3.26596
# Velocity P-wave (km/s) = 4.23342 4.89860 4.57811
#
# Compressibility (1/GPa) = 0.06869700
#
# Stress axis : x y z
#
# Youngs Moduli (GPa) = 61.01707 45.54521 40.01410
#
# Poissons Ratio (x) = -0.21825 -0.03209
# Poissons Ratio (y) = -0.29240 0.11658
# Poissons Ratio (z) = -0.04893 0.13270
#
# Static dielectric constant tensor:
#      x y z
#    x 1.941940 -0.043360 0.035330 
#    y -0.043360 1.995600 -0.046900 
#    z 0.035330 -0.046900 1.919690 
# 
# From -- ./inp_files/511081.got.cif
#   From: 2010.05.17/outbox.cif.g08.bks.cpg/sg2_256_cif.got.tgz:511081.got - 2010.06.03 11:33:40.
