data_PCOD9080267
_publ_section_title
;
Structure prediction by ZEFSAII (Michael W. Deem and Ramdas Pophale) SiO2 
 PCOD9080267
Probable space group: P -1
;
_chemical_formula_sum "Si O2"
_cell_formula_units_Z 16
_cell_length_a 14.561312
_cell_length_b 20.591796
_cell_length_c 11.021867
_cell_angle_alpha 152.870922
_cell_angle_beta 148.392855
_cell_angle_gamma 29.820706
_cell_volume 701.811472
_symmetry_space_group_name_H-M "P -1"
_symmetry_group_IT_number 2
_symmetry_cell_setting 'triclinic'
loop_
_space_group_symop_operation_xyz
x,y,z
-x,-y,-z
loop_
_atom_site_type_symbol
_atom_site_label
_atom_site_fract_x
_atom_site_fract_y
_atom_site_fract_z
Si Si1 0.275131 0.825855 0.437023
Si Si2 0.047567 0.524771 0.229742
Si Si3 0.660273 0.689742 0.223522
Si Si4 0.927601 0.113889 0.440157
Si Si5 0.211649 0.559536 0.827183
Si Si6 0.339007 0.633641 0.630479
Si Si7 0.695828 0.719678 0.724901
Si Si8 0.222331 0.148582 0.188026
O O1 0.144926 0.823011 0.400087
O O2 0.485184 0.787765 0.661965
O O3 0.302370 0.683390 0.139410
O O4 0.159063 0.993495 0.515211
O O5 0.227411 0.571368 0.496947
O O6 0.128832 0.355069 0.107945
O O7 0.846828 0.645687 0.271342
O O8 0.000000 0.500000 0.000000
O O9 0.724074 0.542322 0.145848
O O10 0.641395 0.837940 0.531178
O O11 0.466136 0.707108 0.964956
O O12 0.835028 0.247011 0.455275
O O13 0.836529 0.992102 0.103436
O O14 0.268362 0.434191 0.574058
O O15 0.979296 0.681540 0.756660
O O16 0.500000 0.500000 0.500000
O O17 0.690835 0.850796 0.844590
#
# Coordination Sequence:
#
# PCOD9080267 Si02
#       8
#     2   2   2   2   2   2   2   2
#     4  10  22  37  65  94 127 171 213 276 317 379
#     4  12  24  37  66 102 130 166 214 269 317 389
#     4  11  21  41  65  97 129 171 214 263 325 375
#     4  10  24  44  58  91 135 174 215 262 329 378
#     4  10  18  38  68  93 131 161 210 276 320 372
#     4  12  25  43  65  93 129 173 217 264 327 390
#     4  11  20  38  66 101 123 162 222 263 325 378
#     4  10  21  41  67  89 134 170 208 273 322 374
#
# _framework density 22.798145000000002
#
# number of rings (size 3 to 8) (size 9 to 14) (size 15 to 20)
#    0.000    1.250    3.750    3.375    0.000    3.000 
#    2.250    0.625    0.000    0.000    0.000    0.000 
#    0.000    0.000    0.000    0.000    0.000    0.000 
#
# Total GULP energy -89436.715134 kJ/mol
# GULP energy per Si atom -5589.794696 kJ/mol
# Density = 2.274625 g / cm^3
# Si number density = 22.798145 Si / 1000 Ang^3
#
#
#
# Elastic Constant Matrix: (Units=GPa)
#
#
# Indices 1 2 3 4 5 6 
#
# 1 78.1554 21.6223 8.9054 -5.8670 0.4987 10.7332
# 2 21.6223 70.1536 20.5125 -4.1224 -5.2461 13.4922
# 3 8.9054 20.5125 96.4747 -17.0129 -17.3903 -3.7616
# 4 -5.8670 -4.1224 -17.0129 43.5878 -0.4488 -2.1309
# 5 0.4987 -5.2461 -17.3903 -0.4488 36.0091 -14.0599
# 6 10.7332 13.4922 -3.7616 -2.1309 -14.0599 28.1533
#
#
#
# Elastic Compliance Matrix: (Units=1/GPa)
#
#
# Indices 1 2 3 4 5 6 
#
# 1 0.014764 -0.003181 -0.001464 0.000777 -0.003753 -0.006115
# 2 -0.003181 0.018240 -0.004811 -0.001108 -0.003552 -0.010029
# 3 -0.001464 -0.004811 0.014899 0.005795 0.010750 0.010662
# 4 0.000777 -0.001108 0.005795 0.025524 0.005084 0.005480
# 5 -0.003753 -0.003552 0.010750 0.005084 0.042850 0.026354
# 6 -0.006115 -0.010029 0.010662 0.005480 0.026354 0.057658
#
#
# Mechanical properties :
#
#
# Convention : Reuss Voigt Hill
#
# Bulk Modulus (GPa) = 34.49544 38.54048 36.51796
# Shear Modulus (GPa) = 24.68995 34.46629 29.57812
#
# Velocity S-wave (km/s) = 3.29444 3.89241 3.60584
# Velocity P-wave (km/s) = 5.44378 6.09450 5.77831
#
# Compressibility (1/GPa) = 0.02898934
#
# Stress axis : x y z
#
# Youngs Moduli (GPa) = 67.73187 54.82535 67.11899
#
# Poissons Ratio (x) = 0.17441 0.09829
# Poissons Ratio (y) = 0.21547 0.32292
# Poissons Ratio (z) = 0.09919 0.26377
#
# Static dielectric constant tensor:
#      x y z
#    x 1.855460 -0.011500 0.035900 
#    y -0.011500 1.848970 -0.003720 
#    z 0.035900 -0.003720 1.938520 
# 
# From -- ./inp_files/279419.got.cif
#   From: 2010.05.17/outbox.cif.g08.bks.cpg/sg2_140_cif.got.tgz:279419.got - 2010.06.03 11:33:40.
