data_PCOD9080772
_publ_section_title
;
Structure prediction by ZEFSAII (Michael W. Deem and Ramdas Pophale) SiO2 
 PCOD9080772
Probable space group: P -1
;
_chemical_formula_sum "Si O2"
_cell_formula_units_Z 15
_cell_length_a 15.884610
_cell_length_b 6.679762
_cell_length_c 14.615999
_cell_angle_alpha 132.011254
_cell_angle_beta 32.061181
_cell_angle_gamma 120.434314
_cell_volume 604.390044
_symmetry_space_group_name_H-M "P -1"
_symmetry_group_IT_number 2
_symmetry_cell_setting 'triclinic'
loop_
_space_group_symop_operation_xyz
x,y,z
-x,-y,-z
loop_
_atom_site_type_symbol
_atom_site_label
_atom_site_fract_x
_atom_site_fract_y
_atom_site_fract_z
Si Si1 0.916030 0.368457 0.856787
Si Si2 0.521283 0.742342 0.967759
Si Si3 0.220066 0.651883 0.328947
Si Si4 0.788164 0.952197 0.172413
Si Si5 0.642268 0.516676 0.444202
Si Si6 0.000000 0.000000 0.500000
Si Si7 0.144059 0.054380 0.678194
Si Si8 0.438764 0.449043 0.784315
O O1 0.982325 0.250955 0.856534
O O2 0.913770 0.691656 0.944641
O O3 0.728115 0.344056 0.012262
O O4 0.014666 0.188782 0.634141
O O5 0.697187 0.660748 0.824516
O O6 0.495661 0.493321 0.847320
O O7 0.376224 0.772149 0.182034
O O8 0.500000 0.000000 0.000000
O O9 0.089910 0.727799 0.392927
O O10 0.156147 0.781534 0.523600
O O11 0.821552 0.978589 0.256949
O O12 0.620627 0.837231 0.270711
O O13 0.771317 0.243723 0.231249
O O14 0.500000 0.500000 0.500000
O O15 0.719590 0.780810 0.434754
O O16 0.569704 0.508479 0.609794
#
# Coordination Sequence:
#
# PCOD9080772 Si02
#       8
#     2   2   2   2   2   1   2   2
#     4   9  21  38  67  83 126 170 203 258 316 377
#     4  11  22  40  62  94 120 161 216 261 308 372
#     4  10  22  38  66  85 127 163 205 261 313 370
#     4  10  22  39  61  89 129 161 203 258 310 375
#     4  12  23  36  61  94 125 161 211 254 313 376
#     4  10  18  44  62  92 116 172 214 244 324 382
#     4  11  22  39  63  92 123 169 206 252 319 377
#     4  10  21  40  61  90 127 164 201 265 312 371
#
# _framework density 24.818411000000001
#
# number of rings (size 3 to 8) (size 9 to 14) (size 15 to 20)
#    0.800    0.800    2.667    2.400    1.867    0.533 
#    2.400    0.667    2.933    0.000    0.000    0.000 
#    0.000    0.000    0.000    0.000    0.000    0.000 
#
# Total GULP energy -83617.243084 kJ/mol
# GULP energy per Si atom -5574.482872 kJ/mol
# Density = 2.476192 g / cm^3
# Si number density = 24.818411 Si / 1000 Ang^3
#
#
#
# Elastic Constant Matrix: (Units=GPa)
#
#
# Indices 1 2 3 4 5 6 
#
# 1 133.1158 20.2479 33.7469 8.3213 -2.4182 -28.5150
# 2 20.2479 69.8221 22.4172 8.0862 -1.0076 -9.5638
# 3 33.7469 22.4172 60.7364 7.6865 9.4628 -10.0378
# 4 8.3213 8.0862 7.6865 32.0759 -13.1238 -14.5115
# 5 -2.4182 -1.0076 9.4628 -13.1238 50.4792 0.7663
# 6 -28.5150 -9.5638 -10.0378 -14.5115 0.7663 29.3798
#
#
#
# Elastic Compliance Matrix: (Units=1/GPa)
#
#
# Indices 1 2 3 4 5 6 
#
# 1 0.010967 -0.000553 -0.005033 0.004412 0.002440 0.010861
# 2 -0.000553 0.016724 -0.005458 -0.001298 0.000957 0.002377
# 3 -0.005033 -0.005458 0.022716 -0.006068 -0.006160 -0.001737
# 4 0.004412 -0.001298 -0.006068 0.049005 0.013674 0.025635
# 5 0.002440 0.000957 -0.006160 0.013674 0.024554 0.006689
# 6 0.010861 0.002377 -0.001737 0.025635 0.006689 0.057245
#
#
# Mechanical properties :
#
#
# Convention : Reuss Voigt Hill
#
# Bulk Modulus (GPa) = 35.31021 46.27759 40.79390
# Shear Modulus (GPa) = 23.50281 34.87112 29.18697
#
# Velocity S-wave (km/s) = 3.08066 3.75247 3.43304
# Velocity P-wave (km/s) = 5.18770 6.12059 5.67335
#
# Compressibility (1/GPa) = 0.02832042
#
# Stress axis : x y z
#
# Youngs Moduli (GPa) = 91.17978 59.79306 44.02133
#
# Poissons Ratio (x) = 0.03304 0.22158
# Poissons Ratio (y) = 0.05038 0.24026
# Poissons Ratio (z) = 0.45895 0.32633
#
# Static dielectric constant tensor:
#      x y z
#    x 1.936810 0.047970 -0.051450 
#    y 0.047970 1.977830 -0.010570 
#    z -0.051450 -0.010570 2.060180 
# 
# From -- ./inp_files/536463.got.cif
#   From: 2010.05.17/outbox.cif.g08.bks.cpg/sg2_269_cif.got.tgz:536463.got - 2010.06.03 11:33:40.
