data_PCOD9080782
_publ_section_title
;
Structure prediction by ZEFSAII (Michael W. Deem and Ramdas Pophale) SiO2 
 PCOD9080782
Probable space group: P -1
;
_chemical_formula_sum "Si O2"
_cell_formula_units_Z 16
_cell_length_a 14.901153
_cell_length_b 14.956851
_cell_length_c 8.811074
_cell_angle_alpha 138.287960
_cell_angle_beta 56.489218
_cell_angle_gamma 145.986397
_cell_volume 719.108014
_symmetry_space_group_name_H-M "P -1"
_symmetry_group_IT_number 2
_symmetry_cell_setting 'triclinic'
loop_
_space_group_symop_operation_xyz
x,y,z
-x,-y,-z
loop_
_atom_site_type_symbol
_atom_site_label
_atom_site_fract_x
_atom_site_fract_y
_atom_site_fract_z
Si Si1 0.009872 0.975484 0.781331
Si Si2 0.335957 0.818725 0.327779
Si Si3 0.230525 0.062329 0.142789
Si Si4 0.472196 0.789923 0.892078
Si Si5 0.681786 0.464177 0.854610
Si Si6 0.603216 0.566162 0.316345
Si Si7 0.297042 0.471222 0.423024
Si Si8 0.708941 0.930443 0.266632
O O1 0.954882 0.056738 0.843431
O O2 0.860473 0.728173 0.591185
O O3 0.180147 0.058779 0.717981
O O4 0.000000 0.000000 0.000000
O O5 0.257676 0.615296 0.222737
O O6 0.241936 0.869699 0.492183
O O7 0.500000 0.000000 0.500000
O O8 0.395384 0.831488 0.121368
O O9 0.330557 0.026450 0.066795
O O10 0.305100 0.246040 0.420161
O O11 0.265349 0.077467 0.946789
O O12 0.434675 0.611010 0.786993
O O13 0.380538 0.681479 0.682782
O O14 0.749904 0.550399 0.734123
O O15 0.483317 0.266552 0.770905
O O16 0.698524 0.603567 0.129466
O O17 0.438906 0.490199 0.322256
#
# Coordination Sequence:
#
# PCOD9080782 Si02
#       8
#     2   2   2   2   2   2   2   2
#     4  10  19  30  51  77 107 133 164 201 257 317
#     4   9  17  34  53  74  98 134 180 207 241 301
#     4  10  15  28  51  78  93 128 171 205 241 296
#     4  10  16  29  55  76  99 132 175 207 240 301
#     4  10  20  31  53  79 100 127 173 222 250 279
#     4  10  16  28  52  77 100 125 170 210 243 302
#     4  11  19  31  50  83 103 127 169 219 254 286
#     4  10  19  33  52  73 102 139 170 202 251 312
#
# _framework density 22.249786
#
# number of rings (size 3 to 8) (size 9 to 14) (size 15 to 20)
#    0.000    2.000    6.250    1.875    0.000    0.000 
#    0.000    3.750    0.000   12.000    0.000    0.000 
#    0.000    0.000    0.000    0.000    0.000    0.000 
#
# Total GULP energy -89090.272464 kJ/mol
# GULP energy per Si atom -5568.142029 kJ/mol
# Density = 2.219914 g / cm^3
# Si number density = 22.249786 Si / 1000 Ang^3
#
#
#
# Elastic Constant Matrix: (Units=GPa)
#
#
# Indices 1 2 3 4 5 6 
#
# 1 77.7092 23.4261 35.8500 -1.3012 -12.5678 7.8375
# 2 23.4261 47.2146 8.9335 -0.8719 -6.8781 3.6839
# 3 35.8500 8.9335 145.7041 -14.6543 -11.8382 -1.1899
# 4 -1.3012 -0.8719 -14.6543 14.2403 2.2318 7.1121
# 5 -12.5678 -6.8781 -11.8382 2.2318 28.0428 3.8293
# 6 7.8375 3.6839 -1.1899 7.1121 3.8293 23.4166
#
#
#
# Elastic Compliance Matrix: (Units=1/GPa)
#
#
# Indices 1 2 3 4 5 6 
#
# 1 0.018212 -0.007048 -0.003679 -0.000471 0.005733 -0.005968
# 2 -0.007048 0.025338 0.000701 0.002543 0.003552 -0.002945
# 3 -0.003679 0.000701 0.008780 0.009232 0.001702 -0.001515
# 4 -0.000471 0.002543 0.009232 0.093915 0.000715 -0.028414
# 5 0.005733 0.003552 0.001702 0.000715 0.041034 -0.009318
# 6 -0.005968 -0.002945 -0.001515 -0.028414 -0.009318 0.055242
#
#
# Mechanical properties :
#
#
# Convention : Reuss Voigt Hill
#
# Bulk Modulus (GPa) = 30.98139 45.22744 38.10441
# Shear Modulus (GPa) = 18.29278 26.63449 22.46363
#
# Velocity S-wave (km/s) = 2.87044 3.46362 3.18089
# Velocity P-wave (km/s) = 4.99404 6.03049 5.53657
#
# Compressibility (1/GPa) = 0.03227744
#
# Stress axis : x y z
#
# Youngs Moduli (GPa) = 54.91028 39.46606 113.89696
#
# Poissons Ratio (x) = 0.27814 0.41905
# Poissons Ratio (y) = 0.38699 -0.07982
# Poissons Ratio (z) = 0.20202 -0.02766
#
# Static dielectric constant tensor:
#      x y z
#    x 1.880220 -0.009750 -0.005800 
#    y -0.009750 1.968910 0.025360 
#    z -0.005800 0.025360 1.846010 
# 
# From -- ./inp_files/317447.got.cif
#   From: 2010.05.17/outbox.cif.g08.bks.cpg/sg2_159_cif.got.tgz:317447.got - 2010.06.03 11:33:40.
