data_PCOD9080328
_publ_section_title
;
Structure prediction by ZEFSAII (Michael W. Deem and Ramdas Pophale) SiO2 
 PCOD9080328
Probable space group: P -1
;
_chemical_formula_sum "Si O2"
_cell_formula_units_Z 16
_cell_length_a 13.394002
_cell_length_b 21.784778
_cell_length_c 19.005799
_cell_angle_alpha 167.736042
_cell_angle_beta 45.256054
_cell_angle_gamma 136.632893
_cell_volume 808.092192
_symmetry_space_group_name_H-M "P -1"
_symmetry_group_IT_number 2
_symmetry_cell_setting 'triclinic'
loop_
_space_group_symop_operation_xyz
x,y,z
-x,-y,-z
loop_
_atom_site_type_symbol
_atom_site_label
_atom_site_fract_x
_atom_site_fract_y
_atom_site_fract_z
Si Si1 0.736652 0.962410 0.653729
Si Si2 0.537753 0.353380 0.127133
Si Si3 0.059350 0.959123 0.651237
Si Si4 0.115573 0.610715 0.816669
Si Si5 0.423311 0.646759 0.641349
Si Si6 0.687268 0.276510 0.709521
Si Si7 0.502579 0.009054 0.627905
Si Si8 0.815106 0.915878 0.410678
O O1 0.662416 0.622654 0.332379
O O2 0.834030 0.970385 0.544743
O O3 0.613306 0.131391 0.883272
O O4 0.821649 0.143103 0.878730
O O5 0.451651 0.503642 0.393108
O O6 0.450572 0.172560 0.902028
O O7 0.222173 0.974315 0.614363
O O8 0.952060 0.699062 0.457023
O O9 0.074999 0.886331 0.478399
O O10 0.001179 0.254513 0.015619
O O11 0.253399 0.592638 0.681717
O O12 0.500000 0.500000 0.500000
O O13 0.500000 0.000000 0.000000
O O14 0.561709 0.220791 0.768583
O O15 0.614141 0.264131 0.655806
O O16 0.802366 0.577671 0.013871
O O17 0.651154 0.941201 0.504903
#
# Coordination Sequence:
#
# PCOD9080328 Si02
#       8
#     2   2   2   2   2   2   2   2
#     4  11  22  35  60  82 125 146 193 235 288 346
#     4  11  20  39  56  95 114 144 185 254 296 337
#     4  11  24  38  56  81 122 158 200 225 277 353
#     4  12  23  39  56  85 112 164 189 237 287 343
#     4  12  22  39  65  86 112 149 195 245 294 338
#     4  10  18  39  56  90 115 157 194 235 284 346
#     4   9  20  32  65  87 117 149 190 247 294 331
#     4  10  20  37  57  87 121 154 194 237 282 346
#
# _framework density 19.799721999999999
#
# number of rings (size 3 to 8) (size 9 to 14) (size 15 to 20)
#    0.000    1.250    5.000    1.875    0.000    1.000 
#    0.000    0.000    0.000    1.500    0.000    0.000 
#    0.000    0.000    0.000    0.000    0.000    0.000 
#
# Total GULP energy -89300.986248 kJ/mol
# GULP energy per Si atom -5581.311640 kJ/mol
# Density = 1.975466 g / cm^3
# Si number density = 19.799722 Si / 1000 Ang^3
#
#
#
# Elastic Constant Matrix: (Units=GPa)
#
#
# Indices 1 2 3 4 5 6 
#
# 1 52.2577 14.2796 19.1331 -26.5096 1.6962 -11.4676
# 2 14.2796 116.4306 30.9309 -23.5059 -5.0180 -4.7757
# 3 19.1331 30.9309 76.9575 -11.4296 -4.9458 -11.1242
# 4 -26.5096 -23.5059 -11.4296 41.4975 -5.1546 -3.2825
# 5 1.6962 -5.0180 -4.9458 -5.1546 24.9555 -3.6066
# 6 -11.4676 -4.7757 -11.1242 -3.2825 -3.6066 20.6578
#
#
#
# Elastic Compliance Matrix: (Units=1/GPa)
#
#
# Indices 1 2 3 4 5 6 
#
# 1 0.040236 0.003225 -0.002295 0.030069 0.007712 0.027970
# 2 0.003225 0.011045 -0.003092 0.008302 0.003777 0.004657
# 3 -0.002295 -0.003092 0.016669 0.002588 0.004557 0.008194
# 4 0.030069 0.008302 0.002588 0.053128 0.015617 0.031173
# 5 0.007712 0.003777 0.004557 0.015617 0.047082 0.018309
# 6 0.027970 0.004657 0.008194 0.031173 0.018309 0.077574
#
#
# Mechanical properties :
#
#
# Convention : Reuss Voigt Hill
#
# Bulk Modulus (GPa) = 15.71697 41.59255 28.65476
# Shear Modulus (GPa) = 18.43215 29.50897 23.97056
#
# Velocity S-wave (km/s) = 3.05442 3.86472 3.48322
# Velocity P-wave (km/s) = 4.51603 6.40055 5.53902
#
# Compressibility (1/GPa) = 0.06362549
#
# Stress axis : x y z
#
# Youngs Moduli (GPa) = 24.85345 90.54191 59.99107
#
# Poissons Ratio (x) = -0.29201 0.13770
# Poissons Ratio (y) = -0.08016 0.18549
# Poissons Ratio (z) = 0.05705 0.27995
#
# Static dielectric constant tensor:
#      x y z
#    x 1.738590 0.012570 -0.026200 
#    y 0.012570 1.725000 0.019810 
#    z -0.026200 0.019810 1.756540 
# 
# From -- ./inp_files/82856.got.cif
#   From: 2010.05.17/outbox.cif.g08.bks.cpg/sg2_42_cif.got.tgz:82856.got - 2010.06.03 11:33:40.
