data_PCOD9080562
_publ_section_title
;
Structure prediction by ZEFSAII (Michael W. Deem and Ramdas Pophale) SiO2 
 PCOD9080562
Probable space group: P -1
;
_chemical_formula_sum "Si O2"
_cell_formula_units_Z 15
_cell_length_a 6.271718
_cell_length_b 10.212215
_cell_length_c 15.481787
_cell_angle_alpha 129.549263
_cell_angle_beta 92.139852
_cell_angle_gamma 62.412609
_cell_volume 627.697441
_symmetry_space_group_name_H-M "P -1"
_symmetry_group_IT_number 2
_symmetry_cell_setting 'triclinic'
loop_
_space_group_symop_operation_xyz
x,y,z
-x,-y,-z
loop_
_atom_site_type_symbol
_atom_site_label
_atom_site_fract_x
_atom_site_fract_y
_atom_site_fract_z
Si Si1 0.797831 0.822729 0.573380
Si Si2 0.286372 0.538468 0.580434
Si Si3 0.870877 0.496844 0.113446
Si Si4 0.492559 0.503205 0.752958
Si Si5 0.991312 0.180445 0.715395
Si Si6 0.000000 0.000000 0.500000
Si Si7 0.383027 0.828082 0.166734
Si Si8 0.564217 0.820171 0.988863
O O1 0.746484 0.648276 0.483492
O O2 0.020958 0.721585 0.609268
O O3 0.880059 0.890011 0.518164
O O4 0.579619 0.029115 0.708519
O O5 0.500000 0.500000 0.500000
O O6 0.382265 0.574139 0.686675
O O7 0.727498 0.487768 0.190601
O O8 0.645874 0.595656 0.079898
O O9 0.943505 0.658225 0.198979
O O10 0.145445 0.283216 0.012369
O O11 0.764026 0.270751 0.670386
O O12 0.554643 0.652164 0.862684
O O13 0.853380 0.165671 0.790468
O O14 0.182915 0.980112 0.579476
O O15 0.365130 0.891284 0.094692
O O16 0.500000 0.000000 0.000000
#
# Coordination Sequence:
#
# PCOD9080562 Si02
#       8
#     2   2   2   2   2   1   2   2
#     4  10  24  41  69  99 139 171 222 279 322 401
#     4  11  24  42  67  99 136 178 216 274 342 394
#     4  10  22  42  67  92 126 173 212 273 328 386
#     4  10  23  41  64  93 125 170 218 261 327 393
#     4   9  20  38  65  93 130 162 213 273 316 388
#     4  10  18  40  62  94 128 172 208 266 330 374
#     4  10  23  42  64  98 127 170 221 265 328 385
#     4  11  26  43  64  92 132 173 217 275 319 391
#
# _framework density 23.896864999999998
#
# number of rings (size 3 to 8) (size 9 to 14) (size 15 to 20)
#    0.000    1.867    0.000    2.000    3.733   11.733 
#    0.000    6.000    0.000    0.000    0.000    0.000 
#    0.000    0.000    0.000    0.000    0.000    0.000 
#
# Total GULP energy -83662.591129 kJ/mol
# GULP energy per Si atom -5577.506075 kJ/mol
# Density = 2.384247 g / cm^3
# Si number density = 23.896865 Si / 1000 Ang^3
#
#
#
# Elastic Constant Matrix: (Units=GPa)
#
#
# Indices 1 2 3 4 5 6 
#
# 1 79.5842 68.1177 39.8831 -5.4999 1.4400 14.6473
# 2 68.1177 134.8173 56.2706 -19.3728 -23.6106 38.4195
# 3 39.8831 56.2706 99.5637 -22.2827 -4.2556 20.2683
# 4 -5.4999 -19.3728 -22.2827 50.2425 10.8958 -4.3461
# 5 1.4400 -23.6106 -4.2556 10.8958 35.4501 6.9107
# 6 14.6473 38.4195 20.2683 -4.3461 6.9107 43.7228
#
#
#
# Elastic Compliance Matrix: (Units=1/GPa)
#
#
# Indices 1 2 3 4 5 6 
#
# 1 0.029510 -0.019668 -0.004171 -0.001580 -0.016613 0.011799
# 2 -0.019668 0.028778 -0.002951 0.000730 0.023475 -0.020968
# 3 -0.004171 -0.002951 0.014927 0.005076 -0.001126 -0.002248
# 4 -0.001580 0.000730 0.005076 0.023706 -0.006299 0.000887
# 5 -0.016613 0.023475 -0.001126 -0.006299 0.050842 -0.023202
# 6 0.011799 -0.020968 -0.002248 0.000887 -0.023202 0.042141
#
#
# Mechanical properties :
#
#
# Convention : Reuss Voigt Hill
#
# Bulk Modulus (GPa) = 50.92530 71.38979 61.15754
# Shear Modulus (GPa) = 19.99776 35.86265 27.93021
#
# Velocity S-wave (km/s) = 2.89595 3.87812 3.42245
# Velocity P-wave (km/s) = 5.70428 7.07051 6.42382
#
# Compressibility (1/GPa) = 0.01963661
#
# Stress axis : x y z
#
# Youngs Moduli (GPa) = 33.88737 34.74885 66.99082
#
# Poissons Ratio (x) = 0.68344 0.27939
# Poissons Ratio (y) = 0.66650 0.19766
# Poissons Ratio (z) = 0.14133 0.10253
#
# Static dielectric constant tensor:
#      x y z
#    x 1.990100 -0.123900 -0.144490 
#    y -0.123900 2.064160 0.215300 
#    z -0.144490 0.215300 2.700490 
# 
# From -- ./inp_files/141045.got.cif
#   From: 2010.05.17/outbox.cif.g08.bks.cpg/sg2_71_cif.got.tgz:141045.got - 2010.06.03 11:33:40.
