data_PCOD9080371
_publ_section_title
;
Structure prediction by ZEFSAII (Michael W. Deem and Ramdas Pophale) SiO2 
 PCOD9080371
Probable space group: P -1
;
_chemical_formula_sum "Si O2"
_cell_formula_units_Z 14
_cell_length_a 15.412336
_cell_length_b 16.714191
_cell_length_c 7.480088
_cell_angle_alpha 63.033053
_cell_angle_beta 108.374435
_cell_angle_gamma 158.766129
_cell_volume 586.515792
_symmetry_space_group_name_H-M "P -1"
_symmetry_group_IT_number 2
_symmetry_cell_setting 'triclinic'
loop_
_space_group_symop_operation_xyz
x,y,z
-x,-y,-z
loop_
_atom_site_type_symbol
_atom_site_label
_atom_site_fract_x
_atom_site_fract_y
_atom_site_fract_z
Si Si1 0.661773 0.842981 0.556936
Si Si2 0.799985 0.457876 0.557124
Si Si3 0.204826 0.875047 0.122899
Si Si4 0.971968 0.292287 0.193464
Si Si5 0.383558 0.418396 0.815438
Si Si6 0.492460 0.976045 0.307258
Si Si7 0.200193 0.062064 0.035578
O O1 0.417840 0.681560 0.530227
O O2 0.578218 0.668810 0.604995
O O3 0.887793 0.111388 0.354348
O O4 0.713646 0.875963 0.767071
O O5 0.736733 0.298909 0.622578
O O6 0.817520 0.492018 0.743818
O O7 0.063727 0.729220 0.365837
O O8 0.435766 0.017108 0.128473
O O9 0.275901 0.044227 0.991799
O O10 0.003967 0.673261 0.037590
O O11 0.743617 0.152328 0.235388
O O12 0.105754 0.207578 0.882485
O O13 0.676746 0.732507 0.160952
O O14 0.500000 0.500000 0.000000
O O15 0.500000 0.000000 0.500000
#
# Coordination Sequence:
#
# PCOD9080371 Si02
#       7
#     2   2   2   2   2   2   2
#     4  10  18  39  62  87 125 161 202 249 304 357
#     4  11  22  42  60  88 121 166 200 249 305 356
#     4  12  22  40  62  90 123 161 207 249 304 362
#     4  11  24  39  60  91 126 161 202 254 299 361
#     4   9  18  33  64  95 117 159 206 246 305 365
#     4  11  23  43  64  86 124 164 204 252 304 354
#     4  10  19  37  63  90 122 160 204 252 302 361
#
# _framework density 23.869774
#
# number of rings (size 3 to 8) (size 9 to 14) (size 15 to 20)
#    0.000    1.429    4.286    1.714    0.000    0.571 
#   10.286    0.714    0.000   12.000    0.000    0.000 
#    0.000    0.000    0.000    0.000    0.000    0.000 
#
# Total GULP energy -78268.235720 kJ/mol
# GULP energy per Si atom -5590.588266 kJ/mol
# Density = 2.381545 g / cm^3
# Si number density = 23.869774 Si / 1000 Ang^3
#
#
#
# Elastic Constant Matrix: (Units=GPa)
#
#
# Indices 1 2 3 4 5 6 
#
# 1 86.5020 47.9152 46.4688 -2.9421 35.1401 -27.4298
# 2 47.9152 116.7781 49.3679 9.6686 18.4106 -22.9732
# 3 46.4688 49.3679 96.9609 18.1109 13.3972 -16.5854
# 4 -2.9421 9.6686 18.1109 49.7752 -7.6676 14.6180
# 5 35.1401 18.4106 13.3972 -7.6676 40.1203 0.0772
# 6 -27.4298 -22.9732 -16.5854 14.6180 0.0772 44.4611
#
#
#
# Elastic Compliance Matrix: (Units=1/GPa)
#
#
# Indices 1 2 3 4 5 6 
#
# 1 0.032810 -0.002549 -0.006989 -0.004256 -0.026081 0.017762
# 2 -0.002549 0.012767 -0.003401 -0.003298 -0.003130 0.004845
# 3 -0.006989 -0.003401 0.016897 -0.006470 0.000799 0.002359
# 4 -0.004256 -0.003298 -0.006470 0.029709 0.013112 -0.016534
# 5 -0.026081 -0.003130 0.000799 0.013112 0.051485 -0.021810
# 6 0.017762 0.004845 0.002359 -0.016534 -0.021810 0.042307
#
#
# Mechanical properties :
#
#
# Convention : Reuss Voigt Hill
#
# Bulk Modulus (GPa) = 27.32743 65.30496 46.31620
# Shear Modulus (GPa) = 22.31631 37.30393 29.81012
#
# Velocity S-wave (km/s) = 3.06096 3.95753 3.53776
# Velocity P-wave (km/s) = 4.89551 6.94989 6.01112
#
# Compressibility (1/GPa) = 0.03659327
#
# Stress axis : x y z
#
# Youngs Moduli (GPa) = 30.47898 78.32930 59.18357
#
# Poissons Ratio (x) = 0.19965 0.41366
# Poissons Ratio (y) = 0.07769 0.20131
# Poissons Ratio (z) = 0.21303 0.26643
#
# Static dielectric constant tensor:
#      x y z
#    x 1.903920 -0.045990 0.029330 
#    y -0.045990 1.955960 -0.035720 
#    z 0.029330 -0.035720 1.874670 
# 
# From -- ./inp_files/336477.got.cif
#   From: 2010.05.17/outbox.cif.g08.bks.cpg/sg2_169_cif.got.tgz:336477.got - 2010.06.03 11:33:40.
