data_PCOD9080656
_publ_section_title
;
Structure prediction by ZEFSAII (Michael W. Deem and Ramdas Pophale) SiO2 
 PCOD9080656
Probable space group: P -1
;
_chemical_formula_sum "Si O2"
_cell_formula_units_Z 14
_cell_length_a 11.569383
_cell_length_b 8.796211
_cell_length_c 11.872542
_cell_angle_alpha 81.017443
_cell_angle_beta 28.931117
_cell_angle_gamma 81.349401
_cell_volume 577.082902
_symmetry_space_group_name_H-M "P -1"
_symmetry_group_IT_number 2
_symmetry_cell_setting 'triclinic'
loop_
_space_group_symop_operation_xyz
x,y,z
-x,-y,-z
loop_
_atom_site_type_symbol
_atom_site_label
_atom_site_fract_x
_atom_site_fract_y
_atom_site_fract_z
Si Si1 0.538767 0.149495 0.877248
Si Si2 0.335394 0.211200 0.498811
Si Si3 0.712943 0.545060 0.897322
Si Si4 0.336707 0.529746 0.789508
Si Si5 0.695346 0.017579 0.090816
Si Si6 0.899036 0.753740 0.075715
Si Si7 0.067725 0.752849 0.317715
O O1 0.494153 0.092355 0.796471
O O2 0.798665 0.211002 0.683658
O O3 0.330096 0.272607 0.077479
O O4 0.500000 0.000000 0.000000
O O5 0.415094 0.384912 0.435167
O O6 0.171656 0.180424 0.749069
O O7 0.198980 0.200632 0.496519
O O8 0.565698 0.101071 0.296595
O O9 0.921716 0.431310 0.687806
O O10 0.500000 0.500000 0.000000
O O11 0.700100 0.493377 0.043675
O O12 0.300893 0.366695 0.780213
O O13 0.138114 0.648628 0.894029
O O14 0.897255 0.894779 0.974134
O O15 0.780751 0.149848 0.915975
#
# Coordination Sequence:
#
# PCOD9080656 Si02
#       7
#     2   2   2   2   2   2   2
#     4   9  20  39  67  91 120 159 201 253 309 361
#     4  12  23  39  61  91 129 158 208 245 304 365
#     4  10  18  40  69  86 117 159 204 249 306 360
#     4  11  23  43  65  88 122 162 207 253 305 355
#     4  11  22  39  65  89 127 165 200 251 306 355
#     4  11  24  41  63  89 123 165 209 251 297 359
#     4  10  22  41  64  93 123 159 207 251 304 365
#
# _framework density 24.259945999999999
#
# number of rings (size 3 to 8) (size 9 to 14) (size 15 to 20)
#    0.000    1.429    4.286    0.857    0.000    4.000 
#    0.000    5.714    0.000    0.000    0.000    0.000 
#    0.000    0.000    0.000    0.000    0.000    0.000 
#
# Total GULP energy -78098.895195 kJ/mol
# GULP energy per Si atom -5578.492514 kJ/mol
# Density = 2.420473 g / cm^3
# Si number density = 24.259946 Si / 1000 Ang^3
#
#
#
# Elastic Constant Matrix: (Units=GPa)
#
#
# Indices 1 2 3 4 5 6 
#
# 1 118.3658 32.6853 4.5023 -8.1187 -5.9469 14.2155
# 2 32.6853 153.9666 13.9000 9.8102 -2.3996 0.6377
# 3 4.5023 13.9000 21.7256 -4.3398 -0.9148 0.6598
# 4 -8.1187 9.8102 -4.3398 20.0381 1.1984 -11.0053
# 5 -5.9469 -2.3996 -0.9148 1.1984 30.9176 1.9408
# 6 14.2155 0.6377 0.6598 -11.0053 1.9408 57.5975
#
#
#
# Elastic Compliance Matrix: (Units=1/GPa)
#
#
# Indices 1 2 3 4 5 6 
#
# 1 0.009632 -0.002315 0.000431 0.004142 0.001627 -0.001620
# 2 -0.002315 0.007937 -0.005862 -0.006496 0.000293 -0.000700
# 3 0.000431 -0.005862 0.052781 0.015739 0.000432 0.002347
# 4 0.004142 -0.006496 0.015739 0.064513 -0.002450 0.011279
# 5 0.001627 0.000293 0.000432 -0.002450 0.032912 -0.001987
# 6 -0.001620 -0.000700 0.002347 0.011279 -0.001987 0.019965
#
#
# Mechanical properties :
#
#
# Convention : Reuss Voigt Hill
#
# Bulk Modulus (GPa) = 18.22975 44.02591 31.12783
# Shear Modulus (GPa) = 22.57145 37.90865 30.24005
#
# Velocity S-wave (km/s) = 3.05355 3.95726 3.53441
# Velocity P-wave (km/s) = 4.46799 6.25035 5.43276
#
# Compressibility (1/GPa) = 0.05485539
#
# Stress axis : x y z
#
# Youngs Moduli (GPa) = 103.82283 125.99153 18.94629
#
# Poissons Ratio (x) = 0.29173 -0.00816
# Poissons Ratio (y) = 0.24040 0.11107
# Poissons Ratio (z) = -0.04470 0.73859
#
# Static dielectric constant tensor:
#      x y z
#    x 1.997790 0.013210 0.003640 
#    y 0.013210 1.932250 -0.016700 
#    z 0.003640 -0.016700 2.008040 
# 
# From -- ./inp_files/28505.got.cif
#   From: 2010.05.17/outbox.cif.g08.bks.cpg/sg2_15_cif.got.tgz:28505.got - 2010.06.03 11:33:40.
