data_PCOD9080001
_publ_section_title
;
Structure prediction by ZEFSAII (Michael W. Deem and Ramdas Pophale) SiO2 
 PCOD9080001
Probable space group: P -1
;
_chemical_formula_sum "Si O2"
_cell_formula_units_Z 15
_cell_length_a 8.245568
_cell_length_b 13.553633
_cell_length_c 9.130989
_cell_angle_alpha 139.707800
_cell_angle_beta 67.396303
_cell_angle_gamma 97.736119
_cell_volume 587.344193
_symmetry_space_group_name_H-M "P -1"
_symmetry_group_IT_number 2
_symmetry_cell_setting 'triclinic'
loop_
_space_group_symop_operation_xyz
x,y,z
-x,-y,-z
loop_
_atom_site_type_symbol
_atom_site_label
_atom_site_fract_x
_atom_site_fract_y
_atom_site_fract_z
Si Si1 0.977388 0.806499 0.554546
Si Si2 0.262896 0.967848 0.549417
Si Si3 0.513488 0.382430 0.000209
Si Si4 0.231683 0.576216 0.774225
Si Si5 0.408875 0.211524 0.267923
Si Si6 0.842753 0.415216 0.499917
Si Si7 0.487532 0.010718 0.270827
Si Si8 0.000000 0.500000 0.000000
O O1 0.067631 0.938446 0.608676
O O2 0.094645 0.720123 0.554028
O O3 0.770426 0.855613 0.736883
O O4 0.986297 0.671214 0.277381
O O5 0.308894 0.049881 0.479533
O O6 0.335249 0.041238 0.747784
O O7 0.409743 0.793960 0.287912
O O8 0.659809 0.390614 0.084281
O O9 0.321111 0.447665 0.219920
O O10 0.500000 0.500000 0.000000
O O11 0.341090 0.397247 0.491658
O O12 0.210784 0.657767 0.716448
O O13 0.040491 0.570608 0.904521
O O14 0.498698 0.157627 0.332363
O O15 0.517132 0.129705 0.997781
O O16 0.000000 0.500000 0.500000
#
# Coordination Sequence:
#
# PCOD9080001 Si02
#       8
#     2   2   2   2   2   2   2   1
#     4  11  23  41  64  94 133 166 207 268 322 392
#     4  11  23  43  65  93 127 166 217 262 316 377
#     4  12  23  40  67  98 130 166 208 264 330 392
#     4  11  22  39  66  97 131 162 208 263 330 390
#     4  10  22  43  66  89 126 168 217 263 316 370
#     4  12  23  39  59 100 135 166 201 257 335 393
#     4  10  24  44  65  87 124 175 220 264 302 373
#     4  10  18  38  60  96 130 158 198 260 334 382
#
# _framework density 25.538689999999999
#
# number of rings (size 3 to 8) (size 9 to 14) (size 15 to 20)
#    0.000    1.067    5.333    2.000    0.000    2.133 
#    2.400    0.000    0.000    0.000    0.000    0.000 
#    0.000    0.000    0.000    0.000    0.000    0.000 
#
# Total GULP energy -83690.874745 kJ/mol
# GULP energy per Si atom -5579.391650 kJ/mol
# Density = 2.548056 g / cm^3
# Si number density = 25.538690 Si / 1000 Ang^3
#
#
#
# Elastic Constant Matrix: (Units=GPa)
#
#
# Indices 1 2 3 4 5 6 
#
# 1 60.9895 6.8873 12.5366 -15.4774 7.3524 3.0660
# 2 6.8873 87.2038 34.7786 -33.2001 16.2064 -8.2972
# 3 12.5366 34.7786 73.8428 -27.2813 16.2186 -26.7339
# 4 -15.4774 -33.2001 -27.2813 39.6070 1.0332 2.8786
# 5 7.3524 16.2064 16.2186 1.0332 37.4669 -11.1398
# 6 3.0660 -8.2972 -26.7339 2.8786 -11.1398 43.5565
#
#
#
# Elastic Compliance Matrix: (Units=1/GPa)
#
#
# Indices 1 2 3 4 5 6 
#
# 1 0.019847 0.003744 -0.001207 0.010503 -0.006398 -0.003755
# 2 0.003744 0.020242 -0.002202 0.017254 -0.009401 -0.001304
# 3 -0.001207 -0.002202 0.026791 0.015346 -0.006865 0.013339
# 4 0.010503 0.017254 0.015346 0.054512 -0.016433 0.004161
# 5 -0.006398 -0.009401 -0.006865 -0.016433 0.036916 0.004973
# 6 -0.003755 -0.001304 0.013339 0.004161 0.004973 0.032159
#
#
# Mechanical properties :
#
#
# Convention : Reuss Voigt Hill
#
# Bulk Modulus (GPa) = 14.80388 36.71568 25.75978
# Shear Modulus (GPa) = 23.55031 35.31498 29.43264
#
# Velocity S-wave (km/s) = 3.03997 3.72264 3.39849
# Velocity P-wave (km/s) = 4.25807 5.73455 5.05056
#
# Compressibility (1/GPa) = 0.06754986
#
# Stress axis : x y z
#
# Youngs Moduli (GPa) = 50.38591 49.40293 37.32619
#
# Poissons Ratio (x) = -0.18497 0.04505
# Poissons Ratio (y) = -0.18865 0.08219
# Poissons Ratio (z) = 0.06081 0.10878
#
# Static dielectric constant tensor:
#      x y z
#    x 2.132150 0.022630 0.042770 
#    y 0.022630 1.969830 0.068100 
#    z 0.042770 0.068100 1.868650 
# 
# From -- ./inp_files/204701.got.cif
#   From: 2010.05.17/outbox.cif.g08.bks.cpg/sg2_103_cif.got.tgz:204701.got - 2010.06.03 11:33:40.
