data_PCOD9080359
_publ_section_title
;
Structure prediction by ZEFSAII (Michael W. Deem and Ramdas Pophale) SiO2 
 PCOD9080359
Probable space group: P -1
;
_chemical_formula_sum "Si O2"
_cell_formula_units_Z 16
_cell_length_a 5.043849
_cell_length_b 21.399211
_cell_length_c 19.921470
_cell_angle_alpha 21.521776
_cell_angle_beta 102.064429
_cell_angle_gamma 90.631640
_cell_volume 662.956350
_symmetry_space_group_name_H-M "P -1"
_symmetry_group_IT_number 2
_symmetry_cell_setting 'triclinic'
loop_
_space_group_symop_operation_xyz
x,y,z
-x,-y,-z
loop_
_atom_site_type_symbol
_atom_site_label
_atom_site_fract_x
_atom_site_fract_y
_atom_site_fract_z
Si Si1 0.216943 0.340536 0.018269
Si Si2 0.474726 0.628224 0.717191
Si Si3 0.347355 0.314289 0.710397
Si Si4 0.368430 0.354206 0.152865
Si Si5 0.250489 0.640994 0.198762
Si Si6 0.574884 0.205996 0.588772
Si Si7 0.274018 0.955133 0.109831
Si Si8 0.532706 0.850094 0.919801
O O1 0.278249 0.521427 0.827426
O O2 0.836412 0.451133 0.896046
O O3 0.384996 0.243566 0.195340
O O4 0.379833 0.197261 0.106908
O O5 0.485507 0.740015 0.673358
O O6 0.334779 0.772098 0.502949
O O7 0.579175 0.358865 0.722586
O O8 0.445715 0.243416 0.709814
O O9 0.000000 0.500000 0.500000
O O10 0.352727 0.127561 0.932865
O O11 0.500000 0.500000 0.000000
O O12 0.000000 0.500000 0.000000
O O13 0.392149 0.424855 0.390030
O O14 0.324468 0.767753 0.022404
O O15 0.878858 0.726307 0.096160
O O16 0.818103 0.082708 0.784087
O O17 0.399369 0.080640 0.698160
O O18 0.000000 0.000000 0.000000
#
# Coordination Sequence:
#
# PCOD9080359 Si02
#       8
#     2   2   2   2   2   2   2   2
#     4  10  18  39  61  92 134 175 216 271 327 393
#     4  10  20  37  61  98 126 173 222 268 334 393
#     4  11  26  45  72  96 133 177 228 281 345 414
#     4   8  16  30  59  88 127 170 216 264 322 391
#     4  12  27  46  68  98 138 175 222 275 344 396
#     4  12  25  42  72  96 138 173 227 281 333 403
#     4  11  25  47  67 101 133 174 229 281 345 411
#     4  12  25  44  66 101 136 178 225 275 332 405
#
# _framework density 24.134319999999999
#
# number of rings (size 3 to 8) (size 9 to 14) (size 15 to 20)
#    0.000    1.250    3.750    1.500    1.750    4.000 
#    4.500    0.625    0.000    0.000    0.000   12.250 
#    0.000    0.000    0.000    0.000    0.000    0.000 
#
# Total GULP energy -89440.852322 kJ/mol
# GULP energy per Si atom -5590.053270 kJ/mol
# Density = 2.407939 g / cm^3
# Si number density = 24.134320 Si / 1000 Ang^3
#
#
#
# Elastic Constant Matrix: (Units=GPa)
#
#
# Indices 1 2 3 4 5 6 
#
# 1 89.5867 4.6203 9.8707 1.9254 -0.1866 2.7879
# 2 4.6203 197.7474 47.3148 23.5289 -5.3006 -10.5301
# 3 9.8707 47.3148 87.9428 -5.1047 -17.1425 2.0029
# 4 1.9254 23.5289 -5.1047 49.5298 1.9086 -10.3468
# 5 -0.1866 -5.3006 -17.1425 1.9086 26.6351 3.1891
# 6 2.7879 -10.5301 2.0029 -10.3468 3.1891 34.4729
#
#
#
# Elastic Compliance Matrix: (Units=1/GPa)
#
#
# Indices 1 2 3 4 5 6 
#
# 1 0.011369 0.000122 -0.001501 -0.000833 -0.000685 -0.000982
# 2 0.000122 0.006397 -0.003895 -0.003120 -0.001170 0.001343
# 3 -0.001501 -0.003895 0.015661 0.002741 0.009339 -0.002020
# 4 -0.000833 -0.003120 0.002741 0.023302 -0.001259 0.006066
# 5 -0.000685 -0.001170 0.009339 -0.001259 0.044042 -0.005297
# 6 -0.000982 0.001343 -0.002020 0.006066 -0.005297 0.031926
#
#
# Mechanical properties :
#
#
# Convention : Reuss Voigt Hill
#
# Bulk Modulus (GPa) = 43.71063 55.43205 49.57134
# Shear Modulus (GPa) = 33.14068 43.02562 38.08315
#
# Velocity S-wave (km/s) = 3.70966 4.22685 3.97667
# Velocity P-wave (km/s) = 6.04148 6.84395 6.45520
#
# Compressibility (1/GPa) = 0.02287773
#
# Stress axis : x y z
#
# Youngs Moduli (GPa) = 87.96231 156.31123 63.85320
#
# Poissons Ratio (x) = -0.01908 0.09586
# Poissons Ratio (y) = -0.01074 0.24874
# Poissons Ratio (z) = 0.13205 0.60891
#
# Static dielectric constant tensor:
#      x y z
#    x 1.988730 -0.087890 0.078040 
#    y -0.087890 2.080360 -0.029120 
#    z 0.078040 -0.029120 1.973440 
# 
# From -- ./inp_files/584291.got.cif
#   From: 2010.05.17/outbox.cif.g08.bks.cpg/sg2_293_cif.got.tgz:584291.got - 2010.06.03 11:33:40.
