data_PCOD9080932
_publ_section_title
;
Structure prediction by ZEFSAII (Michael W. Deem and Ramdas Pophale) SiO2 
 PCOD9080932
Probable space group: P -1
;
_chemical_formula_sum "Si O2"
_cell_formula_units_Z 14
_cell_length_a 11.905483
_cell_length_b 5.122066
_cell_length_c 17.097248
_cell_angle_alpha 61.705412
_cell_angle_beta 61.712802
_cell_angle_gamma 89.318245
_cell_volume 777.385208
_symmetry_space_group_name_H-M "P -1"
_symmetry_group_IT_number 2
_symmetry_cell_setting 'triclinic'
loop_
_space_group_symop_operation_xyz
x,y,z
-x,-y,-z
loop_
_atom_site_type_symbol
_atom_site_label
_atom_site_fract_x
_atom_site_fract_y
_atom_site_fract_z
Si Si1 0.214407 0.570637 0.394405
Si Si2 0.026721 0.437215 0.629485
Si Si3 0.085004 0.806481 0.717968
Si Si4 0.055738 0.363652 0.926955
Si Si5 0.370019 0.072345 0.371227
Si Si6 0.592068 0.324860 0.454203
Si Si7 0.677298 0.320808 0.269880
O O1 0.117490 0.557580 0.355043
O O2 0.304434 0.336737 0.383869
O O3 0.117567 0.484289 0.514227
O O4 0.308120 0.911099 0.334485
O O5 0.067955 0.679564 0.652986
O O6 0.030609 0.100229 0.704884
O O7 0.019014 0.522634 0.837783
O O8 0.238544 0.895943 0.686296
O O9 0.216634 0.473657 0.853300
O O10 0.000000 0.500000 0.000000
O O11 0.000000 0.000000 0.000000
O O12 0.530950 0.184281 0.302894
O O13 0.330484 0.791695 0.486839
O O14 0.500000 0.500000 0.500000
O O15 0.659595 0.500708 0.329960
O O16 0.500000 0.000000 0.500000
#
# Coordination Sequence:
#
# PCOD9080932 Si02
#       7
#     2   2   2   2   2   2   2
#     4  11  23  33  57  75 125 153 204 218 262 322
#     4  11  21  39  51  85 109 166 192 234 254 331
#     4  10  22  35  61  77 115 141 191 237 293 331
#     4  10  22  39  58  87 111 142 189 244 304 343
#     4  11  21  36  50  87 115 158 182 226 280 342
#     4  10  19  30  47  75 114 149 176 207 265 343
#     4   9  22  34  58  83 117 143 185 235 296 348
#
# _framework density 18.009091999999999
#
# number of rings (size 3 to 8) (size 9 to 14) (size 15 to 20)
#    0.857    0.857    0.000    6.000    0.000   10.286 
#    0.000    0.000    0.000    0.000    0.000   20.000 
#    0.000    0.000    0.000    0.000    0.000    0.000 
#
# Total GULP energy -77948.350171 kJ/mol
# GULP energy per Si atom -5567.739298 kJ/mol
# Density = 1.796810 g / cm^3
# Si number density = 18.009092 Si / 1000 Ang^3
#
#
#
# Elastic Constant Matrix: (Units=GPa)
#
#
# Indices 1 2 3 4 5 6 
#
# 1 126.8396 39.8771 32.8397 1.2112 -11.8613 6.9416
# 2 39.8771 105.7270 21.7094 19.4384 -12.2755 -2.4380
# 3 32.8397 21.7094 85.9954 9.2632 -23.7900 2.0326
# 4 1.2112 19.4384 9.2632 24.3193 -1.4168 -0.6611
# 5 -11.8613 -12.2755 -23.7900 -1.4168 21.6668 1.0236
# 6 6.9416 -2.4380 2.0326 -0.6611 1.0236 30.1338
#
#
#
# Elastic Compliance Matrix: (Units=1/GPa)
#
#
# Indices 1 2 3 4 5 6 
#
# 1 0.010019 -0.003847 -0.003143 0.003722 0.000207 -0.002333
# 2 -0.003847 0.013345 0.000696 -0.010380 0.005468 0.001506
# 3 -0.003143 0.000696 0.018537 -0.006406 0.018666 -0.001245
# 4 0.003722 -0.010380 -0.006406 0.051236 -0.007533 0.000115
# 5 0.000207 0.005468 0.018666 -0.007533 0.069529 -0.003391
# 6 -0.002333 0.001506 -0.001245 0.000115 -0.003391 0.034046
#
#
# Mechanical properties :
#
#
# Convention : Reuss Voigt Hill
#
# Bulk Modulus (GPa) = 34.11752 56.37939 45.24846
# Shear Modulus (GPa) = 22.82370 30.16636 26.49503
#
# Velocity S-wave (km/s) = 3.56384 4.09719 3.83979
# Velocity P-wave (km/s) = 5.99336 7.33190 6.69616
#
# Compressibility (1/GPa) = 0.02931045
#
# Stress axis : x y z
#
# Youngs Moduli (GPa) = 99.81168 74.93603 53.94723
#
# Poissons Ratio (x) = 0.28832 0.16956
# Poissons Ratio (y) = 0.38402 -0.03753
# Poissons Ratio (z) = 0.31372 -0.05214
#
# Static dielectric constant tensor:
#      x y z
#    x 1.682910 0.013400 -0.014430 
#    y 0.013400 1.624950 -0.001960 
#    z -0.014430 -0.001960 1.646670 
# 
# From -- ./inp_files/510254.got.cif
#   From: 2010.05.17/outbox.cif.g08.bks.cpg/sg2_256_cif.got.tgz:510254.got - 2010.06.03 11:33:40.
