data_PCOD9080997
_publ_section_title
;
Structure prediction by ZEFSAII (Michael W. Deem and Ramdas Pophale) SiO2 
 PCOD9080997
Probable space group: P -1
;
_chemical_formula_sum "Si O2"
_cell_formula_units_Z 16
_cell_length_a 9.847652
_cell_length_b 9.035854
_cell_length_c 18.041249
_cell_angle_alpha 68.003659
_cell_angle_beta 51.900021
_cell_angle_gamma 110.583964
_cell_volume 705.012828
_symmetry_space_group_name_H-M "P -1"
_symmetry_group_IT_number 2
_symmetry_cell_setting 'triclinic'
loop_
_space_group_symop_operation_xyz
x,y,z
-x,-y,-z
loop_
_atom_site_type_symbol
_atom_site_label
_atom_site_fract_x
_atom_site_fract_y
_atom_site_fract_z
Si Si1 0.491554 0.810004 0.560181
Si Si2 0.408013 0.068283 0.926402
Si Si3 0.868105 0.835921 0.998199
Si Si4 0.717902 0.681779 0.459869
Si Si5 0.647110 0.539033 0.674268
Si Si6 0.987017 0.597018 0.313590
Si Si7 0.212624 0.792537 0.901214
Si Si8 0.730487 0.090804 0.574400
O O1 0.747874 0.893619 0.421904
O O2 0.199660 0.527790 0.675343
O O3 0.546077 0.856968 0.620122
O O4 0.500000 0.000000 0.500000
O O5 0.221962 0.067440 0.031770
O O6 0.563736 0.295460 0.768195
O O7 0.683090 0.200402 0.849779
O O8 0.223992 0.818717 0.981926
O O9 0.565005 0.532460 0.182228
O O10 0.087627 0.864435 0.893377
O O11 0.000000 0.000000 0.000000
O O12 0.500000 0.500000 0.500000
O O13 0.584421 0.531752 0.611906
O O14 0.963133 0.737876 0.345442
O O15 0.014623 0.200711 0.476707
O O16 0.838565 0.338676 0.455483
O O17 0.527945 0.984017 0.730401
O O18 0.000000 0.500000 0.000000
#
# Coordination Sequence:
#
# PCOD9080997 Si02
#       8
#     2   2   2   2   2   2   2   2
#     4   9  20  35  49  79 115 143 170 223 288 324
#     4   8  17  35  57  77 105 143 180 221 270 312
#     4   8  18  35  52  78 111 149 175 217 274 326
#     4  10  19  30  51  80 108 138 178 228 263 311
#     4   9  18  34  59  82 106 136 192 221 265 316
#     4   9  17  35  58  83 103 136 187 234 262 316
#     4  11  21  32  48  82 118 143 177 223 274 322
#     4  10  20  34  57  84 110 143 176 231 272 316
#
# _framework density 22.69462
#
# number of rings (size 3 to 8) (size 9 to 14) (size 15 to 20)
#    0.750    2.000    0.000    1.500    1.750    2.500 
#    2.250    0.000    0.000    1.500    6.500    0.000 
#    0.000    0.000    0.000    0.000    0.000    0.000 
#
# Total GULP energy -89112.342012 kJ/mol
# GULP energy per Si atom -5569.521376 kJ/mol
# Density = 2.264297 g / cm^3
# Si number density = 22.694620 Si / 1000 Ang^3
#
#
#
# Elastic Constant Matrix: (Units=GPa)
#
#
# Indices 1 2 3 4 5 6 
#
# 1 53.8112 19.5732 28.2355 -1.0926 -20.3231 -0.0550
# 2 19.5732 103.9550 10.7386 7.0576 -10.9796 -21.2458
# 3 28.2355 10.7386 86.5529 2.1523 -15.2991 -8.0777
# 4 -1.0926 7.0576 2.1523 21.9788 -3.4759 -5.5620
# 5 -20.3231 -10.9796 -15.2991 -3.4759 45.2641 3.9326
# 6 -0.0550 -21.2458 -8.0777 -5.5620 3.9326 36.6306
#
#
#
# Elastic Compliance Matrix: (Units=1/GPa)
#
#
# Indices 1 2 3 4 5 6 
#
# 1 0.027848 -0.004707 -0.007345 0.003933 0.009593 -0.004741
# 2 -0.004707 0.011994 0.000787 -0.002414 0.000292 0.006725
# 3 -0.007345 0.000787 0.014436 -0.000966 0.001409 0.003331
# 4 0.003933 -0.002414 -0.000966 0.048563 0.004120 0.005324
# 5 0.009593 0.000292 0.001409 0.004120 0.027421 -0.001824
# 6 -0.004741 0.006725 0.003331 0.005324 -0.001824 0.032932
#
#
# Mechanical properties :
#
#
# Convention : Reuss Voigt Hill
#
# Bulk Modulus (GPa) = 31.49972 40.15709 35.82841
# Shear Modulus (GPa) = 25.47036 33.15949 29.31493
#
# Velocity S-wave (km/s) = 3.35372 3.82660 3.59794
# Velocity P-wave (km/s) = 5.37648 6.10384 5.75167
#
# Compressibility (1/GPa) = 0.03174631
#
# Stress axis : x y z
#
# Youngs Moduli (GPa) = 35.90949 83.37687 69.27108
#
# Poissons Ratio (x) = 0.39248 0.50881
# Poissons Ratio (y) = 0.16904 -0.05450
# Poissons Ratio (z) = 0.26376 -0.06560
#
# Static dielectric constant tensor:
#      x y z
#    x 1.954260 -0.042450 -0.015130 
#    y -0.042450 1.871210 0.013240 
#    z -0.015130 0.013240 1.935770 
# 
# From -- ./inp_files/609588.got.cif
#   From: 2010.05.17/outbox.cif.g08.bks.cpg/sg2_305_cif.got.tgz:609588.got - 2010.06.03 11:33:40.
