data_PCOD9080116
_publ_section_title
;
Structure prediction by ZEFSAII (Michael W. Deem and Ramdas Pophale) SiO2 
 PCOD9080116
Probable space group: P -1
;
_chemical_formula_sum "Si O2"
_cell_formula_units_Z 16
_cell_length_a 14.667129
_cell_length_b 15.939344
_cell_length_c 12.196757
_cell_angle_alpha 122.774964
_cell_angle_beta 148.402512
_cell_angle_gamma 36.839485
_cell_volume 801.421786
_symmetry_space_group_name_H-M "P -1"
_symmetry_group_IT_number 2
_symmetry_cell_setting 'triclinic'
loop_
_space_group_symop_operation_xyz
x,y,z
-x,-y,-z
loop_
_atom_site_type_symbol
_atom_site_label
_atom_site_fract_x
_atom_site_fract_y
_atom_site_fract_z
Si Si1 0.197802 0.854563 0.684133
Si Si2 0.888316 0.870160 0.780268
Si Si3 0.104277 0.664237 0.413030
Si Si4 0.608159 0.790591 0.399546
Si Si5 0.629253 0.795577 0.174439
Si Si6 0.450704 0.688926 0.323597
Si Si7 0.370363 0.096236 0.050037
Si Si8 0.219123 0.962625 0.429432
O O1 0.191721 0.740404 0.570424
O O2 0.495555 0.771495 0.941656
O O3 0.000000 0.000000 0.500000
O O4 0.058622 0.928873 0.712760
O O5 0.800896 0.793815 0.644838
O O6 0.693351 0.027091 0.765276
O O7 0.825873 0.935342 0.639144
O O8 0.198888 0.751516 0.045276
O O9 0.355463 0.479172 0.545329
O O10 0.898487 0.722854 0.342565
O O11 0.927464 0.737171 0.171818
O O12 0.674573 0.741070 0.306050
O O13 0.611949 0.690383 0.406184
O O14 0.403149 0.984319 0.079392
O O15 0.324364 0.817172 0.376380
O O16 0.557165 0.096689 0.297154
O O17 0.500000 0.000000 0.000000
#
# Coordination Sequence:
#
# PCOD9080116 Si02
#       8
#     2   2   2   2   2   2   2   2
#     4  12  21  37  68  88 112 163 219 252 297 361
#     4  10  20  39  63  91 127 161 211 249 298 367
#     4  11  24  42  57  94 133 160 195 261 315 361
#     4  10  20  37  65  93 114 169 213 247 296 365
#     4  11  20  37  66  90 118 159 217 257 290 356
#     4  11  25  40  60  92 140 157 194 254 320 372
#     4  10  18  38  64  84 117 155 207 256 290 352
#     4  11  20  41  67  92 116 167 209 256 303 357
#
# _framework density 19.964517000000001
#
# number of rings (size 3 to 8) (size 9 to 14) (size 15 to 20)
#    0.000    1.250    5.000    3.750    0.000    2.000 
#    0.000    5.000    0.000    0.000    0.000    0.000 
#    0.000    0.000    0.000    0.000    0.000    0.000 
#
# Total GULP energy -89385.068722 kJ/mol
# GULP energy per Si atom -5586.566795 kJ/mol
# Density = 1.991908 g / cm^3
# Si number density = 19.964517 Si / 1000 Ang^3
#
#
#
# Elastic Constant Matrix: (Units=GPa)
#
#
# Indices 1 2 3 4 5 6 
#
# 1 33.8091 5.3872 0.9178 2.5738 2.3260 9.4707
# 2 5.3872 79.9765 57.7969 -6.7929 8.5906 29.1772
# 3 0.9178 57.7969 101.8508 4.5492 -0.4084 12.4156
# 4 2.5738 -6.7929 4.5492 20.1691 6.0655 -0.1210
# 5 2.3260 8.5906 -0.4084 6.0655 24.8409 11.1799
# 6 9.4707 29.1772 12.4156 -0.1210 11.1799 22.6002
#
#
#
# Elastic Compliance Matrix: (Units=1/GPa)
#
#
# Indices 1 2 3 4 5 6 
#
# 1 0.035991 0.006706 -0.000564 -0.004693 0.007723 -0.027275
# 2 0.006706 0.050795 -0.022886 0.020495 0.001924 -0.056656
# 3 -0.000564 -0.022886 0.021552 -0.013817 0.004700 0.015544
# 4 -0.004693 0.020495 -0.013817 0.066190 -0.020055 -0.006628
# 5 0.007723 0.001924 0.004700 -0.020055 0.061266 -0.038716
# 6 -0.027275 -0.056656 0.015544 -0.006628 -0.038716 0.139397
#
#
# Mechanical properties :
#
#
# Convention : Reuss Voigt Hill
#
# Bulk Modulus (GPa) = 13.36046 38.20445 25.78245
# Shear Modulus (GPa) = 11.53058 23.62436 17.57747
#
# Velocity S-wave (km/s) = 2.40584 3.44367 2.97043
# Velocity P-wave (km/s) = 3.79790 5.91520 4.97059
#
# Compressibility (1/GPa) = 0.07484774
#
# Stress axis : x y z
#
# Youngs Moduli (GPa) = 27.78480 19.68715 46.40031
#
# Poissons Ratio (x) = -0.13201 0.02617
# Poissons Ratio (y) = -0.18631 1.06192
# Poissons Ratio (z) = 0.01567 0.45056
#
# Static dielectric constant tensor:
#      x y z
#    x 1.742160 0.012410 0.015860 
#    y 0.012410 1.690380 0.006980 
#    z 0.015860 0.006980 1.725620 
# 
# From -- ./inp_files/433575.got.cif
#   From: 2010.05.17/outbox.cif.g08.bks.cpg/sg2_217_cif.got.tgz:433575.got - 2010.06.03 11:33:40.
