data_PCOD9080201
_publ_section_title
;
Structure prediction by ZEFSAII (Michael W. Deem and Ramdas Pophale) SiO2 
 PCOD9080201
Probable space group: P -1
;
_chemical_formula_sum "Si O2"
_cell_formula_units_Z 16
_cell_length_a 8.464428
_cell_length_b 14.820098
_cell_length_c 8.438762
_cell_angle_alpha 58.377893
_cell_angle_beta 58.763828
_cell_angle_gamma 93.705863
_cell_volume 683.473108
_symmetry_space_group_name_H-M "P -1"
_symmetry_group_IT_number 2
_symmetry_cell_setting 'triclinic'
loop_
_space_group_symop_operation_xyz
x,y,z
-x,-y,-z
loop_
_atom_site_type_symbol
_atom_site_label
_atom_site_fract_x
_atom_site_fract_y
_atom_site_fract_z
Si Si1 0.636216 0.407326 0.357816
Si Si2 0.484958 0.274439 0.234731
Si Si3 0.390176 0.897115 0.024280
Si Si4 0.092673 0.644595 0.521392
Si Si5 0.223824 0.054720 0.414346
Si Si6 0.212212 0.850692 0.827185
Si Si7 0.716902 0.474326 0.707279
Si Si8 0.748110 0.642636 0.241343
O O1 0.530491 0.345420 0.308548
O O2 0.827370 0.384711 0.331085
O O3 0.719180 0.549266 0.203293
O O4 0.458069 0.341370 0.647497
O O5 0.266537 0.157920 0.426167
O O6 0.656452 0.223583 0.190443
O O7 0.521808 0.369515 0.989933
O O8 0.587014 0.882498 0.866814
O O9 0.280672 0.912907 0.906996
O O10 0.205125 0.785080 0.309897
O O11 0.500000 0.000000 0.000000
O O12 0.176778 0.597879 0.370109
O O13 0.849603 0.562952 0.698336
O O14 0.255891 0.950281 0.580302
O O15 0.000000 0.000000 0.500000
O O16 0.968165 0.757376 0.027831
O O17 0.722641 0.563168 0.485417
#
# Coordination Sequence:
#
# PCOD9080201 Si02
#       8
#     2   2   2   2   2   2   2   2
#     4  10  24  36  62  95 130 160 205 256 323 370
#     4  11  22  43  65  94 125 166 209 265 311 371
#     4  11  23  41  66  96 122 169 214 258 308 376
#     4  10  19  36  62  91 123 161 207 254 305 377
#     4  11  27  45  63  93 129 170 209 263 320 369
#     4  11  23  44  67  87 131 167 216 257 312 373
#     4  10  18  38  66  87 123 163 211 254 309 370
#     4  10  22  42  60  94 125 172 201 257 319 376
#
# _framework density 23.409846999999999
#
# number of rings (size 3 to 8) (size 9 to 14) (size 15 to 20)
#    0.000    1.500    3.750    3.000    5.250    4.500 
#    0.000    1.250    0.000    0.000    0.000    0.000 
#    0.000    0.000    0.000    0.000    0.000    0.000 
#
# Total GULP energy -89340.375248 kJ/mol
# GULP energy per Si atom -5583.773453 kJ/mol
# Density = 2.335656 g / cm^3
# Si number density = 23.409847 Si / 1000 Ang^3
#
#
#
# Elastic Constant Matrix: (Units=GPa)
#
#
# Indices 1 2 3 4 5 6 
#
# 1 82.4193 31.9348 26.4972 -18.4617 -5.8480 27.0502
# 2 31.9348 126.5300 32.7859 -13.4669 -0.2195 45.6608
# 3 26.4972 32.7859 92.0851 -34.2396 0.0270 6.1884
# 4 -18.4617 -13.4669 -34.2396 34.8162 9.6817 -8.9392
# 5 -5.8480 -0.2195 0.0270 9.6817 40.6104 -13.3802
# 6 27.0502 45.6608 6.1884 -8.9392 -13.3802 40.1374
#
#
#
# Elastic Compliance Matrix: (Units=1/GPa)
#
#
# Indices 1 2 3 4 5 6 
#
# 1 0.017610 0.001569 -0.003169 0.004228 -0.002796 -0.013154
# 2 0.001569 0.016508 -0.005683 -0.002158 -0.006260 -0.021528
# 3 -0.003169 -0.005683 0.020207 0.018872 -0.002031 0.009011
# 4 0.004228 -0.002158 0.018872 0.052859 -0.010365 0.005013
# 5 -0.002796 -0.006260 -0.002031 -0.010365 0.032544 0.017859
# 6 -0.013154 -0.021528 0.009011 0.005013 0.017859 0.063951
#
#
# Mechanical properties :
#
#
# Convention : Reuss Voigt Hill
#
# Bulk Modulus (GPa) = 25.15144 53.71890 39.43517
# Shear Modulus (GPa) = 21.59849 37.10058 29.34954
#
# Velocity S-wave (km/s) = 3.04077 3.98531 3.54464
# Velocity P-wave (km/s) = 4.80579 6.64634 5.79955
#
# Compressibility (1/GPa) = 0.03975916
#
# Stress axis : x y z
#
# Youngs Moduli (GPa) = 56.78585 60.57599 49.48831
#
# Poissons Ratio (x) = -0.09502 0.15681
# Poissons Ratio (y) = -0.08908 0.28124
# Poissons Ratio (z) = 0.17993 0.34425
#
# Static dielectric constant tensor:
#      x y z
#    x 2.010840 -0.050040 -0.042560 
#    y -0.050040 1.948780 0.037390 
#    z -0.042560 0.037390 1.856370 
# 
# From -- ./inp_files/205855.got.cif
#   From: 2010.05.17/outbox.cif.g08.bks.cpg/sg2_103_cif.got.tgz:205855.got - 2010.06.03 11:33:40.
