data_PCOD9080498
_publ_section_title
;
Structure prediction by ZEFSAII (Michael W. Deem and Ramdas Pophale) SiO2 
 PCOD9080498
Probable space group: P -1
;
_chemical_formula_sum "Si O2"
_cell_formula_units_Z 14
_cell_length_a 7.452643
_cell_length_b 11.961452
_cell_length_c 12.875895
_cell_angle_alpha 39.121555
_cell_angle_beta 87.649606
_cell_angle_gamma 112.491267
_cell_volume 545.371611
_symmetry_space_group_name_H-M "P -1"
_symmetry_group_IT_number 2
_symmetry_cell_setting 'triclinic'
loop_
_space_group_symop_operation_xyz
x,y,z
-x,-y,-z
loop_
_atom_site_type_symbol
_atom_site_label
_atom_site_fract_x
_atom_site_fract_y
_atom_site_fract_z
Si Si1 0.949975 0.283933 0.951769
Si Si2 0.474645 0.221983 0.653119
Si Si3 0.116296 0.903369 0.617551
Si Si4 0.142042 0.525881 0.378226
Si Si5 0.318823 0.577920 0.035244
Si Si6 0.738958 0.086325 0.610011
Si Si7 0.502983 0.415406 0.313991
O O1 0.890272 0.345883 0.800642
O O2 0.824819 0.337314 0.995958
O O3 0.230366 0.437376 0.840153
O O4 0.800703 0.006855 0.162543
O O5 0.595252 0.311337 0.698616
O O6 0.520686 0.419426 0.435660
O O7 0.606093 0.145533 0.641649
O O8 0.884797 0.663009 0.847655
O O9 0.210736 0.843584 0.563173
O O10 0.339021 0.134392 0.502098
O O11 0.000000 0.000000 0.500000
O O12 0.000000 0.500000 0.500000
O O13 0.003354 0.261286 0.528975
O O14 0.391184 0.508219 0.185739
O O15 0.567297 0.803427 0.817809
#
# Coordination Sequence:
#
# PCOD9080498 Si02
#       7
#     2   2   2   2   2   2   2
#     4  11  21  41  66  90 124 166 203 252 312 367
#     4  10  22  38  65  94 122 163 205 254 312 366
#     4  10  22  39  62  86 130 164 202 257 310 356
#     4  10  18  39  69  87 124 165 200 253 314 363
#     4  10  23  40  64  93 123 166 206 249 314 367
#     4  10  20  39  64  91 120 167 209 246 306 373
#     4  11  23  40  61  94 128 154 214 257 301 365
#
# _framework density 25.670572
#
# number of rings (size 3 to 8) (size 9 to 14) (size 15 to 20)
#    0.000    1.714    4.286    0.429    0.000    8.000 
#    0.000    4.286    0.000    0.000    0.000    0.000 
#    0.000    0.000    0.000    0.000    0.000    0.000 
#
# Total GULP energy -78180.717959 kJ/mol
# GULP energy per Si atom -5584.336997 kJ/mol
# Density = 2.561214 g / cm^3
# Si number density = 25.670572 Si / 1000 Ang^3
#
#
#
# Elastic Constant Matrix: (Units=GPa)
#
#
# Indices 1 2 3 4 5 6 
#
# 1 116.3648 28.6055 33.1889 -15.8033 -5.6354 22.9045
# 2 28.6055 65.4787 28.4457 -12.5003 -10.5380 27.1199
# 3 33.1889 28.4457 173.0929 -29.0342 -21.3007 21.0726
# 4 -15.8033 -12.5003 -29.0342 43.1744 14.8379 -6.6911
# 5 -5.6354 -10.5380 -21.3007 14.8379 32.2939 -1.3340
# 6 22.9045 27.1199 21.0726 -6.6911 -1.3340 44.7724
#
#
#
# Elastic Compliance Matrix: (Units=1/GPa)
#
#
# Indices 1 2 3 4 5 6 
#
# 1 0.010343 -0.002586 -0.000919 0.002229 -0.000792 -0.002983
# 2 -0.002586 0.022743 -0.000947 0.001403 0.005220 -0.011643
# 3 -0.000919 -0.000947 0.007174 0.002962 0.002827 -0.001806
# 4 0.002229 0.001403 0.002962 0.030316 -0.011094 0.000815
# 5 -0.000792 0.005220 0.002827 -0.011094 0.039304 -0.004574
# 6 -0.002983 -0.011643 -0.001806 0.000815 -0.004574 0.031749
#
#
# Mechanical properties :
#
#
# Convention : Reuss Voigt Hill
#
# Bulk Modulus (GPa) = 31.89022 59.49074 45.69048
# Shear Modulus (GPa) = 31.05931 41.69456 36.37693
#
# Velocity S-wave (km/s) = 3.48216 4.03453 3.76848
# Velocity P-wave (km/s) = 5.34950 6.70285 6.06405
#
# Compressibility (1/GPa) = 0.03135757
#
# Stress axis : x y z
#
# Youngs Moduli (GPa) = 96.68502 43.96922 139.40044
#
# Poissons Ratio (x) = 0.11370 0.12805
# Poissons Ratio (y) = 0.25001 0.13195
# Poissons Ratio (z) = 0.08881 0.04162
#
# Static dielectric constant tensor:
#      x y z
#    x 2.052200 -0.028000 -0.007890 
#    y -0.028000 2.177920 -0.021560 
#    z -0.007890 -0.021560 2.024560 
# 
# From -- ./inp_files/294029.got.cif
#   From: 2010.05.17/outbox.cif.g08.bks.cpg/sg2_148_cif.got.tgz:294029.got - 2010.06.03 11:33:40.
