data_PCOD9080791
_publ_section_title
;
Structure prediction by ZEFSAII (Michael W. Deem and Ramdas Pophale) SiO2 
 PCOD9080791
Probable space group: P -1
;
_chemical_formula_sum "Si O2"
_cell_formula_units_Z 14
_cell_length_a 11.000718
_cell_length_b 17.400451
_cell_length_c 9.588889
_cell_angle_alpha 98.698800
_cell_angle_beta 109.559269
_cell_angle_gamma 146.086729
_cell_volume 557.646889
_symmetry_space_group_name_H-M "P -1"
_symmetry_group_IT_number 2
_symmetry_cell_setting 'triclinic'
loop_
_space_group_symop_operation_xyz
x,y,z
-x,-y,-z
loop_
_atom_site_type_symbol
_atom_site_label
_atom_site_fract_x
_atom_site_fract_y
_atom_site_fract_z
Si Si1 0.059505 0.761702 0.034910
Si Si2 0.032949 0.415850 0.842999
Si Si3 0.019893 0.486503 0.343374
Si Si4 0.117705 0.063340 0.224591
Si Si5 0.109649 0.920577 0.337173
Si Si6 0.016284 0.742876 0.457978
Si Si7 0.710745 0.525198 0.571295
O O1 0.853447 0.566987 0.970192
O O2 0.049945 0.827296 0.158253
O O3 0.520851 0.002891 0.255951
O O4 0.863217 0.669014 0.786873
O O5 0.203441 0.589819 0.878721
O O6 0.033206 0.351940 0.703509
O O7 0.573281 0.177550 0.630844
O O8 0.486899 0.763732 0.577294
O O9 0.980407 0.372473 0.278013
O O10 0.000000 0.500000 0.500000
O O11 0.288775 0.245934 0.372369
O O12 0.912351 0.891610 0.213705
O O13 0.000000 0.000000 0.000000
O O14 0.911881 0.764430 0.350094
O O15 0.751733 0.575498 0.443652
#
# Coordination Sequence:
#
# PCOD9080791 Si02
#       7
#     2   2   2   2   2   2   2
#     4   9  17  27  45  74 101 122 148 201 243 278
#     4   8  13  27  44  65  96 127 152 183 235 290
#     4   9  16  28  49  71  94 120 163 193 234 276
#     4   9  19  34  50  68  94 130 166 194 228 287
#     4   8  16  30  49  63  93 131 160 181 238 292
#     4   9  15  28  45  70  99 126 149 193 238 290
#     4  10  19  27  48  72 101 117 162 198 237 272
#
# _framework density 25.105494
#
# number of rings (size 3 to 8) (size 9 to 14) (size 15 to 20)
#    0.857    2.286    1.429    2.143    0.000    0.571 
#    0.000    1.429    0.000    0.000    0.000   10.000 
#    0.000    0.000    0.000    0.000    0.000    0.000 
#
# Total GULP energy -77960.615169 kJ/mol
# GULP energy per Si atom -5568.615369 kJ/mol
# Density = 2.504835 g / cm^3
# Si number density = 25.105494 Si / 1000 Ang^3
#
#
#
# Elastic Constant Matrix: (Units=GPa)
#
#
# Indices 1 2 3 4 5 6 
#
# 1 74.5145 31.0357 5.3401 -7.0522 21.4760 -8.3673
# 2 31.0357 88.9727 13.0201 -34.3917 13.9457 -36.1439
# 3 5.3401 13.0201 50.4363 -2.7222 1.2779 -7.3509
# 4 -7.0522 -34.3917 -2.7222 32.1752 -1.5332 14.0102
# 5 21.4760 13.9457 1.2779 -1.5332 32.3473 -4.6929
# 6 -8.3673 -36.1439 -7.3509 14.0102 -4.6929 27.1718
#
#
#
# Elastic Compliance Matrix: (Units=1/GPa)
#
#
# Indices 1 2 3 4 5 6 
#
# 1 0.018884 -0.008385 -0.000574 -0.002848 -0.009866 -0.005730
# 2 -0.008385 0.038860 -0.002594 0.023901 -0.004837 0.035249
# 3 -0.000574 -0.002594 0.020909 -0.002634 0.001066 0.003572
# 4 -0.002848 0.023901 -0.002634 0.055168 -0.005579 0.000794
# 5 -0.009866 -0.004837 0.001066 -0.005579 0.039314 0.000483
# 6 -0.005730 0.035249 0.003572 0.000794 0.000483 0.082566
#
#
# Mechanical properties :
#
#
# Convention : Reuss Voigt Hill
#
# Bulk Modulus (GPa) = 18.00260 34.74614 26.37437
# Shear Modulus (GPa) = 16.81673 29.30738 23.06205
#
# Velocity S-wave (km/s) = 2.59094 3.42039 3.03414
# Velocity P-wave (km/s) = 4.01709 5.42852 4.77524
#
# Compressibility (1/GPa) = 0.05554752
#
# Stress axis : x y z
#
# Youngs Moduli (GPa) = 52.95348 25.73342 47.82695
#
# Poissons Ratio (x) = 0.21578 0.02743
# Poissons Ratio (y) = 0.44403 0.12406
# Poissons Ratio (z) = 0.03037 0.06675
#
# Static dielectric constant tensor:
#      x y z
#    x 1.560260 0.624650 0.002230 
#    y 0.624650 1.275510 0.082070 
#    z 0.002230 0.082070 1.936590 
# 
# From -- ./inp_files/318345.got.cif
#   From: 2010.05.17/outbox.cif.g08.bks.cpg/sg2_160_cif.got.tgz:318345.got - 2010.06.03 11:33:40.
