data_PCOD9080833
_publ_section_title
;
Structure prediction by ZEFSAII (Michael W. Deem and Ramdas Pophale) SiO2 
 PCOD9080833
Probable space group: P -1
;
_chemical_formula_sum "Si O2"
_cell_formula_units_Z 16
_cell_length_a 15.569995
_cell_length_b 7.826386
_cell_length_c 15.727993
_cell_angle_alpha 109.723644
_cell_angle_beta 42.763126
_cell_angle_gamma 138.435099
_cell_volume 761.957998
_symmetry_space_group_name_H-M "P -1"
_symmetry_group_IT_number 2
_symmetry_cell_setting 'triclinic'
loop_
_space_group_symop_operation_xyz
x,y,z
-x,-y,-z
loop_
_atom_site_type_symbol
_atom_site_label
_atom_site_fract_x
_atom_site_fract_y
_atom_site_fract_z
Si Si1 0.545039 0.957847 0.049917
Si Si2 0.759214 0.541320 0.043830
Si Si3 0.125552 0.818492 0.931961
Si Si4 0.917512 0.133147 0.838451
Si Si5 0.332277 0.748870 0.684883
Si Si6 0.281327 0.035441 0.572354
Si Si7 0.144270 0.342783 0.204894
Si Si8 0.605026 0.535968 0.305731
O O1 0.334500 0.622528 0.169223
O O2 0.625033 0.206484 0.095238
O O3 0.500000 0.000000 0.000000
O O4 0.730564 0.028421 0.914976
O O5 0.648457 0.578182 0.181785
O O6 0.782710 0.590831 0.934926
O O7 0.980217 0.758338 0.961323
O O8 0.313395 0.928674 0.767341
O O9 0.148943 0.944052 0.025890
O O10 0.000000 0.500000 0.000000
O O11 0.129741 0.481474 0.731475
O O12 0.932592 0.944452 0.764400
O O13 0.558872 0.947636 0.523243
O O14 0.300359 0.548415 0.743293
O O15 0.377505 0.254354 0.459025
O O16 0.299560 0.193886 0.664870
O O17 0.047897 0.737705 0.671911
#
# Coordination Sequence:
#
# PCOD9080833 Si02
#       8
#     2   2   2   2   2   2   2   2
#     4  10  22  35  51  75 108 144 177 214 256 308
#     4  11  19  33  54  80 104 138 177 217 261 304
#     4  10  15  28  54  78  98 130 173 220 254 309
#     4  11  17  33  56  80 102 133 181 218 262 303
#     4   9  15  28  54  75 102 135 168 201 261 319
#     4   9  17  31  48  81 111 133 169 205 272 318
#     4  11  22  33  50  82 114 135 170 221 256 306
#     4   9  15  30  53  75 105 136 169 206 263 320
#
# _framework density 20.998532000000001
#
# number of rings (size 3 to 8) (size 9 to 14) (size 15 to 20)
#    0.750    1.250    6.250    0.375    0.000    2.000 
#    0.000    1.250    0.000    0.000    0.000    7.875 
#    0.000    0.000    0.000    0.000    0.000    0.000 
#
# Total GULP energy -89125.182976 kJ/mol
# GULP energy per Si atom -5570.323936 kJ/mol
# Density = 2.095074 g / cm^3
# Si number density = 20.998532 Si / 1000 Ang^3
#
#
#
# Elastic Constant Matrix: (Units=GPa)
#
#
# Indices 1 2 3 4 5 6 
#
# 1 64.5547 19.8615 21.9894 -1.9441 -22.3858 11.2842
# 2 19.8615 63.9955 42.1092 2.6515 -28.5042 -4.4369
# 3 21.9894 42.1092 118.2320 -0.4429 -27.7516 9.6414
# 4 -1.9441 2.6515 -0.4429 31.1365 1.2557 -6.1638
# 5 -22.3858 -28.5042 -27.7516 1.2557 39.7211 -1.6237
# 6 11.2842 -4.4369 9.6414 -6.1638 -1.6237 17.5058
#
#
#
# Elastic Compliance Matrix: (Units=1/GPa)
#
#
# Indices 1 2 3 4 5 6 
#
# 1 0.022586 -0.004324 0.000893 -0.001739 0.009656 -0.015863
# 2 -0.004324 0.029267 -0.007633 -0.000348 0.013880 0.015574
# 3 0.000893 -0.007633 0.012599 -0.001141 0.003475 -0.009529
# 4 -0.001739 -0.000348 -0.001141 0.034835 -0.002568 0.013689
# 5 0.009656 0.013880 0.003475 -0.002568 0.043024 -0.001534
# 6 -0.015863 0.015574 -0.009529 0.013689 -0.001534 0.081222
#
#
# Mechanical properties :
#
#
# Convention : Reuss Voigt Hill
#
# Bulk Modulus (GPa) = 23.62726 46.07805 34.85266
# Shear Modulus (GPa) = 19.24787 28.52748 23.88767
#
# Velocity S-wave (km/s) = 3.03087 3.68985 3.37647
# Velocity P-wave (km/s) = 4.85021 6.33596 5.64220
#
# Compressibility (1/GPa) = 0.04232399
#
# Stress axis : x y z
#
# Youngs Moduli (GPa) = 44.27516 34.16804 79.37335
#
# Poissons Ratio (x) = 0.14775 -0.07088
# Poissons Ratio (y) = 0.19145 0.60584
# Poissons Ratio (z) = -0.03954 0.26080
#
# Static dielectric constant tensor:
#      x y z
#    x 1.792420 -0.048130 0.028770 
#    y -0.048130 1.838230 -0.018400 
#    z 0.028770 -0.018400 1.852400 
# 
# From -- ./inp_files/575292.got.cif
#   From: 2010.05.17/outbox.cif.g08.bks.cpg/sg2_288_cif.got.tgz:575292.got - 2010.06.03 11:33:40.
