data_PCOD9080940
_publ_section_title
;
Structure prediction by ZEFSAII (Michael W. Deem and Ramdas Pophale) SiO2 
 PCOD9080940
Probable space group: P -1
;
_chemical_formula_sum "Si O2"
_cell_formula_units_Z 12
_cell_length_a 10.263798
_cell_length_b 5.585964
_cell_length_c 9.410362
_cell_angle_alpha 76.385957
_cell_angle_beta 63.778471
_cell_angle_gamma 71.145161
_cell_volume 455.301139
_symmetry_space_group_name_H-M "P -1"
_symmetry_group_IT_number 2
_symmetry_cell_setting 'triclinic'
loop_
_space_group_symop_operation_xyz
x,y,z
-x,-y,-z
loop_
_atom_site_type_symbol
_atom_site_label
_atom_site_fract_x
_atom_site_fract_y
_atom_site_fract_z
Si Si1 0.781517 0.500168 0.121016
Si Si2 0.127572 0.732162 0.298354
Si Si3 0.547625 0.913336 0.650622
Si Si4 0.748671 0.060150 0.022935
Si Si5 0.034857 0.685427 0.670301
Si Si6 0.444013 0.590981 0.354382
O O1 0.841607 0.458392 0.257384
O O2 0.600722 0.560871 0.200193
O O3 0.833604 0.232800 0.050678
O O4 0.820735 0.757709 0.012705
O O5 0.105215 0.700058 0.480009
O O6 0.076921 0.499095 0.278861
O O7 0.271681 0.784843 0.137115
O O8 0.020885 0.022056 0.290080
O O9 0.630128 0.619647 0.645350
O O10 0.500000 0.000000 0.500000
O O11 0.634601 0.112362 0.636860
O O12 0.402238 0.934245 0.816060
O O13 0.500000 0.500000 0.500000
#
# Coordination Sequence:
#
# PCOD9080940 Si02
#       6
#     2   2   2   2   2   2
#     4  10  19  30  48  73  93 119 158 198 234 273
#     4  10  21  35  48  65  95 131 160 191 235 280
#     4   8  14  25  41  64  90 114 142 184 231 273
#     4  10  19  30  48  73  93 119 158 198 234 273
#     4  10  21  35  48  65  95 131 160 191 235 280
#     4   8  14  25  41  64  90 114 142 184 231 273
#
# _framework density 26.356183999999999
#
# number of rings (size 3 to 8) (size 9 to 14) (size 15 to 20)
#    0.000    2.667    0.000    2.000    0.000    4.000 
#    0.000    0.000    0.000    0.000    0.000   37.333 
#    0.000    0.000    0.000    0.000    0.000    0.000 
#
# Total GULP energy -66968.866607 kJ/mol
# GULP energy per Si atom -5580.738884 kJ/mol
# Density = 2.629620 g / cm^3
# Si number density = 26.356184 Si / 1000 Ang^3
#
#
#
# Elastic Constant Matrix: (Units=GPa)
#
#
# Indices 1 2 3 4 5 6 
#
# 1 60.6735 34.2618 11.2440 -8.4589 1.9227 24.8836
# 2 34.2618 273.5068 40.7664 -20.2325 7.2748 64.1547
# 3 11.2440 40.7664 145.1027 -35.4052 4.8906 5.0586
# 4 -8.4589 -20.2325 -35.4052 50.9039 0.6709 2.3356
# 5 1.9227 7.2748 4.8906 0.6709 38.0240 3.8147
# 6 24.8836 64.1547 5.0586 2.3356 3.8147 40.2902
#
#
#
# Elastic Compliance Matrix: (Units=1/GPa)
#
#
# Indices 1 2 3 4 5 6 
#
# 1 0.023418 0.001509 -0.000436 0.004971 0.000213 -0.017120
# 2 0.001509 0.006429 -0.000865 0.002721 -0.000119 -0.011207
# 3 -0.000436 -0.000865 0.008538 0.005520 -0.001043 0.000353
# 4 0.004971 0.002721 0.005520 0.025840 -0.000985 -0.009500
# 5 0.000213 -0.000119 -0.001043 -0.000985 0.026692 -0.002281
# 6 -0.017120 -0.011207 0.000353 -0.009500 -0.002281 0.053961
#
#
# Mechanical properties :
#
#
# Convention : Reuss Voigt Hill
#
# Bulk Modulus (GPa) = 25.77206 72.42528 49.09867
# Shear Modulus (GPa) = 31.76709 52.04436 41.90572
#
# Velocity S-wave (km/s) = 3.47551 4.44853 3.99178
# Velocity P-wave (km/s) = 5.08971 7.34336 6.31784
#
# Compressibility (1/GPa) = 0.03880171
#
# Stress axis : x y z
#
# Youngs Moduli (GPa) = 42.70286 155.53718 117.12158
#
# Poissons Ratio (x) = -0.23473 0.05108
# Poissons Ratio (y) = -0.06445 0.10128
# Poissons Ratio (z) = 0.01863 0.13449
#
# Static dielectric constant tensor:
#      x y z
#    x 2.024590 0.045880 0.017880 
#    y 0.045880 2.073620 0.012130 
#    z 0.017880 0.012130 2.080040 
# 
# From -- ./inp_files/61656.got.cif
#   From: 2010.05.17/outbox.cif.g08.bks.cpg/sg2_31_cif.got.tgz:61656.got - 2010.06.03 11:33:40.
