data_PCOD9080237
_publ_section_title
;
Structure prediction by ZEFSAII (Michael W. Deem and Ramdas Pophale) SiO2 
 PCOD9080237
Probable space group: P -1
;
_chemical_formula_sum "Si O2"
_cell_formula_units_Z 16
_cell_length_a 10.610468
_cell_length_b 6.299071
_cell_length_c 19.969769
_cell_angle_alpha 95.779745
_cell_angle_beta 31.968867
_cell_angle_gamma 89.309672
_cell_volume 690.933259
_symmetry_space_group_name_H-M "P -1"
_symmetry_group_IT_number 2
_symmetry_cell_setting 'triclinic'
loop_
_space_group_symop_operation_xyz
x,y,z
-x,-y,-z
loop_
_atom_site_type_symbol
_atom_site_label
_atom_site_fract_x
_atom_site_fract_y
_atom_site_fract_z
Si Si1 0.658727 0.596288 0.874814
Si Si2 0.765524 0.402067 0.581641
Si Si3 0.346208 0.358692 0.486729
Si Si4 0.501224 0.008428 0.126623
Si Si5 0.116020 0.396647 0.041591
Si Si6 0.844212 0.438707 0.287293
Si Si7 0.292638 0.700768 0.861556
Si Si8 0.116482 0.791391 0.343205
O O1 0.497876 0.811191 0.923811
O O2 0.759257 0.425346 0.763094
O O3 0.903418 0.665290 0.795043
O O4 0.500000 0.500000 0.000000
O O5 0.739676 0.420955 0.513063
O O6 0.519496 0.560429 0.717722
O O7 0.793898 0.215609 0.619897
O O8 0.000000 0.500000 0.500000
O O9 0.638290 0.304480 0.353507
O O10 0.280102 0.395291 0.595573
O O11 0.171541 0.200832 0.532549
O O12 0.613873 0.095782 0.144552
O O13 0.227918 0.979770 0.263965
O O14 0.666810 0.777058 0.031488
O O15 0.945512 0.534087 0.178133
O O16 0.939332 0.260685 0.079612
O O17 0.218779 0.551628 0.949501
#
# Coordination Sequence:
#
# PCOD9080237 Si02
#       8
#     2   2   2   2   2   2   2   2
#     4  11  23  39  62  94 126 165 207 254 312 376
#     4  10  18  38  67  89 123 164 205 261 311 365
#     4   9  20  38  65  89 120 167 214 257 312 374
#     4  12  22  39  63  95 126 162 208 259 312 375
#     4  11  23  39  64  94 130 165 203 262 312 379
#     4  10  20  38  63  88 119 170 210 251 316 369
#     4  11  22  40  64  97 128 160 207 257 325 370
#     4  10  21  39  63  92 122 158 209 261 313 366
#
# _framework density 23.157084000000001
#
# number of rings (size 3 to 8) (size 9 to 14) (size 15 to 20)
#    0.000    1.500    3.750    1.875    0.000    2.000 
#    0.000    3.125    0.000    7.500    0.000    0.000 
#    0.000    0.000    0.000    0.000    0.000    0.000 
#
# Total GULP energy -89152.974091 kJ/mol
# GULP energy per Si atom -5572.060881 kJ/mol
# Density = 2.310438 g / cm^3
# Si number density = 23.157084 Si / 1000 Ang^3
#
#
#
# Elastic Constant Matrix: (Units=GPa)
#
#
# Indices 1 2 3 4 5 6 
#
# 1 125.1970 22.0680 38.8394 -10.3977 -30.1536 4.1505
# 2 22.0680 33.5539 25.0045 -13.7354 2.3192 -4.4945
# 3 38.8394 25.0045 133.0402 -21.2575 -13.4035 -5.1714
# 4 -10.3977 -13.7354 -21.2575 25.1711 -2.5487 0.5240
# 5 -30.1536 2.3192 -13.4035 -2.5487 59.2515 -6.3099
# 6 4.1505 -4.4945 -5.1714 0.5240 -6.3099 29.2555
#
#
#
# Elastic Compliance Matrix: (Units=1/GPa)
#
#
# Indices 1 2 3 4 5 6 
#
# 1 0.010968 -0.006622 -0.001439 0.000278 0.005348 -0.001679
# 2 -0.006622 0.045710 -0.003978 0.018255 -0.004642 0.005930
# 3 -0.001439 -0.003978 0.009879 0.005754 0.002085 0.001686
# 4 0.000278 0.018255 0.005754 0.054941 0.003470 0.003546
# 5 0.005348 -0.004642 0.002085 0.003470 0.020754 0.003311
# 6 -0.001679 0.005930 0.001686 0.003546 0.003311 0.036279
#
#
# Mechanical properties :
#
#
# Convention : Reuss Voigt Hill
#
# Bulk Modulus (GPa) = 23.54102 51.51274 37.52688
# Shear Modulus (GPa) = 23.06580 36.46093 29.76336
#
# Velocity S-wave (km/s) = 3.15946 3.97231 3.58897
# Velocity P-wave (km/s) = 4.84742 6.58272 5.78056
#
# Compressibility (1/GPa) = 0.04247905
#
# Stress axis : x y z
#
# Youngs Moduli (GPa) = 91.17372 21.87688 101.22014
#
# Poissons Ratio (x) = 0.14486 0.14570
# Poissons Ratio (y) = 0.60371 0.40269
# Poissons Ratio (z) = 0.13124 0.08704
#
# Static dielectric constant tensor:
#      x y z
#    x 1.981890 0.041010 0.044060 
#    y 0.041010 1.930590 -0.002200 
#    z 0.044060 -0.002200 1.898840 
# 
# From -- ./inp_files/592737.got.cif
#   From: 2010.05.17/outbox.cif.g08.bks.cpg/sg2_297_cif.got.tgz:592737.got - 2010.06.03 11:33:40.
