data_PCOD9080314
_publ_section_title
;
Structure prediction by ZEFSAII (Michael W. Deem and Ramdas Pophale) SiO2 
 PCOD9080314
Probable space group: P -1
;
_chemical_formula_sum "Si O2"
_cell_formula_units_Z 14
_cell_length_a 12.912804
_cell_length_b 13.366111
_cell_length_c 7.079121
_cell_angle_alpha 66.944047
_cell_angle_beta 42.124274
_cell_angle_gamma 43.580986
_cell_volume 536.200007
_symmetry_space_group_name_H-M "P -1"
_symmetry_group_IT_number 2
_symmetry_cell_setting 'triclinic'
loop_
_space_group_symop_operation_xyz
x,y,z
-x,-y,-z
loop_
_atom_site_type_symbol
_atom_site_label
_atom_site_fract_x
_atom_site_fract_y
_atom_site_fract_z
Si Si1 0.741867 0.705417 0.700471
Si Si2 0.710905 0.316357 0.870200
Si Si3 0.745424 0.899021 0.303542
Si Si4 0.884693 0.442946 0.440102
Si Si5 0.494936 0.391833 0.469963
Si Si6 0.189935 0.940467 0.639104
Si Si7 0.750431 0.055641 0.849680
O O1 0.840644 0.739842 0.379245
O O2 0.768372 0.573959 0.662991
O O3 0.492688 0.863762 0.935785
O O4 0.868663 0.645643 0.773250
O O5 0.889178 0.311439 0.563077
O O6 0.500000 0.500000 0.000000
O O7 0.698126 0.308409 0.114913
O O8 0.695026 0.203872 0.894971
O O9 0.500000 0.000000 0.500000
O O10 0.735216 0.984976 0.428166
O O11 0.840814 0.923888 0.980040
O O12 0.728549 0.527607 0.400884
O O13 0.500000 0.500000 0.500000
O O14 0.597349 0.239421 0.548811
O O15 0.000000 0.000000 0.000000
O O16 0.114877 0.996412 0.485752
#
# Coordination Sequence:
#
# PCOD9080314 Si02
#       7
#     2   2   2   2   2   2   2
#     4  10  21  40  74 106 149 200 248 302 371 460
#     4  10  18  38  71 101 142 191 241 306 372 430
#     4  10  23  45  68 101 153 198 242 297 372 460
#     4  10  21  40  72 106 144 192 250 315 368 443
#     4  11  22  42  72 109 147 191 245 318 380 437
#     4  12  27  45  72 111 146 193 258 316 376 444
#     4  11  22  46  73 105 149 200 245 310 380 443
#
# _framework density 26.109660999999999
#
# number of rings (size 3 to 8) (size 9 to 14) (size 15 to 20)
#    0.000    1.429    4.286    2.571    2.000    2.857 
#    0.000    5.000    0.000    0.000    0.000    0.000 
#    0.000    0.000    0.000    0.000    0.000    0.000 
#
# Total GULP energy -77994.241911 kJ/mol
# GULP energy per Si atom -5571.017279 kJ/mol
# Density = 2.605023 g / cm^3
# Si number density = 26.109661 Si / 1000 Ang^3
#
#
#
# Elastic Constant Matrix: (Units=GPa)
#
#
# Indices 1 2 3 4 5 6 
#
# 1 187.2420 63.1323 37.2848 4.4721 1.2086 1.6781
# 2 63.1323 145.6892 32.2330 -12.4735 -7.7793 -10.3337
# 3 37.2848 32.2330 86.3191 -16.2771 19.4695 4.9314
# 4 4.4721 -12.4735 -16.2771 43.9169 -11.2072 -6.9646
# 5 1.2086 -7.7793 19.4695 -11.2072 43.3552 3.3141
# 6 1.6781 -10.3337 4.9314 -6.9646 3.3141 55.0832
#
#
#
# Elastic Compliance Matrix: (Units=1/GPa)
#
#
# Indices 1 2 3 4 5 6 
#
# 1 0.006780 -0.002716 -0.002286 -0.002498 -0.000233 -0.000813
# 2 -0.002716 0.009240 -0.002605 0.003199 0.003559 0.002240
# 3 -0.002286 -0.002605 0.015726 0.003510 -0.006482 -0.000993
# 4 -0.002498 0.003199 0.003510 0.027276 0.005854 0.003459
# 5 -0.000233 0.003559 -0.006482 0.005854 0.028111 0.000304
# 6 -0.000813 0.002240 -0.000993 0.003459 0.000304 0.019107
#
#
# Mechanical properties :
#
#
# Convention : Reuss Voigt Hill
#
# Bulk Modulus (GPa) = 60.48979 76.06115 68.27547
# Shear Modulus (GPa) = 39.38059 47.57774 43.47916
#
# Velocity S-wave (km/s) = 3.88787 4.27339 4.08518
# Velocity P-wave (km/s) = 6.58573 7.31736 6.96117
#
# Compressibility (1/GPa) = 0.01653172
#
# Stress axis : x y z
#
# Youngs Moduli (GPa) = 147.48742 108.22469 63.58989
#
# Poissons Ratio (x) = 0.29397 0.14539
# Poissons Ratio (y) = 0.40062 0.16562
# Poissons Ratio (z) = 0.33720 0.28188
#
# Static dielectric constant tensor:
#      x y z
#    x 2.452420 -0.609530 0.128750 
#    y -0.609530 2.621280 -0.189980 
#    z 0.128750 -0.189980 2.332520 
# 
# From -- ./inp_files/262258.got.cif
#   From: 2010.05.17/outbox.cif.g08.bks.cpg/sg2_132_cif.got.tgz:262258.got - 2010.06.03 11:33:40.
