data_PCOD9080698
_publ_section_title
;
Structure prediction by ZEFSAII (Michael W. Deem and Ramdas Pophale) SiO2 
 PCOD9080698
Probable space group: P -1
;
_chemical_formula_sum "Si O2"
_cell_formula_units_Z 12
_cell_length_a 12.859641
_cell_length_b 9.773574
_cell_length_c 8.640164
_cell_angle_alpha 66.672733
_cell_angle_beta 91.191705
_cell_angle_gamma 44.161275
_cell_volume 610.748836
_symmetry_space_group_name_H-M "P -1"
_symmetry_group_IT_number 2
_symmetry_cell_setting 'triclinic'
loop_
_space_group_symop_operation_xyz
x,y,z
-x,-y,-z
loop_
_atom_site_type_symbol
_atom_site_label
_atom_site_fract_x
_atom_site_fract_y
_atom_site_fract_z
Si Si1 0.490777 0.969892 0.697348
Si Si2 0.147862 0.748066 0.206705
Si Si3 0.138104 0.423060 0.435816
Si Si4 0.500985 0.380996 0.190136
Si Si5 0.820821 0.760301 0.812791
Si Si6 0.687004 0.239951 0.560532
O O1 0.473044 0.814439 0.784975
O O2 0.662595 0.839701 0.831449
O O3 0.500000 0.000000 0.500000
O O4 0.313532 0.242703 0.617629
O O5 0.099089 0.631061 0.277312
O O6 0.321874 0.570603 0.192514
O O7 0.187425 0.777176 0.361588
O O8 0.000000 0.000000 0.000000
O O9 0.166680 0.284903 0.350255
O O10 0.000000 0.500000 0.500000
O O11 0.648576 0.259065 0.370078
O O12 0.500000 0.500000 0.000000
O O13 0.762835 0.996348 0.732432
O O14 0.000000 0.500000 0.000000
O O15 0.500000 0.500000 0.500000
#
# Coordination Sequence:
#
# PCOD9080698 Si02
#       6
#     2   2   2   2   2   2
#     4  10  18  41  66  83 125 171 213 255 326 378
#     4  11  23  40  63  95 131 164 208 270 328 385
#     4  11  23  42  66  91 127 174 214 261 325 389
#     4  11  22  40  66  93 123 172 214 262 328 385
#     4  11  21  41  70  95 125 172 220 267 325 391
#     4  10  21  40  65  94 129 168 215 268 324 387
#
# _framework density 19.648011
#
# number of rings (size 3 to 8) (size 9 to 14) (size 15 to 20)
#    0.000    1.333    6.667    2.000    2.333    0.000 
#    3.000    2.500    0.000    0.000    0.000    0.000 
#    0.000    0.000    0.000    0.000    0.000    0.000 
#
# Total GULP energy -66897.096035 kJ/mol
# GULP energy per Si atom -5574.758003 kJ/mol
# Density = 1.960329 g / cm^3
# Si number density = 19.648011 Si / 1000 Ang^3
#
#
#
# Elastic Constant Matrix: (Units=GPa)
#
#
# Indices 1 2 3 4 5 6 
#
# 1 92.9269 33.4129 46.1206 -9.6532 -14.1005 -10.2767
# 2 33.4129 61.1142 26.2839 -25.4061 -8.3613 5.7295
# 3 46.1206 26.2839 105.1062 -34.3914 -5.0569 -8.2990
# 4 -9.6532 -25.4061 -34.3914 36.1318 -0.5616 -1.7082
# 5 -14.1005 -8.3613 -5.0569 -0.5616 49.2829 -12.3676
# 6 -10.2767 5.7295 -8.2990 -1.7082 -12.3676 37.8602
#
#
#
# Elastic Compliance Matrix: (Units=1/GPa)
#
#
# Indices 1 2 3 4 5 6 
#
# 1 0.019089 -0.011141 -0.008290 -0.010280 0.004090 0.005922
# 2 -0.011141 0.030606 0.004176 0.022290 0.001360 -0.005290
# 3 -0.008290 0.004176 0.018317 0.018280 0.000998 0.002284
# 4 -0.010280 0.022290 0.018280 0.058143 0.003808 0.001711
# 5 0.004090 0.001360 0.000998 0.003808 0.024142 0.009181
# 6 0.005922 -0.005290 0.002284 0.001711 0.009181 0.032398
#
#
# Mechanical properties :
#
#
# Convention : Reuss Voigt Hill
#
# Bulk Modulus (GPa) = 26.66422 52.30912 39.48667
# Shear Modulus (GPa) = 22.15299 34.87697 28.51498
#
# Velocity S-wave (km/s) = 3.36146 4.21775 3.81371
# Velocity P-wave (km/s) = 5.35409 7.09931 6.28754
#
# Compressibility (1/GPa) = 0.03750344
#
# Stress axis : x y z
#
# Youngs Moduli (GPa) = 52.38710 32.67329 54.59436
#
# Poissons Ratio (x) = 0.36400 0.45256
# Poissons Ratio (y) = 0.58362 -0.22798
# Poissons Ratio (z) = 0.43427 -0.13644
#
# Static dielectric constant tensor:
#      x y z
#    x 1.540630 0.148950 0.100670 
#    y 0.148950 1.629180 -0.079410 
#    z 0.100670 -0.079410 1.676460 
# 
# From -- ./inp_files/144511.got.cif
#   From: 2010.05.17/outbox.cif.g08.bks.cpg/sg2_73_cif.got.tgz:144511.got - 2010.06.03 11:33:40.
