data_PCOD9080369
_publ_section_title
;
Structure prediction by ZEFSAII (Michael W. Deem and Ramdas Pophale) SiO2 
 PCOD9080369
Probable space group: P -1
;
_chemical_formula_sum "Si O2"
_cell_formula_units_Z 16
_cell_length_a 23.780926
_cell_length_b 14.887195
_cell_length_c 9.131819
_cell_angle_alpha 48.170513
_cell_angle_beta 47.802752
_cell_angle_gamma 19.394161
_cell_volume 787.985126
_symmetry_space_group_name_H-M "P -1"
_symmetry_group_IT_number 2
_symmetry_cell_setting 'triclinic'
loop_
_space_group_symop_operation_xyz
x,y,z
-x,-y,-z
loop_
_atom_site_type_symbol
_atom_site_label
_atom_site_fract_x
_atom_site_fract_y
_atom_site_fract_z
Si Si1 0.978731 0.719178 0.827879
Si Si2 0.888910 0.236131 0.324692
Si Si3 0.807711 0.708408 0.856817
Si Si4 0.432240 0.653648 0.099750
Si Si5 0.532593 0.724617 0.032699
Si Si6 0.381480 0.559084 0.539331
Si Si7 0.132290 0.609577 0.099532
Si Si8 0.890797 0.855659 0.506559
O O1 0.992623 0.691463 0.659753
O O2 0.108669 0.639235 0.736979
O O3 0.777334 0.038276 0.865345
O O4 0.036595 0.531196 0.039542
O O5 0.718071 0.403580 0.415323
O O6 0.945018 0.190983 0.108397
O O7 0.000000 0.000000 0.500000
O O8 0.807374 0.597494 0.865799
O O9 0.826838 0.811094 0.633272
O O10 0.635270 0.957342 0.985544
O O11 0.506168 0.679574 0.984965
O O12 0.486856 0.483250 0.318236
O O13 0.500000 0.500000 0.000000
O O14 0.533326 0.629548 0.270149
O O15 0.707075 0.551373 0.931276
O O16 0.249894 0.844028 0.528038
O O17 0.998089 0.759275 0.292543
#
# Coordination Sequence:
#
# PCOD9080369 Si02
#       8
#     2   2   2   2   2   2   2   2
#     4  10  22  40  65  89 123 171 211 252 320 368
#     4  10  18  39  62  86 125 157 206 256 309 370
#     4  11  22  43  66  84 127 175 209 253 311 376
#     4  11  23  38  62  94 124 160 210 259 312 376
#     4  11  23  42  63  87 134 164 202 259 323 368
#     4  10  22  40  61  91 124 170 202 258 327 364
#     4  10  25  38  63  99 120 165 217 257 306 373
#     4  11  21  39  64  93 125 160 214 263 304 368
#
# _framework density 20.304953000000001
#
# number of rings (size 3 to 8) (size 9 to 14) (size 15 to 20)
#    0.000    1.500    5.000    1.500    0.000    6.000 
#    2.250    0.625    0.000    0.000    0.000    0.000 
#    0.000    0.000    0.000    0.000    0.000    0.000 
#
# Total GULP energy -89187.139648 kJ/mol
# GULP energy per Si atom -5574.196228 kJ/mol
# Density = 2.025874 g / cm^3
# Si number density = 20.304953 Si / 1000 Ang^3
#
#
#
# Elastic Constant Matrix: (Units=GPa)
#
#
# Indices 1 2 3 4 5 6 
#
# 1 148.8982 28.6395 34.3735 14.9790 -0.3365 2.1385
# 2 28.6395 53.8026 35.9269 -6.8889 10.1731 5.7507
# 3 34.3735 35.9269 97.8476 10.9039 -6.0095 10.1434
# 4 14.9790 -6.8889 10.9039 30.3563 2.9170 3.4703
# 5 -0.3365 10.1731 -6.0095 2.9170 30.6051 4.8061
# 6 2.1385 5.7507 10.1434 3.4703 4.8061 25.9512
#
#
#
# Elastic Compliance Matrix: (Units=1/GPa)
#
#
# Indices 1 2 3 4 5 6 
#
# 1 0.008403 -0.005578 -0.000233 -0.005659 0.002288 0.000968
# 2 -0.005578 0.036805 -0.014444 0.018050 -0.016634 -0.001384
# 3 -0.000233 -0.014444 0.017767 -0.010014 0.009904 -0.004220
# 4 -0.005659 0.018050 -0.010014 0.044953 -0.011771 -0.003451
# 5 0.002288 -0.016634 0.009904 -0.011771 0.042338 -0.006640
# 6 0.000968 -0.001384 -0.004220 -0.003451 -0.006640 0.042101
#
#
# Mechanical properties :
#
#
# Convention : Reuss Voigt Hill
#
# Bulk Modulus (GPa) = 44.51355 55.38091 49.94723
# Shear Modulus (GPa) = 20.80159 30.82309 25.81234
#
# Velocity S-wave (km/s) = 3.20419 3.90039 3.56930
# Velocity P-wave (km/s) = 5.97153 6.90057 6.45279
#
# Compressibility (1/GPa) = 0.02246507
#
# Stress axis : x y z
#
# Youngs Moduli (GPa) = 119.00065 27.17024 56.28473
#
# Poissons Ratio (x) = 0.15156 0.01311
# Poissons Ratio (y) = 0.66382 0.81296
# Poissons Ratio (z) = 0.02772 0.39244
#
# Static dielectric constant tensor:
#      x y z
#    x 1.770190 -0.006720 -0.029920 
#    y -0.006720 1.740870 -0.052570 
#    z -0.029920 -0.052570 1.756250 
# 
# From -- ./inp_files/354306.got.cif
#   From: 2010.05.17/outbox.cif.g08.bks.cpg/sg2_178_cif.got.tgz:354306.got - 2010.06.03 11:33:40.
