data_PCOD9080819
_publ_section_title
;
Structure prediction by ZEFSAII (Michael W. Deem and Ramdas Pophale) SiO2 
 PCOD9080819
Probable space group: P -1
;
_chemical_formula_sum "Si O2"
_cell_formula_units_Z 16
_cell_length_a 11.496958
_cell_length_b 19.408367
_cell_length_c 7.464985
_cell_angle_alpha 88.342859
_cell_angle_beta 68.028072
_cell_angle_gamma 141.077757
_cell_volume 811.008680
_symmetry_space_group_name_H-M "P -1"
_symmetry_group_IT_number 2
_symmetry_cell_setting 'triclinic'
loop_
_space_group_symop_operation_xyz
x,y,z
-x,-y,-z
loop_
_atom_site_type_symbol
_atom_site_label
_atom_site_fract_x
_atom_site_fract_y
_atom_site_fract_z
Si Si1 0.260229 0.649196 0.799433
Si Si2 0.718957 0.747762 0.175211
Si Si3 0.461637 0.894117 0.730476
Si Si4 0.052203 0.053178 0.241272
Si Si5 0.401142 0.094612 0.983614
Si Si6 0.294515 0.210174 0.428234
Si Si7 0.282380 0.635187 0.369134
Si Si8 0.813231 0.096574 0.200125
O O1 0.323055 0.756902 0.800169
O O2 0.436891 0.678542 0.794417
O O3 0.303788 0.661203 0.563669
O O4 0.000000 0.500000 0.000000
O O5 0.715484 0.745700 0.394704
O O6 0.457309 0.648380 0.255140
O O7 0.877978 0.884932 0.994498
O O8 0.897187 0.771377 0.998154
O O9 0.285662 0.873509 0.779171
O O10 0.695215 0.014094 0.459910
O O11 0.531144 0.926013 0.896656
O O12 0.145072 0.147609 0.336645
O O13 0.193693 0.047460 0.180031
O O14 0.787825 0.903170 0.437021
O O15 0.604312 0.245816 0.806281
O O16 0.304945 0.007741 0.875810
O O17 0.000000 0.500000 0.500000
#
# Coordination Sequence:
#
# PCOD9080819 Si02
#       8
#     2   2   2   2   2   2   2   2
#     4  11  21  36  60  83 114 149 192 240 287 335
#     4  10  21  33  55  81 116 148 186 235 292 335
#     4  11  23  39  57  86 122 154 192 230 285 348
#     4  10  19  28  55  83 115 138 179 242 293 330
#     4  11  20  36  59  84 119 152 189 238 287 342
#     4  10  19  32  50  84 111 140 179 240 285 332
#     4  10  22  37  57  87 116 147 194 246 288 337
#     4  11  23  38  57  88 120 156 188 231 287 354
#
# _framework density 19.728518000000001
#
# number of rings (size 3 to 8) (size 9 to 14) (size 15 to 20)
#    0.000    1.500    3.750    2.250    5.250    0.000 
#    0.000    0.000    0.000    7.500    0.000    0.000 
#    0.000    0.000    0.000    0.000    0.000    0.000 
#
# Total GULP energy -89085.929284 kJ/mol
# GULP energy per Si atom -5567.870580 kJ/mol
# Density = 1.968361 g / cm^3
# Si number density = 19.728518 Si / 1000 Ang^3
#
#
#
# Elastic Constant Matrix: (Units=GPa)
#
#
# Indices 1 2 3 4 5 6 
#
# 1 91.1078 15.1769 39.0544 0.4639 -13.1201 9.9325
# 2 15.1769 50.7736 27.4259 -3.9011 -10.5071 16.9581
# 3 39.0544 27.4259 100.4810 -5.2499 -14.2439 7.8813
# 4 0.4639 -3.9011 -5.2499 29.1670 10.8544 -3.9073
# 5 -13.1201 -10.5071 -14.2439 10.8544 36.2190 -1.5643
# 6 9.9325 16.9581 7.8813 -3.9073 -1.5643 26.4538
#
#
#
# Elastic Compliance Matrix: (Units=1/GPa)
#
#
# Indices 1 2 3 4 5 6 
#
# 1 0.014047 0.000469 -0.004832 -0.003130 0.004074 -0.004357
# 2 0.000469 0.029831 -0.006181 -0.001750 0.006168 -0.017351
# 3 -0.004832 -0.006181 0.013644 0.001423 0.001483 0.002009
# 4 -0.003130 -0.001750 0.001423 0.040056 -0.012782 0.007033
# 5 0.004074 0.006168 0.001483 -0.012782 0.035041 -0.005741
# 6 -0.004357 -0.017351 0.002009 0.007033 -0.005741 0.050661
#
#
# Mechanical properties :
#
#
# Convention : Reuss Voigt Hill
#
# Bulk Modulus (GPa) = 27.44653 45.07523 36.26088
# Shear Modulus (GPa) = 23.09341 29.08164 26.08752
#
# Velocity S-wave (km/s) = 3.42506 3.84355 3.64032
# Velocity P-wave (km/s) = 5.43909 6.52645 6.00742
#
# Compressibility (1/GPa) = 0.03643448
#
# Stress axis : x y z
#
# Youngs Moduli (GPa) = 71.19103 33.52234 73.29179
#
# Poissons Ratio (x) = -0.01572 0.35414
# Poissons Ratio (y) = -0.03338 0.45298
# Poissons Ratio (z) = 0.34399 0.20719
#
# Static dielectric constant tensor:
#      x y z
#    x 1.757390 0.032920 -0.058590 
#    y 0.032920 1.716620 0.008720 
#    z -0.058590 0.008720 1.790270 
# 
# From -- ./inp_files/281017.got.cif
#   From: 2010.05.17/outbox.cif.g08.bks.cpg/sg2_141_cif.got.tgz:281017.got - 2010.06.03 11:33:40.
