data_PCOD9080475
_publ_section_title
;
Structure prediction by ZEFSAII (Michael W. Deem and Ramdas Pophale) SiO2 
 PCOD9080475
Probable space group: P -1
;
_chemical_formula_sum "Si O2"
_cell_formula_units_Z 16
_cell_length_a 11.677092
_cell_length_b 15.338680
_cell_length_c 8.349370
_cell_angle_alpha 38.258617
_cell_angle_beta 130.555190
_cell_angle_gamma 135.497614
_cell_volume 634.923918
_symmetry_space_group_name_H-M "P -1"
_symmetry_group_IT_number 2
_symmetry_cell_setting 'triclinic'
loop_
_space_group_symop_operation_xyz
x,y,z
-x,-y,-z
loop_
_atom_site_type_symbol
_atom_site_label
_atom_site_fract_x
_atom_site_fract_y
_atom_site_fract_z
Si Si1 0.028383 0.842522 0.721435
Si Si2 0.775084 0.250887 0.217419
Si Si3 0.691090 0.695566 0.787425
Si Si4 0.554098 0.754035 0.089924
Si Si5 0.989735 0.398604 0.480741
Si Si6 0.239242 0.899094 0.129137
Si Si7 0.648447 0.525862 0.340590
Si Si8 0.569447 0.896049 0.558201
O O1 0.852941 0.714331 0.812707
O O2 0.081825 0.778263 0.704625
O O3 0.000000 0.000000 0.500000
O O4 0.178645 0.862189 0.947757
O O5 0.628274 0.282729 0.951865
O O6 0.861248 0.377390 0.251253
O O7 0.663576 0.075012 0.437460
O O8 0.527381 0.620507 0.636333
O O9 0.692616 0.858033 0.612204
O O10 0.676425 0.602857 0.073744
O O11 0.532487 0.786237 0.835577
O O12 0.695291 0.916686 0.047654
O O13 0.620552 0.624900 0.315819
O O14 0.174934 0.474895 0.470299
O O15 0.000000 0.500000 0.500000
O O16 0.917344 0.217965 0.738185
O O17 0.398780 0.865610 0.358010
#
# Coordination Sequence:
#
# PCOD9080475 Si02
#       8
#     2   2   2   2   2   2   2   2
#     4  12  26  43  65  99 139 179 217 270 332 403
#     4  11  23  41  64  96 134 167 215 281 327 388
#     4  10  21  41  63  94 136 168 220 272 330 389
#     4  10  21  38  68 102 130 165 222 280 329 386
#     4  12  24  41  69 101 128 170 232 277 330 390
#     4  11  22  40  67  97 132 172 225 268 331 391
#     4  10  23  38  68  96 125 175 224 274 329 378
#     4  10  18  39  67  98 129 167 215 287 320 385
#
# _framework density 25.199867999999999
#
# number of rings (size 3 to 8) (size 9 to 14) (size 15 to 20)
#    0.000    1.250    5.000    1.500    5.250    2.500 
#    0.000    3.125    0.000    0.000    0.000    0.000 
#    0.000    0.000    0.000    0.000    0.000    0.000 
#
# Total GULP energy -89418.750000 kJ/mol
# GULP energy per Si atom -5588.671875 kJ/mol
# Density = 2.514251 g / cm^3
# Si number density = 25.199868 Si / 1000 Ang^3
#
#
#
# Elastic Constant Matrix: (Units=GPa)
#
#
# Indices 1 2 3 4 5 6 
#
# 1 172.3078 52.6077 10.1567 -10.6331 15.4768 9.0303
# 2 52.6077 149.7942 18.7137 20.4550 12.3065 6.0818
# 3 10.1567 18.7137 23.4498 11.5469 -2.6875 9.6293
# 4 -10.6331 20.4550 11.5469 35.0127 2.9892 9.5508
# 5 15.4768 12.3065 -2.6875 2.9892 27.2823 -2.5415
# 6 9.0303 6.0818 9.6293 9.5508 -2.5415 33.5965
#
#
#
# Elastic Compliance Matrix: (Units=1/GPa)
#
#
# Indices 1 2 3 4 5 6 
#
# 1 0.007757 -0.002627 -0.003767 0.006240 -0.004517 -0.002645
# 2 -0.002627 0.008946 -0.004577 -0.004744 -0.002330 0.001571
# 3 -0.003767 -0.004577 0.061774 -0.017023 0.011204 -0.010177
# 4 0.006240 -0.004744 -0.017023 0.041878 -0.008456 -0.008484
# 5 -0.004517 -0.002330 0.011204 -0.008456 0.042675 0.004056
# 6 -0.002645 0.001571 -0.010177 -0.008484 0.004056 0.035827
#
#
# Mechanical properties :
#
#
# Convention : Reuss Voigt Hill
#
# Bulk Modulus (GPa) = 17.68847 56.50088 37.09467
# Shear Modulus (GPa) = 20.86410 36.78321 28.82365
#
# Velocity S-wave (km/s) = 2.88052 3.82469 3.38568
# Velocity P-wave (km/s) = 4.25414 6.47875 5.48051
#
# Compressibility (1/GPa) = 0.05653401
#
# Stress axis : x y z
#
# Youngs Moduli (GPa) = 128.91213 111.78396 16.18792
#
# Poissons Ratio (x) = 0.29370 0.06099
# Poissons Ratio (y) = 0.33870 0.07409
# Poissons Ratio (z) = 0.48566 0.51164
#
# Static dielectric constant tensor:
#      x y z
#    x 2.016860 -0.012110 -0.026720 
#    y -0.012110 1.973320 -0.057980 
#    z -0.026720 -0.057980 2.098430 
# 
# From -- ./inp_files/271942.got.cif
#   From: 2010.05.17/outbox.cif.g08.bks.cpg/sg2_136_cif.got.tgz:271942.got - 2010.06.03 11:33:40.
