data_PCOD9080140
_publ_section_title
;
Structure prediction by ZEFSAII (Michael W. Deem and Ramdas Pophale) SiO2 
 PCOD9080140
Probable space group: P -1
;
_chemical_formula_sum "Si O2"
_cell_formula_units_Z 16
_cell_length_a 12.477025
_cell_length_b 20.194116
_cell_length_c 17.141755
_cell_angle_alpha 151.370340
_cell_angle_beta 140.158400
_cell_angle_gamma 22.264469
_cell_volume 760.189948
_symmetry_space_group_name_H-M "P -1"
_symmetry_group_IT_number 2
_symmetry_cell_setting 'triclinic'
loop_
_space_group_symop_operation_xyz
x,y,z
-x,-y,-z
loop_
_atom_site_type_symbol
_atom_site_label
_atom_site_fract_x
_atom_site_fract_y
_atom_site_fract_z
Si Si1 0.841524 0.558102 0.549837
Si Si2 0.283061 0.806366 0.189613
Si Si3 0.420005 0.392724 0.327290
Si Si4 0.164026 0.200746 0.504896
Si Si5 0.755419 0.334461 0.212578
Si Si6 0.730975 0.397706 0.904791
Si Si7 0.601546 0.030793 0.159081
Si Si8 0.174221 0.964889 0.945114
O O1 0.658247 0.547132 0.410473
O O2 0.632294 0.809607 0.736261
O O3 0.000000 0.500000 0.500000
O O4 0.064445 0.342846 0.516263
O O5 0.288651 0.743906 0.215173
O O6 0.151993 0.043428 0.344110
O O7 0.593290 0.583613 0.089685
O O8 0.064940 0.854951 0.070077
O O9 0.500000 0.500000 0.500000
O O10 0.578168 0.200134 0.284747
O O11 0.528861 0.252721 0.162137
O O12 0.079260 0.590965 0.353146
O O13 0.500000 0.000000 0.500000
O O14 0.496010 0.443909 0.129518
O O15 0.840264 0.172391 0.160610
O O16 0.049675 0.149782 0.133483
O O17 0.061575 0.216723 0.885395
O O18 0.500000 0.000000 0.000000
#
# Coordination Sequence:
#
# PCOD9080140 Si02
#       8
#     2   2   2   2   2   2   2   2
#     4  11  26  44  62  90 133 177 207 261 341 391
#     4  10  19  37  63  92 124 159 222 262 312 375
#     4  11  20  40  68  91 120 169 228 266 307 377
#     4  11  24  40  63  93 127 167 217 272 317 383
#     4  10  22  38  63  93 130 163 210 265 324 388
#     4  10  22  36  64  98 123 165 212 271 314 388
#     4  11  25  42  65  96 131 169 216 272 327 388
#     4  10  18  38  64  91 118 165 212 268 315 373
#
# _framework density 21.047370999999998
#
# number of rings (size 3 to 8) (size 9 to 14) (size 15 to 20)
#    0.000    1.500    3.750    0.750    7.000    0.500 
#    2.250    0.000    0.000    2.250    0.000    0.000 
#    0.000    0.000    0.000    0.000    0.000    0.000 
#
# Total GULP energy -89134.320181 kJ/mol
# GULP energy per Si atom -5570.895011 kJ/mol
# Density = 2.099947 g / cm^3
# Si number density = 21.047371 Si / 1000 Ang^3
#
#
#
# Elastic Constant Matrix: (Units=GPa)
#
#
# Indices 1 2 3 4 5 6 
#
# 1 94.5780 24.6039 30.8952 20.1886 -25.5185 -2.5231
# 2 24.6039 97.9529 31.4465 29.0071 -20.5924 -9.6824
# 3 30.8952 31.4465 90.5484 20.7235 -25.5377 -11.3193
# 4 20.1886 29.0071 20.7235 32.3103 -8.3592 -5.7343
# 5 -25.5185 -20.5924 -25.5377 -8.3592 39.4309 13.5055
# 6 -2.5231 -9.6824 -11.3193 -5.7343 13.5055 28.6252
#
#
#
# Elastic Compliance Matrix: (Units=1/GPa)
#
#
# Indices 1 2 3 4 5 6 
#
# 1 0.014784 0.000262 -0.001656 -0.006988 0.008799 -0.004815
# 2 0.000262 0.014972 -0.001326 -0.011538 0.004666 0.000050
# 3 -0.001656 -0.001326 0.015385 -0.005725 0.006559 0.001248
# 4 -0.006988 -0.011538 -0.005725 0.048851 -0.005878 0.005777
# 5 0.008799 0.004666 0.006559 -0.005878 0.041988 -0.016040
# 6 -0.004815 0.000050 0.001248 0.005777 -0.016040 0.043745
#
#
# Mechanical properties :
#
#
# Convention : Reuss Voigt Hill
#
# Bulk Modulus (GPa) = 25.18869 50.77450 37.98160
# Shear Modulus (GPa) = 25.20181 33.14887 29.17534
#
# Velocity S-wave (km/s) = 3.46408 3.97289 3.72718
# Velocity P-wave (km/s) = 5.29088 6.72469 6.05040
#
# Compressibility (1/GPa) = 0.03970036
#
# Stress axis : x y z
#
# Youngs Moduli (GPa) = 67.64296 66.79303 64.99676
#
# Poissons Ratio (x) = -0.01747 0.10763
# Poissons Ratio (y) = -0.01769 0.08617
# Poissons Ratio (z) = 0.11201 0.08855
#
# Static dielectric constant tensor:
#      x y z
#    x 1.829260 -0.055930 -0.006240 
#    y -0.055930 1.768800 0.016540 
#    z -0.006240 0.016540 1.854700 
# 
# From -- ./inp_files/570754.got.cif
#   From: 2010.05.17/outbox.cif.g08.bks.cpg/sg2_286_cif.got.tgz:570754.got - 2010.06.03 11:33:40.
