data_PCOD9080473
_publ_section_title
;
Structure prediction by ZEFSAII (Michael W. Deem and Ramdas Pophale) SiO2 
 PCOD9080473
Probable space group: P -1
;
_chemical_formula_sum "Si O2"
_cell_formula_units_Z 14
_cell_length_a 23.066396
_cell_length_b 9.324169
_cell_length_c 9.688274
_cell_angle_alpha 119.900091
_cell_angle_beta 152.708923
_cell_angle_gamma 46.957884
_cell_volume 660.948268
_symmetry_space_group_name_H-M "P -1"
_symmetry_group_IT_number 2
_symmetry_cell_setting 'triclinic'
loop_
_space_group_symop_operation_xyz
x,y,z
-x,-y,-z
loop_
_atom_site_type_symbol
_atom_site_label
_atom_site_fract_x
_atom_site_fract_y
_atom_site_fract_z
Si Si1 0.644973 0.322013 0.998214
Si Si2 0.122622 0.855490 0.811898
Si Si3 0.710700 0.509817 0.614311
Si Si4 0.168010 0.454997 0.824781
Si Si5 0.642356 0.698781 0.269281
Si Si6 0.123122 0.925873 0.383083
Si Si7 0.283713 0.104099 0.697780
O O1 0.463675 0.422708 0.688335
O O2 0.710609 0.219383 0.937156
O O3 0.670043 0.498299 0.161259
O O4 0.750732 0.156380 0.262919
O O5 0.142354 0.645070 0.778861
O O6 0.000000 0.000000 0.500000
O O7 0.043545 0.976443 0.845967
O O8 0.694346 0.639729 0.508958
O O9 0.819379 0.270698 0.682461
O O10 0.772498 0.549708 0.899681
O O11 0.281593 0.240477 0.881095
O O12 0.000000 0.500000 0.500000
O O13 0.731089 0.775443 0.413916
O O14 0.454348 0.881507 0.949317
O O15 0.147428 0.077048 0.424473
#
# Coordination Sequence:
#
# PCOD9080473 Si02
#       7
#     2   2   2   2   2   2   2
#     4  10  18  39  67  97 126 168 211 259 316 384
#     4  10  22  40  66  91 129 170 210 256 327 377
#     4  11  23  41  67  96 128 168 220 260 312 382
#     4  12  26  43  63  90 133 172 211 269 326 374
#     4  10  20  38  67  98 129 168 207 267 317 381
#     4  10  19  39  69  94 123 172 210 263 313 386
#     4  11  20  38  67  94 135 165 207 261 328 373
#
# _framework density 21.181685999999999
#
# number of rings (size 3 to 8) (size 9 to 14) (size 15 to 20)
#    0.000    1.429    5.714    0.857    0.000    1.714 
#    0.000    2.143    0.000    0.000    0.000    0.000 
#    0.000    0.000    0.000    0.000    0.000    0.000 
#
# Total GULP energy -78212.826138 kJ/mol
# GULP energy per Si atom -5586.630438 kJ/mol
# Density = 2.113348 g / cm^3
# Si number density = 21.181686 Si / 1000 Ang^3
#
#
#
# Elastic Constant Matrix: (Units=GPa)
#
#
# Indices 1 2 3 4 5 6 
#
# 1 197.3546 64.7054 55.9851 1.6710 0.8991 1.6883
# 2 64.7054 64.8586 17.9023 -8.6884 -1.9032 1.5991
# 3 55.9851 17.9023 59.5740 -0.2888 -13.5266 5.2409
# 4 1.6710 -8.6884 -0.2888 8.9758 -4.1431 4.4733
# 5 0.8991 -1.9032 -13.5266 -4.1431 24.1027 -11.8756
# 6 1.6883 1.5991 5.2409 4.4733 -11.8756 46.8778
#
#
#
# Elastic Compliance Matrix: (Units=1/GPa)
#
#
# Indices 1 2 3 4 5 6 
#
# 1 0.012205 -0.012258 -0.010260 -0.019421 -0.010343 0.000359
# 2 -0.012258 0.032017 0.004897 0.039796 0.011555 -0.002068
# 3 -0.010260 0.004897 0.029662 0.016849 0.020551 0.000485
# 4 -0.019421 0.039796 0.016849 0.176854 0.039027 -0.009531
# 5 -0.010343 0.011555 0.020551 0.039027 0.066331 0.010760
# 6 0.000359 -0.002068 0.000485 -0.009531 0.010760 0.024971
#
#
# Mechanical properties :
#
#
# Convention : Reuss Voigt Hill
#
# Bulk Modulus (GPa) = 25.87948 66.55255 46.21601
# Shear Modulus (GPa) = 12.81516 28.20421 20.50969
#
# Velocity S-wave (km/s) = 2.46237 3.65298 3.11509
# Velocity P-wave (km/s) = 4.50874 7.02000 5.89954
#
# Compressibility (1/GPa) = 0.03864066
#
# Stress axis : x y z
#
# Youngs Moduli (GPa) = 81.93219 31.23364 33.71341
#
# Poissons Ratio (x) = 0.38287 0.34591
# Poissons Ratio (y) = 1.00435 -0.16510
# Poissons Ratio (z) = 0.84066 -0.15296
#
# Static dielectric constant tensor:
#      x y z
#    x 1.818340 -0.021310 0.006560 
#    y -0.021310 1.767130 -0.032970 
#    z 0.006560 -0.032970 1.713580 
# 
# From -- ./inp_files/150022.got.cif
#   From: 2010.05.17/outbox.cif.g08.bks.cpg/sg2_76_cif.got.tgz:150022.got - 2010.06.03 11:33:40.
