data_PCOD9080557
_publ_section_title
;
Structure prediction by ZEFSAII (Michael W. Deem and Ramdas Pophale) SiO2 
 PCOD9080557
Probable space group: P -1
;
_chemical_formula_sum "Si O2"
_cell_formula_units_Z 12
_cell_length_a 7.973423
_cell_length_b 11.218974
_cell_length_c 8.801743
_cell_angle_alpha 43.403962
_cell_angle_beta 56.535858
_cell_angle_gamma 63.055001
_cell_volume 449.434601
_symmetry_space_group_name_H-M "P -1"
_symmetry_group_IT_number 2
_symmetry_cell_setting 'triclinic'
loop_
_space_group_symop_operation_xyz
x,y,z
-x,-y,-z
loop_
_atom_site_type_symbol
_atom_site_label
_atom_site_fract_x
_atom_site_fract_y
_atom_site_fract_z
Si Si1 0.789529 0.110225 0.541163
Si Si2 0.819479 0.829671 0.017339
Si Si3 0.738837 0.079933 0.251930
Si Si4 0.378138 0.296987 0.286174
Si Si5 0.050955 0.549040 0.725160
Si Si6 0.377499 0.433872 0.476467
O O1 0.690280 0.116587 0.421499
O O2 0.838524 0.299570 0.391510
O O3 0.721583 0.989149 0.820925
O O4 0.000000 0.000000 0.500000
O O5 0.033610 0.878107 0.934081
O O6 0.659544 0.763611 0.274312
O O7 0.887542 0.647135 0.063180
O O8 0.554923 0.213748 0.160609
O O9 0.722119 0.875067 0.441345
O O10 0.186704 0.405097 0.203584
O O11 0.437707 0.418456 0.285225
O O12 0.155891 0.535908 0.517418
O O13 0.500000 0.500000 0.500000
#
# Coordination Sequence:
#
# PCOD9080557 Si02
#       6
#     2   2   2   2   2   2
#     4  10  18  40  62  91 129 157 209 253 308 366
#     4   9  22  39  68  94 118 171 210 251 318 363
#     4  10  22  39  65  96 127 166 200 267 304 377
#     4  11  21  41  63  91 136 158 208 258 317 362
#     4  10  21  39  67  90 127 165 203 263 306 367
#     4  10  23  43  62  92 125 168 211 261 304 375
#
# _framework density 26.700213999999999
#
# number of rings (size 3 to 8) (size 9 to 14) (size 15 to 20)
#    1.000    1.000    3.333    1.500    0.000    4.000 
#    0.000    6.667    0.000    0.000    0.000    0.000 
#    0.000    0.000    0.000    0.000    0.000    0.000 
#
# Total GULP energy -66904.355922 kJ/mol
# GULP energy per Si atom -5575.362993 kJ/mol
# Density = 2.663944 g / cm^3
# Si number density = 26.700214 Si / 1000 Ang^3
#
#
#
# Elastic Constant Matrix: (Units=GPa)
#
#
# Indices 1 2 3 4 5 6 
#
# 1 94.5924 28.0316 14.6892 -14.9745 -7.6114 6.2000
# 2 28.0316 91.8680 13.0918 -25.9263 10.0253 9.6935
# 3 14.6892 13.0918 94.2857 -32.8818 -26.1702 9.8835
# 4 -14.9745 -25.9263 -32.8818 39.8685 -1.3255 -2.7735
# 5 -7.6114 10.0253 -26.1702 -1.3255 30.9695 -12.5090
# 6 6.2000 9.6935 9.8835 -2.7735 -12.5090 52.0839
#
#
#
# Elastic Compliance Matrix: (Units=1/GPa)
#
#
# Indices 1 2 3 4 5 6 
#
# 1 0.012451 -0.003644 0.001413 0.003701 0.005801 0.000518
# 2 -0.003644 0.015477 -0.000635 0.007657 -0.007630 -0.003751
# 3 0.001413 -0.000635 0.023491 0.020354 0.022029 0.001867
# 4 0.003701 0.007657 0.020354 0.048933 0.018233 0.001257
# 5 0.005801 -0.007630 0.022029 0.018233 0.060443 0.012037
# 6 0.000518 -0.003751 0.001867 0.001257 0.012037 0.022440
#
#
# Mechanical properties :
#
#
# Convention : Reuss Voigt Hill
#
# Bulk Modulus (GPa) = 21.88833 43.59683 32.74258
# Shear Modulus (GPa) = 24.48621 39.57995 32.03308
#
# Velocity S-wave (km/s) = 3.03162 3.85435 3.46747
# Velocity P-wave (km/s) = 4.52436 6.01429 5.32173
#
# Compressibility (1/GPa) = 0.04568644
#
# Stress axis : x y z
#
# Youngs Moduli (GPa) = 80.31625 64.61233 42.56860
#
# Poissons Ratio (x) = 0.23543 -0.06014
# Poissons Ratio (y) = 0.29265 0.02705
# Poissons Ratio (z) = -0.11347 0.04106
#
# Static dielectric constant tensor:
#      x y z
#    x 2.338040 -0.059240 0.190360 
#    y -0.059240 2.153040 0.022590 
#    z 0.190360 0.022590 2.341720 
# 
# From -- ./inp_files/383830.got.cif
#   From: 2010.05.17/outbox.cif.g08.bks.cpg/sg2_192_cif.got.tgz:383830.got - 2010.06.03 11:33:40.
