data_PCOD9080921
_publ_section_title
;
Structure prediction by ZEFSAII (Michael W. Deem and Ramdas Pophale) SiO2 
 PCOD9080921
Probable space group: P -1
;
_chemical_formula_sum "Si O2"
_cell_formula_units_Z 14
_cell_length_a 10.606200
_cell_length_b 5.617987
_cell_length_c 11.628768
_cell_angle_alpha 86.925512
_cell_angle_beta 99.901070
_cell_angle_gamma 95.386863
_cell_volume 679.074470
_symmetry_space_group_name_H-M "P -1"
_symmetry_group_IT_number 2
_symmetry_cell_setting 'triclinic'
loop_
_space_group_symop_operation_xyz
x,y,z
-x,-y,-z
loop_
_atom_site_type_symbol
_atom_site_label
_atom_site_fract_x
_atom_site_fract_y
_atom_site_fract_z
Si Si1 0.925372 0.678951 0.407853
Si Si2 0.103693 0.201164 0.057269
Si Si3 0.393214 0.733025 0.591905
Si Si4 0.500450 0.249310 0.652750
Si Si5 0.246285 0.895568 0.224932
Si Si6 0.981045 0.548880 0.175745
Si Si7 0.178563 0.988471 0.455557
O O1 0.000000 0.500000 0.500000
O O2 0.904485 0.569603 0.281201
O O3 0.031860 0.906642 0.403337
O O4 0.816914 0.786578 0.464893
O O5 0.039297 0.303290 0.158322
O O6 0.231931 0.085521 0.116841
O O7 0.105725 0.391060 0.949222
O O8 0.000000 0.000000 0.000000
O O9 0.424717 0.482915 0.659205
O O10 0.463870 0.739291 0.478263
O O11 0.246622 0.775295 0.534056
O O12 0.436708 0.976521 0.662209
O O13 0.631734 0.256239 0.746849
O O14 0.113153 0.724927 0.202569
O O15 0.249976 0.032526 0.344840
#
# Coordination Sequence:
#
# PCOD9080921 Si02
#       7
#     2   2   2   2   2   2   2
#     4  10  19  30  47  70  97 133 164 193 238 293
#     4   9  17  30  47  67  95 124 156 203 252 290
#     4   9  18  31  45  69 102 131 166 198 246 293
#     4   9  18  29  47  71  98 133 162 202 246 297
#     4   9  17  29  48  71  98 127 157 200 246 294
#     4   9  18  30  46  70  99 124 161 200 243 295
#     4   9  19  31  45  70 101 130 161 196 238 295
#
# _framework density 20.616296999999999
#
# number of rings (size 3 to 8) (size 9 to 14) (size 15 to 20)
#    0.000    2.857    0.000    0.857    4.000    1.143 
#    0.000    0.000    0.000    0.000    0.000    2.000 
#    0.000    0.000    0.000    0.000    0.000    0.000 
#
# Total GULP energy -77940.094782 kJ/mol
# GULP energy per Si atom -5567.149627 kJ/mol
# Density = 2.056937 g / cm^3
# Si number density = 20.616297 Si / 1000 Ang^3
#
#
#
# Elastic Constant Matrix: (Units=GPa)
#
#
# Indices 1 2 3 4 5 6 
#
# 1 33.7005 24.4326 19.2420 -0.2431 16.0658 -10.5240
# 2 24.4326 127.2694 44.7116 0.2143 10.3448 -36.0350
# 3 19.2420 44.7116 89.7103 -4.1076 6.9957 -23.6082
# 4 -0.2431 0.2143 -4.1076 35.9583 -14.9567 4.5778
# 5 16.0658 10.3448 6.9957 -14.9567 25.3426 -2.3553
# 6 -10.5240 -36.0350 -23.6082 4.5778 -2.3553 31.5493
#
#
#
# Elastic Compliance Matrix: (Units=1/GPa)
#
#
# Indices 1 2 3 4 5 6 
#
# 1 0.061600 -0.001957 -0.005930 -0.022098 -0.048405 0.013468
# 2 -0.001957 0.013077 -0.002624 -0.003851 -0.004480 0.012545
# 3 -0.005930 -0.002624 0.015313 0.001868 0.002299 0.006384
# 4 -0.022098 -0.003851 0.001868 0.046934 0.041455 -0.014087
# 5 -0.048405 -0.004480 0.002299 0.041455 0.094083 -0.018535
# 6 0.013468 0.012545 0.006384 -0.014087 -0.018535 0.055956
#
#
# Mechanical properties :
#
#
# Convention : Reuss Voigt Hill
#
# Bulk Modulus (GPa) = 14.49934 47.49475 30.99705
# Shear Modulus (GPa) = 15.10691 29.38964 22.24828
#
# Velocity S-wave (km/s) = 2.70990 3.77975 3.28862
# Velocity P-wave (km/s) = 4.10361 6.49124 5.43028
#
# Compressibility (1/GPa) = 0.06896865
#
# Stress axis : x y z
#
# Youngs Moduli (GPa) = 16.23366 76.46731 65.30440
#
# Poissons Ratio (x) = 0.14968 0.38726
# Poissons Ratio (y) = 0.03178 0.17133
# Poissons Ratio (z) = 0.09627 0.20062
#
# Static dielectric constant tensor:
#      x y z
#    x 1.811730 0.015080 0.014150 
#    y 0.015080 1.822530 -0.001580 
#    z 0.014150 -0.001580 1.747520 
# 
# From -- ./inp_files/61892.got.cif
#   From: 2010.05.17/outbox.cif.g08.bks.cpg/sg2_31_cif.got.tgz:61892.got - 2010.06.03 11:33:40.
