data_PCOD9080532
_publ_section_title
;
Structure prediction by ZEFSAII (Michael W. Deem and Ramdas Pophale) SiO2 
 PCOD9080532
Probable space group: P -1
;
_chemical_formula_sum "Si O2"
_cell_formula_units_Z 12
_cell_length_a 9.511646
_cell_length_b 7.478483
_cell_length_c 14.836634
_cell_angle_alpha 125.012975
_cell_angle_beta 149.179316
_cell_angle_gamma 59.360272
_cell_volume 442.503484
_symmetry_space_group_name_H-M "P -1"
_symmetry_group_IT_number 2
_symmetry_cell_setting 'triclinic'
loop_
_space_group_symop_operation_xyz
x,y,z
-x,-y,-z
loop_
_atom_site_type_symbol
_atom_site_label
_atom_site_fract_x
_atom_site_fract_y
_atom_site_fract_z
Si Si1 0.617372 0.768401 0.703007
Si Si2 0.985193 0.122919 0.622874
Si Si3 0.858432 0.378768 0.137967
Si Si4 0.900416 0.284926 0.934505
Si Si5 0.595254 0.584274 0.384853
Si Si6 0.788284 0.247400 0.244176
O O1 0.342646 0.878593 0.545579
O O2 0.512628 0.544812 0.624715
O O3 0.840179 0.740239 0.739571
O O4 0.820156 0.849851 0.919963
O O5 0.084720 0.367803 0.740832
O O6 0.000000 0.000000 0.500000
O O7 0.158482 0.993591 0.756941
O O8 0.764012 0.343860 0.973649
O O9 0.686476 0.282111 0.096160
O O10 0.641242 0.232236 0.715836
O O11 0.000000 0.500000 0.000000
O O12 0.619843 0.390644 0.265931
O O13 0.902058 0.665487 0.570043
#
# Coordination Sequence:
#
# PCOD9080532 Si02
#       6
#     2   2   2   2   2   2
#     4   9  19  38  61  83 115 160 195 236 291 349
#     4  12  21  37  62  92 123 152 194 247 298 349
#     4  10  22  40  61  90 115 159 200 244 288 348
#     4   8  19  37  67  78 115 170 192 232 303 351
#     4  10  18  40  59  86 121 160 192 238 302 350
#     4  11  22  33  64  93 116 151 200 248 290 346
#
# _framework density 27.118428999999999
#
# number of rings (size 3 to 8) (size 9 to 14) (size 15 to 20)
#    1.000    1.000    3.333    1.500    0.000    1.333 
#    0.000    1.667    7.333    0.000    0.000    0.000 
#    0.000    0.000    0.000    0.000    0.000    0.000 
#
# Total GULP energy -66978.376689 kJ/mol
# GULP energy per Si atom -5581.531391 kJ/mol
# Density = 2.705671 g / cm^3
# Si number density = 27.118429 Si / 1000 Ang^3
#
#
#
# Elastic Constant Matrix: (Units=GPa)
#
#
# Indices 1 2 3 4 5 6 
#
# 1 143.1654 37.2312 7.1457 -3.0841 -7.8674 19.7990
# 2 37.2312 116.6740 18.7225 -16.6456 3.1606 32.4197
# 3 7.1457 18.7225 80.3847 -24.0598 28.3197 7.8364
# 4 -3.0841 -16.6456 -24.0598 31.0302 2.4927 6.6932
# 5 -7.8674 3.1606 28.3197 2.4927 45.1647 -12.5856
# 6 19.7990 32.4197 7.8364 6.6932 -12.5856 43.1878
#
#
#
# Elastic Compliance Matrix: (Units=1/GPa)
#
#
# Indices 1 2 3 4 5 6 
#
# 1 0.007859 -0.002420 -0.001401 -0.001664 0.002344 -0.000591
# 2 -0.002420 0.017877 0.011579 0.024656 -0.016733 -0.023109
# 3 -0.001401 0.011579 0.042254 0.049619 -0.040063 -0.035081
# 4 -0.001664 0.024656 0.049619 0.100768 -0.054958 -0.058381
# 5 0.002344 -0.016733 -0.040063 -0.054958 0.064731 0.046137
# 6 -0.000591 -0.023109 -0.035081 -0.058381 0.046137 0.069631
#
#
# Mechanical properties :
#
#
# Convention : Reuss Voigt Hill
#
# Bulk Modulus (GPa) = 11.97522 51.82477 31.89999
# Shear Modulus (GPa) = 15.85096 42.35153 29.10125
#
# Velocity S-wave (km/s) = 2.42028 3.95615 3.27940
# Velocity P-wave (km/s) = 3.49798 6.32615 5.11156
#
# Compressibility (1/GPa) = 0.08350577
#
# Stress axis : x y z
#
# Youngs Moduli (GPa) = 127.24551 55.93784 23.66665
#
# Poissons Ratio (x) = 0.13534 0.03316
# Poissons Ratio (y) = 0.30787 -0.27404
# Poissons Ratio (z) = 0.17831 -0.64771
#
# Static dielectric constant tensor:
#      x y z
#    x 2.071440 -0.046160 -0.087090 
#    y -0.046160 2.137870 -0.011270 
#    z -0.087090 -0.011270 2.301770 
# 
# From -- ./inp_files/388640.got.cif
#   From: 2010.05.17/outbox.cif.g08.bks.cpg/sg2_195_cif.got.tgz:388640.got - 2010.06.03 11:33:40.
