data_PCOD9080283
_publ_section_title
;
Structure prediction by ZEFSAII (Michael W. Deem and Ramdas Pophale) SiO2 
 PCOD9080283
Probable space group: P -1
;
_chemical_formula_sum "Si O2"
_cell_formula_units_Z 14
_cell_length_a 8.170412
_cell_length_b 9.240979
_cell_length_c 13.529853
_cell_angle_alpha 42.492794
_cell_angle_beta 54.021559
_cell_angle_gamma 63.550610
_cell_volume 558.272857
_symmetry_space_group_name_H-M "P -1"
_symmetry_group_IT_number 2
_symmetry_cell_setting 'triclinic'
loop_
_space_group_symop_operation_xyz
x,y,z
-x,-y,-z
loop_
_atom_site_type_symbol
_atom_site_label
_atom_site_fract_x
_atom_site_fract_y
_atom_site_fract_z
Si Si1 0.764428 0.934088 0.386943
Si Si2 0.499092 0.197104 0.034282
Si Si3 0.774202 0.435417 0.142070
Si Si4 0.773989 0.169644 0.781786
Si Si5 0.705451 0.890556 0.661030
Si Si6 0.109692 0.644771 0.644557
Si Si7 0.670721 0.559238 0.487726
O O1 0.701439 0.880456 0.548600
O O2 0.640201 0.792339 0.426565
O O3 0.995831 0.866197 0.314813
O O4 0.749387 0.186591 0.253949
O O5 0.479318 0.164973 0.174269
O O6 0.355029 0.016978 0.128943
O O7 0.393951 0.418736 0.924642
O O8 0.715169 0.167716 0.919330
O O9 0.776162 0.452178 0.252191
O O10 0.000000 0.500000 0.000000
O O11 0.694024 0.392937 0.652088
O O12 0.882777 0.718122 0.714829
O O13 0.789779 0.128281 0.534797
O O14 0.128160 0.482086 0.629069
O O15 0.500000 0.500000 0.500000
#
# Coordination Sequence:
#
# PCOD9080283 Si02
#       7
#     2   2   2   2   2   2   2
#     4  11  24  44  77 103 137 185 253 277 346 429
#     4  11  21  39  73 104 152 180 228 285 374 404
#     4  11  20  39  70 108 145 187 223 293 354 425
#     4  11  22  40  72 111 137 187 229 299 344 425
#     4  10  18  38  69 103 126 186 230 286 332 432
#     4  10  19  36  68  97 136 179 235 272 352 406
#     4  12  25  45  71 101 140 188 237 301 346 413
#
# _framework density 25.077342000000002
#
# number of rings (size 3 to 8) (size 9 to 14) (size 15 to 20)
#    0.000    1.143    5.714    2.143    0.000    0.000 
#    0.000    7.857    9.429    0.000    0.000    0.000 
#    0.000    0.000    0.000    0.000    0.000    0.000 
#
# Total GULP energy -78486.899350 kJ/mol
# GULP energy per Si atom -5606.207096 kJ/mol
# Density = 2.502027 g / cm^3
# Si number density = 25.077342 Si / 1000 Ang^3
#
#
#
# Elastic Constant Matrix: (Units=GPa)
#
#
# Indices 1 2 3 4 5 6 
#
# 1 70.5903 27.6057 46.2158 12.5788 -6.6085 0.5973
# 2 27.6057 153.1109 85.9326 18.3793 6.0227 15.8008
# 3 46.2158 85.9326 172.9361 34.7254 12.2193 -0.8585
# 4 12.5788 18.3793 34.7254 57.9216 -9.2574 -0.8201
# 5 -6.6085 6.0227 12.2193 -9.2574 35.0087 3.6514
# 6 0.5973 15.8008 -0.8585 -0.8201 3.6514 42.6404
#
#
#
# Elastic Compliance Matrix: (Units=1/GPa)
#
#
# Indices 1 2 3 4 5 6 
#
# 1 0.018132 -0.000679 -0.004899 0.000057 0.005322 -0.000556
# 2 -0.000679 0.009626 -0.004595 -0.000180 0.000155 -0.003667
# 3 -0.004899 -0.004595 0.010715 -0.004727 -0.005370 0.002356
# 4 0.000057 -0.000180 -0.004727 0.021315 0.007354 -0.000249
# 5 0.005322 0.000155 -0.005370 0.007354 0.033672 -0.002982
# 6 -0.000556 -0.003667 0.002356 -0.000249 -0.002982 0.025116
#
#
# Mechanical properties :
#
#
# Convention : Reuss Voigt Hill
#
# Bulk Modulus (GPa) = 55.16205 79.57173 67.36689
# Shear Modulus (GPa) = 34.49116 42.90637 38.69876
#
# Velocity S-wave (km/s) = 3.71265 4.14086 3.93259
# Velocity P-wave (km/s) = 6.35790 7.39336 6.89509
#
# Compressibility (1/GPa) = 0.01812840
#
# Stress axis : x y z
#
# Youngs Moduli (GPa) = 55.15244 103.88047 93.32492
#
# Poissons Ratio (x) = 0.07050 0.45716
# Poissons Ratio (y) = 0.03743 0.42884
# Poissons Ratio (z) = 0.27017 0.47735
#
# Static dielectric constant tensor:
#      x y z
#    x 2.026330 -0.037450 -0.039060 
#    y -0.037450 1.976610 0.046520 
#    z -0.039060 0.046520 1.972020 
# 
# From -- ./inp_files/380945.got.cif
#   From: 2010.05.17/outbox.cif.g08.bks.cpg/sg2_191_cif.got.tgz:380945.got - 2010.06.03 11:33:40.
