data_PCOD9080095
_publ_section_title
;
Structure prediction by ZEFSAII (Michael W. Deem and Ramdas Pophale) SiO2 
 PCOD9080095
Probable space group: P -1
;
_chemical_formula_sum "Si O2"
_cell_formula_units_Z 16
_cell_length_a 19.197809
_cell_length_b 9.191576
_cell_length_c 6.200986
_cell_angle_alpha 50.518521
_cell_angle_beta 84.212878
_cell_angle_gamma 63.108884
_cell_volume 724.976288
_symmetry_space_group_name_H-M "P -1"
_symmetry_group_IT_number 2
_symmetry_cell_setting 'triclinic'
loop_
_space_group_symop_operation_xyz
x,y,z
-x,-y,-z
loop_
_atom_site_type_symbol
_atom_site_label
_atom_site_fract_x
_atom_site_fract_y
_atom_site_fract_z
Si Si1 0.793704 0.955298 0.049614
Si Si2 0.331686 0.997675 0.653483
Si Si3 0.534714 0.088603 0.591237
Si Si4 0.208070 0.646968 0.504353
Si Si5 0.383231 0.251554 0.730360
Si Si6 0.193505 0.331460 0.064716
Si Si7 0.063757 0.353662 0.375392
Si Si8 0.954002 0.255058 0.726819
O O1 0.804181 0.114189 0.734489
O O2 0.781828 0.789391 0.059458
O O3 0.716286 0.088246 0.105784
O O4 0.870542 0.814532 0.312201
O O5 0.404633 0.849569 0.606477
O O6 0.364641 0.107060 0.707374
O O7 0.262150 0.189896 0.349587
O O8 0.458153 0.264350 0.588408
O O9 0.500000 0.000000 0.500000
O O10 0.586014 0.887534 0.928221
O O11 0.301075 0.476984 0.580269
O O12 0.141142 0.655540 0.352123
O O13 0.187885 0.562901 0.810300
O O14 0.113075 0.332790 0.165565
O O15 0.034264 0.596854 0.241229
O O16 0.992309 0.298779 0.459099
O O17 0.000000 0.000000 0.000000
#
# Coordination Sequence:
#
# PCOD9080095 Si02
#       8
#     2   2   2   2   2   2   2   2
#     4  11  22  39  61  90 127 166 209 257 311 371
#     4  10  18  38  63  89 126 168 204 253 313 368
#     4   9  18  33  65  98 123 163 208 252 313 374
#     4  12  22  39  63  91 125 166 208 262 314 367
#     4  10  19  37  63  94 127 162 209 257 311 373
#     4  11  22  41  61  91 123 166 212 255 306 374
#     4  10  23  42  65  86 124 171 205 258 321 366
#     4  11  22  42  66  91 126 163 212 264 313 367
#
# _framework density 22.069686999999998
#
# number of rings (size 3 to 8) (size 9 to 14) (size 15 to 20)
#    0.000    1.500    5.000    0.750    0.000    1.500 
#    4.500    1.875    0.000   10.500    0.000    0.000 
#    0.000    0.000    0.000    0.000    0.000    0.000 
#
# Total GULP energy -89301.698298 kJ/mol
# GULP energy per Si atom -5581.356144 kJ/mol
# Density = 2.201946 g / cm^3
# Si number density = 22.069687 Si / 1000 Ang^3
#
#
#
# Elastic Constant Matrix: (Units=GPa)
#
#
# Indices 1 2 3 4 5 6 
#
# 1 84.1796 33.7006 38.6570 -2.8755 -4.8293 -29.2922
# 2 33.7006 51.6154 31.1332 -2.3224 -7.1454 -30.3476
# 3 38.6570 31.1332 111.7073 -4.4489 -2.3409 -3.5728
# 4 -2.8755 -2.3224 -4.4489 34.8283 -1.0177 -6.9421
# 5 -4.8293 -7.1454 -2.3409 -1.0177 49.7922 11.5135
# 6 -29.2922 -30.3476 -3.5728 -6.9421 11.5135 40.3232
#
#
#
# Elastic Compliance Matrix: (Units=1/GPa)
#
#
# Indices 1 2 3 4 5 6 
#
# 1 0.020153 -0.001085 -0.006103 0.003632 -0.001745 0.014406
# 2 -0.001085 0.049434 -0.011882 0.009107 -0.002059 0.037520
# 3 -0.006103 -0.011882 0.013910 -0.002046 0.001290 -0.012864
# 4 0.003632 0.009107 -0.002046 0.032361 -0.001303 0.015255
# 5 -0.001745 -0.002059 0.001290 -0.001303 0.021767 -0.009143
# 6 0.014406 0.037520 -0.012864 0.015255 -0.009143 0.067599
#
#
# Mechanical properties :
#
#
# Convention : Reuss Voigt Hill
#
# Bulk Modulus (GPa) = 22.04761 50.49821 36.27291
# Shear Modulus (GPa) = 19.34354 34.58951 26.96652
#
# Velocity S-wave (km/s) = 2.96374 3.96319 3.49933
# Velocity P-wave (km/s) = 4.66084 6.62370 5.72699
#
# Compressibility (1/GPa) = 0.04535640
#
# Stress axis : x y z
#
# Youngs Moduli (GPa) = 49.61955 20.22880 71.89235
#
# Poissons Ratio (x) = 0.02195 0.43875
# Poissons Ratio (y) = 0.05385 0.85426
# Poissons Ratio (z) = 0.30282 0.24037
#
# Static dielectric constant tensor:
#      x y z
#    x 1.875620 -0.069250 -0.024990 
#    y -0.069250 1.808350 0.041090 
#    z -0.024990 0.041090 1.815240 
# 
# From -- ./inp_files/44527.got.cif
#   From: 2010.05.17/outbox.cif.g08.bks.cpg/sg2_23_cif.got.tgz:44527.got - 2010.06.03 11:33:40.
