data_PCOD9080683
_publ_section_title
;
Structure prediction by ZEFSAII (Michael W. Deem and Ramdas Pophale) SiO2 
 PCOD9080683
Probable space group: P -1
;
_chemical_formula_sum "Si O2"
_cell_formula_units_Z 15
_cell_length_a 15.497845
_cell_length_b 7.117185
_cell_length_c 13.800276
_cell_angle_alpha 40.407512
_cell_angle_beta 35.145969
_cell_angle_gamma 47.200556
_cell_volume 561.391504
_symmetry_space_group_name_H-M "P -1"
_symmetry_group_IT_number 2
_symmetry_cell_setting 'triclinic'
loop_
_space_group_symop_operation_xyz
x,y,z
-x,-y,-z
loop_
_atom_site_type_symbol
_atom_site_label
_atom_site_fract_x
_atom_site_fract_y
_atom_site_fract_z
Si Si1 0.500000 0.000000 0.000000
Si Si2 0.157492 0.068174 0.027515
Si Si3 0.900326 0.346040 0.027693
Si Si4 0.366561 0.817983 0.393075
Si Si5 0.432257 0.703861 0.674476
Si Si6 0.246277 0.724615 0.246981
Si Si7 0.503172 0.261420 0.192143
Si Si8 0.916759 0.300190 0.411402
O O1 0.580957 0.998742 0.817847
O O2 0.667770 0.018355 0.891665
O O3 0.328638 0.924203 0.900386
O O4 0.033004 0.109446 0.042546
O O5 0.149948 0.394007 0.949811
O O6 0.122457 0.860116 0.230149
O O7 0.968411 0.503027 0.813766
O O8 0.746228 0.230458 0.192317
O O9 0.481013 0.516335 0.395629
O O10 0.198890 0.756415 0.546220
O O11 0.476420 0.551562 0.800110
O O12 0.399678 0.998627 0.385762
O O13 0.379372 0.507383 0.157183
O O14 0.183049 0.565304 0.458398
O O15 0.500000 0.000000 0.500000
O O16 0.000000 0.000000 0.500000
#
# Coordination Sequence:
#
# PCOD9080683 Si02
#       8
#     1   2   2   2   2   2   2   2
#     4  10  18  40  76 102 152 192 258 320 366 448
#     4  11  24  44  77 117 159 204 257 324 399 462
#     4  11  26  51  77 110 163 209 252 327 404 467
#     4  11  25  46  75 111 152 203 261 323 386 461
#     4  12  28  51  79 110 155 210 270 320 390 483
#     4  11  22  43  76 119 151 206 269 317 392 468
#     4  12  25  44  81 116 150 203 275 324 383 468
#     4  11  24  47  78 112 161 211 253 323 407 462
#
# _framework density 26.71932
#
# number of rings (size 3 to 8) (size 9 to 14) (size 15 to 20)
#    0.000    0.800    6.667    0.400    3.733    3.200 
#    0.000    2.000    0.000    0.000    0.000    0.000 
#    0.000    0.000    0.000    0.000    0.000    0.000 
#
# Total GULP energy -83737.728714 kJ/mol
# GULP energy per Si atom -5582.515248 kJ/mol
# Density = 2.665851 g / cm^3
# Si number density = 26.719320 Si / 1000 Ang^3
#
#
#
# Elastic Constant Matrix: (Units=GPa)
#
#
# Indices 1 2 3 4 5 6 
#
# 1 97.8146 68.3590 54.9957 -2.8385 -8.4919 -17.0084
# 2 68.3590 178.5166 38.6836 21.8879 -11.3394 -32.1901
# 3 54.9957 38.6836 129.9414 24.6549 -26.7563 -32.0598
# 4 -2.8385 21.8879 24.6549 33.9221 -1.9402 10.2439
# 5 -8.4919 -11.3394 -26.7563 -1.9402 37.2451 -0.8192
# 6 -17.0084 -32.1901 -32.0598 10.2439 -0.8192 60.0068
#
#
#
# Elastic Compliance Matrix: (Units=1/GPa)
#
#
# Indices 1 2 3 4 5 6 
#
# 1 0.026975 -0.012840 -0.018171 0.027347 -0.009691 -0.013751
# 2 -0.012840 0.013617 0.009902 -0.020414 0.007544 0.012544
# 3 -0.018171 0.009902 0.027358 -0.033044 0.017258 0.020655
# 4 0.027347 -0.020414 -0.033044 0.078202 -0.020403 -0.034483
# 5 -0.009691 0.007544 0.017258 -0.020403 0.038591 0.014531
# 6 -0.013751 0.012544 0.020655 -0.034483 0.014531 0.036616
#
#
# Mechanical properties :
#
#
# Convention : Reuss Voigt Hill
#
# Bulk Modulus (GPa) = 38.86332 81.14993 60.00663
# Shear Modulus (GPa) = 18.37194 42.51710 30.44452
#
# Velocity S-wave (km/s) = 2.62504 3.99337 3.37919
# Velocity P-wave (km/s) = 4.87487 7.19026 6.14265
#
# Compressibility (1/GPa) = 0.02573120
#
# Stress axis : x y z
#
# Youngs Moduli (GPa) = 37.07189 73.43876 36.55252
#
# Poissons Ratio (x) = 0.94295 0.66420
# Poissons Ratio (y) = 0.47600 -0.36195
# Poissons Ratio (z) = 0.67364 -0.72720
#
# Static dielectric constant tensor:
#      x y z
#    x 2.202700 0.000690 0.194950 
#    y 0.000690 1.935160 0.083460 
#    z 0.194950 0.083460 2.211340 
# 
# From -- ./inp_files/575641.got.cif
#   From: 2010.05.17/outbox.cif.g08.bks.cpg/sg2_288_cif.got.tgz:575641.got - 2010.06.03 11:33:40.
