data_PCOD9080356
_publ_section_title
;
Structure prediction by ZEFSAII (Michael W. Deem and Ramdas Pophale) SiO2 
 PCOD9080356
Probable space group: P -1
;
_chemical_formula_sum "Si O2"
_cell_formula_units_Z 16
_cell_length_a 13.405709
_cell_length_b 15.122126
_cell_length_c 8.824286
_cell_angle_alpha 97.529281
_cell_angle_beta 58.036512
_cell_angle_gamma 49.647222
_cell_volume 786.935681
_symmetry_space_group_name_H-M "P -1"
_symmetry_group_IT_number 2
_symmetry_cell_setting 'triclinic'
loop_
_space_group_symop_operation_xyz
x,y,z
-x,-y,-z
loop_
_atom_site_type_symbol
_atom_site_label
_atom_site_fract_x
_atom_site_fract_y
_atom_site_fract_z
Si Si1 0.474401 0.063123 0.368715
Si Si2 0.747301 0.666052 0.184662
Si Si3 0.445865 0.753515 0.231162
Si Si4 0.154439 0.681562 0.886023
Si Si5 0.847752 0.882613 0.462922
Si Si6 0.649512 0.354616 0.556418
Si Si7 0.213996 0.570608 0.327619
Si Si8 0.085520 0.287390 0.136813
O O1 0.380949 0.217234 0.535817
O O2 0.303464 0.109301 0.428493
O O3 0.500000 0.000000 0.500000
O O4 0.712035 0.915359 0.060692
O O5 0.611786 0.675431 0.217200
O O6 0.778039 0.715428 0.030192
O O7 0.000000 0.500000 0.000000
O O8 0.297593 0.768656 0.420752
O O9 0.302345 0.933246 0.339332
O O10 0.603577 0.607945 0.943459
O O11 0.392829 0.516830 0.740225
O O12 0.193503 0.729191 0.733971
O O13 0.076468 0.642952 0.851044
O O14 0.961782 0.826006 0.194719
O O15 0.049084 0.728110 0.379329
O O16 0.672697 0.426063 0.660666
O O17 0.056579 0.614419 0.575728
#
# Coordination Sequence:
#
# PCOD9080356 Si02
#       8
#     2   2   2   2   2   2   2   2
#     4  10  18  39  61  89 122 155 198 254 304 360
#     4  11  20  36  65  94 120 157 202 261 306 357
#     4  12  23  39  62  93 125 161 211 243 308 373
#     4  10  19  40  71  89 114 166 209 252 312 353
#     4  12  22  40  68  91 123 165 202 251 315 363
#     4  10  23  42  64  88 124 163 210 259 297 359
#     4  11  26  43  60  88 132 170 198 250 308 363
#     4  10  20  41  64  90 124 160 201 250 312 363
#
# _framework density 20.332028999999999
#
# number of rings (size 3 to 8) (size 9 to 14) (size 15 to 20)
#    0.000    1.250    6.250    1.875    0.000    2.000 
#    2.250    0.000    5.500    0.000    0.000    0.000 
#    0.000    0.000    0.000    0.000    0.000    0.000 
#
# Total GULP energy -89231.982602 kJ/mol
# GULP energy per Si atom -5576.998913 kJ/mol
# Density = 2.028575 g / cm^3
# Si number density = 20.332029 Si / 1000 Ang^3
#
#
#
# Elastic Constant Matrix: (Units=GPa)
#
#
# Indices 1 2 3 4 5 6 
#
# 1 87.3680 18.1139 37.2516 1.1766 2.5368 5.7104
# 2 18.1139 45.1788 38.6133 -2.4635 17.7508 1.0584
# 3 37.2516 38.6133 97.6916 -8.4948 14.0263 -1.1798
# 4 1.1766 -2.4635 -8.4948 17.3047 2.6891 -10.4073
# 5 2.5368 17.7508 14.0263 2.6891 28.3754 1.4401
# 6 5.7104 1.0584 -1.1798 -10.4073 1.4401 26.5119
#
#
#
# Elastic Compliance Matrix: (Units=1/GPa)
#
#
# Indices 1 2 3 4 5 6 
#
# 1 0.015237 -0.003076 -0.006261 -0.009885 0.004978 -0.007588
# 2 -0.003076 0.041926 -0.012093 0.004124 -0.020425 0.001179
# 3 -0.006261 -0.012093 0.019100 0.013427 -0.003001 0.008115
# 4 -0.009885 0.004124 0.013427 0.092653 -0.019143 0.039973
# 5 0.004978 -0.020425 -0.003001 -0.019143 0.051415 -0.010698
# 6 -0.007588 0.001179 0.008115 0.039973 -0.010698 0.055940
#
#
# Mechanical properties :
#
#
# Convention : Reuss Voigt Hill
#
# Bulk Modulus (GPa) = 29.93643 46.46621 38.20132
# Shear Modulus (GPa) = 15.13941 23.52235 19.33088
#
# Velocity S-wave (km/s) = 2.73171 3.40503 3.08678
# Velocity P-wave (km/s) = 4.97045 6.19373 5.61550
#
# Compressibility (1/GPa) = 0.03340411
#
# Stress axis : x y z
#
# Youngs Moduli (GPa) = 65.62800 23.85182 52.35661
#
# Poissons Ratio (x) = 0.07336 0.32778
# Poissons Ratio (y) = 0.20185 0.63315
# Poissons Ratio (z) = 0.41087 0.28844
#
# Static dielectric constant tensor:
#      x y z
#    x 1.725100 0.026840 0.019510 
#    y 0.026840 1.823430 0.037930 
#    z 0.019510 0.037930 1.735000 
# 
# From -- ./inp_files/240300.got.cif
#   From: 2010.05.17/outbox.cif.g08.bks.cpg/sg2_121_cif.got.tgz:240300.got - 2010.06.03 11:33:40.
