data_PCOD9080490
_publ_section_title
;
Structure prediction by ZEFSAII (Michael W. Deem and Ramdas Pophale) SiO2 
 PCOD9080490
Probable space group: P -1
;
_chemical_formula_sum "Si O2"
_cell_formula_units_Z 16
_cell_length_a 16.618677
_cell_length_b 10.133666
_cell_length_c 7.661494
_cell_angle_alpha 65.949729
_cell_angle_beta 80.118675
_cell_angle_gamma 33.772107
_cell_volume 618.448036
_symmetry_space_group_name_H-M "P -1"
_symmetry_group_IT_number 2
_symmetry_cell_setting 'triclinic'
loop_
_space_group_symop_operation_xyz
x,y,z
-x,-y,-z
loop_
_atom_site_type_symbol
_atom_site_label
_atom_site_fract_x
_atom_site_fract_y
_atom_site_fract_z
Si Si1 0.672828 0.795091 0.085062
Si Si2 0.650170 0.438445 0.922650
Si Si3 0.667756 0.357255 0.567080
Si Si4 0.881916 0.318945 0.006874
Si Si5 0.665721 0.055347 0.675138
Si Si6 0.918224 0.195650 0.584399
Si Si7 0.913450 0.843540 0.260369
Si Si8 0.680423 0.953139 0.325883
O O1 0.706219 0.890917 0.907558
O O2 0.680267 0.814268 0.277679
O O3 0.500000 0.000000 0.000000
O O4 0.800710 0.499087 0.114633
O O5 0.652847 0.356044 0.779997
O O6 0.471021 0.735417 0.859534
O O7 0.738883 0.460269 0.880954
O O8 0.760500 0.175944 0.143177
O O9 0.746544 0.092465 0.609711
O O10 0.506594 0.631891 0.391126
O O11 0.749610 0.389470 0.516004
O O12 0.007186 0.010244 0.173951
O O13 0.979271 0.289786 0.877176
O O14 0.664573 0.974798 0.531598
O O15 0.976222 0.267306 0.567223
O O16 0.000000 0.000000 0.500000
O O17 0.838222 0.801127 0.317450
#
# Coordination Sequence:
#
# PCOD9080490 Si02
#       8
#     2   2   2   2   2   2   2   2
#     4  12  27  47  68  95 136 190 228 264 330 409
#     4  10  18  39  68  96 130 169 219 283 332 388
#     4  10  19  41  68 101 129 170 215 289 342 378
#     4  11  23  43  63  96 135 178 225 267 334 409
#     4  10  25  43  69 100 135 168 232 280 330 396
#     4  11  22  36  65  99 135 168 219 279 345 390
#     4  11  21  40  67  99 132 169 222 280 343 392
#     4  11  24  43  68  99 131 178 226 277 330 393
#
# _framework density 25.871210000000001
#
# number of rings (size 3 to 8) (size 9 to 14) (size 15 to 20)
#    0.000    1.250    3.750    2.625    1.750    3.000 
#    2.250    0.625    0.000    0.000    0.000    0.000 
#    0.000    0.000    0.000    0.000    0.000    0.000 
#
# Total GULP energy -89391.936624 kJ/mol
# GULP energy per Si atom -5586.996039 kJ/mol
# Density = 2.581233 g / cm^3
# Si number density = 25.871210 Si / 1000 Ang^3
#
#
#
# Elastic Constant Matrix: (Units=GPa)
#
#
# Indices 1 2 3 4 5 6 
#
# 1 145.3412 42.5747 14.3775 1.5688 16.5106 -8.0007
# 2 42.5747 106.4146 26.3748 5.1318 8.2144 3.4332
# 3 14.3775 26.3748 68.7963 5.5778 9.3408 11.8405
# 4 1.5688 5.1318 5.5778 51.3056 4.5298 8.8337
# 5 16.5106 8.2144 9.3408 4.5298 36.9047 5.8902
# 6 -8.0007 3.4332 11.8405 8.8337 5.8902 43.6573
#
#
#
# Elastic Compliance Matrix: (Units=1/GPa)
#
#
# Indices 1 2 3 4 5 6 
#
# 1 0.008321 -0.003017 -0.000540 -0.000009 -0.003289 0.002354
# 2 -0.003017 0.011568 -0.003678 -0.000595 -0.000170 -0.000322
# 3 -0.000540 -0.003678 0.017141 -0.000564 -0.002571 -0.003998
# 4 -0.000009 -0.000595 -0.000564 0.020395 -0.001632 -0.003708
# 5 -0.003289 -0.000170 -0.002571 -0.001632 0.030034 -0.003614
# 6 0.002354 -0.000322 -0.003998 -0.003708 -0.003614 0.025685
#
#
# Mechanical properties :
#
#
# Convention : Reuss Voigt Hill
#
# Bulk Modulus (GPa) = 44.32507 54.13401 49.22954
# Shear Modulus (GPa) = 37.00058 42.18854 39.59456
#
# Velocity S-wave (km/s) = 3.78588 4.04259 3.91634
# Velocity P-wave (km/s) = 6.02334 6.53911 6.28652
#
# Compressibility (1/GPa) = 0.02256060
#
# Stress axis : x y z
#
# Youngs Moduli (GPa) = 120.18049 86.44657 58.33840
#
# Poissons Ratio (x) = 0.26079 0.03152
# Poissons Ratio (y) = 0.36255 0.21455
# Poissons Ratio (z) = 0.06493 0.31792
#
# Static dielectric constant tensor:
#      x y z
#    x 2.907290 -0.204820 -0.263030 
#    y -0.204820 2.126230 0.047040 
#    z -0.263030 0.047040 2.168050 
# 
# From -- ./inp_files/298246.got.cif
#   From: 2010.05.17/outbox.cif.g08.bks.cpg/sg2_150_cif.got.tgz:298246.got - 2010.06.03 11:33:40.
