data_PCOD9080513
_publ_section_title
;
Structure prediction by ZEFSAII (Michael W. Deem and Ramdas Pophale) SiO2 
 PCOD9080513
Probable space group: P -1
;
_chemical_formula_sum "Si O2"
_cell_formula_units_Z 14
_cell_length_a 8.688214
_cell_length_b 11.395975
_cell_length_c 12.747302
_cell_angle_alpha 81.457272
_cell_angle_beta 54.727325
_cell_angle_gamma 122.076619
_cell_volume 657.439627
_symmetry_space_group_name_H-M "P -1"
_symmetry_group_IT_number 2
_symmetry_cell_setting 'triclinic'
loop_
_space_group_symop_operation_xyz
x,y,z
-x,-y,-z
loop_
_atom_site_type_symbol
_atom_site_label
_atom_site_fract_x
_atom_site_fract_y
_atom_site_fract_z
Si Si1 0.152508 0.348481 0.668426
Si Si2 0.118670 0.554801 0.786542
Si Si3 0.327017 0.941877 0.273850
Si Si4 0.336531 0.016545 0.494303
Si Si5 0.794270 0.858408 0.697884
Si Si6 0.765553 0.551480 0.049583
Si Si7 0.948040 0.113492 0.986966
O O1 0.500000 0.500000 0.500000
O O2 0.089275 0.454120 0.713571
O O3 0.954941 0.227652 0.660758
O O4 0.061222 0.215887 0.816248
O O5 0.437972 0.767118 0.638973
O O6 0.093153 0.453723 0.908363
O O7 0.898434 0.557584 0.891443
O O8 0.271591 0.919530 0.422919
O O9 0.378765 0.107040 0.203935
O O10 0.610911 0.996960 0.138203
O O11 0.500000 0.000000 0.500000
O O12 0.039187 0.926211 0.670155
O O13 0.572217 0.646440 0.788015
O O14 0.000000 0.000000 0.500000
O O15 0.869340 0.731557 0.013576
O O16 0.000000 0.000000 0.000000
#
# Coordination Sequence:
#
# PCOD9080513 Si02
#       7
#     2   2   2   2   2   2   2
#     4  11  25  41  71 104 137 187 236 276 344 425
#     4  10  19  40  65  96 129 175 228 271 329 419
#     4  11  22  44  68  97 138 188 230 276 343 425
#     4  11  23  40  66 102 140 171 225 296 352 394
#     4  10  19  36  70  96 124 169 230 272 333 412
#     4  10  18  39  70  93 125 180 230 273 325 418
#     4  11  25  44  69 101 146 180 230 292 351 399
#
# _framework density 21.294730999999999
#
# number of rings (size 3 to 8) (size 9 to 14) (size 15 to 20)
#    0.000    1.429    4.286    3.000    6.000    2.286 
#    2.571    2.143    0.000    0.000    0.000    0.000 
#    0.000    0.000    0.000    0.000    0.000    0.000 
#
# Total GULP energy -78094.638851 kJ/mol
# GULP energy per Si atom -5578.188489 kJ/mol
# Density = 2.124626 g / cm^3
# Si number density = 21.294731 Si / 1000 Ang^3
#
#
#
# Elastic Constant Matrix: (Units=GPa)
#
#
# Indices 1 2 3 4 5 6 
#
# 1 109.7778 69.4752 50.9840 4.5952 -27.8876 -10.5771
# 2 69.4752 177.3765 49.2929 -18.6503 -5.9254 -3.8069
# 3 50.9840 49.2929 95.8422 -13.3730 -27.8697 -1.8273
# 4 4.5952 -18.6503 -13.3730 27.7271 7.4100 -5.2150
# 5 -27.8876 -5.9254 -27.8697 7.4100 26.6221 6.1231
# 6 -10.5771 -3.8069 -1.8273 -5.2150 6.1231 43.0676
#
#
#
# Elastic Compliance Matrix: (Units=1/GPa)
#
#
# Indices 1 2 3 4 5 6 
#
# 1 0.023483 -0.009499 -0.003030 -0.018519 0.024686 -0.000953
# 2 -0.009499 0.011030 -0.003174 0.011723 -0.014540 0.001994
# 3 -0.003030 -0.003174 0.018422 0.002836 0.015085 -0.002044
# 4 -0.018519 0.011723 0.002836 0.058489 -0.031996 0.008240
# 5 0.024686 -0.014540 0.015085 -0.031996 0.087386 -0.010881
# 6 -0.000953 0.001994 -0.002044 0.008240 -0.010881 0.025620
#
#
# Mechanical properties :
#
#
# Convention : Reuss Voigt Hill
#
# Bulk Modulus (GPa) = 46.45096 80.27789 63.36443
# Shear Modulus (GPa) = 19.01061 33.69964 26.35512
#
# Velocity S-wave (km/s) = 2.99111 3.98242 3.52182
# Velocity P-wave (km/s) = 5.81289 7.67636 6.80868
#
# Compressibility (1/GPa) = 0.02152808
#
# Stress axis : x y z
#
# Youngs Moduli (GPa) = 42.58482 90.66183 54.28429
#
# Poissons Ratio (x) = 0.86116 0.16449
# Poissons Ratio (y) = 0.40450 0.17231
# Poissons Ratio (z) = 0.12904 0.28778
#
# Static dielectric constant tensor:
#      x y z
#    x 1.849140 -0.019000 -0.007270 
#    y -0.019000 1.824170 0.025220 
#    z -0.007270 0.025220 1.844080 
# 
# From -- ./inp_files/499098.got.cif
#   From: 2010.05.17/outbox.cif.g08.bks.cpg/sg2_250_cif.got.tgz:499098.got - 2010.06.03 11:33:40.
