data_PCOD9080909
_publ_section_title
;
Structure prediction by ZEFSAII (Michael W. Deem and Ramdas Pophale) SiO2 
 PCOD9080909
Probable space group: P -1
;
_chemical_formula_sum "Si O2"
_cell_formula_units_Z 14
_cell_length_a 13.781290
_cell_length_b 5.321354
_cell_length_c 9.709367
_cell_angle_alpha 84.389768
_cell_angle_beta 70.679977
_cell_angle_gamma 75.247312
_cell_volume 649.717106
_symmetry_space_group_name_H-M "P -1"
_symmetry_group_IT_number 2
_symmetry_cell_setting 'triclinic'
loop_
_space_group_symop_operation_xyz
x,y,z
-x,-y,-z
loop_
_atom_site_type_symbol
_atom_site_label
_atom_site_fract_x
_atom_site_fract_y
_atom_site_fract_z
Si Si1 0.885654 0.863185 0.284432
Si Si2 0.798380 0.995981 0.623986
Si Si3 0.202076 0.826128 0.926103
Si Si4 0.876088 0.627499 0.036379
Si Si5 0.085280 0.566715 0.348176
Si Si6 0.565136 0.188874 0.638499
Si Si7 0.570059 0.233065 0.306153
O O1 0.830619 0.932436 0.451678
O O2 0.834972 0.689068 0.211873
O O3 0.005876 0.713286 0.260864
O O4 0.870864 0.116106 0.181804
O O5 0.839344 0.717798 0.694019
O O6 0.854580 0.222571 0.633035
O O7 0.672602 0.099810 0.678433
O O8 0.186558 0.555175 0.999660
O O9 0.321318 0.808204 0.826390
O O10 0.152556 0.080017 0.024522
O O11 0.000000 0.500000 0.000000
O O12 0.000000 0.500000 0.500000
O O13 0.592719 0.200657 0.461617
O O14 0.500223 0.475533 0.694930
O O15 0.493952 0.979876 0.693944
#
# Coordination Sequence:
#
# PCOD9080909 Si02
#       7
#     2   2   2   2   2   2   2
#     4   9  21  30  51  67 102 132 161 191 240 285
#     4  11  20  32  46  70 102 135 167 194 226 271
#     4  10  20  32  51  68 102 127 159 194 244 293
#     4  10  21  33  51  72  98 127 159 203 249 291
#     4  10  21  30  46  69  97 134 172 189 226 285
#     4  10  19  30  45  67  97 126 170 197 222 275
#     4  10  19  30  46  68  92 133 162 191 238 283
#
# _framework density 21.547840000000001
#
# number of rings (size 3 to 8) (size 9 to 14) (size 15 to 20)
#    0.857    1.143    1.429    3.857    6.000    1.143 
#    0.000    0.000    0.000    0.000    0.000    0.000 
#    0.000   22.857    0.000    0.000    0.000    0.000 
#
# Total GULP energy -78077.459727 kJ/mol
# GULP energy per Si atom -5576.961409 kJ/mol
# Density = 2.149880 g / cm^3
# Si number density = 21.547840 Si / 1000 Ang^3
#
#
#
# Elastic Constant Matrix: (Units=GPa)
#
#
# Indices 1 2 3 4 5 6 
#
# 1 113.5097 73.3959 20.8499 -3.0017 -24.4280 -15.0603
# 2 73.3959 200.3621 27.9463 -3.7412 -23.4797 7.8908
# 3 20.8499 27.9463 56.7810 3.9160 -9.2339 6.6038
# 4 -3.0017 -3.7412 3.9160 23.6725 0.8718 -4.4598
# 5 -24.4280 -23.4797 -9.2339 0.8718 35.6925 1.0085
# 6 -15.0603 7.8908 6.6038 -4.4598 1.0085 37.4102
#
#
#
# Elastic Compliance Matrix: (Units=1/GPa)
#
#
# Indices 1 2 3 4 5 6 
#
# 1 0.014674 -0.004460 -0.003310 0.002919 0.005966 0.007620
# 2 -0.004460 0.007087 -0.001279 0.000135 0.001362 -0.003085
# 3 -0.003310 -0.001279 0.020865 -0.005192 0.002571 -0.005434
# 4 0.002919 0.000135 -0.005192 0.044915 -0.000564 0.007433
# 5 0.005966 0.001362 0.002571 -0.000564 0.033656 0.000686
# 6 0.007620 -0.003085 -0.005434 0.007433 0.000686 0.032276
#
#
# Mechanical properties :
#
#
# Convention : Reuss Voigt Hill
#
# Bulk Modulus (GPa) = 40.77243 68.33744 54.55493
# Shear Modulus (GPa) = 27.81698 35.91908 31.86803
#
# Velocity S-wave (km/s) = 3.59686 4.08725 3.84987
# Velocity P-wave (km/s) = 6.01771 7.35237 6.71826
#
# Compressibility (1/GPa) = 0.02452638
#
# Stress axis : x y z
#
# Youngs Moduli (GPa) = 68.14894 141.10712 47.92738
#
# Poissons Ratio (x) = 0.62933 0.15866
# Poissons Ratio (y) = 0.30394 0.06131
# Poissons Ratio (z) = 0.22560 0.18050
#
# Static dielectric constant tensor:
#      x y z
#    x 1.759310 0.011620 0.033670 
#    y 0.011620 1.887240 -0.002400 
#    z 0.033670 -0.002400 1.822900 
# 
# From -- ./inp_files/409114.got.cif
#   From: 2010.05.17/outbox.cif.g08.bks.cpg/sg2_205_cif.got.tgz:409114.got - 2010.06.03 11:33:40.
