data_PCOD9080049
_publ_section_title
;
Structure prediction by ZEFSAII (Michael W. Deem and Ramdas Pophale) SiO2 
 PCOD9080049
Probable space group: P -1
;
_chemical_formula_sum "Si O2"
_cell_formula_units_Z 16
_cell_length_a 25.591232
_cell_length_b 5.022237
_cell_length_c 6.982046
_cell_angle_alpha 114.272312
_cell_angle_beta 98.115037
_cell_angle_gamma 67.466370
_cell_volume 755.446887
_symmetry_space_group_name_H-M "P -1"
_symmetry_group_IT_number 2
_symmetry_cell_setting 'triclinic'
loop_
_space_group_symop_operation_xyz
x,y,z
-x,-y,-z
loop_
_atom_site_type_symbol
_atom_site_label
_atom_site_fract_x
_atom_site_fract_y
_atom_site_fract_z
Si Si1 0.152118 0.728929 0.556442
Si Si2 0.361584 0.415902 0.686219
Si Si3 0.792445 0.663547 0.859361
Si Si4 0.724758 0.356544 0.956598
Si Si5 0.459399 0.343468 0.025160
Si Si6 0.369745 0.734819 0.393229
Si Si7 0.962244 0.290440 0.441262
Si Si8 0.873595 0.537068 0.190743
O O1 0.200361 0.566253 0.383333
O O2 0.098610 0.616638 0.455816
O O3 0.166962 0.580533 0.730702
O O4 0.132456 0.104831 0.658016
O O5 0.412716 0.347087 0.844004
O O6 0.367281 0.633881 0.581415
O O7 0.363262 0.094903 0.496580
O O8 0.305516 0.562230 0.829695
O O9 0.745445 0.623311 0.963299
O O10 0.775158 0.020198 0.893387
O O11 0.851460 0.545931 0.969726
O O12 0.680179 0.313817 0.769139
O O13 0.500000 0.500000 0.000000
O O14 0.426490 0.527338 0.249436
O O15 0.500000 0.000000 0.000000
O O16 0.935809 0.297257 0.214496
O O17 0.000000 0.500000 0.500000
O O18 0.000000 0.000000 0.500000
#
# Coordination Sequence:
#
# PCOD9080049 Si02
#       8
#     2   2   2   2   2   2   2   2
#     4  10  22  38  60  87 120 152 197 248 297 364
#     4  11  24  43  64  91 127 165 212 250 304 374
#     4  12  24  41  62  90 122 157 204 254 310 360
#     4  11  26  40  62  90 122 160 206 259 302 362
#     4  11  24  41  64  98 130 163 208 261 304 352
#     4  11  24  43  64  91 127 165 212 250 304 374
#     4  10  18  38  62  84 120 158 192 246 302 356
#     4  10  22  38  60  87 120 152 197 248 297 364
#
# _framework density 21.179514000000001
#
# number of rings (size 3 to 8) (size 9 to 14) (size 15 to 20)
#    0.750    0.500    1.250    4.500    0.000   13.000 
#    0.000    1.250    0.000    0.000    0.000    0.000 
#    0.000    0.000    0.000    0.000    0.000    0.000 
#
# Total GULP energy -89231.353845 kJ/mol
# GULP energy per Si atom -5576.959615 kJ/mol
# Density = 2.113131 g / cm^3
# Si number density = 21.179514 Si / 1000 Ang^3
#
#
#
# Elastic Constant Matrix: (Units=GPa)
#
#
# Indices 1 2 3 4 5 6 
#
# 1 55.8131 1.1398 2.6358 -1.8997 -2.7948 16.8216
# 2 1.1398 98.9016 2.6733 -10.1109 -2.1381 19.3620
# 3 2.6358 2.6733 55.8075 -5.3104 -8.1058 -4.0035
# 4 -1.8997 -10.1109 -5.3104 28.4360 4.8794 3.9739
# 5 -2.7948 -2.1381 -8.1058 4.8794 29.8158 -4.4132
# 6 16.8216 19.3620 -4.0035 3.9739 -4.4132 34.0162
#
#
#
# Elastic Compliance Matrix: (Units=1/GPa)
#
#
# Indices 1 2 3 4 5 6 
#
# 1 0.022061 0.002809 -0.001868 0.004139 -0.000888 -0.013327
# 2 0.002809 0.012568 -0.001068 0.006059 -0.001535 -0.009576
# 3 -0.001868 -0.001068 0.019298 0.001574 0.005376 0.004317
# 4 0.004139 0.006059 0.001574 0.040629 -0.007022 -0.010968
# 5 -0.000888 -0.001535 0.005376 -0.007022 0.037078 0.007576
# 6 -0.013327 -0.009576 0.004317 -0.010968 0.007576 0.044211
#
#
# Mechanical properties :
#
#
# Convention : Reuss Voigt Hill
#
# Bulk Modulus (GPa) = 18.63089 24.82446 21.72768
# Shear Modulus (GPa) = 25.77447 32.05849 28.91648
#
# Velocity S-wave (km/s) = 3.49227 3.89479 3.69901
# Velocity P-wave (km/s) = 5.00770 5.65441 5.34085
#
# Compressibility (1/GPa) = 0.05367429
#
# Stress axis : x y z
#
# Youngs Moduli (GPa) = 45.32928 79.56452 51.81773
#
# Poissons Ratio (x) = -0.22351 0.09678
# Poissons Ratio (y) = -0.12734 0.05535
# Poissons Ratio (z) = 0.08466 0.08498
#
# Static dielectric constant tensor:
#      x y z
#    x 1.798330 -0.036230 0.017910 
#    y -0.036230 1.734450 -0.023260 
#    z 0.017910 -0.023260 1.772840 
# 
# From -- ./inp_files/125949.got.cif
#   From: 2010.05.17/outbox.cif.g08.bks.cpg/sg2_63_cif.got.tgz:125949.got - 2010.06.03 11:33:40.
