data_PCOD9080493
_publ_section_title
;
Structure prediction by ZEFSAII (Michael W. Deem and Ramdas Pophale) SiO2 
 PCOD9080493
Probable space group: P -1
;
_chemical_formula_sum "Si O2"
_cell_formula_units_Z 16
_cell_length_a 6.985671
_cell_length_b 9.553399
_cell_length_c 13.756425
_cell_angle_alpha 135.224826
_cell_angle_beta 92.089729
_cell_angle_gamma 94.437837
_cell_volume 639.192991
_symmetry_space_group_name_H-M "P -1"
_symmetry_group_IT_number 2
_symmetry_cell_setting 'triclinic'
loop_
_space_group_symop_operation_xyz
x,y,z
-x,-y,-z
loop_
_atom_site_type_symbol
_atom_site_label
_atom_site_fract_x
_atom_site_fract_y
_atom_site_fract_z
Si Si1 0.746073 0.674701 0.022818
Si Si2 0.754671 0.206017 0.788091
Si Si3 0.605954 0.807381 0.894991
Si Si4 0.591222 0.535157 0.414174
Si Si5 0.915326 0.511104 0.284117
Si Si6 0.679121 0.227842 0.583346
Si Si7 0.823676 0.846265 0.303959
Si Si8 0.145586 0.876263 0.044711
O O1 0.788620 0.448165 0.923801
O O2 0.604847 0.692371 0.939979
O O3 0.935632 0.819137 0.060249
O O4 0.693345 0.759281 0.166977
O O5 0.631937 0.180097 0.672522
O O6 0.953862 0.130403 0.718815
O O7 0.716126 0.120155 0.854219
O O8 0.499081 0.656897 0.743015
O O9 0.500000 0.000000 0.000000
O O10 0.808331 0.910511 0.902414
O O11 0.500000 0.500000 0.500000
O O12 0.819330 0.534273 0.399249
O O13 0.502008 0.719222 0.454507
O O14 0.824147 0.674816 0.299344
O O15 0.852916 0.303379 0.122383
O O16 0.146854 0.580548 0.320900
O O17 0.771777 0.049264 0.447210
#
# Coordination Sequence:
#
# PCOD9080493 Si02
#       8
#     2   2   2   2   2   2   2   2
#     4  11  20  40  71  99 129 172 229 277 331 396
#     4  10  18  39  69 101 129 165 225 284 325 395
#     4  12  26  43  61  94 135 177 225 274 326 398
#     4  12  29  47  64  95 142 178 227 277 328 409
#     4  11  21  44  70  97 132 178 220 280 342 385
#     4  11  24  43  69 101 137 175 222 279 336 403
#     4  10  21  38  71 104 132 167 223 281 336 402
#     4  11  20  39  72  98 129 173 225 279 335 389
#
# _framework density 25.031563999999999
#
# number of rings (size 3 to 8) (size 9 to 14) (size 15 to 20)
#    0.000    1.000    6.250    2.625    1.750    4.000 
#    2.250    1.875    0.000    0.000    0.000    0.000 
#    0.000    0.000    0.000    0.000    0.000    0.000 
#
# Total GULP energy -89528.915201 kJ/mol
# GULP energy per Si atom -5595.557200 kJ/mol
# Density = 2.497459 g / cm^3
# Si number density = 25.031564 Si / 1000 Ang^3
#
#
#
# Elastic Constant Matrix: (Units=GPa)
#
#
# Indices 1 2 3 4 5 6 
#
# 1 65.1716 11.6682 8.8018 -12.7571 -16.2950 7.9865
# 2 11.6682 85.4389 27.1972 -9.0144 -10.8357 -3.6604
# 3 8.8018 27.1972 131.1663 -12.6420 -30.4727 -6.8432
# 4 -12.7571 -9.0144 -12.6420 60.7100 5.2640 1.9798
# 5 -16.2950 -10.8357 -30.4727 5.2640 37.1984 -4.5252
# 6 7.9865 -3.6604 -6.8432 1.9798 -4.5252 38.8447
#
#
#
# Elastic Compliance Matrix: (Units=1/GPa)
#
#
# Indices 1 2 3 4 5 6 
#
# 1 0.018416 -0.001665 0.001030 0.003278 0.007592 -0.003044
# 2 -0.001665 0.012927 -0.002096 0.000975 0.001339 0.001298
# 3 0.001030 -0.002096 0.010144 0.001228 0.008254 0.002277
# 4 0.003278 0.000975 0.001228 0.017595 0.000083 -0.001253
# 5 0.007592 0.001339 0.008254 0.000083 0.037887 0.004429
# 6 -0.003044 0.001298 0.002277 -0.001253 0.004429 0.027473
#
#
# Mechanical properties :
#
#
# Convention : Reuss Voigt Hill
#
# Bulk Modulus (GPa) = 27.75735 41.90125 34.82930
# Shear Modulus (GPa) = 35.23333 42.95794 39.09563
#
# Velocity S-wave (km/s) = 3.75581 4.14714 3.95632
# Velocity P-wave (km/s) = 5.47002 6.30138 5.90036
#
# Compressibility (1/GPa) = 0.03602650
#
# Stress axis : x y z
#
# Youngs Moduli (GPa) = 54.30054 77.35703 98.58014
#
# Poissons Ratio (x) = 0.12878 -0.10157
# Poissons Ratio (y) = 0.09039 0.20662
# Poissons Ratio (z) = -0.05595 0.16213
#
# Static dielectric constant tensor:
#      x y z
#    x 2.254860 0.020300 0.019620 
#    y 0.020300 1.980470 -0.062220 
#    z 0.019620 -0.062220 1.965680 
# 
# From -- ./inp_files/383545.got.cif
#   From: 2010.05.17/outbox.cif.g08.bks.cpg/sg2_192_cif.got.tgz:383545.got - 2010.06.03 11:33:40.
