data_PCOD9080083
_publ_section_title
;
Structure prediction by ZEFSAII (Michael W. Deem and Ramdas Pophale) SiO2 
 PCOD9080083
Probable space group: P -1
;
_chemical_formula_sum "Si O2"
_cell_formula_units_Z 16
_cell_length_a 13.104397
_cell_length_b 23.484251
_cell_length_c 7.503863
_cell_angle_alpha 48.693220
_cell_angle_beta 50.853086
_cell_angle_gamma 21.043278
_cell_volume 621.891193
_symmetry_space_group_name_H-M "P -1"
_symmetry_group_IT_number 2
_symmetry_cell_setting 'triclinic'
loop_
_space_group_symop_operation_xyz
x,y,z
-x,-y,-z
loop_
_atom_site_type_symbol
_atom_site_label
_atom_site_fract_x
_atom_site_fract_y
_atom_site_fract_z
Si Si1 0.281464 0.071370 0.904239
Si Si2 0.467506 0.678012 0.004937
Si Si3 0.004404 0.640496 0.771139
Si Si4 0.461304 0.324945 0.705680
Si Si5 0.107726 0.839771 0.713003
Si Si6 0.006694 0.177974 0.614601
Si Si7 0.441844 0.159098 0.430506
Si Si8 0.459542 0.201443 0.690171
O O1 0.175747 0.091903 0.792341
O O2 0.356552 0.118774 0.683244
O O3 0.011816 0.186288 0.088343
O O4 0.546146 0.883694 0.063073
O O5 0.806189 0.491527 0.005693
O O6 0.437367 0.754343 0.043502
O O7 0.304243 0.692435 0.258547
O O8 0.306091 0.761724 0.823733
O O9 0.217121 0.509569 0.642346
O O10 0.990064 0.736705 0.622333
O O11 0.718559 0.755518 0.757665
O O12 0.709225 0.238353 0.500939
O O13 0.345812 0.318562 0.716295
O O14 0.804085 0.037018 0.653803
O O15 0.216352 0.020153 0.590760
O O16 0.362831 0.255645 0.480250
#
# Coordination Sequence:
#
# PCOD9080083 Si02
#       8
#     2   2   2   2   2   2   2   2
#     4   8  19  34  55  89 113 145 207 240 286 344
#     4   9  20  38  60  89 121 152 195 249 291 349
#     4   9  21  36  58  87 121 156 195 236 310 348
#     4  10  21  38  58  89 124 158 185 245 305 345
#     4   9  19  37  60  89 118 150 205 238 289 355
#     4  10  18  38  63  85 115 156 201 246 291 346
#     4  11  20  38  63  84 118 160 197 248 287 350
#     4  10  21  36  57  87 120 153 202 239 287 358
#
# _framework density 25.727972000000001
#
# number of rings (size 3 to 8) (size 9 to 14) (size 15 to 20)
#    1.500    1.000    0.000    3.375    0.000    1.000 
#    2.250   10.625    0.000    3.750    0.000    0.000 
#    0.000    0.000    0.000    0.000    0.000    0.000 
#
# Total GULP energy -89199.740553 kJ/mol
# GULP energy per Si atom -5574.983785 kJ/mol
# Density = 2.566941 g / cm^3
# Si number density = 25.727972 Si / 1000 Ang^3
#
#
#
# Elastic Constant Matrix: (Units=GPa)
#
#
# Indices 1 2 3 4 5 6 
#
# 1 103.6448 27.5702 7.1638 -12.5832 19.9890 -17.1767
# 2 27.5702 96.8237 24.0831 -7.3754 -2.2280 -14.0276
# 3 7.1638 24.0831 80.9144 -4.3853 10.0411 -10.5580
# 4 -12.5832 -7.3754 -4.3853 23.1356 -9.4696 3.8167
# 5 19.9890 -2.2280 10.0411 -9.4696 47.4434 7.1730
# 6 -17.1767 -14.0276 -10.5580 3.8167 7.1730 43.9532
#
#
#
# Elastic Compliance Matrix: (Units=1/GPa)
#
#
# Indices 1 2 3 4 5 6 
#
# 1 0.012731 -0.003154 0.001366 0.002901 -0.005981 0.005021
# 2 -0.003154 0.012549 -0.003529 0.002651 0.003012 0.001203
# 3 0.001366 -0.003529 0.014283 -0.000021 -0.004304 0.003543
# 4 0.002901 0.002651 -0.000021 0.050188 0.009519 -0.003937
# 5 -0.005981 0.003012 -0.004304 0.009519 0.027723 -0.007761
# 6 0.005021 0.001203 0.003543 -0.003937 -0.007761 0.027557
#
#
# Mechanical properties :
#
#
# Convention : Reuss Voigt Hill
#
# Bulk Modulus (GPa) = 34.56647 44.33524 39.45085
# Shear Modulus (GPa) = 30.24629 37.74417 33.99523
#
# Velocity S-wave (km/s) = 3.43245 3.83436 3.63896
# Velocity P-wave (km/s) = 5.40125 6.07230 5.74658
#
# Compressibility (1/GPa) = 0.02892977
#
# Stress axis : x y z
#
# Youngs Moduli (GPa) = 78.55001 79.68448 70.01107
#
# Poissons Ratio (x) = 0.25133 -0.09565
# Poissons Ratio (y) = 0.24775 0.24708
# Poissons Ratio (z) = -0.10732 0.28122
#
# Static dielectric constant tensor:
#      x y z
#    x 2.083140 0.001290 -0.047820 
#    y 0.001290 1.993670 0.013370 
#    z -0.047820 0.013370 2.167390 
# 
# From -- ./inp_files/320579.got.cif
#   From: 2010.05.17/outbox.cif.g08.bks.cpg/sg2_161_cif.got.tgz:320579.got - 2010.06.03 11:33:40.
