data_PCOD9080305
_publ_section_title
;
Structure prediction by ZEFSAII (Michael W. Deem and Ramdas Pophale) SiO2 
 PCOD9080305
Probable space group: P -1
;
_chemical_formula_sum "Si O2"
_cell_formula_units_Z 14
_cell_length_a 9.455793
_cell_length_b 20.753486
_cell_length_c 11.194930
_cell_angle_alpha 28.027646
_cell_angle_beta 129.759832
_cell_angle_gamma 143.623085
_cell_volume 591.981052
_symmetry_space_group_name_H-M "P -1"
_symmetry_group_IT_number 2
_symmetry_cell_setting 'triclinic'
loop_
_space_group_symop_operation_xyz
x,y,z
-x,-y,-z
loop_
_atom_site_type_symbol
_atom_site_label
_atom_site_fract_x
_atom_site_fract_y
_atom_site_fract_z
Si Si1 0.590131 0.750794 0.157953
Si Si2 0.824657 0.027505 0.417554
Si Si3 0.917094 0.178931 0.642068
Si Si4 0.609516 0.159604 0.699731
Si Si5 0.422434 0.592414 0.575545
Si Si6 0.542889 0.688309 0.969048
Si Si7 0.099025 0.332580 0.236859
O O1 0.419128 0.643706 0.354661
O O2 0.826465 0.769937 0.274232
O O3 0.473602 0.655754 0.123658
O O4 0.703086 0.958304 0.876040
O O5 0.608925 0.940729 0.350041
O O6 0.707059 0.897569 0.683334
O O7 0.953183 0.227356 0.210560
O O8 0.000000 0.000000 0.500000
O O9 0.842932 0.226824 0.639932
O O10 0.944839 0.263687 0.388746
O O11 0.664236 0.332431 0.507614
O O12 0.500000 0.000000 0.000000
O O13 0.711390 0.702981 0.584056
O O14 0.315947 0.385277 0.862596
O O15 0.293604 0.553231 0.978112
#
# Coordination Sequence:
#
# PCOD9080305 Si02
#       7
#     2   2   2   2   2   2   2
#     4  10  18  38  70  95 130 176 219 263 320 392
#     4  12  24  42  73  94 127 183 215 269 338 384
#     4  10  21  36  68  97 133 172 222 261 326 391
#     4  12  25  41  64 102 137 167 220 278 329 391
#     4   9  20  39  65  97 130 167 215 269 317 379
#     4  10  22  40  72  96 127 168 237 264 309 405
#     4   9  21  42  68  96 120 173 229 259 315 394
#
# _framework density 23.649405999999999
#
# number of rings (size 3 to 8) (size 9 to 14) (size 15 to 20)
#    0.857    0.857    4.286    0.429    2.000    2.857 
#    0.000    1.429    6.286    0.000    0.000    0.000 
#    0.000    0.000    0.000    0.000    0.000    0.000 
#
# Total GULP energy -78248.094820 kJ/mol
# GULP energy per Si atom -5589.149630 kJ/mol
# Density = 2.359558 g / cm^3
# Si number density = 23.649406 Si / 1000 Ang^3
#
#
#
# Elastic Constant Matrix: (Units=GPa)
#
#
# Indices 1 2 3 4 5 6 
#
# 1 132.8594 4.4030 5.6531 -0.6655 17.9398 -24.4941
# 2 4.4030 73.9031 0.0147 -11.9820 6.3687 -27.0755
# 3 5.6531 0.0147 31.3895 -6.8096 4.7823 -3.6434
# 4 -0.6655 -11.9820 -6.8096 26.9518 -8.3943 -0.1321
# 5 17.9398 6.3687 4.7823 -8.3943 23.4083 -6.4874
# 6 -24.4941 -27.0755 -3.6434 -0.1321 -6.4874 32.3357
#
#
#
# Elastic Compliance Matrix: (Units=1/GPa)
#
#
# Indices 1 2 3 4 5 6 
#
# 1 0.009882 0.003194 0.000150 -0.000134 -0.006036 0.008965
# 2 0.003194 0.023643 0.004575 0.012139 0.000902 0.022963
# 3 0.000150 0.004575 0.035318 0.010091 -0.002911 0.007381
# 4 -0.000134 0.012139 0.010091 0.050385 0.016908 0.014798
# 5 -0.006036 0.000902 -0.002911 0.016908 0.055728 0.007104
# 6 0.008965 0.022963 0.007381 0.014798 0.007104 0.059261
#
#
# Mechanical properties :
#
#
# Convention : Reuss Voigt Hill
#
# Bulk Modulus (GPa) = 11.80894 28.69928 20.25411
# Shear Modulus (GPa) = 20.27533 31.74457 26.00995
#
# Velocity S-wave (km/s) = 2.93119 3.66771 3.31994
# Velocity P-wave (km/s) = 4.05710 5.48615 4.82482
#
# Compressibility (1/GPa) = 0.08468160
#
# Stress axis : x y z
#
# Youngs Moduli (GPa) = 101.19629 42.29547 28.31429
#
# Poissons Ratio (x) = -0.13510 -0.00425
# Poissons Ratio (y) = -0.32325 -0.12954
# Poissons Ratio (z) = -0.01518 -0.19351
#
# Static dielectric constant tensor:
#      x y z
#    x 1.908310 0.021490 0.013900 
#    y 0.021490 1.875740 0.011030 
#    z 0.013900 0.011030 1.895050 
# 
# From -- ./inp_files/405317.got.cif
#   From: 2010.05.17/outbox.cif.g08.bks.cpg/sg2_203_cif.got.tgz:405317.got - 2010.06.03 11:33:40.
