data_PCOD9080193
_publ_section_title
;
Structure prediction by ZEFSAII (Michael W. Deem and Ramdas Pophale) SiO2 
 PCOD9080193
Probable space group: P -1
;
_chemical_formula_sum "Si O2"
_cell_formula_units_Z 15
_cell_length_a 9.443010
_cell_length_b 9.623511
_cell_length_c 11.496831
_cell_angle_alpha 124.333433
_cell_angle_beta 111.616993
_cell_angle_gamma 61.455225
_cell_volume 750.794687
_symmetry_space_group_name_H-M "P -1"
_symmetry_group_IT_number 2
_symmetry_cell_setting 'triclinic'
loop_
_space_group_symop_operation_xyz
x,y,z
-x,-y,-z
loop_
_atom_site_type_symbol
_atom_site_label
_atom_site_fract_x
_atom_site_fract_y
_atom_site_fract_z
Si Si1 0.205328 0.234836 0.239065
Si Si2 0.540774 0.287931 0.396504
Si Si3 0.624144 0.528072 0.144723
Si Si4 0.936979 0.423912 0.057674
Si Si5 0.412857 0.854655 0.400137
Si Si6 0.000000 0.500000 0.500000
Si Si7 0.792805 0.255788 0.264584
Si Si8 0.125645 0.939594 0.181267
O O1 0.383128 0.242759 0.291111
O O2 0.087169 0.346921 0.155189
O O3 0.122222 0.335462 0.379303
O O4 0.202289 0.033098 0.150706
O O5 0.500000 0.500000 0.500000
O O6 0.600138 0.204911 0.501013
O O7 0.672665 0.221207 0.304260
O O8 0.778674 0.557508 0.141617
O O9 0.524870 0.690035 0.276410
O O10 0.701217 0.352905 0.166572
O O11 0.500000 0.500000 0.000000
O O12 0.878074 0.257790 0.932173
O O13 0.000000 0.500000 0.000000
O O14 0.236882 0.931326 0.323312
O O15 0.500000 0.000000 0.500000
O O16 0.865024 0.399689 0.408444
O O17 0.941375 0.073930 0.199265
#
# Coordination Sequence:
#
# PCOD9080193 Si02
#       8
#     2   2   2   2   2   1   2   2
#     4  11  23  42  71  97 142 185 231 281 359 421
#     4  12  24  42  71 108 141 181 238 291 350 424
#     4  12  25  45  73 100 145 192 233 288 361 423
#     4  12  28  45  71 103 140 187 242 293 354 425
#     4  12  26  45  74 109 144 180 236 299 359 415
#     4  10  18  38  66 100 124 190 220 276 346 424
#     4  11  25  43  74 101 141 188 237 282 358 423
#     4  11  25  48  69 102 142 191 231 294 357 424
#
# _framework density 19.978829999999999
#
# number of rings (size 3 to 8) (size 9 to 14) (size 15 to 20)
#    0.000    0.533    8.000    0.400    5.600    1.600 
#    0.000    0.667    0.000    0.000    0.000    0.000 
#    0.000    0.000    0.000    0.000    0.000    0.000 
#
# Total GULP energy -83593.117735 kJ/mol
# GULP energy per Si atom -5572.874516 kJ/mol
# Density = 1.993336 g / cm^3
# Si number density = 19.978830 Si / 1000 Ang^3
#
#
#
# Elastic Constant Matrix: (Units=GPa)
#
#
# Indices 1 2 3 4 5 6 
#
# 1 172.7978 57.1912 56.8993 -23.3554 3.9086 8.2783
# 2 57.1912 108.6964 38.8115 -22.9970 4.0933 2.4450
# 3 56.8993 38.8115 77.6991 -5.9776 10.3235 -1.7112
# 4 -23.3554 -22.9970 -5.9776 39.7776 3.4646 9.0320
# 5 3.9086 4.0933 10.3235 3.4646 24.5301 -10.4023
# 6 8.2783 2.4450 -1.7112 9.0320 -10.4023 30.0745
#
#
#
# Elastic Compliance Matrix: (Units=1/GPa)
#
#
# Indices 1 2 3 4 5 6 
#
# 1 0.008960 -0.001692 -0.005256 0.004659 -0.001523 -0.004554
# 2 -0.001692 0.013484 -0.004661 0.007255 -0.002751 -0.004026
# 3 -0.005256 -0.004661 0.019596 -0.002795 -0.005430 0.001902
# 4 0.004659 0.007255 -0.002795 0.036865 -0.013524 -0.017781
# 5 -0.001523 -0.002751 -0.005430 -0.013524 0.055697 0.023660
# 6 -0.004554 -0.004026 0.001902 -0.017781 0.023660 0.048463
#
#
# Mechanical properties :
#
#
# Convention : Reuss Voigt Hill
#
# Bulk Modulus (GPa) = 53.13115 73.88859 63.50987
# Shear Modulus (GPa) = 23.52312 32.62920 28.07616
#
# Velocity S-wave (km/s) = 3.43505 4.04566 3.75279
# Velocity P-wave (km/s) = 6.51032 7.67378 7.11587
#
# Compressibility (1/GPa) = 0.01882135
#
# Stress axis : x y z
#
# Youngs Moduli (GPa) = 111.60431 74.16348 51.03164
#
# Poissons Ratio (x) = 0.12550 0.26821
# Poissons Ratio (y) = 0.18886 0.23786
# Poissons Ratio (z) = 0.58658 0.34568
#
# Static dielectric constant tensor:
#      x y z
#    x 1.525660 -0.105070 0.118630 
#    y -0.105070 1.679240 0.060300 
#    z 0.118630 0.060300 1.643560 
# 
# From -- ./inp_files/237321.got.cif
#   From: 2010.05.17/outbox.cif.g08.bks.cpg/sg2_119_cif.got.tgz:237321.got - 2010.06.03 11:33:40.
