data_PCOD9080667
_publ_section_title
;
Structure prediction by ZEFSAII (Michael W. Deem and Ramdas Pophale) SiO2 
 PCOD9080667
Probable space group: P -1
;
_chemical_formula_sum "Si O2"
_cell_formula_units_Z 16
_cell_length_a 10.301628
_cell_length_b 12.654973
_cell_length_c 10.974308
_cell_angle_alpha 34.801156
_cell_angle_beta 65.087208
_cell_angle_gamma 55.929180
_cell_volume 674.094598
_symmetry_space_group_name_H-M "P -1"
_symmetry_group_IT_number 2
_symmetry_cell_setting 'triclinic'
loop_
_space_group_symop_operation_xyz
x,y,z
-x,-y,-z
loop_
_atom_site_type_symbol
_atom_site_label
_atom_site_fract_x
_atom_site_fract_y
_atom_site_fract_z
Si Si1 0.650517 0.634712 0.557220
Si Si2 0.318946 0.541281 0.040461
Si Si3 0.035461 0.931140 0.858844
Si Si4 0.440446 0.475094 0.680006
Si Si5 0.847529 0.340960 0.248421
Si Si6 0.958214 0.308343 0.678607
Si Si7 0.499610 0.039047 0.108220
Si Si8 0.837067 0.925588 0.705759
O O1 0.694376 0.605048 0.709351
O O2 0.486850 0.618181 0.614152
O O3 0.770327 0.432616 0.632996
O O4 0.631496 0.844433 0.305958
O O5 0.500000 0.500000 0.000000
O O6 0.211046 0.771371 0.908429
O O7 0.243979 0.524662 0.957722
O O8 0.919660 0.932373 0.795613
O O9 0.992134 0.833759 0.087265
O O10 0.019287 0.155072 0.687185
O O11 0.500000 0.500000 0.500000
O O12 0.252294 0.547506 0.699150
O O13 0.520751 0.246040 0.912422
O O14 0.034229 0.268517 0.232084
O O15 0.829736 0.126402 0.450362
O O16 0.000000 0.500000 0.500000
O O17 0.331204 0.072964 0.200806
O O18 0.500000 0.000000 0.000000
#
# Coordination Sequence:
#
# PCOD9080667 Si02
#       8
#     2   2   2   2   2   2   2   2
#     4  11  24  41  65  94 132 171 220 270 334 392
#     4  10  18  40  70  89 125 175 220 265 323 398
#     4   9  22  38  64  93 124 169 215 263 323 392
#     4  12  24  41  66 101 129 171 221 273 346 391
#     4  10  21  41  70  94 129 178 218 274 337 398
#     4  10  23  40  62  92 130 170 213 265 328 391
#     4  12  25  39  65 100 135 171 223 277 329 400
#     4  10  21  41  67  95 131 176 222 271 338 392
#
# _framework density 23.735541000000001
#
# number of rings (size 3 to 8) (size 9 to 14) (size 15 to 20)
#    0.000    1.500    3.750    0.000    5.250    2.500 
#    0.000    0.625   22.000    0.000    0.000    0.000 
#    0.000    0.000    0.000    0.000    0.000    0.000 
#
# Total GULP energy -89413.556989 kJ/mol
# GULP energy per Si atom -5588.347312 kJ/mol
# Density = 2.368152 g / cm^3
# Si number density = 23.735541 Si / 1000 Ang^3
#
#
#
# Elastic Constant Matrix: (Units=GPa)
#
#
# Indices 1 2 3 4 5 6 
#
# 1 61.2166 20.0376 32.5286 -0.0716 1.1460 -11.1997
# 2 20.0376 118.3102 44.0485 5.9027 2.5720 -15.8951
# 3 32.5286 44.0485 168.3265 -8.8869 14.0225 9.7437
# 4 -0.0716 5.9027 -8.8869 38.3697 8.5251 -2.9360
# 5 1.1460 2.5720 14.0225 8.5251 42.1066 -2.1356
# 6 -11.1997 -15.8951 9.7437 -2.9360 -2.1356 25.7871
#
#
#
# Elastic Compliance Matrix: (Units=1/GPa)
#
#
# Indices 1 2 3 4 5 6 
#
# 1 0.020897 -0.000341 -0.004741 -0.000560 0.001689 0.010733
# 2 -0.000341 0.010924 -0.003468 -0.002187 0.001333 0.007757
# 3 -0.004741 -0.003468 0.008627 0.002723 -0.003460 -0.007433
# 4 -0.000560 -0.002187 0.002723 0.028483 -0.006521 0.000083
# 5 0.001689 0.001333 -0.003460 -0.006521 0.026313 0.004299
# 6 0.010733 0.007757 -0.007433 0.000083 0.004299 0.051396
#
#
# Mechanical properties :
#
#
# Convention : Reuss Voigt Hill
#
# Bulk Modulus (GPa) = 42.82998 60.12031 51.47515
# Shear Modulus (GPa) = 29.15068 38.00192 33.57630
#
# Velocity S-wave (km/s) = 3.50829 4.00566 3.76520
# Velocity P-wave (km/s) = 5.87321 6.83944 6.37466
#
# Compressibility (1/GPa) = 0.02334813
#
# Stress axis : x y z
#
# Youngs Moduli (GPa) = 47.85264 91.54423 115.91747
#
# Poissons Ratio (x) = 0.03122 0.54953
# Poissons Ratio (y) = 0.01632 0.40203
# Poissons Ratio (z) = 0.22686 0.31750
#
# Static dielectric constant tensor:
#      x y z
#    x 1.988280 -0.083700 -0.027390 
#    y -0.083700 2.015910 0.022530 
#    z -0.027390 0.022530 1.925980 
# 
# From -- ./inp_files/432273.got.cif
#   From: 2010.05.17/outbox.cif.g08.bks.cpg/sg2_217_cif.got.tgz:432273.got - 2010.06.03 11:33:40.
