data_PCOD9080203
_publ_section_title
;
Structure prediction by ZEFSAII (Michael W. Deem and Ramdas Pophale) SiO2 
 PCOD9080203
Probable space group: P -1
;
_chemical_formula_sum "Si O2"
_cell_formula_units_Z 16
_cell_length_a 5.811290
_cell_length_b 9.622175
_cell_length_c 18.223324
_cell_angle_alpha 61.168432
_cell_angle_beta 73.449226
_cell_angle_gamma 45.550534
_cell_volume 634.980663
_symmetry_space_group_name_H-M "P -1"
_symmetry_group_IT_number 2
_symmetry_cell_setting 'triclinic'
loop_
_space_group_symop_operation_xyz
x,y,z
-x,-y,-z
loop_
_atom_site_type_symbol
_atom_site_label
_atom_site_fract_x
_atom_site_fract_y
_atom_site_fract_z
Si Si1 0.793155 0.740252 0.290908
Si Si2 0.697110 0.410963 0.159698
Si Si3 0.493413 0.844998 0.712390
Si Si4 0.015731 0.828986 0.107178
Si Si5 0.213265 0.154748 0.543782
Si Si6 0.859354 0.263387 0.034258
Si Si7 0.193554 0.585576 0.680482
Si Si8 0.336006 0.455380 0.444244
O O1 0.626018 0.650272 0.306184
O O2 0.941882 0.745226 0.201612
O O3 0.080135 0.593223 0.362757
O O4 0.542277 0.983461 0.278571
O O5 0.549727 0.297331 0.203973
O O6 0.407228 0.663800 0.108701
O O7 0.952353 0.287913 0.100654
O O8 0.793016 0.397157 0.238256
O O9 0.821815 0.708350 0.672030
O O10 0.225116 0.999197 0.636507
O O11 0.934142 0.790618 0.044269
O O12 0.870048 0.066053 0.078412
O O13 0.328170 0.283410 0.522203
O O14 0.828658 0.361266 0.524611
O O15 0.500000 0.000000 0.500000
O O16 0.500000 0.500000 0.000000
O O17 0.331314 0.662708 0.598693
#
# Coordination Sequence:
#
# PCOD9080203 Si02
#       8
#     2   2   2   2   2   2   2   2
#     4  11  22  40  63  91 126 169 210 258 313 370
#     4  11  21  39  64  91 127 165 213 254 307 371
#     4  11  24  39  63  94 127 165 211 261 310 370
#     4  10  18  38  66  88 124 166 207 252 311 369
#     4  10  21  41  65  87 123 166 206 261 314 362
#     4   9  20  35  66  96 118 164 207 253 312 367
#     4  12  23  38  63  95 126 166 211 258 306 374
#     4  10  23  42  62  89 125 165 211 255 313 375
#
# _framework density 25.197616
#
# number of rings (size 3 to 8) (size 9 to 14) (size 15 to 20)
#    0.000    1.500    3.750    1.500    0.000    4.500 
#    0.000   10.625    0.000    4.500    0.000    0.000 
#    0.000    0.000    0.000    0.000    0.000    0.000 
#
# Total GULP energy -89132.040570 kJ/mol
# GULP energy per Si atom -5570.752536 kJ/mol
# Density = 2.514027 g / cm^3
# Si number density = 25.197616 Si / 1000 Ang^3
#
#
#
# Elastic Constant Matrix: (Units=GPa)
#
#
# Indices 1 2 3 4 5 6 
#
# 1 20.2589 15.1039 3.3550 3.6849 8.5545 8.3547
# 2 15.1039 170.9775 18.9906 14.8677 10.2063 16.5072
# 3 3.3550 18.9906 112.1926 16.5822 9.6511 10.1603
# 4 3.6849 14.8677 16.5822 48.7777 7.5023 0.2392
# 5 8.5545 10.2063 9.6511 7.5023 22.5544 7.7242
# 6 8.3547 16.5072 10.1603 0.2392 7.7242 28.9363
#
#
#
# Elastic Compliance Matrix: (Units=1/GPa)
#
#
# Indices 1 2 3 4 5 6 
#
# 1 0.065075 -0.003481 0.001605 -0.001398 -0.019134 -0.012248
# 2 -0.003481 0.006600 -0.000551 -0.001542 -0.000048 -0.002541
# 3 0.001605 -0.000551 0.009874 -0.002891 -0.002633 -0.002889
# 4 -0.001398 -0.001542 -0.002891 0.023043 -0.006518 0.003847
# 5 -0.019134 -0.000048 -0.002633 -0.006518 0.057974 -0.008945
# 6 -0.012248 -0.002541 -0.002889 0.003847 -0.008945 0.042915
#
#
# Mechanical properties :
#
#
# Convention : Reuss Voigt Hill
#
# Bulk Modulus (GPa) = 13.03865 42.03643 27.53754
# Shear Modulus (GPa) = 21.19546 37.78566 29.49056
#
# Velocity S-wave (km/s) = 2.90344 3.87663 3.42478
# Velocity P-wave (km/s) = 4.05287 6.06272 5.15666
#
# Compressibility (1/GPa) = 0.07669507
#
# Stress axis : x y z
#
# Youngs Moduli (GPa) = 15.36688 151.52406 101.27645
#
# Poissons Ratio (x) = 0.52741 -0.16254
# Poissons Ratio (y) = 0.05349 0.05580
# Poissons Ratio (z) = -0.02466 0.08348
#
# Static dielectric constant tensor:
#      x y z
#    x 2.083830 0.041670 0.132760 
#    y 0.041670 2.038770 0.026760 
#    z 0.132760 0.026760 2.080820 
# 
# From -- ./inp_files/139019.got.cif
#   From: 2010.05.17/outbox.cif.g08.bks.cpg/sg2_70_cif.got.tgz:139019.got - 2010.06.03 11:33:40.
