data_PCOD9080687
_publ_section_title
;
Structure prediction by ZEFSAII (Michael W. Deem and Ramdas Pophale) SiO2 
 PCOD9080687
Probable space group: P -1
;
_chemical_formula_sum "Si O2"
_cell_formula_units_Z 14
_cell_length_a 17.393470
_cell_length_b 7.534594
_cell_length_c 11.390711
_cell_angle_alpha 117.882982
_cell_angle_beta 30.216278
_cell_angle_gamma 112.957415
_cell_volume 663.715257
_symmetry_space_group_name_H-M "P -1"
_symmetry_group_IT_number 2
_symmetry_cell_setting 'triclinic'
loop_
_space_group_symop_operation_xyz
x,y,z
-x,-y,-z
loop_
_atom_site_type_symbol
_atom_site_label
_atom_site_fract_x
_atom_site_fract_y
_atom_site_fract_z
Si Si1 0.351460 0.594817 0.161864
Si Si2 0.205551 0.650425 0.950257
Si Si3 0.826400 0.103080 0.358307
Si Si4 0.644847 0.134715 0.369583
Si Si5 0.480736 0.571618 0.729824
Si Si6 0.198813 0.316739 0.664297
Si Si7 0.086093 0.470017 0.610967
O O1 0.302249 0.803113 0.354446
O O2 0.205572 0.458321 0.342307
O O3 0.500000 0.500000 0.000000
O O4 0.390393 0.617499 0.982402
O O5 0.251314 0.845990 0.878006
O O6 0.359293 0.572192 0.786325
O O7 0.155076 0.491211 0.868467
O O8 0.068497 0.650658 0.224317
O O9 0.748921 0.078533 0.326205
O O10 0.941859 0.288001 0.262160
O O11 0.883708 0.888611 0.263239
O O12 0.570128 0.357532 0.558259
O O13 0.500000 0.000000 0.500000
O O14 0.618517 0.721177 0.572696
O O15 0.171782 0.392126 0.591321
#
# Coordination Sequence:
#
# PCOD9080687 Si02
#       7
#     2   2   2   2   2   2   2
#     4  10  18  41  60  81 117 156 199 236 281 341
#     4  11  22  37  58  89 126 148 187 245 300 338
#     4  10  21  36  62  89 109 155 199 230 290 340
#     4  11  20  37  59  89 119 147 194 242 290 347
#     4  11  20  37  61  83 117 158 190 243 284 342
#     4  11  20  38  63  87 117 150 198 235 292 351
#     4  10  22  40  58  87 120 157 186 247 288 338
#
# _framework density 21.093384
#
# number of rings (size 3 to 8) (size 9 to 14) (size 15 to 20)
#    0.857    0.571    5.714    3.857    0.000    1.714 
#    2.571    0.000    0.000    1.714    0.000    0.000 
#    0.000    0.000    0.000    0.000    0.000    0.000 
#
# Total GULP energy -78095.724183 kJ/mol
# GULP energy per Si atom -5578.266013 kJ/mol
# Density = 2.104537 g / cm^3
# Si number density = 21.093384 Si / 1000 Ang^3
#
#
#
# Elastic Constant Matrix: (Units=GPa)
#
#
# Indices 1 2 3 4 5 6 
#
# 1 42.4925 -5.9694 -4.9199 -6.5093 3.0501 -2.2711
# 2 -5.9694 79.7951 7.0286 -24.1418 3.1859 -8.2587
# 3 -4.9199 7.0286 103.6598 -32.7789 4.5223 7.6222
# 4 -6.5093 -24.1418 -32.7789 37.3871 1.9834 -1.7254
# 5 3.0501 3.1859 4.5223 1.9834 29.3429 -9.0982
# 6 -2.2711 -8.2587 7.6222 -1.7254 -9.0982 17.7318
#
#
#
# Elastic Compliance Matrix: (Units=1/GPa)
#
#
# Indices 1 2 3 4 5 6 
#
# 1 0.027622 0.006312 0.005183 0.013811 -0.004227 0.003425
# 2 0.006312 0.018819 0.003888 0.017153 -0.001772 0.008662
# 3 0.005183 0.003888 0.015836 0.017364 -0.006416 -0.005935
# 4 0.013811 0.017153 0.017364 0.056067 -0.008754 0.003258
# 5 -0.004227 -0.001772 -0.006416 -0.008754 0.043357 0.022786
# 6 0.003425 0.008662 -0.005935 0.003258 0.022786 0.075428
#
#
# Mechanical properties :
#
#
# Convention : Reuss Voigt Hill
#
# Bulk Modulus (GPa) = 10.74769 24.24733 17.49751
# Shear Modulus (GPa) = 21.06341 32.21290 26.63815
#
# Velocity S-wave (km/s) = 3.16346 3.91212 3.55754
# Velocity P-wave (km/s) = 4.29530 5.65035 5.01877
#
# Compressibility (1/GPa) = 0.09304324
#
# Stress axis : x y z
#
# Youngs Moduli (GPa) = 36.20237 53.13864 63.14576
#
# Poissons Ratio (x) = -0.33539 -0.32729
# Poissons Ratio (y) = -0.22850 -0.24552
# Poissons Ratio (z) = -0.18764 -0.20661
#
# Static dielectric constant tensor:
#      x y z
#    x 1.736090 0.017660 -0.014030 
#    y 0.017660 1.801890 -0.049910 
#    z -0.014030 -0.049910 1.829640 
# 
# From -- ./inp_files/256764.got.cif
#   From: 2010.05.17/outbox.cif.g08.bks.cpg/sg2_129_cif.got.tgz:256764.got - 2010.06.03 11:33:40.
