data_PCOD9080815
_publ_section_title
;
Structure prediction by ZEFSAII (Michael W. Deem and Ramdas Pophale) SiO2 
 PCOD9080815
Probable space group: P -1
;
_chemical_formula_sum "Si O2"
_cell_formula_units_Z 16
_cell_length_a 5.515302
_cell_length_b 9.447013
_cell_length_c 18.381122
_cell_angle_alpha 106.683656
_cell_angle_beta 131.373994
_cell_angle_gamma 103.446334
_cell_volume 557.102856
_symmetry_space_group_name_H-M "P -1"
_symmetry_group_IT_number 2
_symmetry_cell_setting 'triclinic'
loop_
_space_group_symop_operation_xyz
x,y,z
-x,-y,-z
loop_
_atom_site_type_symbol
_atom_site_label
_atom_site_fract_x
_atom_site_fract_y
_atom_site_fract_z
Si Si1 0.450417 0.811195 0.300381
Si Si2 0.302354 0.818340 0.538082
Si Si3 0.405084 0.643549 0.020262
Si Si4 0.447491 0.396524 0.802857
Si Si5 0.435383 0.006060 0.190694
Si Si6 0.286160 0.315356 0.476137
Si Si7 0.977995 0.873656 0.791290
Si Si8 0.852898 0.406654 0.186000
O O1 0.747919 0.768179 0.318183
O O2 0.149863 0.615869 0.248607
O O3 0.609379 0.982082 0.408700
O O4 0.294711 0.848780 0.200155
O O5 0.427510 0.751543 0.484063
O O6 0.639933 0.843154 0.665005
O O7 0.878940 0.683956 0.476582
O O8 0.442058 0.716886 0.956573
O O9 0.930893 0.534533 0.922138
O O10 0.500000 0.500000 0.000000
O O11 0.637546 0.711096 0.153104
O O12 0.363670 0.546348 0.792631
O O13 0.147660 0.069758 0.152744
O O14 0.868043 0.167068 0.331940
O O15 0.573665 0.984644 0.135055
O O16 0.500000 0.500000 0.500000
O O17 0.949991 0.690476 0.765740
#
# Coordination Sequence:
#
# PCOD9080815 Si02
#       8
#     2   2   2   2   2   2   2   2
#     4   9  19  30  49  76 100 132 166 209 260 293
#     4   9  19  32  49  75 107 130 160 208 257 293
#     4   8  16  31  42  72  97 128 164 219 246 292
#     4   9  17  28  50  71  99 125 170 214 254 289
#     4   9  20  34  50  73 108 132 160 207 261 297
#     4   9  16  30  52  76  97 129 172 206 237 291
#     4   9  19  33  48  73 106 135 162 206 255 299
#     4  10  19  28  53  76  96 130 177 210 249 300
#
# _framework density 28.720011
#
# number of rings (size 3 to 8) (size 9 to 14) (size 15 to 20)
#    0.000    3.250    0.000    0.375   10.500    0.000 
#    0.000    0.000    0.000    3.750    0.000   49.000 
#    0.000    0.000    0.000    0.000    0.000    0.000 
#
# Total GULP energy -89187.339087 kJ/mol
# GULP energy per Si atom -5574.208693 kJ/mol
# Density = 2.865464 g / cm^3
# Si number density = 28.720011 Si / 1000 Ang^3
#
#
#
# Elastic Constant Matrix: (Units=GPa)
#
#
# Indices 1 2 3 4 5 6 
#
# 1 208.3214 72.8541 25.8034 13.0062 13.5253 -41.0995
# 2 72.8541 179.8166 42.7530 29.8176 19.3559 -34.4932
# 3 25.8034 42.7530 106.1140 10.8352 8.8455 4.4233
# 4 13.0062 29.8176 10.8352 42.8243 14.1724 5.8988
# 5 13.5253 19.3559 8.8455 14.1724 47.7516 -1.7833
# 6 -41.0995 -34.4932 4.4233 5.8988 -1.7833 64.0357
#
#
#
# Elastic Compliance Matrix: (Units=1/GPa)
#
#
# Indices 1 2 3 4 5 6 
#
# 1 0.006163 -0.001428 -0.000919 -0.000902 -0.000605 0.003316
# 2 -0.001428 0.008556 -0.002681 -0.005151 -0.000877 0.004328
# 3 -0.000919 -0.002681 0.010907 0.000035 -0.000789 -0.002813
# 4 -0.000902 -0.005151 0.000035 0.030365 -0.006912 -0.006345
# 5 -0.000605 -0.000877 -0.000789 -0.006912 0.023684 0.000490
# 6 0.003316 0.004328 -0.002813 -0.006345 0.000490 0.020868
#
#
# Mechanical properties :
#
#
# Convention : Reuss Voigt Hill
#
# Bulk Modulus (GPa) = 64.22693 86.34146 75.28420
# Shear Modulus (GPa) = 43.18167 54.44507 48.81337
#
# Velocity S-wave (km/s) = 3.88176 4.35871 4.12713
# Velocity P-wave (km/s) = 6.51939 7.44712 6.99864
#
# Compressibility (1/GPa) = 0.01556979
#
# Stress axis : x y z
#
# Youngs Moduli (GPa) = 162.25033 116.87868 91.68364
#
# Poissons Ratio (x) = 0.16687 0.08428
# Poissons Ratio (y) = 0.23165 0.24583
# Poissons Ratio (z) = 0.14914 0.31339
#
# Static dielectric constant tensor:
#      x y z
#    x 2.867440 0.001000 -0.103700 
#    y 0.001000 2.319290 0.019080 
#    z -0.103700 0.019080 2.532970 
# 
# From -- ./inp_files/621693.got.cif
#   From: 2010.05.17/outbox.cif.g08.bks.cpg/sg2_311_cif.got.tgz:621693.got - 2010.06.03 11:33:40.
