data_PCOD9080634
_publ_section_title
;
Structure prediction by ZEFSAII (Michael W. Deem and Ramdas Pophale) SiO2 
 PCOD9080634
Probable space group: P -1
;
_chemical_formula_sum "Si O2"
_cell_formula_units_Z 14
_cell_length_a 8.838375
_cell_length_b 15.206164
_cell_length_c 9.951902
_cell_angle_alpha 34.257791
_cell_angle_beta 116.971031
_cell_angle_gamma 115.154440
_cell_volume 667.651984
_symmetry_space_group_name_H-M "P -1"
_symmetry_group_IT_number 2
_symmetry_cell_setting 'triclinic'
loop_
_space_group_symop_operation_xyz
x,y,z
-x,-y,-z
loop_
_atom_site_type_symbol
_atom_site_label
_atom_site_fract_x
_atom_site_fract_y
_atom_site_fract_z
Si Si1 0.432957 0.361082 0.550155
Si Si2 0.396797 0.374892 0.210259
Si Si3 0.202666 0.064284 0.863707
Si Si4 0.122386 0.957422 0.391171
Si Si5 0.429931 0.950032 0.336828
Si Si6 0.968447 0.758787 0.815818
Si Si7 0.688759 0.157104 0.029951
O O1 0.500000 0.500000 0.500000
O O2 0.414990 0.416684 0.321702
O O3 0.264150 0.249154 0.667249
O O4 0.578256 0.243108 0.772132
O O5 0.477591 0.208720 0.433728
O O6 0.195837 0.363627 0.108489
O O7 0.500000 0.500000 0.000000
O O8 0.001304 0.028794 0.804921
O O9 0.266646 0.001385 0.825172
O O10 0.299917 0.973473 0.130364
O O11 0.311262 0.953740 0.415004
O O12 0.039051 0.811739 0.630250
O O13 0.104830 0.099879 0.307561
O O14 0.572357 0.097647 0.184204
O O15 0.141183 0.735618 0.995409
#
# Coordination Sequence:
#
# PCOD9080634 Si02
#       7
#     2   2   2   2   2   2   2
#     4  11  22  41  66  94 128 173 216 253 322 387
#     4  12  25  44  62  91 132 175 212 268 318 383
#     4  10  18  40  67  93 126 164 211 262 321 375
#     4  10  20  35  67  99 126 152 210 278 311 379
#     4  11  20  36  66  98 122 161 222 257 318 370
#     4  10  22  41  61  93 130 165 207 260 332 371
#     4  10  20  41  73  91 123 169 208 267 317 383
#
# _framework density 20.969009
#
# number of rings (size 3 to 8) (size 9 to 14) (size 15 to 20)
#    0.000    1.429    4.286    3.000    0.000    5.714 
#    2.571    2.143    0.000    0.000    0.000    0.000 
#    0.000    0.000    0.000    0.000    0.000    0.000 
#
# Total GULP energy -78112.398892 kJ/mol
# GULP energy per Si atom -5579.457064 kJ/mol
# Density = 2.092128 g / cm^3
# Si number density = 20.969009 Si / 1000 Ang^3
#
#
#
# Elastic Constant Matrix: (Units=GPa)
#
#
# Indices 1 2 3 4 5 6 
#
# 1 128.2052 39.9027 15.5843 9.1622 -17.9139 23.2862
# 2 39.9027 96.5004 20.0190 10.6447 -8.1957 23.7244
# 3 15.5843 20.0190 61.4984 12.5451 -16.9793 20.6493
# 4 9.1622 10.6447 12.5451 30.5672 3.7376 3.8002
# 5 -17.9139 -8.1957 -16.9793 3.7376 26.1640 3.8100
# 6 23.2862 23.7244 20.6493 3.8002 3.8100 39.7976
#
#
#
# Elastic Compliance Matrix: (Units=1/GPa)
#
#
# Indices 1 2 3 4 5 6 
#
# 1 0.011638 -0.001972 0.005523 -0.005519 0.013066 -0.009224
# 2 -0.001972 0.013786 0.000903 -0.004277 0.005277 -0.007630
# 3 0.005523 0.000903 0.034994 -0.017418 0.032668 -0.023391
# 4 -0.005519 -0.004277 -0.017418 0.044413 -0.024651 0.012936
# 5 0.013066 0.005277 0.032668 -0.024651 0.078330 -0.032886
# 6 -0.009224 -0.007630 -0.023391 0.012936 -0.032886 0.049122
#
#
# Mechanical properties :
#
#
# Convention : Reuss Voigt Hill
#
# Bulk Modulus (GPa) = 14.42436 48.57957 31.50196
# Shear Modulus (GPa) = 20.28532 33.35229 26.81881
#
# Velocity S-wave (km/s) = 3.11367 3.99250 3.58015
# Velocity P-wave (km/s) = 4.45201 6.66866 5.66972
#
# Compressibility (1/GPa) = 0.06932718
#
# Stress axis : x y z
#
# Youngs Moduli (GPa) = 85.92663 72.53508 28.57663
#
# Poissons Ratio (x) = 0.14303 -0.15783
# Poissons Ratio (y) = 0.16943 -0.02581
# Poissons Ratio (z) = -0.47459 -0.06552
#
# Static dielectric constant tensor:
#      x y z
#    x 1.783570 0.005070 0.025240 
#    y 0.005070 1.786680 0.015290 
#    z 0.025240 0.015290 1.771880 
# 
# From -- ./inp_files/180027.got.cif
#   From: 2010.05.17/outbox.cif.g08.bks.cpg/sg2_91_cif.got.tgz:180027.got - 2010.06.03 11:33:40.
