data_PCOD9080422
_publ_section_title
;
Structure prediction by ZEFSAII (Michael W. Deem and Ramdas Pophale) SiO2 
 PCOD9080422
Probable space group: P -1
;
_chemical_formula_sum "Si O2"
_cell_formula_units_Z 14
_cell_length_a 8.838804
_cell_length_b 10.211338
_cell_length_c 7.772837
_cell_angle_alpha 102.629906
_cell_angle_beta 116.413024
_cell_angle_gamma 71.098706
_cell_volume 592.126289
_symmetry_space_group_name_H-M "P -1"
_symmetry_group_IT_number 2
_symmetry_cell_setting 'triclinic'
loop_
_space_group_symop_operation_xyz
x,y,z
-x,-y,-z
loop_
_atom_site_type_symbol
_atom_site_label
_atom_site_fract_x
_atom_site_fract_y
_atom_site_fract_z
Si Si1 0.748884 0.653781 0.430293
Si Si2 0.391583 0.599809 0.830991
Si Si3 0.652813 0.557534 0.683331
Si Si4 0.135343 0.753268 0.254758
Si Si5 0.122873 0.102674 0.106890
Si Si6 0.567820 0.099756 0.693714
Si Si7 0.954766 0.227910 0.397477
O O1 0.705868 0.508645 0.331880
O O2 0.723252 0.659286 0.626233
O O3 0.600809 0.777738 0.305222
O O4 0.940307 0.656910 0.473662
O O5 0.543558 0.638059 0.809230
O O6 0.223342 0.729789 0.793777
O O7 0.500000 0.500000 0.000000
O O8 0.500000 0.500000 0.500000
O O9 0.793060 0.414412 0.756944
O O10 0.295074 0.816834 0.289469
O O11 0.090595 0.811522 0.444163
O O12 0.968613 0.787105 0.052341
O O13 0.094997 0.139811 0.307708
O O14 0.681578 0.989535 0.853308
O O15 0.000000 0.000000 0.000000
O O16 0.500000 0.000000 0.500000
#
# Coordination Sequence:
#
# PCOD9080422 Si02
#       7
#     2   2   2   2   2   2   2
#     4  11  22  41  66  95 130 167 215 266 333 377
#     4  11  22  38  65  97 129 167 215 268 323 386
#     4  10  18  39  64  91 127 171 203 260 332 386
#     4  11  22  43  70  91 130 172 221 260 328 387
#     4  10  25  42  66  93 129 174 220 263 315 388
#     4  11  21  43  67  88 131 177 211 263 326 389
#     4  12  23  42  68  98 128 170 218 273 322 380
#
# _framework density 23.643604
#
# number of rings (size 3 to 8) (size 9 to 14) (size 15 to 20)
#    0.000    1.143    7.143    1.286    2.000    2.286 
#    2.571    2.143    0.000    0.000    0.000    0.000 
#    0.000    0.000    0.000    0.000    0.000    0.000 
#
# Total GULP energy -77945.899748 kJ/mol
# GULP energy per Si atom -5567.564268 kJ/mol
# Density = 2.358979 g / cm^3
# Si number density = 23.643604 Si / 1000 Ang^3
#
#
#
# Elastic Constant Matrix: (Units=GPa)
#
#
# Indices 1 2 3 4 5 6 
#
# 1 90.7247 13.6874 38.2621 -23.7639 5.0823 -8.4813
# 2 13.6874 78.3556 10.9250 -28.4981 12.9241 -30.0364
# 3 38.2621 10.9250 77.5247 -36.5949 16.1375 -16.0213
# 4 -23.7639 -28.4981 -36.5949 54.4461 -11.6646 16.2743
# 5 5.0823 12.9241 16.1375 -11.6646 26.2771 -7.1485
# 6 -8.4813 -30.0364 -16.0213 16.2743 -7.1485 28.7451
#
#
#
# Elastic Compliance Matrix: (Units=1/GPa)
#
#
# Indices 1 2 3 4 5 6 
#
# 1 0.014405 -0.002282 -0.007077 0.001619 0.002774 -0.002306
# 2 -0.002282 0.025628 0.008254 0.009470 -0.006579 0.023709
# 3 -0.007077 0.008254 0.025729 0.013161 -0.009650 0.011025
# 4 0.001619 0.009470 0.013161 0.033467 0.001572 -0.000848
# 5 0.002774 -0.006579 -0.009650 0.001572 0.047221 -0.000581
# 6 -0.002306 0.023709 0.011025 -0.000848 -0.000581 0.065363
#
#
# Mechanical properties :
#
#
# Convention : Reuss Voigt Hill
#
# Bulk Modulus (GPa) = 15.73563 41.37266 28.55415
# Shear Modulus (GPa) = 21.25794 34.14235 27.70015
#
# Velocity S-wave (km/s) = 3.00175 3.80418 3.42653
# Velocity P-wave (km/s) = 4.32248 6.06895 5.26858
#
# Compressibility (1/GPa) = 0.06355005
#
# Stress axis : x y z
#
# Youngs Moduli (GPa) = 69.42206 39.02028 38.86678
#
# Poissons Ratio (x) = 0.08905 0.27508
# Poissons Ratio (y) = 0.15842 -0.32080
# Poissons Ratio (z) = 0.49133 -0.32207
#
# Static dielectric constant tensor:
#      x y z
#    x 1.607570 -0.371470 0.312820 
#    y -0.371470 1.743830 0.341270 
#    z 0.312820 0.341270 1.731290 
# 
# From -- ./inp_files/171725.got.cif
#   From: 2010.05.17/outbox.cif.g08.bks.cpg/sg2_86_cif.got.tgz:171725.got - 2010.06.03 11:33:40.
