data_PCOD9080373
_publ_section_title
;
Structure prediction by ZEFSAII (Michael W. Deem and Ramdas Pophale) SiO2 
 PCOD9080373
Probable space group: P -1
;
_chemical_formula_sum "Si O2"
_cell_formula_units_Z 13
_cell_length_a 13.149642
_cell_length_b 8.977278
_cell_length_c 8.326646
_cell_angle_alpha 70.042846
_cell_angle_beta 65.984064
_cell_angle_gamma 31.723666
_cell_volume 472.087368
_symmetry_space_group_name_H-M "P -1"
_symmetry_group_IT_number 2
_symmetry_cell_setting 'triclinic'
loop_
_space_group_symop_operation_xyz
x,y,z
-x,-y,-z
loop_
_atom_site_type_symbol
_atom_site_label
_atom_site_fract_x
_atom_site_fract_y
_atom_site_fract_z
Si Si1 0.500000 0.500000 0.500000
Si Si2 0.847418 0.349618 0.630927
Si Si3 0.191118 0.442350 0.097904
Si Si4 0.551342 0.144836 0.816968
Si Si5 0.927140 0.977449 0.905711
Si Si6 0.682365 0.764253 0.345649
Si Si7 0.618540 0.188665 0.226212
O O1 0.572129 0.291964 0.674006
O O2 0.642325 0.239275 0.368894
O O3 0.893298 0.409632 0.729233
O O4 0.846827 0.456357 0.432945
O O5 0.616073 0.569377 0.710038
O O6 0.954102 0.055764 0.704017
O O7 0.060713 0.664362 0.954712
O O8 0.253063 0.186653 0.148369
O O9 0.397570 0.301644 0.003415
O O10 0.429735 0.189867 0.743253
O O11 0.706692 0.187996 0.024300
O O12 0.000000 0.000000 0.000000
O O13 0.500000 0.000000 0.500000
O O14 0.736493 0.882529 0.243179
#
# Coordination Sequence:
#
# PCOD9080373 Si02
#       7
#     1   2   2   2   2   2   2
#     4  12  20  34  62  98 114 144 210 252 294 340
#     4  10  18  39  65  87 116 159 201 243 296 359
#     4  10  21  40  63  84 124 160 198 242 298 355
#     4  11  21  38  64  89 118 157 200 251 292 355
#     4  10  22  38  58  92 124 156 198 247 298 353
#     4  10  18  39  62  88 116 156 205 243 294 359
#     4  11  21  37  66  89 118 161 202 243 297 361
#
# _framework density 27.537275000000001
#
# number of rings (size 3 to 8) (size 9 to 14) (size 15 to 20)
#    0.000    1.538    6.154    2.308    0.000    0.000 
#    0.000   10.000    3.385    0.000    0.000    0.000 
#    0.000    0.000    0.000    0.000    0.000    0.000 
#
# Total GULP energy -72435.333624 kJ/mol
# GULP energy per Si atom -5571.948740 kJ/mol
# Density = 2.747460 g / cm^3
# Si number density = 27.537275 Si / 1000 Ang^3
#
#
#
# Elastic Constant Matrix: (Units=GPa)
#
#
# Indices 1 2 3 4 5 6 
#
# 1 76.1303 26.6151 18.0662 -6.9358 -6.5856 2.4974
# 2 26.6151 149.3078 45.0447 -57.1390 -2.6722 27.1525
# 3 18.0662 45.0447 119.5019 -44.3628 5.7592 26.4376
# 4 -6.9358 -57.1390 -44.3628 74.4248 13.0075 -13.7027
# 5 -6.5856 -2.6722 5.7592 13.0075 36.7734 -2.2296
# 6 2.4974 27.1525 26.4376 -13.7027 -2.2296 35.8032
#
#
#
# Elastic Compliance Matrix: (Units=1/GPa)
#
#
# Indices 1 2 3 4 5 6 
#
# 1 0.015036 -0.003460 -0.003010 -0.003273 0.004241 0.002809
# 2 -0.003460 0.011256 0.000821 0.008279 -0.003219 -0.005934
# 3 -0.003010 0.000821 0.013456 0.007988 -0.005877 -0.007658
# 4 -0.003273 0.008279 0.007988 0.025556 -0.010446 -0.002819
# 5 0.004241 -0.003219 -0.005877 -0.010446 0.032608 0.004517
# 6 0.002809 -0.005934 -0.007658 -0.002819 0.004517 0.037092
#
#
# Mechanical properties :
#
#
# Convention : Reuss Voigt Hill
#
# Bulk Modulus (GPa) = 35.14662 58.26580 46.70621
# Shear Modulus (GPa) = 32.09554 46.41452 39.25503
#
# Velocity S-wave (km/s) = 3.41769 4.10996 3.77971
# Velocity P-wave (km/s) = 5.32589 6.61265 6.00384
#
# Compressibility (1/GPa) = 0.02845224
#
# Stress axis : x y z
#
# Youngs Moduli (GPa) = 66.50866 88.83899 74.31408
#
# Poissons Ratio (x) = 0.30735 0.22367
# Poissons Ratio (y) = 0.23010 -0.06104
# Poissons Ratio (z) = 0.20018 -0.07297
#
# Static dielectric constant tensor:
#      x y z
#    x 2.245440 0.028520 0.011460 
#    y 0.028520 2.257950 -0.021300 
#    z 0.011460 -0.021300 2.197900 
# 
# From -- ./inp_files/294780.got.cif
#   From: 2010.05.17/outbox.cif.g08.bks.cpg/sg2_148_cif.got.tgz:294780.got - 2010.06.03 11:33:40.
