data_PCOD9080351
_publ_section_title
;
Structure prediction by ZEFSAII (Michael W. Deem and Ramdas Pophale) SiO2 
 PCOD9080351
Probable space group: P -1
;
_chemical_formula_sum "Si O2"
_cell_formula_units_Z 16
_cell_length_a 6.936712
_cell_length_b 10.033020
_cell_length_c 19.847191
_cell_angle_alpha 127.900844
_cell_angle_beta 113.905250
_cell_angle_gamma 45.663597
_cell_volume 778.868147
_symmetry_space_group_name_H-M "P -1"
_symmetry_group_IT_number 2
_symmetry_cell_setting 'triclinic'
loop_
_space_group_symop_operation_xyz
x,y,z
-x,-y,-z
loop_
_atom_site_type_symbol
_atom_site_label
_atom_site_fract_x
_atom_site_fract_y
_atom_site_fract_z
Si Si1 0.543335 0.064470 0.649009
Si Si2 0.739144 0.303275 0.100344
Si Si3 0.860130 0.147857 0.926714
Si Si4 0.111369 0.670059 0.552665
Si Si5 0.882256 0.541619 0.385561
Si Si6 0.200969 0.728739 0.190914
Si Si7 0.698798 0.051304 0.306846
Si Si8 0.800326 0.804437 0.788156
O O1 0.674093 0.150932 0.736812
O O2 0.336201 0.249939 0.624374
O O3 0.792667 0.852640 0.580702
O O4 0.401785 0.008478 0.663192
O O5 0.458970 0.478495 0.151485
O O6 0.974698 0.319452 0.159614
O O7 0.718037 0.311282 0.019389
O O8 0.859389 0.064738 0.068923
O O9 0.897845 0.223692 0.885683
O O10 0.712276 0.044042 0.856171
O O11 0.229009 0.499428 0.577302
O O12 0.106374 0.562818 0.450800
O O13 0.232998 0.795043 0.610384
O O14 0.021830 0.328670 0.293627
O O15 0.959183 0.833836 0.241980
O O16 0.466464 0.170991 0.253360
#
# Coordination Sequence:
#
# PCOD9080351 Si02
#       8
#     2   2   2   2   2   2   2   2
#     4  11  20  42  61  88 125 162 200 254 301 362
#     4   9  19  36  64  88 113 164 204 242 300 366
#     4   9  18  37  65  83 122 157 202 248 302 352
#     4  10  24  41  60  92 122 160 204 256 303 355
#     4  11  21  41  65  85 122 165 205 248 304 365
#     4  11  20  37  63  89 118 164 202 241 307 361
#     4  11  23  39  63  91 130 157 203 256 305 358
#     4  10  18  39  61  85 121 165 192 251 306 354
#
# _framework density 20.542628000000001
#
# number of rings (size 3 to 8) (size 9 to 14) (size 15 to 20)
#    0.750    1.000    3.750    1.500    0.000    1.000 
#    6.750    1.250    0.000    0.000    0.000    0.000 
#    0.000    0.000    0.000    0.000    0.000    0.000 
#
# Total GULP energy -89150.562520 kJ/mol
# GULP energy per Si atom -5571.910158 kJ/mol
# Density = 2.049587 g / cm^3
# Si number density = 20.542628 Si / 1000 Ang^3
#
#
#
# Elastic Constant Matrix: (Units=GPa)
#
#
# Indices 1 2 3 4 5 6 
#
# 1 83.9803 31.3019 21.5548 -5.4427 -2.2431 -5.4241
# 2 31.3019 88.3541 12.4300 -16.7059 -3.9815 -10.2238
# 3 21.5548 12.4300 106.9851 -13.8139 10.7261 -4.1817
# 4 -5.4427 -16.7059 -13.8139 24.8232 -2.2496 0.9376
# 5 -2.2431 -3.9815 10.7261 -2.2496 13.0906 -1.7499
# 6 -5.4241 -10.2238 -4.1817 0.9376 -1.7499 14.5894
#
#
#
# Elastic Compliance Matrix: (Units=1/GPa)
#
#
# Indices 1 2 3 4 5 6 
#
# 1 0.014474 -0.004601 -0.002813 -0.001248 0.003417 0.001841
# 2 -0.004601 0.016378 0.000014 0.010305 0.007287 0.009982
# 3 -0.002813 0.000014 0.011478 0.004939 -0.008918 0.000867
# 4 -0.001248 0.010305 0.004939 0.050223 0.008298 0.005940
# 5 0.003417 0.007287 -0.008918 0.008298 0.089805 0.014059
# 6 0.001841 0.009982 0.000867 0.005940 0.014059 0.077776
#
#
# Mechanical properties :
#
#
# Convention : Reuss Voigt Hill
#
# Bulk Modulus (GPa) = 36.32460 45.54366 40.93413
# Shear Modulus (GPa) = 17.59885 24.76951 21.18418
#
# Velocity S-wave (km/s) = 2.93012 3.47617 3.21476
# Velocity P-wave (km/s) = 5.40078 6.19114 5.80941
#
# Compressibility (1/GPa) = 0.02752956
#
# Stress axis : x y z
#
# Youngs Moduli (GPa) = 69.09016 61.05758 87.12323
#
# Poissons Ratio (x) = 0.28093 0.24512
# Poissons Ratio (y) = 0.31788 -0.00125
# Poissons Ratio (z) = 0.19438 -0.00087
#
# Static dielectric constant tensor:
#      x y z
#    x 1.716560 -0.020780 0.008170 
#    y -0.020780 1.781050 0.008590 
#    z 0.008170 0.008590 1.769350 
# 
# From -- ./inp_files/548326.got.cif
#   From: 2010.05.17/outbox.cif.g08.bks.cpg/sg2_275_cif.got.tgz:548326.got - 2010.06.03 11:33:40.
