data_PCOD9080122
_publ_section_title
;
Structure prediction by ZEFSAII (Michael W. Deem and Ramdas Pophale) SiO2 
 PCOD9080122
Probable space group: P -1
;
_chemical_formula_sum "Si O2"
_cell_formula_units_Z 13
_cell_length_a 13.717078
_cell_length_b 17.105922
_cell_length_c 5.137082
_cell_angle_alpha 81.368454
_cell_angle_beta 93.585370
_cell_angle_gamma 26.662913
_cell_volume 479.370599
_symmetry_space_group_name_H-M "P -1"
_symmetry_group_IT_number 2
_symmetry_cell_setting 'triclinic'
loop_
_space_group_symop_operation_xyz
x,y,z
-x,-y,-z
loop_
_atom_site_type_symbol
_atom_site_label
_atom_site_fract_x
_atom_site_fract_y
_atom_site_fract_z
Si Si1 0.671825 0.824065 0.314342
Si Si2 0.000000 0.000000 0.500000
Si Si3 0.532125 0.137126 0.347541
Si Si4 0.206110 0.442749 0.756004
Si Si5 0.326360 0.831791 0.260582
Si Si6 0.226872 0.677298 0.870129
Si Si7 0.964572 0.841683 0.235211
O O1 0.531009 0.896934 0.508385
O O2 0.746293 0.682504 0.275770
O O3 0.931871 0.667101 0.526386
O O4 0.500000 0.000000 0.000000
O O5 0.739301 0.190421 0.547723
O O6 0.906026 0.139873 0.233790
O O7 0.672748 0.089568 0.595815
O O8 0.292005 0.363688 0.107809
O O9 0.714325 0.988404 0.211524
O O10 0.403988 0.357921 0.720179
O O11 0.146749 0.984788 0.905368
O O12 0.142888 0.704366 0.572158
O O13 0.500000 0.500000 0.000000
O O14 0.118427 0.707690 0.074873
#
# Coordination Sequence:
#
# PCOD9080122 Si02
#       7
#     2   1   2   2   2   2   2
#     4  10  21  38  63  91 123 161 209 264 320 385
#     4  10  20  40  62  90 126 166 216 256 308 370
#     4  10  18  38  64  87 126 170 205 262 324 377
#     4   9  20  38  61  87 124 164 208 256 324 378
#     4   9  19  36  62  88 122 168 208 260 311 371
#     4  11  23  39  63  89 126 166 217 263 316 369
#     4  10  19  39  62  89 124 168 208 259 320 373
#
# _framework density 27.118891999999999
#
# number of rings (size 3 to 8) (size 9 to 14) (size 15 to 20)
#    0.000    2.154    3.077    0.923    0.000    3.077 
#    2.769    0.000    6.769    0.000    0.000    0.000 
#    0.000    0.000    0.000    0.000    0.000    0.000 
#
# Total GULP energy -72427.548686 kJ/mol
# GULP energy per Si atom -5571.349899 kJ/mol
# Density = 2.705717 g / cm^3
# Si number density = 27.118892 Si / 1000 Ang^3
#
#
#
# Elastic Constant Matrix: (Units=GPa)
#
#
# Indices 1 2 3 4 5 6 
#
# 1 80.7385 41.3356 28.0163 -7.6753 -14.4418 -14.3322
# 2 41.3356 142.5116 120.0861 -13.4185 -20.5957 -56.1249
# 3 28.0163 120.0861 188.2883 -1.9403 -15.8262 -35.4457
# 4 -7.6753 -13.4185 -1.9403 61.6676 -16.0197 -8.6745
# 5 -14.4418 -20.5957 -15.8262 -16.0197 44.5774 -4.2246
# 6 -14.3322 -56.1249 -35.4457 -8.6745 -4.2246 58.3897
#
#
#
# Elastic Compliance Matrix: (Units=1/GPa)
#
#
# Indices 1 2 3 4 5 6 
#
# 1 0.015284 -0.003406 0.000617 0.002621 0.004689 0.001581
# 2 -0.003406 0.037020 -0.015924 0.016086 0.018860 0.028835
# 3 0.000617 -0.015924 0.013331 -0.005473 -0.005173 -0.008250
# 4 0.002621 0.016086 -0.005473 0.027029 0.017765 0.018084
# 5 0.004689 0.018860 -0.005173 0.017765 0.039262 0.021619
# 6 0.001581 0.028835 -0.008250 0.018084 0.021619 0.044474
#
#
# Mechanical properties :
#
#
# Convention : Reuss Voigt Hill
#
# Bulk Modulus (GPa) = 35.45115 87.82381 61.63748
# Shear Modulus (GPa) = 22.39858 47.73363 35.06610
#
# Velocity S-wave (km/s) = 2.87704 4.19998 3.59980
# Velocity P-wave (km/s) = 4.91297 7.48163 6.32899
#
# Compressibility (1/GPa) = 0.02820783
#
# Stress axis : x y z
#
# Youngs Moduli (GPa) = 65.42893 27.01269 75.01292
#
# Poissons Ratio (x) = 0.09200 -0.04626
# Poissons Ratio (y) = 0.22284 1.19452
# Poissons Ratio (z) = -0.04035 0.43016
#
# Static dielectric constant tensor:
#      x y z
#    x 2.147090 -0.269970 0.111070 
#    y -0.269970 2.342270 -0.209070 
#    z 0.111070 -0.209070 2.238750 
# 
# From -- ./inp_files/113009.got.cif
#   From: 2010.05.17/outbox.cif.g08.bks.cpg/sg2_57_cif.got.tgz:113009.got - 2010.06.03 11:33:40.
