data_PCOD9080235
_publ_section_title
;
Structure prediction by ZEFSAII (Michael W. Deem and Ramdas Pophale) SiO2 
 PCOD9080235
Probable space group: P -1
;
_chemical_formula_sum "Si O2"
_cell_formula_units_Z 12
_cell_length_a 14.123929
_cell_length_b 8.869116
_cell_length_c 6.778898
_cell_angle_alpha 126.838428
_cell_angle_beta 56.106203
_cell_angle_gamma 95.563241
_cell_volume 526.880048
_symmetry_space_group_name_H-M "P -1"
_symmetry_group_IT_number 2
_symmetry_cell_setting 'triclinic'
loop_
_space_group_symop_operation_xyz
x,y,z
-x,-y,-z
loop_
_atom_site_type_symbol
_atom_site_label
_atom_site_fract_x
_atom_site_fract_y
_atom_site_fract_z
Si Si1 0.110142 0.014054 0.254843
Si Si2 0.701437 0.320418 0.987865
Si Si3 0.873512 0.602408 0.612999
Si Si4 0.351508 0.260923 0.747760
Si Si5 0.442272 0.796773 0.236747
Si Si6 0.800672 0.236077 0.386756
O O1 0.234042 0.838958 0.046900
O O2 0.116929 0.234541 0.425574
O O3 0.106818 0.953413 0.982805
O O4 0.000000 0.000000 0.500000
O O5 0.581273 0.293300 0.013306
O O6 0.800723 0.253275 0.638521
O O7 0.672384 0.557020 0.234950
O O8 0.828194 0.432076 0.440031
O O9 0.000000 0.500000 0.500000
O O10 0.774567 0.718008 0.984284
O O11 0.433907 0.295791 0.858660
O O12 0.415601 0.033891 0.422491
O O13 0.335615 0.770552 0.477635
#
# Coordination Sequence:
#
# PCOD9080235 Si02
#       6
#     2   2   2   2   2   2
#     4  12  24  40  60  90 126 158 206 252 296 360
#     4   9  21  37  61  89 121 156 199 249 300 353
#     4  11  23  39  64  91 120 164 203 246 302 366
#     4  10  18  38  67  88 122 161 204 241 307 358
#     4   9  19  37  68  89 118 164 198 249 301 359
#     4   9  22  41  61  88 121 159 200 244 307 349
#
# _framework density 22.775585
#
# number of rings (size 3 to 8) (size 9 to 14) (size 15 to 20)
#    1.000    1.000    1.667    2.500    0.000    6.000 
#    0.000    1.667    0.000    0.000    0.000    0.000 
#    0.000    0.000    0.000    0.000    0.000    0.000 
#
# Total GULP energy -66921.869645 kJ/mol
# GULP energy per Si atom -5576.822470 kJ/mol
# Density = 2.272375 g / cm^3
# Si number density = 22.775585 Si / 1000 Ang^3
#
#
#
# Elastic Constant Matrix: (Units=GPa)
#
#
# Indices 1 2 3 4 5 6 
#
# 1 61.7186 61.6304 11.8950 19.3475 -23.0811 3.0528
# 2 61.6304 125.6288 13.6218 30.3322 -14.1641 14.6422
# 3 11.8950 13.6218 44.3153 3.8400 -8.2731 2.5662
# 4 19.3475 30.3322 3.8400 38.5947 -1.9027 1.4744
# 5 -23.0811 -14.1641 -8.2731 -1.9027 34.6528 11.1747
# 6 3.0528 14.6422 2.5662 1.4744 11.1747 27.9169
#
#
#
# Elastic Compliance Matrix: (Units=1/GPa)
#
#
# Indices 1 2 3 4 5 6 
#
# 1 0.044676 -0.016560 -0.001459 -0.007859 0.023890 -0.005213
# 2 -0.016560 0.018050 -0.000612 -0.005675 -0.002016 -0.006493
# 3 -0.001459 -0.000612 0.024556 -0.000782 0.005922 -0.004106
# 4 -0.007859 -0.005675 -0.000782 0.033819 -0.007541 0.005140
# 5 0.023890 -0.002016 0.005922 -0.007541 0.052237 -0.022611
# 6 -0.005213 -0.006493 -0.004106 0.005140 -0.022611 0.048953
#
#
# Mechanical properties :
#
#
# Convention : Reuss Voigt Hill
#
# Bulk Modulus (GPa) = 19.99177 45.10634 32.54906
# Shear Modulus (GPa) = 18.10112 29.86726 23.98419
#
# Velocity S-wave (km/s) = 2.82221 3.62522 3.24862
# Velocity P-wave (km/s) = 4.40643 6.11315 5.32856
#
# Compressibility (1/GPa) = 0.05002058
#
# Stress axis : x y z
#
# Youngs Moduli (GPa) = 22.38346 55.40220 40.72274
#
# Poissons Ratio (x) = 0.91747 0.05940
# Poissons Ratio (y) = 0.37067 0.02492
# Poissons Ratio (z) = 0.03265 0.03390
#
# Static dielectric constant tensor:
#      x y z
#    x 1.893860 -0.016630 0.023050 
#    y -0.016630 1.869240 0.002230 
#    z 0.023050 0.002230 1.840800 
# 
# From -- ./inp_files/232622.got.cif
#   From: 2010.05.17/outbox.cif.g08.bks.cpg/sg2_117_cif.got.tgz:232622.got - 2010.06.03 11:33:40.
