data_PCOD9080526
_publ_section_title
;
Structure prediction by ZEFSAII (Michael W. Deem and Ramdas Pophale) SiO2 
 PCOD9080526
Probable space group: P -1
;
_chemical_formula_sum "Si O2"
_cell_formula_units_Z 16
_cell_length_a 20.163074
_cell_length_b 24.085033
_cell_length_c 12.584484
_cell_angle_alpha 27.351520
_cell_angle_beta 28.561171
_cell_angle_gamma 16.471091
_cell_volume 779.405305
_symmetry_space_group_name_H-M "P -1"
_symmetry_group_IT_number 2
_symmetry_cell_setting 'triclinic'
loop_
_space_group_symop_operation_xyz
x,y,z
-x,-y,-z
loop_
_atom_site_type_symbol
_atom_site_label
_atom_site_fract_x
_atom_site_fract_y
_atom_site_fract_z
Si Si1 0.461821 0.749269 0.741314
Si Si2 0.612587 0.764388 0.027293
Si Si3 0.669791 0.390832 0.714090
Si Si4 0.592310 0.976986 0.522813
Si Si5 0.236176 0.835656 0.516835
Si Si6 0.840019 0.457029 0.540324
Si Si7 0.124267 0.318749 0.995715
Si Si8 0.127438 0.055167 0.496286
O O1 0.699772 0.531264 0.719745
O O2 0.499908 0.827787 0.639829
O O3 0.305196 0.915741 0.582537
O O4 0.325063 0.735280 0.011486
O O5 0.411213 0.814753 0.260151
O O6 0.731763 0.746990 0.989258
O O7 0.524016 0.926131 0.793578
O O8 0.840569 0.533707 0.048401
O O9 0.405840 0.598260 0.685828
O O10 0.727628 0.461457 0.592714
O O11 0.867499 0.247988 0.587149
O O12 0.881699 0.773859 0.457556
O O13 0.500000 0.000000 0.500000
O O14 0.161656 0.920630 0.597341
O O15 0.000000 0.000000 0.500000
O O16 0.814412 0.619298 0.278809
O O17 0.176990 0.140528 0.212014
#
# Coordination Sequence:
#
# PCOD9080526 Si02
#       8
#     2   2   2   2   2   2   2   2
#     4  12  25  40  72 100 131 185 224 267 336 408
#     4  10  19  42  67  93 135 166 220 281 333 385
#     4  12  24  45  66  99 140 174 231 274 322 410
#     4  11  26  44  66 100 136 176 221 282 342 394
#     4  12  28  44  65 101 137 181 219 282 342 398
#     4  11  23  42  71  99 134 171 229 284 327 393
#     4  10  18  39  74  99 121 166 230 288 320 379
#     4  12  23  41  73  99 128 179 232 275 336 392
#
# _framework density 20.528473999999999
#
# number of rings (size 3 to 8) (size 9 to 14) (size 15 to 20)
#    0.000    0.750    6.250    1.500    1.750    4.000 
#    4.500    0.000    0.000    0.000    0.000    0.000 
#    0.000    0.000    0.000    0.000    0.000    0.000 
#
# Total GULP energy -89453.369038 kJ/mol
# GULP energy per Si atom -5590.835565 kJ/mol
# Density = 2.048175 g / cm^3
# Si number density = 20.528474 Si / 1000 Ang^3
#
#
#
# Elastic Constant Matrix: (Units=GPa)
#
#
# Indices 1 2 3 4 5 6 
#
# 1 75.2502 25.7179 2.3613 12.6842 -4.5423 -5.6645
# 2 25.7179 80.0169 20.1115 3.6451 -5.3017 0.4521
# 3 2.3613 20.1115 90.2177 11.5506 4.8380 4.1100
# 4 12.6842 3.6451 11.5506 16.6397 3.0012 2.2294
# 5 -4.5423 -5.3017 4.8380 3.0012 9.7817 0.0286
# 6 -5.6645 0.4521 4.1100 2.2294 0.0286 29.8480
#
#
#
# Elastic Compliance Matrix: (Units=1/GPa)
#
#
# Indices 1 2 3 4 5 6 
#
# 1 0.018835 -0.005152 0.002093 -0.017136 0.010163 0.004634
# 2 -0.005152 0.015545 -0.003950 0.002047 0.007361 -0.000829
# 3 0.002093 -0.003950 0.013364 -0.009009 -0.005012 -0.000705
# 4 -0.017136 0.002047 -0.009009 0.085231 -0.028518 -0.008381
# 5 0.010163 0.007361 -0.005012 -0.028518 0.122156 0.004521
# 6 0.004634 -0.000829 -0.000705 -0.008381 0.004521 0.035114
#
#
# Mechanical properties :
#
#
# Convention : Reuss Voigt Hill
#
# Bulk Modulus (GPa) = 29.64915 37.98514 33.81715
# Shear Modulus (GPa) = 15.84765 24.40682 20.12723
#
# Velocity S-wave (km/s) = 2.78147 3.45182 3.13462
# Velocity P-wave (km/s) = 4.97893 5.86776 5.44152
#
# Compressibility (1/GPa) = 0.03372778
#
# Stress axis : x y z
#
# Youngs Moduli (GPa) = 53.09304 64.32919 74.82630
#
# Poissons Ratio (x) = 0.33142 -0.15664
# Poissons Ratio (y) = 0.27354 0.29553
# Poissons Ratio (z) = -0.11114 0.25407
#
# Static dielectric constant tensor:
#      x y z
#    x 1.683210 -0.000490 0.004420 
#    y -0.000490 1.751700 -0.016960 
#    z 0.004420 -0.016960 1.744770 
# 
# From -- ./inp_files/427707.got.cif
#   From: 2010.05.17/outbox.cif.g08.bks.cpg/sg2_214_cif.got.tgz:427707.got - 2010.06.03 11:33:40.
