data_PCOD9080109
_publ_section_title
;
Structure prediction by ZEFSAII (Michael W. Deem and Ramdas Pophale) SiO2 
 PCOD9080109
Probable space group: P -1
;
_chemical_formula_sum "Si O2"
_cell_formula_units_Z 16
_cell_length_a 7.767401
_cell_length_b 16.335532
_cell_length_c 14.039215
_cell_angle_alpha 134.321746
_cell_angle_beta 132.342968
_cell_angle_gamma 83.178412
_cell_volume 703.203930
_symmetry_space_group_name_H-M "P -1"
_symmetry_group_IT_number 2
_symmetry_cell_setting 'triclinic'
loop_
_space_group_symop_operation_xyz
x,y,z
-x,-y,-z
loop_
_atom_site_type_symbol
_atom_site_label
_atom_site_fract_x
_atom_site_fract_y
_atom_site_fract_z
Si Si1 0.217466 0.824692 0.652420
Si Si2 0.330917 0.710424 0.085017
Si Si3 0.813493 0.672986 0.751449
Si Si4 0.147068 0.415747 0.839213
Si Si5 0.127650 0.413249 0.495994
Si Si6 0.298158 0.298382 0.955929
Si Si7 0.909292 0.967363 0.635319
Si Si8 0.130987 0.052588 0.986931
O O1 0.580214 0.938584 0.905516
O O2 0.118681 0.711940 0.435818
O O3 0.030039 0.705937 0.572924
O O4 0.103218 0.912855 0.650756
O O5 0.492567 0.702218 0.045808
O O6 0.596374 0.852677 0.364850
O O7 0.160975 0.556653 0.958455
O O8 0.081172 0.716696 0.956754
O O9 0.500000 0.500000 0.500000
O O10 0.921766 0.682066 0.691616
O O11 0.732614 0.775783 0.828483
O O12 0.108472 0.330181 0.850660
O O13 0.500000 0.500000 0.000000
O O14 0.000000 0.500000 0.500000
O O15 0.481270 0.556777 0.774554
O O16 0.098657 0.138453 0.806647
O O17 0.883492 0.962441 0.736296
O O18 0.000000 0.000000 0.000000
#
# Coordination Sequence:
#
# PCOD9080109 Si02
#       8
#     2   2   2   2   2   2   2   2
#     4  12  23  44  73  97 133 180 239 291 332 397
#     4  11  22  41  71 101 141 173 230 284 341 401
#     4  12  26  45  68 100 146 183 221 282 349 411
#     4  10  18  38  64 104 130 159 219 298 336 372
#     4  12  21  40  73  98 127 178 241 286 328 397
#     4  11  21  37  68 112 130 161 228 300 331 387
#     4  12  25  43  72 102 132 183 235 283 339 405
#     4  12  30  47  63  99 147 186 224 276 353 420
#
# _framework density 22.753001000000001
#
# number of rings (size 3 to 8) (size 9 to 14) (size 15 to 20)
#    0.000    0.500    6.250    4.500    1.750    0.500 
#    0.000    1.250    0.000    6.000    0.000    0.000 
#    0.000    0.000    0.000    0.000    0.000    0.000 
#
# Total GULP energy -89541.512892 kJ/mol
# GULP energy per Si atom -5596.344556 kJ/mol
# Density = 2.270121 g / cm^3
# Si number density = 22.753001 Si / 1000 Ang^3
#
#
#
# Elastic Constant Matrix: (Units=GPa)
#
#
# Indices 1 2 3 4 5 6 
#
# 1 45.4617 29.6890 31.6259 -9.0186 -6.9691 2.0742
# 2 29.6890 152.0830 63.1393 -9.8088 4.3029 20.8064
# 3 31.6259 63.1393 127.8574 -27.3744 -17.4025 8.4630
# 4 -9.0186 -9.8088 -27.3744 45.8328 -1.6172 -2.1609
# 5 -6.9691 4.3029 -17.4025 -1.6172 16.1939 3.4924
# 6 2.0742 20.8064 8.4630 -2.1609 3.4924 20.3558
#
#
#
# Elastic Compliance Matrix: (Units=1/GPa)
#
#
# Indices 1 2 3 4 5 6 
#
# 1 0.029423 -0.004948 -0.002653 0.003616 0.011134 0.001636
# 2 -0.004948 0.010932 -0.005630 -0.002671 -0.009859 -0.006921
# 3 -0.002653 -0.005630 0.015753 0.008207 0.018720 -0.002864
# 4 0.003616 -0.002671 0.008207 0.027326 0.013931 -0.000540
# 5 0.011134 -0.009859 0.018720 0.013931 0.093564 -0.013414
# 6 0.001636 -0.006921 -0.002864 -0.000540 -0.013414 0.059469
#
#
# Mechanical properties :
#
#
# Convention : Reuss Voigt Hill
#
# Bulk Modulus (GPa) = 33.73253 63.81228 48.77240
# Shear Modulus (GPa) = 18.32768 29.87301 24.10034
#
# Velocity S-wave (km/s) = 2.84122 3.62736 3.25809
# Velocity P-wave (km/s) = 5.06173 6.75649 5.96956
#
# Compressibility (1/GPa) = 0.02964498
#
# Stress axis : x y z
#
# Youngs Moduli (GPa) = 33.98706 91.47100 63.48197
#
# Poissons Ratio (x) = 0.45260 0.16842
# Poissons Ratio (y) = 0.16817 0.35743
# Poissons Ratio (z) = 0.09017 0.51502
#
# Static dielectric constant tensor:
#      x y z
#    x 1.922510 0.027140 -0.010850 
#    y 0.027140 1.834050 -0.010290 
#    z -0.010850 -0.010290 1.807090 
# 
# From -- ./inp_files/505517.got.cif
#   From: 2010.05.17/outbox.cif.g08.bks.cpg/sg2_253_cif.got.tgz:505517.got - 2010.06.03 11:33:40.
