data_PCOD9080046
_publ_section_title
;
Structure prediction by ZEFSAII (Michael W. Deem and Ramdas Pophale) SiO2 
 PCOD9080046
Probable space group: P -1
;
_chemical_formula_sum "Si O2"
_cell_formula_units_Z 16
_cell_length_a 14.210962
_cell_length_b 12.635142
_cell_length_c 24.179723
_cell_angle_alpha 30.303761
_cell_angle_beta 158.135556
_cell_angle_gamma 145.976095
_cell_volume 807.040631
_symmetry_space_group_name_H-M "P -1"
_symmetry_group_IT_number 2
_symmetry_cell_setting 'triclinic'
loop_
_space_group_symop_operation_xyz
x,y,z
-x,-y,-z
loop_
_atom_site_type_symbol
_atom_site_label
_atom_site_fract_x
_atom_site_fract_y
_atom_site_fract_z
Si Si1 0.394633 0.543318 0.982877
Si Si2 0.619378 0.819736 0.383546
Si Si3 0.246761 0.094878 0.302904
Si Si4 0.900591 0.714059 0.971318
Si Si5 0.890503 0.083799 0.327190
Si Si6 0.100030 0.165787 0.847935
Si Si7 0.859505 0.713079 0.726787
Si Si8 0.671120 0.338157 0.606326
O O1 0.174102 0.688861 0.791288
O O2 0.500000 0.500000 0.000000
O O3 0.275045 0.345352 0.044119
O O4 0.628549 0.691316 0.073562
O O5 0.680131 0.582502 0.516302
O O6 0.374173 0.792867 0.301780
O O7 0.845098 0.952724 0.483348
O O8 0.660087 0.920800 0.299640
O O9 0.273671 0.243916 0.195750
O O10 0.158689 0.222039 0.249204
O O11 0.500000 0.000000 0.500000
O O12 0.031941 0.904037 0.251089
O O13 0.087780 0.937657 0.974969
O O14 0.050548 0.516202 0.129810
O O15 0.943689 0.114695 0.277502
O O16 0.911432 0.288298 0.725713
O O17 0.584563 0.713638 0.547281
#
# Coordination Sequence:
#
# PCOD9080046 Si02
#       8
#     2   2   2   2   2   2   2   2
#     4  11  23  40  59  90 128 155 198 247 296 366
#     4   9  19  34  55  81 118 156 197 247 289 358
#     4  10  20  41  63  86 119 159 197 253 301 344
#     4   9  23  39  63  89 121 159 200 244 304 351
#     4   9  20  35  54  84 116 156 198 241 300 344
#     4  10  23  39  61  91 119 158 204 240 301 361
#     4  10  18  38  62  84 114 158 194 250 298 354
#     4  10  19  34  57  84 116 153 205 238 297 359
#
# _framework density 19.825520999999998
#
# number of rings (size 3 to 8) (size 9 to 14) (size 15 to 20)
#    0.750    1.500    1.250    1.125    3.500    1.500 
#    6.750    4.375    0.000    0.000    0.000    0.000 
#    0.000    0.000    0.000    0.000    0.000    0.000 
#
# Total GULP energy -89125.918826 kJ/mol
# GULP energy per Si atom -5570.369927 kJ/mol
# Density = 1.978040 g / cm^3
# Si number density = 19.825521 Si / 1000 Ang^3
#
#
#
# Elastic Constant Matrix: (Units=GPa)
#
#
# Indices 1 2 3 4 5 6 
#
# 1 78.1662 5.8926 7.4644 -3.2855 3.3894 8.3767
# 2 5.8926 56.0819 2.2239 8.6627 -7.9883 10.3780
# 3 7.4644 2.2239 56.5105 4.9975 -4.0222 5.6173
# 4 -3.2855 8.6627 4.9975 29.2585 -2.8968 -6.7666
# 5 3.3894 -7.9883 -4.0222 -2.8968 23.6120 -6.3539
# 6 8.3767 10.3780 5.6173 -6.7666 -6.3539 36.3332
#
#
#
# Elastic Compliance Matrix: (Units=1/GPa)
#
#
# Indices 1 2 3 4 5 6 
#
# 1 0.013578 -0.001526 -0.001815 0.001317 -0.003354 -0.002755
# 2 -0.001526 0.020985 0.001021 -0.007548 0.004856 -0.006356
# 3 -0.001815 0.001021 0.018750 -0.004189 0.002445 -0.003125
# 4 0.001317 -0.007548 -0.004189 0.040195 0.004368 0.010750
# 5 -0.003354 0.004856 0.002445 0.004368 0.047621 0.008150
# 6 -0.002755 -0.006356 -0.003125 0.010750 0.008150 0.033884
#
#
# Mechanical properties :
#
#
# Convention : Reuss Voigt Hill
#
# Bulk Modulus (GPa) = 20.54535 24.65782 22.60159
# Shear Modulus (GPa) = 25.52616 29.51923 27.52270
#
# Velocity S-wave (km/s) = 3.59212 3.86288 3.72996
# Velocity P-wave (km/s) = 5.25262 5.68860 5.47495
#
# Compressibility (1/GPa) = 0.04867280
#
# Stress axis : x y z
#
# Youngs Moduli (GPa) = 73.65035 47.65361 53.33193
#
# Poissons Ratio (x) = 0.07272 0.09678
# Poissons Ratio (y) = 0.11239 -0.05444
# Poissons Ratio (z) = 0.13366 -0.04864
#
# Static dielectric constant tensor:
#      x y z
#    x 1.700060 0.017780 -0.024200 
#    y 0.017780 1.728430 0.012000 
#    z -0.024200 0.012000 1.745920 
# 
# From -- ./inp_files/619581.got.cif
#   From: 2010.05.17/outbox.cif.g08.bks.cpg/sg2_310_cif.got.tgz:619581.got - 2010.06.03 11:33:40.
