data_PCOD9080223
_publ_section_title
;
Structure prediction by ZEFSAII (Michael W. Deem and Ramdas Pophale) SiO2 
 PCOD9080223
Probable space group: P -1
;
_chemical_formula_sum "Si O2"
_cell_formula_units_Z 14
_cell_length_a 6.780062
_cell_length_b 10.463625
_cell_length_c 14.431821
_cell_angle_alpha 46.967593
_cell_angle_beta 61.229087
_cell_angle_gamma 82.698477
_cell_volume 622.776157
_symmetry_space_group_name_H-M "P -1"
_symmetry_group_IT_number 2
_symmetry_cell_setting 'triclinic'
loop_
_space_group_symop_operation_xyz
x,y,z
-x,-y,-z
loop_
_atom_site_type_symbol
_atom_site_label
_atom_site_fract_x
_atom_site_fract_y
_atom_site_fract_z
Si Si1 0.970665 0.419840 0.391188
Si Si2 0.674267 0.150231 0.323261
Si Si3 0.000368 0.518568 0.128820
Si Si4 0.154567 0.271803 0.089097
Si Si5 0.518199 0.098663 0.657552
Si Si6 0.625034 0.015279 0.866562
Si Si7 0.847255 0.694245 0.415065
O O1 0.053593 0.516072 0.226292
O O2 0.786948 0.217512 0.514821
O O3 0.155781 0.391693 0.438901
O O4 0.828774 0.534286 0.423366
O O5 0.750429 0.354445 0.246060
O O6 0.934867 0.127351 0.264350
O O7 0.500000 0.000000 0.500000
O O8 0.550779 0.100834 0.276103
O O9 0.184561 0.451350 0.057149
O O10 0.953693 0.689773 0.003813
O O11 0.354513 0.182064 0.070544
O O12 0.490442 0.080755 0.782502
O O13 0.350751 0.209292 0.601725
O O14 0.891217 0.159764 0.735040
O O15 0.500000 0.000000 0.000000
#
# Coordination Sequence:
#
# PCOD9080223 Si02
#       7
#     2   2   2   2   2   2   2
#     4  10  21  38  64  93 122 164 211 262 324 369
#     4  10  18  38  66  96 119 161 213 258 323 371
#     4   9  19  38  67  88 126 169 199 263 327 357
#     4   9  20  41  61  91 134 155 215 263 302 387
#     4  11  21  40  64  89 128 162 214 266 308 373
#     4  11  25  41  62  93 126 174 213 251 318 383
#     4  10  22  41  59  93 127 161 220 265 300 382
#
# _framework density 22.479987999999999
#
# number of rings (size 3 to 8) (size 9 to 14) (size 15 to 20)
#    0.857    1.143    2.857    0.429    2.000    1.714 
#    2.571    3.571    0.000    0.000    0.000    0.000 
#    0.000    0.000    0.000    0.000    0.000    0.000 
#
# Total GULP energy -78049.618440 kJ/mol
# GULP energy per Si atom -5574.972746 kJ/mol
# Density = 2.242882 g / cm^3
# Si number density = 22.479988 Si / 1000 Ang^3
#
#
#
# Elastic Constant Matrix: (Units=GPa)
#
#
# Indices 1 2 3 4 5 6 
#
# 1 67.4929 29.8305 34.4534 17.3865 30.3413 -3.7340
# 2 29.8305 55.9502 14.7487 4.6948 14.5270 -1.0463
# 3 34.4534 14.7487 106.0074 23.3633 28.9069 0.7731
# 4 17.3865 4.6948 23.3633 36.8302 18.0152 3.8845
# 5 30.3413 14.5270 28.9069 18.0152 41.8685 -3.7912
# 6 -3.7340 -1.0463 0.7731 3.8845 -3.7912 34.2286
#
#
#
# Elastic Compliance Matrix: (Units=1/GPa)
#
#
# Indices 1 2 3 4 5 6 
#
# 1 0.027764 -0.010338 -0.003385 -0.003766 -0.012409 0.001842
# 2 -0.010338 0.023661 -0.000017 0.002997 -0.002084 -0.000975
# 3 -0.003385 -0.000017 0.012706 -0.004139 -0.004596 -0.000696
# 4 -0.003766 0.002997 -0.004139 0.037779 -0.012240 -0.005869
# 5 -0.012409 -0.002084 -0.004596 -0.012240 0.042472 0.004780
# 6 0.001842 -0.000975 -0.000696 -0.005869 0.004780 0.030598
#
#
# Mechanical properties :
#
#
# Convention : Reuss Voigt Hill
#
# Bulk Modulus (GPa) = 27.28466 43.05730 35.17098
# Shear Modulus (GPa) = 23.29075 32.61332 27.95204
#
# Velocity S-wave (km/s) = 3.22229 3.81303 3.53004
# Velocity P-wave (km/s) = 5.09979 6.21134 5.68281
#
# Compressibility (1/GPa) = 0.03665063
#
# Stress axis : x y z
#
# Youngs Moduli (GPa) = 36.01788 42.26407 78.70117
#
# Poissons Ratio (x) = 0.43693 0.26640
# Poissons Ratio (y) = 0.37236 0.00135
# Poissons Ratio (z) = 0.12192 0.00073
#
# Static dielectric constant tensor:
#      x y z
#    x 1.834100 0.054870 -0.007950 
#    y 0.054870 1.901570 -0.043970 
#    z -0.007950 -0.043970 1.872240 
# 
# From -- ./inp_files/482004.got.cif
#   From: 2010.05.17/outbox.cif.g08.bks.cpg/sg2_242_cif.got.tgz:482004.got - 2010.06.03 11:33:40.
