data_PCOD9080956
_publ_section_title
;
Structure prediction by ZEFSAII (Michael W. Deem and Ramdas Pophale) SiO2 
 PCOD9080956
Probable space group: P -1
;
_chemical_formula_sum "Si O2"
_cell_formula_units_Z 14
_cell_length_a 21.418560
_cell_length_b 15.739970
_cell_length_c 16.268293
_cell_angle_alpha 24.479136
_cell_angle_beta 22.996895
_cell_angle_gamma 16.399509
_cell_volume 586.497407
_symmetry_space_group_name_H-M "P -1"
_symmetry_group_IT_number 2
_symmetry_cell_setting 'triclinic'
loop_
_space_group_symop_operation_xyz
x,y,z
-x,-y,-z
loop_
_atom_site_type_symbol
_atom_site_label
_atom_site_fract_x
_atom_site_fract_y
_atom_site_fract_z
Si Si1 0.328863 0.610582 0.035302
Si Si2 0.586909 0.170536 0.772987
Si Si3 0.428074 0.941624 0.558423
Si Si4 0.146818 0.608255 0.589004
Si Si5 0.437343 0.305512 0.663166
Si Si6 0.817686 0.930592 0.406172
Si Si7 0.478249 0.645884 0.141986
O O1 0.277773 0.888580 0.819305
O O2 0.465800 0.363261 0.012437
O O3 0.500000 0.500000 0.000000
O O4 0.095913 0.717606 0.255076
O O5 0.426039 0.252150 0.819123
O O6 0.577460 0.430289 0.550554
O O7 0.510189 0.203255 0.931616
O O8 0.866456 0.845668 0.708508
O O9 0.683952 0.643079 0.467199
O O10 0.500000 0.000000 0.500000
O O11 0.263490 0.151424 0.493490
O O12 0.244521 0.432503 0.713830
O O13 0.218612 0.781602 0.344586
O O14 0.698661 0.995352 0.580667
O O15 0.674418 0.280179 0.248756
#
# Coordination Sequence:
#
# PCOD9080956 Si02
#       7
#     2   2   2   2   2   2   2
#     4  10  19  30  49  73  99 126 161 204 244 287
#     4   9  14  24  41  64  99 119 157 197 252 280
#     4   9  18  33  50  70  97 133 165 193 248 296
#     4   8  15  26  41  63  96 121 153 200 239 287
#     4   8  15  23  41  68  93 126 151 197 253 285
#     4   8  16  30  47  66  99 126 155 201 241 294
#     4   8  15  26  39  66  91 123 154 193 245 283
#
# _framework density 23.870522999999999
#
# number of rings (size 3 to 8) (size 9 to 14) (size 15 to 20)
#    0.000    4.286    0.000    3.429    4.000    0.000 
#    2.571    0.714    0.000    0.000    0.000   10.000 
#    0.000    0.000    0.000    0.000    0.000    0.000 
#
# Total GULP energy -77996.657908 kJ/mol
# GULP energy per Si atom -5571.189851 kJ/mol
# Density = 2.381619 g / cm^3
# Si number density = 23.870523 Si / 1000 Ang^3
#
#
#
# Elastic Constant Matrix: (Units=GPa)
#
#
# Indices 1 2 3 4 5 6 
#
# 1 198.3787 46.4572 43.1186 21.0980 6.3059 30.1343
# 2 46.4572 54.5336 38.9712 18.6596 -8.0192 11.5979
# 3 43.1186 38.9712 112.8087 17.9539 -4.5322 0.7481
# 4 21.0980 18.6596 17.9539 26.2389 3.4152 -4.0667
# 5 6.3059 -8.0192 -4.5322 3.4152 32.8626 -2.9688
# 6 30.1343 11.5979 0.7481 -4.0667 -2.9688 29.8461
#
#
#
# Elastic Compliance Matrix: (Units=1/GPa)
#
#
# Indices 1 2 3 4 5 6 
#
# 1 0.007649 -0.003138 -0.001292 -0.003811 -0.002671 -0.007256
# 2 -0.003138 0.039352 -0.008168 -0.023388 0.010236 -0.014087
# 3 -0.001292 -0.008168 0.012332 -0.001015 0.000429 0.004074
# 4 -0.003811 -0.023388 -0.001015 0.062966 -0.009802 0.020566
# 5 -0.002671 0.010236 0.000429 -0.009802 0.034592 0.000814
# 6 -0.007256 -0.014087 0.004074 0.020566 0.000814 0.049087
#
#
# Mechanical properties :
#
#
# Convention : Reuss Voigt Hill
#
# Bulk Modulus (GPa) = 29.29484 69.20169 49.24827
# Shear Modulus (GPa) = 20.61408 33.60111 27.10759
#
# Velocity S-wave (km/s) = 2.94186 3.75592 3.37354
# Velocity P-wave (km/s) = 4.88246 6.91828 5.98753
#
# Compressibility (1/GPa) = 0.03413570
#
# Stress axis : x y z
#
# Youngs Moduli (GPa) = 130.73308 25.41181 81.09014
#
# Poissons Ratio (x) = 0.07975 0.10478
# Poissons Ratio (y) = 0.41030 0.66235
# Poissons Ratio (z) = 0.16892 0.20756
#
# Static dielectric constant tensor:
#      x y z
#    x 2.053760 -0.015380 0.116010 
#    y -0.015380 1.984840 -0.132930 
#    z 0.116010 -0.132930 2.028270 
# 
# From -- ./inp_files/413141.got.cif
#   From: 2010.05.17/outbox.cif.g08.bks.cpg/sg2_207_cif.got.tgz:413141.got - 2010.06.03 11:33:40.
