data_PCOD9080016
_publ_section_title
;
Structure prediction by ZEFSAII (Michael W. Deem and Ramdas Pophale) SiO2 
 PCOD9080016
Probable space group: P -1
;
_chemical_formula_sum "Si O2"
_cell_formula_units_Z 14
_cell_length_a 23.037250
_cell_length_b 9.193787
_cell_length_c 13.935432
_cell_angle_alpha 129.439707
_cell_angle_beta 31.449949
_cell_angle_gamma 150.371533
_cell_volume 693.680079
_symmetry_space_group_name_H-M "P -1"
_symmetry_group_IT_number 2
_symmetry_cell_setting 'triclinic'
loop_
_space_group_symop_operation_xyz
x,y,z
-x,-y,-z
loop_
_atom_site_type_symbol
_atom_site_label
_atom_site_fract_x
_atom_site_fract_y
_atom_site_fract_z
Si Si1 0.344626 0.520659 0.267215
Si Si2 0.393768 0.676536 0.470069
Si Si3 0.840467 0.326195 0.435191
Si Si4 0.006083 0.360568 0.847638
Si Si5 0.051882 0.844008 0.497453
Si Si6 0.636602 0.766435 0.613910
Si Si7 0.302722 0.379068 0.058682
O O1 0.459970 0.699416 0.279565
O O2 0.279792 0.645479 0.390624
O O3 0.408166 0.529815 0.077564
O O4 0.164825 0.142771 0.392695
O O5 0.176589 0.446718 0.664560
O O6 0.407303 0.515428 0.452471
O O7 0.500000 0.000000 0.500000
O O8 0.941600 0.452667 0.243617
O O9 0.995028 0.584085 0.407429
O O10 0.708114 0.973878 0.507049
O O11 0.818581 0.978003 0.935594
O O12 0.000000 0.500000 0.000000
O O13 0.858276 0.679695 0.736069
O O14 0.192470 0.995176 0.449427
O O15 0.455156 0.610276 0.856249
#
# Coordination Sequence:
#
# PCOD9080016 Si02
#       7
#     2   2   2   2   2   2   2
#     4   9  18  36  64  83 122 162 196 244 291 355
#     4  10  21  40  57  87 123 157 201 247 292 353
#     4  10  19  38  60  89 122 158 193 252 308 337
#     4  11  21  40  67  82 115 169 205 239 296 363
#     4  10  18  38  61  86 129 157 190 248 294 361
#     4  11  23  34  63  93 124 150 196 255 302 350
#     4  11  19  38  63  89 118 160 204 233 300 363
#
# _framework density 20.182213000000001
#
# number of rings (size 3 to 8) (size 9 to 14) (size 15 to 20)
#    0.000    1.714    5.714    2.143    0.000    4.571 
#    2.571    7.143    6.286    0.000    0.000    0.000 
#    0.000    0.000    0.000    0.000    0.000    0.000 
#
# Total GULP energy -78128.607102 kJ/mol
# GULP energy per Si atom -5580.614793 kJ/mol
# Density = 2.013628 g / cm^3
# Si number density = 20.182213 Si / 1000 Ang^3
#
#
#
# Elastic Constant Matrix: (Units=GPa)
#
#
# Indices 1 2 3 4 5 6 
#
# 1 43.1714 34.4363 20.9085 -8.2632 13.3311 -5.5227
# 2 34.4363 113.7634 19.2532 5.9814 29.5096 7.5089
# 3 20.9085 19.2532 84.8155 1.0800 12.2340 10.3444
# 4 -8.2632 5.9814 1.0800 28.0742 7.0110 9.9175
# 5 13.3311 29.5096 12.2340 7.0110 34.1117 -1.9848
# 6 -5.5227 7.5089 10.3444 9.9175 -1.9848 33.6110
#
#
#
# Elastic Compliance Matrix: (Units=1/GPa)
#
#
# Indices 1 2 3 4 5 6 
#
# 1 0.040880 -0.010571 -0.007783 0.013704 -0.006447 0.007050
# 2 -0.010571 0.014499 0.001233 -0.002236 -0.008697 -0.005210
# 3 -0.007783 0.001233 0.014730 0.000030 -0.003681 -0.006314
# 4 0.013704 -0.002236 0.000030 0.047945 -0.013998 -0.012232
# 5 -0.006447 -0.008697 -0.003681 -0.013998 0.044065 0.008749
# 6 0.007050 -0.005210 -0.006314 -0.012232 0.008749 0.038143
#
#
# Mechanical properties :
#
#
# Convention : Reuss Voigt Hill
#
# Bulk Modulus (GPa) = 27.88021 43.43848 35.65935
# Shear Modulus (GPa) = 20.28733 30.30288 25.29510
#
# Velocity S-wave (km/s) = 3.17394 3.87908 3.54409
# Velocity P-wave (km/s) = 5.22265 6.45235 5.86979
#
# Compressibility (1/GPa) = 0.03586774
#
# Stress axis : x y z
#
# Youngs Moduli (GPa) = 24.46168 68.97137 67.89043
#
# Poissons Ratio (x) = 0.72910 0.52836
# Poissons Ratio (y) = 0.25858 -0.08371
# Poissons Ratio (z) = 0.19037 -0.08505
#
# Static dielectric constant tensor:
#      x y z
#    x 1.757050 0.014080 -0.020980 
#    y 0.014080 1.734590 0.006340 
#    z -0.020980 0.006340 1.757340 
# 
# From -- ./inp_files/175559.got.cif
#   From: 2010.05.17/outbox.cif.g08.bks.cpg/sg2_88_cif.got.tgz:175559.got - 2010.06.03 11:33:40.
