data_PCOD9080367
_publ_section_title
;
Structure prediction by ZEFSAII (Michael W. Deem and Ramdas Pophale) SiO2 
 PCOD9080367
Probable space group: P -1
;
_chemical_formula_sum "Si O2"
_cell_formula_units_Z 14
_cell_length_a 7.532818
_cell_length_b 14.346338
_cell_length_c 12.270785
_cell_angle_alpha 151.327711
_cell_angle_beta 116.299936
_cell_angle_gamma 60.993317
_cell_volume 555.953411
_symmetry_space_group_name_H-M "P -1"
_symmetry_group_IT_number 2
_symmetry_cell_setting 'triclinic'
loop_
_space_group_symop_operation_xyz
x,y,z
-x,-y,-z
loop_
_atom_site_type_symbol
_atom_site_label
_atom_site_fract_x
_atom_site_fract_y
_atom_site_fract_z
Si Si1 0.074131 0.342280 0.509244
Si Si2 0.626486 0.720390 0.652952
Si Si3 0.734180 0.363694 0.843917
Si Si4 0.179548 0.249877 0.816768
Si Si5 0.681018 0.559765 0.727497
Si Si6 0.343174 0.618461 0.918414
Si Si7 0.438935 0.008983 0.279090
O O1 0.146688 0.309299 0.368862
O O2 0.144394 0.543598 0.762661
O O3 0.236526 0.159994 0.421651
O O4 0.849031 0.379285 0.531263
O O5 0.635166 0.724976 0.789227
O O6 0.515607 0.537449 0.412079
O O7 0.515419 0.902302 0.733802
O O8 0.530028 0.422329 0.777555
O O9 0.947746 0.236309 0.729990
O O10 0.782637 0.587101 0.092668
O O11 0.679942 0.297808 0.879369
O O12 0.353204 0.048313 0.654290
O O13 0.219996 0.356624 0.053806
O O14 0.379171 0.796083 0.036075
#
# Coordination Sequence:
#
# PCOD9080367 Si02
#       7
#     2   2   2   2   2   2   2
#     4  10  21  40  63  88 121 158 194 246 298 356
#     4   9  22  38  60  93 121 151 202 248 287 365
#     4   9  19  33  62  83 115 159 198 239 299 349
#     4  10  19  37  59  87 118 156 199 247 290 354
#     4  11  20  39  68  82 121 168 191 238 314 345
#     4  10  18  39  62  84 119 159 193 248 297 349
#     4   9  22  37  60  89 127 143 204 253 284 356
#
# _framework density 25.181965999999999
#
# number of rings (size 3 to 8) (size 9 to 14) (size 15 to 20)
#    0.857    1.429    1.429    2.143    0.000    1.714 
#    0.000    7.857    3.143    0.000    0.000    0.000 
#    0.000    0.000    0.000    0.000    0.000    0.000 
#
# Total GULP energy -78021.496358 kJ/mol
# GULP energy per Si atom -5572.964026 kJ/mol
# Density = 2.512465 g / cm^3
# Si number density = 25.181966 Si / 1000 Ang^3
#
#
#
# Elastic Constant Matrix: (Units=GPa)
#
#
# Indices 1 2 3 4 5 6 
#
# 1 78.0263 4.0552 5.5023 13.8636 -9.9079 -22.2766
# 2 4.0552 104.8670 28.3337 24.3242 5.3228 9.5388
# 3 5.5023 28.3337 63.8993 3.8854 -3.2316 5.6036
# 4 13.8636 24.3242 3.8854 40.9208 1.6886 -4.0678
# 5 -9.9079 5.3228 -3.2316 1.6886 21.3966 1.7026
# 6 -22.2766 9.5388 5.6036 -4.0678 1.7026 51.1584
#
#
#
# Elastic Compliance Matrix: (Units=1/GPa)
#
#
# Indices 1 2 3 4 5 6 
#
# 1 0.016699 -0.000104 -0.001301 -0.005105 0.007425 0.006780
# 2 -0.000104 0.013053 -0.005294 -0.007319 -0.003329 -0.002370
# 3 -0.001301 -0.005294 0.018330 0.001546 0.003487 -0.001580
# 4 -0.005105 -0.007319 0.001546 0.030638 -0.002847 0.001503
# 5 0.007425 -0.003329 0.003487 -0.002847 0.051633 0.001527
# 6 0.006780 -0.002370 -0.001580 0.001503 0.001527 0.023183
#
#
# Mechanical properties :
#
#
# Convention : Reuss Voigt Hill
#
# Bulk Modulus (GPa) = 28.83155 35.84166 32.33660
# Shear Modulus (GPa) = 28.01218 36.62190 32.31704
#
# Velocity S-wave (km/s) = 3.33887 3.81765 3.58626
# Velocity P-wave (km/s) = 5.13208 5.80488 5.47881
#
# Compressibility (1/GPa) = 0.03468423
#
# Stress axis : x y z
#
# Youngs Moduli (GPa) = 59.88396 76.61335 54.55537
#
# Poissons Ratio (x) = 0.00797 0.07095
# Poissons Ratio (y) = 0.00623 0.28882
# Poissons Ratio (z) = 0.07788 0.40560
#
# Static dielectric constant tensor:
#      x y z
#    x 2.102470 0.006660 -0.081930 
#    y 0.006660 2.033780 -0.002650 
#    z -0.081930 -0.002650 2.008410 
# 
# From -- ./inp_files/434354.got.cif
#   From: 2010.05.17/outbox.cif.g08.bks.cpg/sg2_218_cif.got.tgz:434354.got - 2010.06.03 11:33:40.
