data_PCOD9080636
_publ_section_title
;
Structure prediction by ZEFSAII (Michael W. Deem and Ramdas Pophale) SiO2 
 PCOD9080636
Probable space group: P -1
;
_chemical_formula_sum "Si O2"
_cell_formula_units_Z 14
_cell_length_a 7.750999
_cell_length_b 12.095466
_cell_length_c 9.217740
_cell_angle_alpha 127.693207
_cell_angle_beta 73.120367
_cell_angle_gamma 124.553293
_cell_volume 561.081036
_symmetry_space_group_name_H-M "P -1"
_symmetry_group_IT_number 2
_symmetry_cell_setting 'triclinic'
loop_
_space_group_symop_operation_xyz
x,y,z
-x,-y,-z
loop_
_atom_site_type_symbol
_atom_site_label
_atom_site_fract_x
_atom_site_fract_y
_atom_site_fract_z
Si Si1 0.163563 0.021145 0.356408
Si Si2 0.817679 0.443703 0.164823
Si Si3 0.869169 0.608156 0.737689
Si Si4 0.211341 0.757264 0.263460
Si Si5 0.452405 0.693277 0.615402
Si Si6 0.740168 0.145414 0.348540
Si Si7 0.145883 0.113291 0.926181
O O1 0.307668 0.204188 0.409252
O O2 0.276326 0.931708 0.323319
O O3 0.000000 0.000000 0.500000
O O4 0.022068 0.912535 0.173706
O O5 0.622252 0.387742 0.275267
O O6 0.985982 0.414977 0.196058
O O7 0.958304 0.634558 0.246030
O O8 0.746446 0.341385 0.950483
O O9 0.695972 0.442923 0.572511
O O10 0.025471 0.720926 0.660523
O O11 0.758044 0.700931 0.904227
O O12 0.294872 0.797348 0.440110
O O13 0.394051 0.834521 0.728708
O O14 0.724109 0.971127 0.221476
O O15 0.000000 0.000000 0.000000
#
# Coordination Sequence:
#
# PCOD9080636 Si02
#       7
#     2   2   2   2   2   2   2
#     4  12  26  44  65  95 137 173 215 279 332 382
#     4  10  20  38  67  99 131 174 219 270 320 392
#     4  10  18  40  67  96 129 179 216 266 321 398
#     4  11  20  37  66  99 138 165 213 273 336 369
#     4  11  23  42  70  99 128 174 228 263 319 397
#     4  10  19  39  68  97 132 171 220 269 325 389
#     4  10  22  42  66  91 135 179 211 261 340 389
#
# _framework density 24.951832
#
# number of rings (size 3 to 8) (size 9 to 14) (size 15 to 20)
#    0.000    1.429    5.714    0.857    0.000    1.143 
#    0.000    7.143    3.143    0.000    0.000    0.000 
#    0.000    0.000    0.000    0.000    0.000    0.000 
#
# Total GULP energy -78196.233903 kJ/mol
# GULP energy per Si atom -5585.445279 kJ/mol
# Density = 2.489504 g / cm^3
# Si number density = 24.951832 Si / 1000 Ang^3
#
#
#
# Elastic Constant Matrix: (Units=GPa)
#
#
# Indices 1 2 3 4 5 6 
#
# 1 46.9935 9.3849 22.3102 6.8498 5.2190 -1.7966
# 2 9.3849 141.5989 36.3933 -2.9864 -4.1417 24.0483
# 3 22.3102 36.3933 124.1823 -14.2105 -1.7143 5.9880
# 4 6.8498 -2.9864 -14.2105 41.4983 -10.5943 0.8679
# 5 5.2190 -4.1417 -1.7143 -10.5943 23.5717 -3.4934
# 6 -1.7966 24.0483 5.9880 0.8679 -3.4934 38.3354
#
#
#
# Elastic Compliance Matrix: (Units=1/GPa)
#
#
# Indices 1 2 3 4 5 6 
#
# 1 0.026826 -0.001154 -0.005779 -0.009183 -0.010372 0.002147
# 2 -0.001154 0.008542 -0.001980 0.000513 0.001100 -0.005015
# 3 -0.005779 -0.001980 0.010365 0.005404 0.004055 -0.000400
# 4 -0.009183 0.000513 0.005404 0.031776 0.016680 -0.000796
# 5 -0.010372 0.001100 0.004055 0.016680 0.053098 0.002652
# 6 0.002147 -0.005015 -0.000400 -0.000796 0.002652 0.029654
#
#
# Mechanical properties :
#
#
# Convention : Reuss Voigt Hill
#
# Bulk Modulus (GPa) = 35.83405 49.88348 42.85877
# Shear Modulus (GPa) = 26.68230 36.99350 31.83790
#
# Velocity S-wave (km/s) = 3.27364 3.85463 3.57595
# Velocity P-wave (km/s) = 5.35551 6.31238 5.85353
#
# Compressibility (1/GPa) = 0.02790642
#
# Stress axis : x y z
#
# Youngs Moduli (GPa) = 37.27739 117.06329 96.47924
#
# Poissons Ratio (x) = 0.13514 0.55752
# Poissons Ratio (y) = 0.04303 0.19107
# Poissons Ratio (z) = 0.21541 0.23183
#
# Static dielectric constant tensor:
#      x y z
#    x 2.058580 0.059490 -0.068640 
#    y 0.059490 1.978350 0.006560 
#    z -0.068640 0.006560 1.942180 
# 
# From -- ./inp_files/157714.got.cif
#   From: 2010.05.17/outbox.cif.g08.bks.cpg/sg2_79_cif.got.tgz:157714.got - 2010.06.03 11:33:40.
