data_PCOD9080884
_publ_section_title
;
Structure prediction by ZEFSAII (Michael W. Deem and Ramdas Pophale) SiO2 
 PCOD9080884
Probable space group: P -1
;
_chemical_formula_sum "Si O2"
_cell_formula_units_Z 16
_cell_length_a 12.136091
_cell_length_b 9.549658
_cell_length_c 12.591715
_cell_angle_alpha 145.118836
_cell_angle_beta 119.953541
_cell_angle_gamma 84.242636
_cell_volume 564.927014
_symmetry_space_group_name_H-M "P -1"
_symmetry_group_IT_number 2
_symmetry_cell_setting 'triclinic'
loop_
_space_group_symop_operation_xyz
x,y,z
-x,-y,-z
loop_
_atom_site_type_symbol
_atom_site_label
_atom_site_fract_x
_atom_site_fract_y
_atom_site_fract_z
Si Si1 0.851365 0.632072 0.758619
Si Si2 0.083221 0.622066 0.979037
Si Si3 0.616552 0.781182 0.964332
Si Si4 0.186831 0.224768 0.767735
Si Si5 0.660687 0.228728 0.075863
Si Si6 0.054032 0.284673 0.373985
Si Si7 0.740231 0.003740 0.524502
Si Si8 0.532220 0.161855 0.444070
O O1 0.832512 0.629780 0.622071
O O2 0.679715 0.345295 0.542798
O O3 0.009411 0.642304 0.848605
O O4 0.908902 0.924576 0.046237
O O5 0.195479 0.519620 0.982079
O O6 0.904364 0.344234 0.771479
O O7 0.190271 0.951635 0.296652
O O8 0.483883 0.758066 0.957980
O O9 0.543069 0.435779 0.675278
O O10 0.768364 0.888009 0.179765
O O11 0.653100 0.006397 0.023965
O O12 0.286640 0.239557 0.725972
O O13 0.000000 0.000000 0.500000
O O14 0.827877 0.579792 0.383195
O O15 0.626937 0.067781 0.846019
O O16 0.000000 0.500000 0.500000
O O17 0.585845 0.996530 0.438628
#
# Coordination Sequence:
#
# PCOD9080884 Si02
#       8
#     2   2   2   2   2   2   2   2
#     4  10  23  39  62  90 124 154 208 249 297 358
#     4   9  18  32  53  84 120 156 187 243 300 347
#     4  11  21  35  57  93 125 157 195 250 308 360
#     4  10  19  29  52  87 124 155 187 238 301 355
#     4  11  24  37  60  88 124 159 202 250 300 361
#     4  11  25  44  61  85 118 167 208 252 294 353
#     4   9  17  30  51  86 124 149 187 237 300 356
#     4  11  20  37  61  93 125 156 189 250 306 361
#
# _framework density 28.322241999999999
#
# number of rings (size 3 to 8) (size 9 to 14) (size 15 to 20)
#    0.000    1.750    2.500    2.625    5.250    3.000 
#    0.000    0.000    0.000    1.500    0.000    0.000 
#    0.000    0.000    0.000    0.000    0.000    0.000 
#
# Total GULP energy -89525.776662 kJ/mol
# GULP energy per Si atom -5595.361041 kJ/mol
# Density = 2.825778 g / cm^3
# Si number density = 28.322242 Si / 1000 Ang^3
#
#
#
# Elastic Constant Matrix: (Units=GPa)
#
#
# Indices 1 2 3 4 5 6 
#
# 1 103.7363 36.9350 37.6595 8.7215 -5.4925 -21.8024
# 2 36.9350 119.5898 39.1067 -22.2608 -8.9907 -22.8262
# 3 37.6595 39.1067 207.2141 -17.3660 -26.5131 -30.4835
# 4 8.7215 -22.2608 -17.3660 43.1648 -6.3642 -10.6098
# 5 -5.4925 -8.9907 -26.5131 -6.3642 52.5654 9.5114
# 6 -21.8024 -22.8262 -30.4835 -10.6098 9.5114 51.6766
#
#
#
# Elastic Compliance Matrix: (Units=1/GPa)
#
#
# Indices 1 2 3 4 5 6 
#
# 1 0.012423 -0.003970 -0.001862 -0.005102 -0.001221 0.001567
# 2 -0.003970 0.012336 0.000156 0.008814 0.001877 0.005330
# 3 -0.001862 0.000156 0.006368 0.004284 0.002952 0.003376
# 4 -0.005102 0.008814 0.004284 0.033770 0.005376 0.010212
# 5 -0.001221 0.001877 0.002952 0.005376 0.021502 -0.000799
# 6 0.001567 0.005330 0.003376 0.010212 -0.000799 0.026602
#
#
# Mechanical properties :
#
#
# Convention : Reuss Voigt Hill
#
# Bulk Modulus (GPa) = 50.56737 73.10475 61.83606
# Shear Modulus (GPa) = 38.18433 50.60397 44.39415
#
# Velocity S-wave (km/s) = 3.67578 4.23155 3.96342
# Velocity P-wave (km/s) = 5.99235 7.05284 6.54411
#
# Compressibility (1/GPa) = 0.01977560
#
# Stress axis : x y z
#
# Youngs Moduli (GPa) = 80.49671 81.06225 157.02997
#
# Poissons Ratio (x) = 0.32185 0.29236
# Poissons Ratio (y) = 0.31960 -0.02455
# Poissons Ratio (z) = 0.14987 -0.01268
#
# Static dielectric constant tensor:
#      x y z
#    x 2.222870 0.020170 -0.020750 
#    y 0.020170 2.303180 0.002330 
#    z -0.020750 0.002330 2.297950 
# 
# From -- ./inp_files/532176.got.cif
#   From: 2010.05.17/outbox.cif.g08.bks.cpg/sg2_267_cif.got.tgz:532176.got - 2010.06.03 11:33:40.
