data_PCOD9080597
_publ_section_title
;
Structure prediction by ZEFSAII (Michael W. Deem and Ramdas Pophale) SiO2 
 PCOD9080597
Probable space group: P -1
;
_chemical_formula_sum "Si O2"
_cell_formula_units_Z 12
_cell_length_a 16.274875
_cell_length_b 6.581260
_cell_length_c 7.312087
_cell_angle_alpha 97.995188
_cell_angle_beta 97.386650
_cell_angle_gamma 131.851323
_cell_volume 551.084054
_symmetry_space_group_name_H-M "P -1"
_symmetry_group_IT_number 2
_symmetry_cell_setting 'triclinic'
loop_
_space_group_symop_operation_xyz
x,y,z
-x,-y,-z
loop_
_atom_site_type_symbol
_atom_site_label
_atom_site_fract_x
_atom_site_fract_y
_atom_site_fract_z
Si Si1 0.923843 0.599564 0.203023
Si Si2 0.287172 0.973729 0.770286
Si Si3 0.847524 0.152163 0.817489
Si Si4 0.197272 0.227815 0.911102
Si Si5 0.599532 0.838938 0.545244
Si Si6 0.399472 0.906614 0.088266
O O1 0.831480 0.361701 0.296252
O O2 0.906182 0.811465 0.201087
O O3 0.053233 0.743029 0.282804
O O4 0.886444 0.420876 0.978311
O O5 0.373942 0.067487 0.645646
O O6 0.249674 0.145443 0.782574
O O7 0.350744 0.024370 0.984171
O O8 0.724741 0.975218 0.667485
O O9 0.839709 0.959259 0.942667
O O10 0.299045 0.564536 0.022243
O O11 0.500000 0.500000 0.500000
O O12 0.567496 0.971844 0.683910
O O13 0.500000 0.000000 0.000000
#
# Coordination Sequence:
#
# PCOD9080597 Si02
#       6
#     2   2   2   2   2   2
#     4   9  19  40  67  93 122 170 211 252 315 369
#     4  10  23  42  64  93 130 161 210 264 307 374
#     4  10  20  39  65  94 129 163 210 261 308 370
#     4  10  18  40  65  93 122 166 213 254 314 368
#     4  12  25  42  63  96 130 167 206 261 318 368
#     4  11  24  43  64  89 125 174 210 254 314 372
#
# _framework density 21.775262000000001
#
# number of rings (size 3 to 8) (size 9 to 14) (size 15 to 20)
#    0.000    1.667    5.000    1.500    2.333    2.667 
#    6.000    0.833    0.000    0.000    0.000    0.000 
#    0.000    0.000    0.000    0.000    0.000    0.000 
#
# Total GULP energy -67029.109881 kJ/mol
# GULP energy per Si atom -5585.759157 kJ/mol
# Density = 2.172570 g / cm^3
# Si number density = 21.775262 Si / 1000 Ang^3
#
#
#
# Elastic Constant Matrix: (Units=GPa)
#
#
# Indices 1 2 3 4 5 6 
#
# 1 83.9982 8.0900 4.9689 13.5319 -15.6714 -4.8194
# 2 8.0900 56.2109 17.5059 -7.0306 -14.4282 -0.2528
# 3 4.9689 17.5059 56.6415 -8.4185 -13.7400 -0.9191
# 4 13.5319 -7.0306 -8.4185 24.8599 11.3839 -6.2340
# 5 -15.6714 -14.4282 -13.7400 11.3839 36.9626 1.2171
# 6 -4.8194 -0.2528 -0.9191 -6.2340 1.2171 45.7170
#
#
#
# Elastic Compliance Matrix: (Units=1/GPa)
#
#
# Indices 1 2 3 4 5 6 
#
# 1 0.016366 -0.001229 -0.000623 -0.014514 0.010716 -0.000558
# 2 -0.001229 0.021103 -0.004771 0.002716 0.005102 0.000126
# 3 -0.000623 -0.004771 0.020875 0.004298 0.004284 0.000800
# 4 -0.014514 0.002716 0.004298 0.062882 -0.023118 0.007761
# 5 0.010716 0.005102 0.004284 -0.023118 0.042401 -0.003037
# 6 -0.000558 0.000126 0.000800 0.007761 -0.003037 0.022971
#
#
# Mechanical properties :
#
#
# Convention : Reuss Voigt Hill
#
# Bulk Modulus (GPa) = 22.17362 28.66446 25.41904
# Shear Modulus (GPa) = 23.26941 32.59362 27.93152
#
# Velocity S-wave (km/s) = 3.27252 3.87307 3.58539
# Velocity P-wave (km/s) = 4.94815 5.76136 5.37017
#
# Compressibility (1/GPa) = 0.04509863
#
# Stress axis : x y z
#
# Youngs Moduli (GPa) = 61.10411 47.38719 47.90454
#
# Poissons Ratio (x) = 0.05823 0.02983
# Poissons Ratio (y) = 0.07508 0.22855
# Poissons Ratio (z) = 0.03805 0.22608
#
# Static dielectric constant tensor:
#      x y z
#    x 1.860400 0.009560 0.001300 
#    y 0.009560 1.765050 -0.008390 
#    z 0.001300 -0.008390 1.801810 
# 
# From -- ./inp_files/41968.got.cif
#   From: 2010.05.17/outbox.cif.g08.bks.cpg/sg2_21_cif.got.tgz:41968.got - 2010.06.03 11:33:40.
