data_PCOD9080316
_publ_section_title
;
Structure prediction by ZEFSAII (Michael W. Deem and Ramdas Pophale) SiO2 
 PCOD9080316
Probable space group: P -1
;
_chemical_formula_sum "Si O2"
_cell_formula_units_Z 14
_cell_length_a 15.134560
_cell_length_b 5.387797
_cell_length_c 7.722394
_cell_angle_alpha 102.215090
_cell_angle_beta 72.598012
_cell_angle_gamma 114.562161
_cell_volume 543.735171
_symmetry_space_group_name_H-M "P -1"
_symmetry_group_IT_number 2
_symmetry_cell_setting 'triclinic'
loop_
_space_group_symop_operation_xyz
x,y,z
-x,-y,-z
loop_
_atom_site_type_symbol
_atom_site_label
_atom_site_fract_x
_atom_site_fract_y
_atom_site_fract_z
Si Si1 0.264268 0.265059 0.612010
Si Si2 0.924783 0.084852 0.944024
Si Si3 0.431650 0.750933 0.384203
Si Si4 0.115319 0.181797 0.412400
Si Si5 0.370997 0.264046 0.876579
Si Si6 0.885848 0.475101 0.255117
Si Si7 0.381104 0.847437 0.074062
O O1 0.191975 0.100342 0.474184
O O2 0.316906 0.153453 0.709646
O O3 0.188340 0.391840 0.762708
O O4 0.339001 0.031889 0.009332
O O5 0.997852 0.344531 0.827515
O O6 0.869395 0.854666 0.802621
O O7 0.866904 0.192757 0.132140
O O8 0.000000 0.000000 0.000000
O O9 0.355159 0.511740 0.506788
O O10 0.510567 0.651073 0.222126
O O11 0.500000 0.000000 0.500000
O O12 0.370680 0.841329 0.286420
O O13 0.129318 0.480151 0.526338
O O14 0.000000 0.000000 0.500000
O O15 0.352857 0.537176 0.979087
O O16 0.500000 0.000000 0.000000
#
# Coordination Sequence:
#
# PCOD9080316 Si02
#       7
#     2   2   2   2   2   2   2
#     4  10  21  42  65 101 144 187 242 302 366 442
#     4  10  18  38  71  95 133 188 231 293 372 429
#     4  11  23  43  71 101 143 195 238 301 373 434
#     4   8  18  40  65  97 138 181 236 299 368 432
#     4  11  23  44  71  98 146 194 244 305 368 436
#     4   8  20  40  62  96 139 172 243 285 362 433
#     4  10  22  43  70 100 137 194 246 301 366 440
#
# _framework density 25.747827999999998
#
# number of rings (size 3 to 8) (size 9 to 14) (size 15 to 20)
#    0.857    1.429    0.000    3.857    0.000    1.714 
#    7.714    4.286    9.429    0.000    0.000    0.000 
#    0.000    0.000    0.000    0.000    0.000    0.000 
#
# Total GULP energy -78221.766213 kJ/mol
# GULP energy per Si atom -5587.269015 kJ/mol
# Density = 2.568922 g / cm^3
# Si number density = 25.747828 Si / 1000 Ang^3
#
#
#
# Elastic Constant Matrix: (Units=GPa)
#
#
# Indices 1 2 3 4 5 6 
#
# 1 104.1842 40.9589 40.4766 -1.6191 19.4451 6.2468
# 2 40.9589 124.4952 59.4673 -15.3068 2.9177 -1.5466
# 3 40.4766 59.4673 221.2152 21.2992 28.3497 -25.3077
# 4 -1.6191 -15.3068 21.2992 33.6508 -15.7465 -4.2905
# 5 19.4451 2.9177 28.3497 -15.7465 50.4062 -4.8494
# 6 6.2468 -1.5466 -25.3077 -4.2905 -4.8494 47.8748
#
#
#
# Elastic Compliance Matrix: (Units=1/GPa)
#
#
# Indices 1 2 3 4 5 6 
#
# 1 0.012746 -0.004566 -0.000189 -0.004666 -0.006289 -0.002966
# 2 -0.004566 0.013223 -0.004868 0.012512 0.007676 0.000349
# 3 -0.000189 -0.004868 0.008066 -0.010376 -0.007186 0.002474
# 4 -0.004666 0.012512 -0.010376 0.053235 0.023802 0.002710
# 5 -0.006289 0.007676 -0.007186 0.023802 0.033567 0.002803
# 6 -0.002966 0.000349 0.002474 0.002710 0.002803 0.023121
#
#
# Mechanical properties :
#
#
# Convention : Reuss Voigt Hill
#
# Bulk Modulus (GPa) = 67.61391 81.30003 74.45697
# Shear Modulus (GPa) = 29.73836 46.98580 38.36208
#
# Velocity S-wave (km/s) = 3.40219 4.27646 3.86413
# Velocity P-wave (km/s) = 6.46145 7.48519 6.99208
#
# Compressibility (1/GPa) = 0.01478986
#
# Stress axis : x y z
#
# Youngs Moduli (GPa) = 78.45528 75.62765 123.97150
#
# Poissons Ratio (x) = 0.34535 0.02339
# Poissons Ratio (y) = 0.35826 0.60344
# Poissons Ratio (z) = 0.01480 0.36812
#
# Static dielectric constant tensor:
#      x y z
#    x 1.975250 -0.003520 -0.003860 
#    y -0.003520 2.115650 0.071770 
#    z -0.003860 0.071770 2.119600 
# 
# From -- ./inp_files/321945.got.cif
#   From: 2010.05.17/outbox.cif.g08.bks.cpg/sg2_161_cif.got.tgz:321945.got - 2010.06.03 11:33:40.
