data_PCOD9080582
_publ_section_title
;
Structure prediction by ZEFSAII (Michael W. Deem and Ramdas Pophale) SiO2 
 PCOD9080582
Probable space group: P -1
;
_chemical_formula_sum "Si O2"
_cell_formula_units_Z 14
_cell_length_a 13.181570
_cell_length_b 7.811751
_cell_length_c 7.459199
_cell_angle_alpha 68.129067
_cell_angle_beta 79.357444
_cell_angle_gamma 123.129694
_cell_volume 517.086623
_symmetry_space_group_name_H-M "P -1"
_symmetry_group_IT_number 2
_symmetry_cell_setting 'triclinic'
loop_
_space_group_symop_operation_xyz
x,y,z
-x,-y,-z
loop_
_atom_site_type_symbol
_atom_site_label
_atom_site_fract_x
_atom_site_fract_y
_atom_site_fract_z
Si Si1 0.385833 0.723338 0.065932
Si Si2 0.327837 0.228235 0.380755
Si Si3 0.958616 0.001330 0.274307
Si Si4 0.988839 0.363590 0.880341
Si Si5 0.209293 0.575832 0.483070
Si Si6 0.779114 0.897254 0.895732
Si Si7 0.401564 0.641417 0.682647
O O1 0.384971 0.508683 0.223683
O O2 0.247254 0.636196 0.240269
O O3 0.386746 0.717888 0.853411
O O4 0.500000 0.000000 0.000000
O O5 0.174221 0.043855 0.589396
O O6 0.317995 0.139641 0.214617
O O7 0.441140 0.242031 0.441460
O O8 0.878547 0.718090 0.369707
O O9 0.021979 0.205511 0.021172
O O10 0.106447 0.090596 0.259398
O O11 0.000000 0.500000 0.000000
O O12 0.102167 0.578798 0.618412
O O13 0.854555 0.139147 0.897261
O O14 0.340855 0.694830 0.523976
O O15 0.691251 0.655640 0.145288
#
# Coordination Sequence:
#
# PCOD9080582 Si02
#       7
#     2   2   2   2   2   2   2
#     4  10  23  40  61  95 132 169 213 261 324 380
#     4  10  23  39  66  98 126 173 219 261 317 390
#     4  10  19  39  66  92 124 172 221 255 318 392
#     4  11  22  40  64  98 126 164 221 273 324 378
#     4  10  21  43  68  90 128 178 214 264 322 386
#     4  10  18  40  64  88 131 169 216 266 314 387
#     4  11  21  43  65  97 132 171 222 257 318 397
#
# _framework density 27.074767000000001
#
# number of rings (size 3 to 8) (size 9 to 14) (size 15 to 20)
#    0.000    1.714    2.857    3.000    0.000    5.143 
#    7.714    0.714    0.000    0.000    0.000    0.000 
#    0.000    0.000    0.000    0.000    0.000    0.000 
#
# Total GULP energy -78177.005666 kJ/mol
# GULP energy per Si atom -5584.071833 kJ/mol
# Density = 2.701314 g / cm^3
# Si number density = 27.074767 Si / 1000 Ang^3
#
#
#
# Elastic Constant Matrix: (Units=GPa)
#
#
# Indices 1 2 3 4 5 6 
#
# 1 74.1167 20.6612 5.2134 -8.5969 -7.0810 11.9422
# 2 20.6612 141.0757 15.1909 2.5315 -1.4207 -19.6554
# 3 5.2134 15.1909 103.6124 -3.5184 -29.5625 -11.6283
# 4 -8.5969 2.5315 -3.5184 34.9738 -12.9516 0.1926
# 5 -7.0810 -1.4207 -29.5625 -12.9516 29.6527 4.1857
# 6 11.9422 -19.6554 -11.6283 0.1926 4.1857 33.0715
#
#
#
# Elastic Compliance Matrix: (Units=1/GPa)
#
#
# Indices 1 2 3 4 5 6 
#
# 1 0.018471 -0.004417 0.002420 0.009702 0.012268 -0.010053
# 2 -0.004417 0.008923 -0.001939 -0.003905 -0.005241 0.006902
# 3 0.002420 -0.001939 0.016252 0.010133 0.020976 0.000974
# 4 0.009702 -0.003905 0.010133 0.044370 0.032548 -0.006640
# 5 0.012268 -0.005241 0.020976 0.032548 0.072883 -0.009583
# 6 -0.010053 0.006902 0.000974 -0.006640 -0.009583 0.039564
#
#
# Mechanical properties :
#
#
# Convention : Reuss Voigt Hill
#
# Bulk Modulus (GPa) = 27.95412 44.54841 36.25127
# Shear Modulus (GPa) = 22.70047 38.05556 30.37802
#
# Velocity S-wave (km/s) = 2.89872 3.75316 3.35327
# Velocity P-wave (km/s) = 4.64227 5.93896 5.33019
#
# Compressibility (1/GPa) = 0.03577290
#
# Stress axis : x y z
#
# Youngs Moduli (GPa) = 54.14019 112.06930 61.53060
#
# Poissons Ratio (x) = 0.49500 -0.14889
# Poissons Ratio (y) = 0.23913 0.11932
# Poissons Ratio (z) = -0.13100 0.21733
#
# Static dielectric constant tensor:
#      x y z
#    x 2.234270 -0.066590 -0.130580 
#    y -0.066590 2.487740 0.200050 
#    z -0.130580 0.200050 2.289000 
# 
# From -- ./inp_files/298214.got.cif
#   From: 2010.05.17/outbox.cif.g08.bks.cpg/sg2_150_cif.got.tgz:298214.got - 2010.06.03 11:33:40.
