data_PCOD9080499
_publ_section_title
;
Structure prediction by ZEFSAII (Michael W. Deem and Ramdas Pophale) SiO2 
 PCOD9080499
Probable space group: P -1
;
_chemical_formula_sum "Si O2"
_cell_formula_units_Z 15
_cell_length_a 11.638844
_cell_length_b 8.423536
_cell_length_c 8.023221
_cell_angle_alpha 54.531259
_cell_angle_beta 72.207157
_cell_angle_gamma 56.233772
_cell_volume 532.397799
_symmetry_space_group_name_H-M "P -1"
_symmetry_group_IT_number 2
_symmetry_cell_setting 'triclinic'
loop_
_space_group_symop_operation_xyz
x,y,z
-x,-y,-z
loop_
_atom_site_type_symbol
_atom_site_label
_atom_site_fract_x
_atom_site_fract_y
_atom_site_fract_z
Si Si1 0.088646 0.621051 0.426211
Si Si2 0.134709 0.971153 0.625180
Si Si3 0.715582 0.697630 0.919854
Si Si4 0.980628 0.299663 0.958534
Si Si5 0.609837 0.421483 0.352366
Si Si6 0.356383 0.489738 0.256659
Si Si7 0.500000 0.000000 0.000000
Si Si8 0.275055 0.994568 0.886945
O O1 0.253592 0.491215 0.448475
O O2 0.000000 0.500000 0.500000
O O3 0.070210 0.731164 0.184147
O O4 0.998225 0.795129 0.501149
O O5 0.065290 0.837162 0.819222
O O6 0.247237 0.802621 0.551664
O O7 0.219615 0.017565 0.706533
O O8 0.880188 0.553070 0.912405
O O9 0.642111 0.614353 0.147008
O O10 0.635644 0.953190 0.849458
O O11 0.668902 0.634925 0.808125
O O12 0.143142 0.192597 0.923245
O O13 0.500000 0.500000 0.500000
O O14 0.519004 0.380311 0.279856
O O15 0.310247 0.747440 0.081242
O O16 0.410536 0.007474 0.865678
#
# Coordination Sequence:
#
# PCOD9080499 Si02
#       8
#     2   2   2   2   2   2   1   2
#     4  10  19  35  60  98 117 147 207 269 307 354
#     4  10  18  39  69  88 113 165 217 250 299 379
#     4  10  21  39  64  89 116 161 215 250 301 366
#     4   9  18  37  69  89 112 159 221 256 293 370
#     4  11  22  38  59  89 124 160 202 250 311 373
#     4  11  19  41  70  85 113 172 211 249 299 387
#     4  12  24  32  56  96 132 148 200 270 296 348
#     4  11  18  36  66  94 116 156 216 255 303 358
#
# _framework density 28.174417999999999
#
# number of rings (size 3 to 8) (size 9 to 14) (size 15 to 20)
#    0.000    1.600    6.667    2.000    0.000    0.533 
#    9.600    1.333    2.933    0.000    0.000    0.000 
#    0.000    0.000    0.000    0.000    0.000    0.000 
#
# Total GULP energy -83657.144344 kJ/mol
# GULP energy per Si atom -5577.142956 kJ/mol
# Density = 2.811029 g / cm^3
# Si number density = 28.174418 Si / 1000 Ang^3
#
#
#
# Elastic Constant Matrix: (Units=GPa)
#
#
# Indices 1 2 3 4 5 6 
#
# 1 173.9866 12.7907 24.3105 7.0105 0.0575 -30.5396
# 2 12.7907 135.3419 29.8893 37.0597 -6.9017 -35.7921
# 3 24.3105 29.8893 82.9123 17.6371 -27.5735 -4.0559
# 4 7.0105 37.0597 17.6371 32.1343 0.5124 -4.7352
# 5 0.0575 -6.9017 -27.5735 0.5124 43.4894 15.0563
# 6 -30.5396 -35.7921 -4.0559 -4.7352 15.0563 51.5530
#
#
#
# Elastic Compliance Matrix: (Units=1/GPa)
#
#
# Indices 1 2 3 4 5 6 
#
# 1 0.007317 0.001802 -0.003823 -0.000545 -0.004398 0.006519
# 2 0.001802 0.014202 -0.003432 -0.013298 -0.003376 0.010422
# 3 -0.003823 -0.003432 0.021001 -0.008217 0.015764 -0.008354
# 4 -0.000545 -0.013298 -0.008217 0.050661 -0.006670 -0.003601
# 5 -0.004398 -0.003376 0.015764 -0.006670 0.037862 -0.015379
# 6 0.006519 0.010422 -0.008354 -0.003601 -0.015379 0.033998
#
#
# Mechanical properties :
#
#
# Convention : Reuss Voigt Hill
#
# Bulk Modulus (GPa) = 31.63157 58.46907 45.05032
# Shear Modulus (GPa) = 26.81193 47.11870 36.96532
#
# Velocity S-wave (km/s) = 3.08821 4.09393 3.62611
# Velocity P-wave (km/s) = 4.89566 6.56845 5.79276
#
# Compressibility (1/GPa) = 0.03161398
#
# Stress axis : x y z
#
# Youngs Moduli (GPa) = 136.66982 70.41434 47.61710
#
# Poissons Ratio (x) = -0.12687 0.18202
# Poissons Ratio (y) = -0.24624 0.16342
# Poissons Ratio (z) = 0.52242 0.24166
#
# Static dielectric constant tensor:
#      x y z
#    x 2.227530 0.010200 0.119330 
#    y 0.010200 1.920640 0.142900 
#    z 0.119330 0.142900 2.312560 
# 
# From -- ./inp_files/181966.got.cif
#   From: 2010.05.17/outbox.cif.g08.bks.cpg/sg2_91_cif.got.tgz:181966.got - 2010.06.03 11:33:40.
