data_PCOD9080755
_publ_section_title
;
Structure prediction by ZEFSAII (Michael W. Deem and Ramdas Pophale) SiO2 
 PCOD9080755
Probable space group: P -1
;
_chemical_formula_sum "Si O2"
_cell_formula_units_Z 14
_cell_length_a 10.719433
_cell_length_b 9.119393
_cell_length_c 11.978246
_cell_angle_alpha 53.212318
_cell_angle_beta 88.103557
_cell_angle_gamma 121.708814
_cell_volume 685.960343
_symmetry_space_group_name_H-M "P -1"
_symmetry_group_IT_number 2
_symmetry_cell_setting 'triclinic'
loop_
_space_group_symop_operation_xyz
x,y,z
-x,-y,-z
loop_
_atom_site_type_symbol
_atom_site_label
_atom_site_fract_x
_atom_site_fract_y
_atom_site_fract_z
Si Si1 0.868923 0.090973 0.672300
Si Si2 0.630771 0.683644 0.677955
Si Si3 0.782759 0.411110 0.545512
Si Si4 0.815313 0.404979 0.036616
Si Si5 0.668760 0.288505 0.850344
Si Si6 0.665147 0.630686 0.014781
Si Si7 0.555887 0.930433 0.422483
O O1 0.836639 0.269055 0.557443
O O2 0.070206 0.289625 0.596941
O O3 0.778604 0.883552 0.671940
O O4 0.772478 0.922995 0.862899
O O5 0.636459 0.473530 0.756200
O O6 0.649658 0.842681 0.503853
O O7 0.436311 0.522318 0.801181
O O8 0.755212 0.330745 0.711731
O O9 0.611193 0.291590 0.541770
O O10 0.677805 0.161439 0.228557
O O11 0.771606 0.356631 0.929082
O O12 0.786001 0.586282 0.992875
O O13 0.000000 0.500000 0.000000
O O14 0.500000 0.000000 0.000000
O O15 0.500000 0.500000 0.000000
O O16 0.500000 0.000000 0.500000
#
# Coordination Sequence:
#
# PCOD9080755 Si02
#       7
#     2   2   2   2   2   2   2
#     4  10  21  40  69  99 128 184 241 275 337 428
#     4  11  23  41  76  93 132 190 235 272 347 426
#     4  11  24  40  67 100 142 176 228 296 347 401
#     4  12  26  42  71 107 141 175 230 298 350 402
#     4  12  25  46  67 101 139 182 229 285 350 417
#     4  10  18  42  71  95 126 189 238 263 336 437
#     4  12  23  45  70 100 138 184 234 285 347 419
#
# _framework density 20.409341999999999
#
# number of rings (size 3 to 8) (size 9 to 14) (size 15 to 20)
#    0.000    0.857    7.143    1.714    2.000    2.286 
#    2.571    0.714    0.000    0.000    0.000    0.000 
#    0.000    0.000    0.000    0.000    0.000    0.000 
#
# Total GULP energy -78069.043835 kJ/mol
# GULP energy per Si atom -5576.360274 kJ/mol
# Density = 2.036289 g / cm^3
# Si number density = 20.409342 Si / 1000 Ang^3
#
#
#
# Elastic Constant Matrix: (Units=GPa)
#
#
# Indices 1 2 3 4 5 6 
#
# 1 106.7342 43.4901 14.6748 -10.2094 11.1220 8.1283
# 2 43.4901 85.2210 38.4412 -16.1875 2.3352 3.9895
# 3 14.6748 38.4412 110.7984 -15.9288 6.3832 12.8098
# 4 -10.2094 -16.1875 -15.9288 43.3902 3.2434 2.7761
# 5 11.1220 2.3352 6.3832 3.2434 40.0129 -4.6859
# 6 8.1283 3.9895 12.8098 2.7761 -4.6859 25.1487
#
#
#
# Elastic Compliance Matrix: (Units=1/GPa)
#
#
# Indices 1 2 3 4 5 6 
#
# 1 0.012809 -0.006602 0.001658 0.001784 -0.004159 -0.004909
# 2 -0.006602 0.017886 -0.005222 0.002959 0.001610 0.001930
# 3 0.001658 -0.005222 0.012106 0.003563 -0.003179 -0.006859
# 4 0.001784 0.002959 0.003563 0.026610 -0.004164 -0.006574
# 5 -0.004159 0.001610 -0.003179 -0.004164 0.027878 0.008362
# 6 -0.004909 0.001930 -0.006859 -0.006574 0.008362 0.046822
#
#
# Mechanical properties :
#
#
# Convention : Reuss Voigt Hill
#
# Bulk Modulus (GPa) = 44.50470 55.10733 49.80602
# Shear Modulus (GPa) = 29.08123 35.45352 32.26737
#
# Velocity S-wave (km/s) = 3.77888 4.17240 3.98051
# Velocity P-wave (km/s) = 6.39478 7.09024 6.75147
#
# Compressibility (1/GPa) = 0.02246954
#
# Stress axis : x y z
#
# Youngs Moduli (GPa) = 78.06996 55.90940 82.60452
#
# Poissons Ratio (x) = 0.36910 -0.13693
# Poissons Ratio (y) = 0.51539 0.43133
# Poissons Ratio (z) = -0.12941 0.29194
#
# Static dielectric constant tensor:
#      x y z
#    x 1.787500 -0.028660 -0.002740 
#    y -0.028660 1.777010 0.051210 
#    z -0.002740 0.051210 1.657470 
# 
# From -- ./inp_files/419170.got.cif
#   From: 2010.05.17/outbox.cif.g08.bks.cpg/sg2_210_cif.got.tgz:419170.got - 2010.06.03 11:33:40.
