data_PCOD9080012
_publ_section_title
;
Structure prediction by ZEFSAII (Michael W. Deem and Ramdas Pophale) SiO2 
 PCOD9080012
Probable space group: P -1
;
_chemical_formula_sum "Si O2"
_cell_formula_units_Z 16
_cell_length_a 8.040482
_cell_length_b 6.185953
_cell_length_c 30.041133
_cell_angle_alpha 125.853465
_cell_angle_beta 142.843892
_cell_angle_gamma 55.501499
_cell_volume 716.178364
_symmetry_space_group_name_H-M "P -1"
_symmetry_group_IT_number 2
_symmetry_cell_setting 'triclinic'
loop_
_space_group_symop_operation_xyz
x,y,z
-x,-y,-z
loop_
_atom_site_type_symbol
_atom_site_label
_atom_site_fract_x
_atom_site_fract_y
_atom_site_fract_z
Si Si1 0.197127 0.819540 0.671403
Si Si2 0.293016 0.962106 0.610009
Si Si3 0.026614 0.274270 0.063236
Si Si4 0.786394 0.439927 0.526514
Si Si5 0.952650 0.158957 0.868754
Si Si6 0.205294 0.598682 0.874641
Si Si7 0.698549 0.322064 0.737050
Si Si8 0.507475 0.931462 0.169169
O O1 0.299456 0.931373 0.660820
O O2 0.420420 0.555654 0.703461
O O3 0.917179 0.709712 0.587830
O O4 0.214009 0.022531 0.740351
O O5 0.269492 0.677234 0.547959
O O6 0.569938 0.063005 0.662859
O O7 0.016740 0.190719 0.566565
O O8 0.970084 0.565538 0.062707
O O9 0.831959 0.331216 0.072615
O O10 0.354498 0.189693 0.138827
O O11 0.000000 0.000000 0.000000
O O12 0.500000 0.500000 0.500000
O O13 0.829458 0.232160 0.802419
O O14 0.716284 0.088585 0.842311
O O15 0.196711 0.890042 0.885469
O O16 0.930522 0.481004 0.786522
O O17 0.444973 0.343429 0.882433
#
# Coordination Sequence:
#
# PCOD9080012 Si02
#       8
#     2   2   2   2   2   2   2   2
#     4  11  20  40  62  87 122 160 205 255 303 357
#     4  10  21  40  60  82 122 158 200 256 305 356
#     4  10  23  44  65  87 127 165 197 245 304 366
#     4  10  24  40  57  88 118 162 205 247 308 362
#     4  10  19  41  60  88 124 156 198 243 310 354
#     4  10  22  36  59  95 122 155 204 252 299 359
#     4  10  18  38  61  85 121 157 200 247 308 356
#     4  11  22  38  62  96 122 158 208 254 298 358
#
# _framework density 22.340803999999999
#
# number of rings (size 3 to 8) (size 9 to 14) (size 15 to 20)
#    0.000    1.750    5.000    0.375    1.750    5.000 
#    4.500    1.250    0.000    0.000    0.000    0.000 
#    0.000    0.000    0.000    0.000    0.000    0.000 
#
# Total GULP energy -89177.282441 kJ/mol
# GULP energy per Si atom -5573.580153 kJ/mol
# Density = 2.228996 g / cm^3
# Si number density = 22.340804 Si / 1000 Ang^3
#
#
#
# Elastic Constant Matrix: (Units=GPa)
#
#
# Indices 1 2 3 4 5 6 
#
# 1 9.5617 17.6977 6.0431 5.4841 -3.0564 -6.0366
# 2 17.6977 109.0931 11.9037 26.0059 -9.6511 -2.6315
# 3 6.0431 11.9037 98.0707 34.6195 0.3538 -1.9331
# 4 5.4841 26.0059 34.6195 34.7787 -0.7789 0.5403
# 5 -3.0564 -9.6511 0.3538 -0.7789 27.8187 13.1453
# 6 -6.0366 -2.6315 -1.9331 0.5403 13.1453 29.4973
#
#
#
# Elastic Compliance Matrix: (Units=1/GPa)
#
#
# Indices 1 2 3 4 5 6 
#
# 1 0.184076 -0.028385 -0.006311 -0.002284 -0.007646 0.038175
# 2 -0.028385 0.016316 0.003516 -0.011013 0.005120 -0.006203
# 3 -0.006311 0.003516 0.016587 -0.018166 -0.000509 0.000669
# 4 -0.002284 -0.011013 -0.018166 0.055467 -0.000709 -0.003340
# 5 -0.007646 0.005120 -0.000509 -0.000709 0.047381 -0.022243
# 6 0.038175 -0.006203 0.000669 -0.003340 -0.022243 0.051178
#
#
# Mechanical properties :
#
#
# Convention : Reuss Voigt Hill
#
# Bulk Modulus (GPa) = 6.46751 32.00162 19.23456
# Shear Modulus (GPa) = 10.31128 30.49101 20.40114
#
# Velocity S-wave (km/s) = 2.15069 3.69834 3.02516
# Velocity P-wave (km/s) = 3.01140 5.70897 4.56404
#
# Compressibility (1/GPa) = 0.15461899
#
# Stress axis : x y z
#
# Youngs Moduli (GPa) = 5.43252 61.28846 60.28935
#
# Poissons Ratio (x) = 1.73965 0.38050
# Poissons Ratio (y) = 0.15420 -0.21195
# Poissons Ratio (z) = 0.03429 -0.21546
#
# Static dielectric constant tensor:
#      x y z
#    x 1.835950 0.009620 0.022590 
#    y 0.009620 1.837300 0.030910 
#    z 0.022590 0.030910 1.926920 
# 
# From -- ./inp_files/48026.got.cif
#   From: 2010.05.17/outbox.cif.g08.bks.cpg/sg2_25_cif.got.tgz:48026.got - 2010.06.03 11:33:40.
