data_PCOD9080105
_publ_section_title
;
Structure prediction by ZEFSAII (Michael W. Deem and Ramdas Pophale) SiO2 
 PCOD9080105
Probable space group: P -1
;
_chemical_formula_sum "Si O2"
_cell_formula_units_Z 16
_cell_length_a 12.775421
_cell_length_b 10.827317
_cell_length_c 20.272348
_cell_angle_alpha 152.866696
_cell_angle_beta 146.490649
_cell_angle_gamma 48.788780
_cell_volume 666.366775
_symmetry_space_group_name_H-M "P -1"
_symmetry_group_IT_number 2
_symmetry_cell_setting 'triclinic'
loop_
_space_group_symop_operation_xyz
x,y,z
-x,-y,-z
loop_
_atom_site_type_symbol
_atom_site_label
_atom_site_fract_x
_atom_site_fract_y
_atom_site_fract_z
Si Si1 0.909433 0.668459 0.220688
Si Si2 0.269904 0.003694 0.801163
Si Si3 0.383958 0.591077 0.745446
Si Si4 0.680953 0.024365 0.556400
Si Si5 0.938140 0.054106 0.919529
Si Si6 0.492700 0.179962 0.411973
Si Si7 0.700541 0.026785 0.340858
Si Si8 0.733620 0.626588 0.840430
O O1 0.898891 0.853402 0.237621
O O2 0.733672 0.722343 0.198605
O O3 0.889582 0.351760 0.040116
O O4 0.112161 0.803096 0.433275
O O5 0.283471 0.853271 0.667435
O O6 0.248546 0.777951 0.740371
O O7 0.477826 0.259733 0.048562
O O8 0.263095 0.256579 0.532430
O O9 0.558689 0.639620 0.803643
O O10 0.573687 0.982454 0.408777
O O11 0.500000 0.000000 0.500000
O O12 0.804174 0.365796 0.782862
O O13 0.724575 0.822535 0.683502
O O14 0.909273 0.906699 0.042616
O O15 0.000000 0.000000 0.000000
O O16 0.510030 0.061354 0.292986
O O17 0.641084 0.493235 0.657440
#
# Coordination Sequence:
#
# PCOD9080105 Si02
#       8
#     2   2   2   2   2   2   2   2
#     4   9  19  41  58  90 130 160 211 257 321 368
#     4   9  20  33  67  95 128 166 208 266 306 382
#     4  10  18  38  63  99 127 165 217 252 317 383
#     4   8  17  38  61  86 124 165 203 245 314 377
#     4  12  25  38  61  97 126 161 215 258 315 388
#     4  10  21  40  65  92 123 171 204 258 330 361
#     4   9  19  38  67  87 123 175 198 261 323 373
#     4   9  22  40  63  88 134 163 201 270 310 373
#
# _framework density 24.010801000000001
#
# number of rings (size 3 to 8) (size 9 to 14) (size 15 to 20)
#    1.500    1.000    1.250    0.750    1.750    2.000 
#    0.000    6.875    0.000    3.000    0.000    0.000 
#    0.000    0.000    0.000    0.000    0.000    0.000 
#
# Total GULP energy -89081.029967 kJ/mol
# GULP energy per Si atom -5567.564373 kJ/mol
# Density = 2.395615 g / cm^3
# Si number density = 24.010801 Si / 1000 Ang^3
#
#
#
# Elastic Constant Matrix: (Units=GPa)
#
#
# Indices 1 2 3 4 5 6 
#
# 1 74.1866 6.2053 9.8269 -3.7212 9.9284 -0.0838
# 2 6.2053 123.0233 24.7907 -5.5412 -8.5487 8.0270
# 3 9.8269 24.7907 48.0077 -18.3413 0.5654 4.3078
# 4 -3.7212 -5.5412 -18.3413 23.2934 4.9565 -6.4505
# 5 9.9284 -8.5487 0.5654 4.9565 29.0747 4.3022
# 6 -0.0838 8.0270 4.3078 -6.4505 4.3022 24.5882
#
#
#
# Elastic Compliance Matrix: (Units=1/GPa)
#
#
# Indices 1 2 3 4 5 6 
#
# 1 0.014729 -0.000869 -0.001630 0.002832 -0.006096 0.002429
# 2 -0.000869 0.009881 -0.006579 -0.005187 0.004848 -0.004285
# 3 -0.001630 -0.006579 0.035272 0.028951 -0.007725 0.004909
# 4 0.002832 -0.005187 0.028951 0.074261 -0.018580 0.019363
# 5 -0.006096 0.004848 -0.007725 -0.018580 0.043093 -0.012664
# 6 0.002429 -0.004285 0.004909 0.019363 -0.012664 0.048512
#
#
# Mechanical properties :
#
#
# Convention : Reuss Voigt Hill
#
# Bulk Modulus (GPa) = 23.96582 36.31815 30.14199
# Shear Modulus (GPa) = 19.39391 29.01759 24.20575
#
# Velocity S-wave (km/s) = 2.84512 3.48015 3.17853
# Velocity P-wave (km/s) = 4.56025 5.59528 5.10407
#
# Compressibility (1/GPa) = 0.04172610
#
# Stress axis : x y z
#
# Youngs Moduli (GPa) = 67.89444 101.20532 28.35095
#
# Poissons Ratio (x) = 0.08793 0.04622
# Poissons Ratio (y) = 0.05899 0.18651
# Poissons Ratio (z) = 0.11069 0.66580
#
# Static dielectric constant tensor:
#      x y z
#    x 1.941900 0.032200 0.057280 
#    y 0.032200 1.953880 -0.007240 
#    z 0.057280 -0.007240 1.941370 
# 
# From -- ./inp_files/613209.got.cif
#   From: 2010.05.17/outbox.cif.g08.bks.cpg/sg2_307_cif.got.tgz:613209.got - 2010.06.03 11:33:40.
