data_PCOD9080750
_publ_section_title
;
Structure prediction by ZEFSAII (Michael W. Deem and Ramdas Pophale) SiO2 
 PCOD9080750
Probable space group: P -1
;
_chemical_formula_sum "Si O2"
_cell_formula_units_Z 14
_cell_length_a 9.594258
_cell_length_b 9.483265
_cell_length_c 9.641633
_cell_angle_alpha 92.803512
_cell_angle_beta 126.428031
_cell_angle_gamma 76.090838
_cell_volume 680.173667
_symmetry_space_group_name_H-M "P -1"
_symmetry_group_IT_number 2
_symmetry_cell_setting 'triclinic'
loop_
_space_group_symop_operation_xyz
x,y,z
-x,-y,-z
loop_
_atom_site_type_symbol
_atom_site_label
_atom_site_fract_x
_atom_site_fract_y
_atom_site_fract_z
Si Si1 0.817114 0.962621 0.437817
Si Si2 0.003752 0.333322 0.945026
Si Si3 0.680380 0.527235 0.663942
Si Si4 0.714139 0.766170 0.138203
Si Si5 0.305402 0.534063 0.810900
Si Si6 0.929632 0.712103 0.720510
Si Si7 0.549741 0.253815 0.254160
O O1 0.740343 0.892959 0.257722
O O2 0.861089 0.845030 0.581516
O O3 0.667580 0.111547 0.392692
O O4 0.000000 0.000000 0.500000
O O5 0.798132 0.370032 0.778635
O O6 0.127749 0.277319 0.884517
O O7 0.000000 0.500000 0.000000
O O8 0.059700 0.238571 0.110963
O O9 0.500000 0.500000 0.500000
O O10 0.800452 0.601309 0.638777
O O11 0.615286 0.646935 0.752884
O O12 0.724453 0.625116 0.234804
O O13 0.533867 0.791701 0.939913
O O14 0.325606 0.638336 0.702369
O O15 0.133312 0.623237 0.799669
O O16 0.500000 0.500000 0.000000
#
# Coordination Sequence:
#
# PCOD9080750 Si02
#       7
#     2   2   2   2   2   2   2
#     4  12  28  43  64  98 143 182 227 275 334 409
#     4  10  18  42  69  96 130 169 217 282 340 391
#     4  11  24  40  72 106 135 170 228 289 341 395
#     4  11  22  43  71  98 129 180 225 280 337 398
#     4  10  20  37  73 100 123 170 230 279 330 389
#     4  11  22  45  66  96 140 178 219 277 347 392
#     4  11  23  45  66  98 140 177 227 274 339 411
#
# _framework density 20.582977
#
# number of rings (size 3 to 8) (size 9 to 14) (size 15 to 20)
#    0.000    1.143    7.143    1.286    4.000    1.143 
#    0.000    0.714    0.000    0.000    0.000    0.000 
#    0.000    0.000    0.000    0.000    0.000    0.000 
#
# Total GULP energy -78095.502255 kJ/mol
# GULP energy per Si atom -5578.250161 kJ/mol
# Density = 2.053613 g / cm^3
# Si number density = 20.582977 Si / 1000 Ang^3
#
#
#
# Elastic Constant Matrix: (Units=GPa)
#
#
# Indices 1 2 3 4 5 6 
#
# 1 118.6625 36.9659 30.6066 -9.9873 3.8950 5.6572
# 2 36.9659 87.2340 40.6107 -19.2957 -3.6016 1.8552
# 3 30.6066 40.6107 96.6843 -23.0978 3.8243 13.3838
# 4 -9.9873 -19.2957 -23.0978 32.1992 1.5787 1.4906
# 5 3.8950 -3.6016 3.8243 1.5787 29.5160 -0.6661
# 6 5.6572 1.8552 13.3838 1.4906 -0.6661 25.8964
#
#
#
# Elastic Compliance Matrix: (Units=1/GPa)
#
#
# Indices 1 2 3 4 5 6 
#
# 1 0.010037 -0.003626 -0.001399 0.000075 -0.001618 -0.001256
# 2 -0.003626 0.016495 -0.004988 0.004947 0.002917 0.001978
# 3 -0.001399 -0.004988 0.016257 0.008781 -0.003188 -0.008327
# 4 0.000075 0.004947 0.008781 0.040825 -0.002893 -0.007333
# 5 -0.001618 0.002917 -0.003188 -0.002893 0.035082 0.002861
# 6 -0.001256 0.001978 -0.008327 -0.007333 0.002861 0.043547
#
#
# Mechanical properties :
#
#
# Convention : Reuss Voigt Hill
#
# Bulk Modulus (GPa) = 43.92871 57.66080 50.79476
# Shear Modulus (GPa) = 26.33596 30.48217 28.40907
#
# Velocity S-wave (km/s) = 3.58089 3.85247 3.71916
# Velocity P-wave (km/s) = 6.20368 6.91834 6.57073
#
# Compressibility (1/GPa) = 0.02276415
#
# Stress axis : x y z
#
# Youngs Moduli (GPa) = 99.63399 60.62623 61.51086
#
# Poissons Ratio (x) = 0.21980 0.08604
# Poissons Ratio (y) = 0.36123 0.30681
# Poissons Ratio (z) = 0.13936 0.30240
#
# Static dielectric constant tensor:
#      x y z
#    x 1.757130 0.005100 0.009440 
#    y 0.005100 1.730790 0.006040 
#    z 0.009440 0.006040 1.846540 
# 
# From -- ./inp_files/158926.got.cif
#   From: 2010.05.17/outbox.cif.g08.bks.cpg/sg2_80_cif.got.tgz:158926.got - 2010.06.03 11:33:40.
