data_PCOD9080802
_publ_section_title
;
Structure prediction by ZEFSAII (Michael W. Deem and Ramdas Pophale) SiO2 
 PCOD9080802
Probable space group: P -1
;
_chemical_formula_sum "Si O2"
_cell_formula_units_Z 12
_cell_length_a 12.433795
_cell_length_b 5.375440
_cell_length_c 31.877987
_cell_angle_alpha 114.806796
_cell_angle_beta 22.494603
_cell_angle_gamma 103.073410
_cell_volume 655.148927
_symmetry_space_group_name_H-M "P -1"
_symmetry_group_IT_number 2
_symmetry_cell_setting 'triclinic'
loop_
_space_group_symop_operation_xyz
x,y,z
-x,-y,-z
loop_
_atom_site_type_symbol
_atom_site_label
_atom_site_fract_x
_atom_site_fract_y
_atom_site_fract_z
Si Si1 0.737158 0.458921 0.118810
Si Si2 0.161016 0.246485 0.160560
Si Si3 0.295748 0.710496 0.744106
Si Si4 0.200778 0.034298 0.993273
Si Si5 0.643356 0.281311 0.891421
Si Si6 0.626596 0.126695 0.647357
O O1 0.483169 0.748705 0.256663
O O2 0.600169 0.291201 0.124740
O O3 0.000000 0.500000 0.000000
O O4 0.938888 0.232537 0.067515
O O5 0.212185 0.538557 0.174767
O O6 0.879157 0.349233 0.236233
O O7 0.116258 0.052593 0.200398
O O8 0.500000 0.000000 0.000000
O O9 0.458352 0.408369 0.694133
O O10 0.520792 0.859080 0.660425
O O11 0.000854 0.978358 0.895302
O O12 0.386387 0.217879 0.954799
O O13 0.500000 0.500000 0.000000
O O14 0.000000 0.000000 0.500000
#
# Coordination Sequence:
#
# PCOD9080802 Si02
#       6
#     2   2   2   2   2   2
#     4  10  21  34  55  78 115 147 185 229 290 327
#     4  10  19  29  49  84 113 141 175 227 292 325
#     4  11  20  35  58  80 119 143 184 240 279 327
#     4  10  20  32  50  84 114 147 173 233 286 335
#     4  10  19  28  48  78 119 136 177 217 287 333
#     4  11  24  39  57  81 112 155 196 226 273 334
#
# _framework density 18.316445999999999
#
# number of rings (size 3 to 8) (size 9 to 14) (size 15 to 20)
#    0.000    1.667    5.000    1.500    9.333    0.000 
#    0.000    0.000    0.000    0.000    0.000    7.000 
#    0.000    0.000    0.000    0.000    0.000    0.000 
#
# Total GULP energy -66818.014452 kJ/mol
# GULP energy per Si atom -5568.167871 kJ/mol
# Density = 1.827476 g / cm^3
# Si number density = 18.316446 Si / 1000 Ang^3
#
#
#
# Elastic Constant Matrix: (Units=GPa)
#
#
# Indices 1 2 3 4 5 6 
#
# 1 71.5872 36.2828 18.9514 -4.5363 -14.7903 20.3970
# 2 36.2828 132.2535 25.3248 -25.5820 -10.7935 8.6676
# 3 18.9514 25.3248 65.2608 -13.5201 -6.8390 11.8113
# 4 -4.5363 -25.5820 -13.5201 21.0602 3.1430 -5.2831
# 5 -14.7903 -10.7935 -6.8390 3.1430 17.6967 -2.7980
# 6 20.3970 8.6676 11.8113 -5.2831 -2.7980 43.0266
#
#
#
# Elastic Compliance Matrix: (Units=1/GPa)
#
#
# Indices 1 2 3 4 5 6 
#
# 1 0.022450 -0.005380 -0.002988 -0.007963 0.014352 -0.008783
# 2 -0.005380 0.011548 -0.000559 0.012959 0.000344 0.001991
# 3 -0.002988 -0.000559 0.019163 0.010032 0.002416 -0.002343
# 4 -0.007963 0.012959 0.010032 0.070568 -0.006355 0.006662
# 5 0.014352 0.000344 0.002416 -0.006355 0.070182 -0.003753
# 6 -0.008783 0.001991 -0.002343 0.006662 -0.003753 0.028221
#
#
# Mechanical properties :
#
#
# Convention : Reuss Voigt Hill
#
# Bulk Modulus (GPa) = 28.32183 47.80216 38.06199
# Shear Modulus (GPa) = 19.86056 28.92621 24.39339
#
# Velocity S-wave (km/s) = 3.29645 3.97829 3.65331
# Velocity P-wave (km/s) = 5.47584 6.87437 6.21457
#
# Compressibility (1/GPa) = 0.03530845
#
# Stress axis : x y z
#
# Youngs Moduli (GPa) = 44.54350 86.59165 52.18407
#
# Poissons Ratio (x) = 0.46588 0.15590
# Poissons Ratio (y) = 0.23965 0.02915
# Poissons Ratio (z) = 0.13307 0.04838
#
# Static dielectric constant tensor:
#      x y z
#    x 1.620030 0.011950 -0.017880 
#    y 0.011950 1.722600 0.025940 
#    z -0.017880 0.025940 1.598240 
# 
# From -- ./inp_files/23614.got.cif
#   From: 2010.05.17/outbox.cif.g08.bks.cpg/sg2_12_cif.got.tgz:23614.got - 2010.06.03 11:33:40.
