data_PCOD9080077
_publ_section_title
;
Structure prediction by ZEFSAII (Michael W. Deem and Ramdas Pophale) SiO2 
 PCOD9080077
Probable space group: P -1
;
_chemical_formula_sum "Si O2"
_cell_formula_units_Z 16
_cell_length_a 8.213766
_cell_length_b 10.925955
_cell_length_c 9.699752
_cell_angle_alpha 85.478928
_cell_angle_beta 88.880508
_cell_angle_gamma 53.104175
_cell_volume 693.565521
_symmetry_space_group_name_H-M "P -1"
_symmetry_group_IT_number 2
_symmetry_cell_setting 'triclinic'
loop_
_space_group_symop_operation_xyz
x,y,z
-x,-y,-z
loop_
_atom_site_type_symbol
_atom_site_label
_atom_site_fract_x
_atom_site_fract_y
_atom_site_fract_z
Si Si1 0.327876 0.621200 0.096262
Si Si2 0.489412 0.811180 0.040583
Si Si3 0.711375 0.850340 0.250955
Si Si4 0.240313 0.913243 0.490579
Si Si5 0.076537 0.102670 0.960504
Si Si6 0.434767 0.198627 0.270903
Si Si7 0.128004 0.244223 0.463047
Si Si8 0.301665 0.628536 0.408751
O O1 0.309045 0.575769 0.255244
O O2 0.108522 0.724622 0.012743
O O3 0.500000 0.500000 0.000000
O O4 0.391765 0.733297 0.108166
O O5 0.554948 0.754031 0.887414
O O6 0.304961 0.995279 0.025686
O O7 0.671101 0.777192 0.133752
O O8 0.881560 0.874166 0.200429
O O9 0.769791 0.756143 0.396825
O O10 0.516092 0.022836 0.263255
O O11 0.392863 0.825379 0.626356
O O12 0.300159 0.778577 0.396573
O O13 0.231667 0.063263 0.451780
O O14 0.000000 0.000000 0.500000
O O15 0.000000 0.000000 0.000000
O O16 0.213187 0.291891 0.336578
O O17 0.893525 0.329898 0.501738
O O18 0.500000 0.500000 0.500000
#
# Coordination Sequence:
#
# PCOD9080077 Si02
#       8
#     2   2   2   2   2   2   2   2
#     4  11  25  45  65  87 129 177 218 269 317 375
#     4  10  23  39  68  97 129 166 210 268 325 387
#     4  10  18  38  62  99 130 162 205 264 328 382
#     4   9  20  37  66  98 125 166 212 265 317 376
#     4   9  18  38  63  94 125 163 206 261 324 366
#     4  10  20  36  63 102 132 153 209 264 326 388
#     4  10  21  41  68  95 130 165 205 276 322 381
#     4  11  25  46  65  90 127 173 225 263 317 383
#
# _framework density 23.069198
#
# number of rings (size 3 to 8) (size 9 to 14) (size 15 to 20)
#    0.000    2.000    1.250    3.000    7.000    0.000 
#    4.500    1.250    0.000    0.000    0.000    0.000 
#    0.000    0.000    0.000    0.000    0.000    0.000 
#
# Total GULP energy -89123.434818 kJ/mol
# GULP energy per Si atom -5570.214676 kJ/mol
# Density = 2.301669 g / cm^3
# Si number density = 23.069198 Si / 1000 Ang^3
#
#
#
# Elastic Constant Matrix: (Units=GPa)
#
#
# Indices 1 2 3 4 5 6 
#
# 1 98.6994 12.3596 68.7043 5.0018 -11.5534 -17.3219
# 2 12.3596 81.1767 31.8133 14.9053 -4.8249 -30.5767
# 3 68.7043 31.8133 119.5328 17.2861 -13.5747 -19.7604
# 4 5.0018 14.9053 17.2861 24.5281 1.0559 -5.5197
# 5 -11.5534 -4.8249 -13.5747 1.0559 40.0942 12.4957
# 6 -17.3219 -30.5767 -19.7604 -5.5197 12.4957 26.2810
#
#
#
# Elastic Compliance Matrix: (Units=1/GPa)
#
#
# Indices 1 2 3 4 5 6 
#
# 1 0.018720 0.004936 -0.010854 0.003419 -0.001282 0.011248
# 2 0.004936 0.026237 -0.004318 -0.006309 -0.006831 0.032454
# 3 -0.010854 -0.004318 0.016781 -0.007713 0.003059 -0.002635
# 4 0.003419 -0.006309 -0.007713 0.049879 -0.004192 0.001582
# 5 -0.001282 -0.006831 0.003059 -0.004192 0.031924 -0.022552
# 6 0.011248 0.032454 -0.002635 0.001582 -0.022552 0.092297
#
#
# Mechanical properties :
#
#
# Convention : Reuss Voigt Hill
#
# Bulk Modulus (GPa) = 24.23323 58.35150 41.29237
# Shear Modulus (GPa) = 18.51410 30.61611 24.56510
#
# Velocity S-wave (km/s) = 2.83600 3.64695 3.26674
# Velocity P-wave (km/s) = 4.60991 6.56374 5.67159
#
# Compressibility (1/GPa) = 0.04126564
#
# Stress axis : x y z
#
# Youngs Moduli (GPa) = 53.41949 38.11479 59.59109
#
# Poissons Ratio (x) = -0.18815 0.64680
# Poissons Ratio (y) = -0.26370 0.25733
# Poissons Ratio (z) = 0.57981 0.16459
#
# Static dielectric constant tensor:
#      x y z
#    x 1.933880 -0.001770 -0.014410 
#    y -0.001770 1.895910 0.003530 
#    z -0.014410 0.003530 1.896110 
# 
# From -- ./inp_files/187621.got.cif
#   From: 2010.05.17/outbox.cif.g08.bks.cpg/sg2_94_cif.got.tgz:187621.got - 2010.06.03 11:33:40.
