data_PCOD9080789
_publ_section_title
;
Structure prediction by ZEFSAII (Michael W. Deem and Ramdas Pophale) SiO2 
 PCOD9080789
Probable space group: P -1
;
_chemical_formula_sum "Si O2"
_cell_formula_units_Z 16
_cell_length_a 10.498425
_cell_length_b 8.883686
_cell_length_c 11.311346
_cell_angle_alpha 86.117059
_cell_angle_beta 143.881331
_cell_angle_gamma 90.748173
_cell_volume 618.865138
_symmetry_space_group_name_H-M "P -1"
_symmetry_group_IT_number 2
_symmetry_cell_setting 'triclinic'
loop_
_space_group_symop_operation_xyz
x,y,z
-x,-y,-z
loop_
_atom_site_type_symbol
_atom_site_label
_atom_site_fract_x
_atom_site_fract_y
_atom_site_fract_z
Si Si1 0.368777 0.633891 0.571947
Si Si2 0.591470 0.038858 0.438251
Si Si3 0.759258 0.661604 0.204502
Si Si4 0.140358 0.802927 0.891986
Si Si5 0.743354 0.334117 0.238974
Si Si6 0.131358 0.346277 0.131780
Si Si7 0.630411 0.718557 0.362691
Si Si8 0.158238 0.131023 0.962586
O O1 0.280441 0.660187 0.638852
O O2 0.618573 0.635485 0.712585
O O3 0.340605 0.451201 0.548144
O O4 0.289309 0.805022 0.456714
O O5 0.671060 0.875399 0.451993
O O6 0.500000 0.000000 0.500000
O O7 0.405366 0.093084 0.199242
O O8 0.846197 0.487898 0.267680
O O9 0.768459 0.713886 0.343810
O O10 0.506064 0.657172 0.987992
O O11 0.839565 0.766575 0.157409
O O12 0.373295 0.741483 0.127290
O O13 0.078702 0.970310 0.881521
O O14 0.160865 0.799104 0.765824
O O15 0.956979 0.701350 0.806648
O O16 0.053157 0.222280 0.987998
O O17 0.000000 0.500000 0.000000
#
# Coordination Sequence:
#
# PCOD9080789 Si02
#       8
#     2   2   2   2   2   2   2   2
#     4  10  19  34  52  72 106 136 160 209 250 291
#     4  10  21  33  48  71 101 135 177 208 243 286
#     4   9  15  27  47  70  99 125 150 196 258 302
#     4  10  19  27  47  73 107 132 159 190 248 322
#     4   9  16  28  47  72  98 133 155 193 254 303
#     4  11  18  30  45  69 104 142 161 185 249 316
#     4   9  19  31  49  77 101 131 160 206 251 301
#     4  10  20  31  47  72 106 133 159 209 249 291
#
# _framework density 25.853773
#
# number of rings (size 3 to 8) (size 9 to 14) (size 15 to 20)
#    0.000    2.250    3.750    1.875    1.750    2.000 
#    0.000    0.000    0.000    0.000    0.000    3.500 
#    0.000   14.000    0.000    0.000    0.000    0.000 
#
# Total GULP energy -89258.566906 kJ/mol
# GULP energy per Si atom -5578.660432 kJ/mol
# Density = 2.579493 g / cm^3
# Si number density = 25.853773 Si / 1000 Ang^3
#
#
#
# Elastic Constant Matrix: (Units=GPa)
#
#
# Indices 1 2 3 4 5 6 
#
# 1 139.8214 39.1393 19.2035 -2.2310 -2.3596 -1.9984
# 2 39.1393 152.2060 30.5694 -13.0483 1.8123 -13.9739
# 3 19.2035 30.5694 79.4793 1.7914 14.0223 11.6461
# 4 -2.2310 -13.0483 1.7914 42.7401 0.5423 -6.7548
# 5 -2.3596 1.8123 14.0223 0.5423 25.7999 -4.4610
# 6 -1.9984 -13.9739 11.6461 -6.7548 -4.4610 54.2160
#
#
#
# Elastic Compliance Matrix: (Units=1/GPa)
#
#
# Indices 1 2 3 4 5 6 
#
# 1 0.007883 -0.001691 -0.001619 -0.000005 0.001780 0.000348
# 2 -0.001691 0.008299 -0.003665 0.003113 0.001776 0.003398
# 3 -0.001619 -0.003665 0.017088 -0.002715 -0.010132 -0.005847
# 4 -0.000005 0.003113 -0.002715 0.025176 0.001531 0.004648
# 5 0.001780 0.001776 -0.010132 0.001531 0.045418 0.006628
# 6 0.000348 0.003398 -0.005847 0.004648 0.006628 0.021714
#
#
# Mechanical properties :
#
#
# Convention : Reuss Voigt Hill
#
# Bulk Modulus (GPa) = 51.76153 61.03680 56.39916
# Shear Modulus (GPa) = 34.25411 43.39084 38.82247
#
# Velocity S-wave (km/s) = 3.64389 4.10117 3.87927
# Velocity P-wave (km/s) = 6.14559 6.78866 6.47511
#
# Compressibility (1/GPa) = 0.01931937
#
# Stress axis : x y z
#
# Youngs Moduli (GPa) = 126.85905 120.50066 58.52062
#
# Poissons Ratio (x) = 0.20383 0.09474
# Poissons Ratio (y) = 0.21458 0.21445
# Poissons Ratio (z) = 0.20538 0.44158
#
# Static dielectric constant tensor:
#      x y z
#    x 2.016120 0.033350 0.084430 
#    y 0.033350 2.040000 0.031920 
#    z 0.084430 0.031920 2.178980 
# 
# From -- ./inp_files/303126.got.cif
#   From: 2010.05.17/outbox.cif.g08.bks.cpg/sg2_152_cif.got.tgz:303126.got - 2010.06.03 11:33:40.
