data_PCOD9080409
_publ_section_title
;
Structure prediction by ZEFSAII (Michael W. Deem and Ramdas Pophale) SiO2 
 PCOD9080409
Probable space group: P -1
;
_chemical_formula_sum "Si O2"
_cell_formula_units_Z 16
_cell_length_a 12.530502
_cell_length_b 13.649678
_cell_length_c 24.434879
_cell_angle_alpha 159.451345
_cell_angle_beta 155.266175
_cell_angle_gamma 29.546901
_cell_volume 608.348267
_symmetry_space_group_name_H-M "P -1"
_symmetry_group_IT_number 2
_symmetry_cell_setting 'triclinic'
loop_
_space_group_symop_operation_xyz
x,y,z
-x,-y,-z
loop_
_atom_site_type_symbol
_atom_site_label
_atom_site_fract_x
_atom_site_fract_y
_atom_site_fract_z
Si Si1 0.594665 0.755659 0.546881
Si Si2 0.489827 0.105572 0.964070
Si Si3 0.578233 0.403304 0.894013
Si Si4 0.124767 0.778047 0.557381
Si Si5 0.774478 0.223104 0.698023
Si Si6 0.235627 0.768018 0.002412
Si Si7 0.907299 0.829790 0.085541
Si Si8 0.351545 0.794349 0.562704
O O1 0.829914 0.546273 0.571957
O O2 0.508659 0.680107 0.406789
O O3 0.361304 0.743392 0.475594
O O4 0.626343 0.081014 0.730885
O O5 0.439742 0.396806 0.061405
O O6 0.778372 0.019595 0.075621
O O7 0.300454 0.116075 0.933302
O O8 0.388541 0.886328 0.759860
O O9 0.786684 0.396304 0.036816
O O10 0.316968 0.532712 0.871724
O O11 0.119617 0.834706 0.519488
O O12 0.902222 0.963924 0.584795
O O13 0.832660 0.137936 0.743347
O O14 0.906202 0.506112 0.898721
O O15 0.472664 0.954555 0.216031
O O16 0.000000 0.000000 0.000000
O O17 0.500000 0.500000 0.500000
#
# Coordination Sequence:
#
# PCOD9080409 Si02
#       8
#     2   2   2   2   2   2   2   2
#     4  10  21  37  57  84 129 154 191 252 301 357
#     4  10  18  39  64  83 115 158 198 251 302 347
#     4  10  22  39  60  89 122 163 198 237 305 370
#     4  10  19  36  62  84 118 156 197 248 301 351
#     4  10  20  37  61  87 114 152 203 252 310 346
#     4  10  21  41  61  86 129 166 200 242 296 366
#     4   9  20  37  63  88 113 149 211 264 291 350
#     4   9  19  36  57  90 120 157 199 238 294 360
#
# _framework density 26.300723000000001
#
# number of rings (size 3 to 8) (size 9 to 14) (size 15 to 20)
#    0.000    2.250    2.500    0.000    0.000    3.500 
#   15.750    1.250    0.000    0.000    0.000    0.000 
#    0.000    0.000    0.000    0.000    0.000    0.000 
#
# Total GULP energy -89367.465978 kJ/mol
# GULP energy per Si atom -5585.466624 kJ/mol
# Density = 2.624086 g / cm^3
# Si number density = 26.300723 Si / 1000 Ang^3
#
#
#
# Elastic Constant Matrix: (Units=GPa)
#
#
# Indices 1 2 3 4 5 6 
#
# 1 96.8930 41.2072 18.1410 4.5998 -10.1892 18.3290
# 2 41.2072 163.7534 22.7723 16.5406 -6.1962 37.6248
# 3 18.1410 22.7723 70.4873 23.6013 -3.6899 9.0536
# 4 4.5998 16.5406 23.6013 50.0089 0.2236 -4.9033
# 5 -10.1892 -6.1962 -3.6899 0.2236 26.6475 11.9925
# 6 18.3290 37.6248 9.0536 -4.9033 11.9925 49.9075
#
#
#
# Elastic Compliance Matrix: (Units=1/GPa)
#
#
# Indices 1 2 3 4 5 6 
#
# 1 0.012948 -0.001635 -0.001737 -0.000330 0.006493 -0.004801
# 2 -0.001635 0.008787 -0.000026 -0.003503 0.004830 -0.007524
# 3 -0.001737 -0.000026 0.018448 -0.009000 0.004001 -0.004535
# 4 -0.000330 -0.003503 -0.009000 0.026292 -0.006221 0.008473
# 5 0.006493 0.004830 0.004001 -0.006221 0.050516 -0.019502
# 6 -0.004801 -0.007524 -0.004535 0.008473 -0.019502 0.033814
#
#
# Mechanical properties :
#
#
# Convention : Reuss Voigt Hill
#
# Bulk Modulus (GPa) = 29.95126 55.04163 42.49645
# Shear Modulus (GPa) = 29.63334 41.91367 35.77350
#
# Velocity S-wave (km/s) = 3.36029 3.99636 3.69205
# Velocity P-wave (km/s) = 5.14472 6.50137 5.86242
#
# Compressibility (1/GPa) = 0.03338757
#
# Stress axis : x y z
#
# Youngs Moduli (GPa) = 77.23398 113.80252 54.20672
#
# Poissons Ratio (x) = 0.18602 0.09416
# Poissons Ratio (y) = 0.12624 0.00140
# Poissons Ratio (z) = 0.13417 0.00295
#
# Static dielectric constant tensor:
#      x y z
#    x 2.183080 0.005520 0.037600 
#    y 0.005520 2.084890 -0.055980 
#    z 0.037600 -0.055980 2.104090 
# 
# From -- ./inp_files/619529.got.cif
#   From: 2010.05.17/outbox.cif.g08.bks.cpg/sg2_310_cif.got.tgz:619529.got - 2010.06.03 11:33:40.
