data_PCOD9080919
_publ_section_title
;
Structure prediction by ZEFSAII (Michael W. Deem and Ramdas Pophale) SiO2 
 PCOD9080919
Probable space group: P -1
;
_chemical_formula_sum "Si O2"
_cell_formula_units_Z 12
_cell_length_a 13.315053
_cell_length_b 5.258778
_cell_length_c 9.924112
_cell_angle_alpha 91.206772
_cell_angle_beta 123.577043
_cell_angle_gamma 120.302337
_cell_volume 454.264870
_symmetry_space_group_name_H-M "P -1"
_symmetry_group_IT_number 2
_symmetry_cell_setting 'triclinic'
loop_
_space_group_symop_operation_xyz
x,y,z
-x,-y,-z
loop_
_atom_site_type_symbol
_atom_site_label
_atom_site_fract_x
_atom_site_fract_y
_atom_site_fract_z
Si Si1 0.443363 0.289989 0.237105
Si Si2 0.662106 0.470905 0.634234
Si Si3 0.956050 0.556630 0.825868
Si Si4 0.322285 0.814889 0.912795
Si Si5 0.934137 0.029069 0.688462
Si Si6 0.255172 0.230865 0.713974
O O1 0.519662 0.260646 0.425056
O O2 0.378180 0.468642 0.249906
O O3 0.581586 0.531663 0.239447
O O4 0.332533 0.955750 0.070021
O O5 0.775420 0.383766 0.702531
O O6 0.774870 0.831543 0.655237
O O7 0.996286 0.392986 0.747334
O O8 0.000000 0.500000 0.000000
O O9 0.980157 0.087300 0.171590
O O10 0.248752 0.443740 0.823703
O O11 0.252996 0.945231 0.767798
O O12 0.500000 0.000000 0.000000
O O13 0.873616 0.883405 0.494824
#
# Coordination Sequence:
#
# PCOD9080919 Si02
#       6
#     2   2   2   2   2   2
#     4   9  16  34  46  75 108 135 157 197 241 302
#     4   8  19  32  49  75 104 134 156 198 255 295
#     4  10  19  35  53  75  98 124 168 209 249 294
#     4  10  19  30  47  70 101 138 170 195 226 290
#     4   9  19  33  52  75  99 125 166 204 252 291
#     4  10  19  33  48  72 104 133 167 197 238 287
#
# _framework density 26.416307
#
# number of rings (size 3 to 8) (size 9 to 14) (size 15 to 20)
#    1.000    1.667    0.000    3.500    2.333    0.000 
#    9.000    2.500    0.000    0.000    0.000    7.000 
#    0.000    0.000    0.000    0.000    0.000    0.000 
#
# Total GULP energy -67130.317824 kJ/mol
# GULP energy per Si atom -5594.193152 kJ/mol
# Density = 2.635618 g / cm^3
# Si number density = 26.416307 Si / 1000 Ang^3
#
#
#
# Elastic Constant Matrix: (Units=GPa)
#
#
# Indices 1 2 3 4 5 6 
#
# 1 149.1437 50.6582 19.0554 3.8597 -25.7415 -12.4792
# 2 50.6582 157.0713 58.3961 -14.1350 -4.3443 -29.5643
# 3 19.0554 58.3961 111.8631 -0.8292 -22.6775 -16.7983
# 4 3.8597 -14.1350 -0.8292 37.6726 -16.8853 1.8700
# 5 -25.7415 -4.3443 -22.6775 -16.8853 37.1774 2.3689
# 6 -12.4792 -29.5643 -16.7983 1.8700 2.3689 49.8989
#
#
#
# Elastic Compliance Matrix: (Units=1/GPa)
#
#
# Indices 1 2 3 4 5 6 
#
# 1 0.008793 -0.003032 0.001651 0.001224 0.007261 0.000568
# 2 -0.003032 0.009899 -0.004689 0.002433 -0.002926 0.003576
# 3 0.001651 -0.004689 0.013364 0.002717 0.009882 0.001563
# 4 0.001224 0.002433 0.002717 0.035922 0.019079 0.000410
# 5 0.007261 -0.002926 0.009882 0.019079 0.046245 0.000499
# 6 0.000568 0.003576 0.001563 0.000410 0.000499 0.022788
#
#
# Mechanical properties :
#
#
# Convention : Reuss Voigt Hill
#
# Bulk Modulus (GPa) = 50.21030 74.92195 62.56613
# Shear Modulus (GPa) = 32.09466 44.28102 38.18784
#
# Velocity S-wave (km/s) = 3.48940 4.09868 3.80625
# Velocity P-wave (km/s) = 5.93996 7.12899 6.56146
#
# Compressibility (1/GPa) = 0.01991623
#
# Stress axis : x y z
#
# Youngs Moduli (GPa) = 113.72941 101.02330 74.82678
#
# Poissons Ratio (x) = 0.30629 -0.12356
# Poissons Ratio (y) = 0.34481 0.35087
# Poissons Ratio (z) = -0.18779 0.47371
#
# Static dielectric constant tensor:
#      x y z
#    x 2.074300 0.056860 0.039970 
#    y 0.056860 2.137130 0.083870 
#    z 0.039970 0.083870 2.071490 
# 
# From -- ./inp_files/407917.got.cif
#   From: 2010.05.17/outbox.cif.g08.bks.cpg/sg2_204_cif.got.tgz:407917.got - 2010.06.03 11:33:40.
