data_PCOD9080147
_publ_section_title
;
Structure prediction by ZEFSAII (Michael W. Deem and Ramdas Pophale) SiO2 
 PCOD9080147
Probable space group: P -1
;
_chemical_formula_sum "Si O2"
_cell_formula_units_Z 14
_cell_length_a 7.801041
_cell_length_b 17.947816
_cell_length_c 15.507591
_cell_angle_alpha 23.662560
_cell_angle_beta 50.864632
_cell_angle_gamma 39.844443
_cell_volume 535.944710
_symmetry_space_group_name_H-M "P -1"
_symmetry_group_IT_number 2
_symmetry_cell_setting 'triclinic'
loop_
_space_group_symop_operation_xyz
x,y,z
-x,-y,-z
loop_
_atom_site_type_symbol
_atom_site_label
_atom_site_fract_x
_atom_site_fract_y
_atom_site_fract_z
Si Si1 0.953090 0.815462 0.676873
Si Si2 0.163541 0.001707 0.820384
Si Si3 0.012927 0.498780 0.348649
Si Si4 0.496198 0.501944 0.729853
Si Si5 0.649783 0.146699 0.273138
Si Si6 0.932226 0.386842 0.974387
Si Si7 0.573301 0.277549 0.658637
O O1 0.244825 0.601133 0.770832
O O2 0.880179 0.737787 0.867979
O O3 0.000000 0.000000 0.500000
O O4 0.741785 0.948093 0.525053
O O5 0.108433 0.239670 0.615706
O O6 0.860911 0.062674 0.835675
O O7 0.303634 0.940625 0.746246
O O8 0.356178 0.763924 0.065115
O O9 0.261117 0.504976 0.293063
O O10 0.970292 0.544057 0.211105
O O11 0.711326 0.692800 0.279882
O O12 0.379918 0.679277 0.499448
O O13 0.351433 0.378708 0.148716
O O14 0.853060 0.222570 0.139720
O O15 0.500000 0.500000 0.500000
#
# Coordination Sequence:
#
# PCOD9080147 Si02
#       7
#     2   2   2   2   2   2   2
#     4  10  20  35  69  95 128 174 211 258 324 389
#     4  11  23  43  68  93 129 173 214 267 322 379
#     4  11  24  41  66  99 131 167 218 268 317 389
#     4  12  22  45  70  94 129 175 217 263 328 377
#     4  10  18  38  64  92 127 173 209 260 323 379
#     4  10  19  38  61  98 131 164 212 265 322 383
#     4  10  25  46  67  95 132 169 220 272 316 384
#
# _framework density 26.122098000000001
#
# number of rings (size 3 to 8) (size 9 to 14) (size 15 to 20)
#    0.000    1.429    4.286    2.143    0.000    3.429 
#    0.000   15.000    0.000    0.000    0.000    0.000 
#    0.000    0.000    0.000    0.000    0.000    0.000 
#
# Total GULP energy -78493.944026 kJ/mol
# GULP energy per Si atom -5606.710288 kJ/mol
# Density = 2.606264 g / cm^3
# Si number density = 26.122098 Si / 1000 Ang^3
#
#
#
# Elastic Constant Matrix: (Units=GPa)
#
#
# Indices 1 2 3 4 5 6 
#
# 1 79.8124 0.7463 25.9479 -0.1907 1.0078 -3.8651
# 2 0.7463 64.0299 20.8360 -2.8617 -2.6132 2.9591
# 3 25.9479 20.8360 110.5365 -14.2525 4.4707 -14.3026
# 4 -0.1907 -2.8617 -14.2525 40.0858 1.1367 10.7645
# 5 1.0078 -2.6132 4.4707 1.1367 41.9089 -1.0481
# 6 -3.8651 2.9591 -14.3026 10.7645 -1.0481 18.9874
#
#
#
# Elastic Compliance Matrix: (Units=1/GPa)
#
#
# Indices 1 2 3 4 5 6 
#
# 1 0.013676 0.000872 -0.003446 -0.001319 0.000149 0.000808
# 2 0.000872 0.017383 -0.004179 0.001448 0.001309 -0.006429
# 3 -0.003446 -0.004179 0.011949 0.001872 -0.001308 0.007818
# 4 -0.001319 0.001448 0.001872 0.030102 -0.001300 -0.016222
# 5 0.000149 0.001309 -0.001308 -0.001300 0.024137 0.000911
# 6 0.000808 -0.006429 0.007818 -0.016222 0.000911 0.068969
#
#
# Mechanical properties :
#
#
# Convention : Reuss Voigt Hill
#
# Bulk Modulus (GPa) = 33.89779 38.82656 36.36218
# Shear Modulus (GPa) = 26.37739 33.98633 30.18186
#
# Velocity S-wave (km/s) = 3.18114 3.61093 3.40283
# Velocity P-wave (km/s) = 5.14759 5.68162 5.42119
#
# Compressibility (1/GPa) = 0.02950045
#
# Stress axis : x y z
#
# Youngs Moduli (GPa) = 73.12222 57.52831 83.68693
#
# Poissons Ratio (x) = -0.05015 0.28840
# Poissons Ratio (y) = -0.06375 0.34975
# Poissons Ratio (z) = 0.25199 0.24043
#
# Static dielectric constant tensor:
#      x y z
#    x 2.092990 -0.043130 -0.023670 
#    y -0.043130 1.990460 0.032290 
#    z -0.023670 0.032290 2.051960 
# 
# From -- ./inp_files/562497.got.cif
#   From: 2010.05.17/outbox.cif.g08.bks.cpg/sg2_282_cif.got.tgz:562497.got - 2010.06.03 11:33:40.
