data_PCOD9080915
_publ_section_title
;
Structure prediction by ZEFSAII (Michael W. Deem and Ramdas Pophale) SiO2 
 PCOD9080915
Probable space group: P -1
;
_chemical_formula_sum "Si O2"
_cell_formula_units_Z 16
_cell_length_a 12.472306
_cell_length_b 21.534486
_cell_length_c 23.132625
_cell_angle_alpha 161.226865
_cell_angle_beta 160.008499
_cell_angle_gamma 22.690867
_cell_volume 652.410242
_symmetry_space_group_name_H-M "P -1"
_symmetry_group_IT_number 2
_symmetry_cell_setting 'triclinic'
loop_
_space_group_symop_operation_xyz
x,y,z
-x,-y,-z
loop_
_atom_site_type_symbol
_atom_site_label
_atom_site_fract_x
_atom_site_fract_y
_atom_site_fract_z
Si Si1 0.738725 0.683851 0.444371
Si Si2 0.455370 0.922841 0.170529
Si Si3 0.899450 0.073900 0.849710
Si Si4 0.419800 0.481861 0.191786
Si Si5 0.099594 0.248868 0.203523
Si Si6 0.183320 0.245595 0.686403
Si Si7 0.020231 0.947545 0.264038
Si Si8 0.852417 0.602956 0.916580
O O1 0.916900 0.854503 0.691162
O O2 0.672904 0.587657 0.386600
O O3 0.388482 0.804317 0.343501
O O4 0.935320 0.486860 0.334647
O O5 0.725040 0.892672 0.330861
O O6 0.393298 0.133725 0.292687
O O7 0.520757 0.749306 0.002222
O O8 0.165771 0.862802 0.005488
O O9 0.524941 0.217919 0.800319
O O10 0.962353 0.038567 0.783150
O O11 0.138148 0.177520 0.094372
O O12 0.399550 0.482564 0.251165
O O13 0.105300 0.588294 0.085552
O O14 0.019893 0.462097 0.823556
O O15 0.970431 0.155066 0.455935
O O16 0.766230 0.829097 0.049945
#
# Coordination Sequence:
#
# PCOD9080915 Si02
#       8
#     2   2   2   2   2   2   2   2
#     4   9  17  30  46  69  97 124 153 190 235 279
#     4   8  15  30  48  67  96 122 153 193 231 280
#     4  10  19  30  46  70  98 124 154 191 231 278
#     4   8  15  30  48  67  96 122 153 193 231 280
#     4   9  17  30  47  69  94 125 156 188 234 279
#     4   9  17  30  46  69  97 124 153 190 235 279
#     4  10  19  30  46  70  98 124 154 191 231 278
#     4   9  17  30  47  69  94 125 156 188 234 279
#
# _framework density 24.524446999999999
#
# number of rings (size 3 to 8) (size 9 to 14) (size 15 to 20)
#    0.000    3.000    0.000    3.750    0.000    3.000 
#    0.000   36.250    0.000    0.750    0.000    1.750 
#    0.000    0.000    0.000    0.000    0.000    0.000 
#
# Total GULP energy -89282.222231 kJ/mol
# GULP energy per Si atom -5580.138889 kJ/mol
# Density = 2.446863 g / cm^3
# Si number density = 24.524447 Si / 1000 Ang^3
#
#
#
# Elastic Constant Matrix: (Units=GPa)
#
#
# Indices 1 2 3 4 5 6 
#
# 1 101.3254 -4.2701 51.2423 6.5167 -17.7308 -8.4813
# 2 -4.2701 30.4268 5.4820 2.9589 -1.5221 -12.7554
# 3 51.2423 5.4820 64.6010 11.0727 -11.1124 10.7197
# 4 6.5167 2.9589 11.0727 23.7396 3.5020 -1.6162
# 5 -17.7308 -1.5221 -11.1124 3.5020 28.7210 -0.3868
# 6 -8.4813 -12.7554 10.7197 -1.6162 -0.3868 -9.5637
#
#
#
# Elastic Compliance Matrix: (Units=1/GPa)
#
#
# Indices 1 2 3 4 5 6 
#
# 1 0.012749 -0.002708 -0.006197 -0.002054 0.005384 -0.014510
# 2 -0.002708 0.023182 0.005222 -0.006361 0.002061 -0.021672
# 3 -0.006197 0.005222 0.018584 -0.006936 0.004761 0.020341
# 4 -0.002054 -0.006361 -0.006936 0.047869 -0.010195 -0.005146
# 5 0.005384 0.002061 0.004761 -0.010195 0.041307 -0.002134
# 6 -0.014510 -0.021672 0.020341 -0.005146 -0.002134 -0.039035
#
#
# Mechanical properties :
#
#
# Convention : Reuss Voigt Hill
#
# Bulk Modulus (GPa) = 21.20953 33.47350 27.34151
# Shear Modulus (GPa) = 39.14287 18.17264 28.65775
#
# Velocity S-wave (km/s) = 3.99943 2.72509 3.42210
# Velocity P-wave (km/s) = 5.47671 4.85594 5.17564
#
# Compressibility (1/GPa) = 0.04714862
#
# Stress axis : x y z
#
# Youngs Moduli (GPa) = 78.44040 43.13780 53.80922
#
# Poissons Ratio (x) = 0.11682 0.33343
# Poissons Ratio (y) = 0.21243 -0.28098
# Poissons Ratio (z) = 0.48606 -0.22526
#
# Static dielectric constant tensor:
#      x y z
#    x 2.035830 -0.102830 0.070480 
#    y -0.102830 2.096800 -0.119890 
#    z 0.070480 -0.119890 2.043520 
# 
# From -- ./inp_files/470788.got.cif
#   From: 2010.05.17/outbox.cif.g08.bks.cpg/sg2_236_cif.got.tgz:470788.got - 2010.06.03 11:33:40.
