data_PCOD9080811
_publ_section_title
;
Structure prediction by ZEFSAII (Michael W. Deem and Ramdas Pophale) SiO2 
 PCOD9080811
Probable space group: P -1
;
_chemical_formula_sum "Si O2"
_cell_formula_units_Z 16
_cell_length_a 5.325438
_cell_length_b 24.240386
_cell_length_c 10.442927
_cell_angle_alpha 36.677416
_cell_angle_beta 73.613730
_cell_angle_gamma 84.540947
_cell_volume 752.021161
_symmetry_space_group_name_H-M "P -1"
_symmetry_group_IT_number 2
_symmetry_cell_setting 'triclinic'
loop_
_space_group_symop_operation_xyz
x,y,z
-x,-y,-z
loop_
_atom_site_type_symbol
_atom_site_label
_atom_site_fract_x
_atom_site_fract_y
_atom_site_fract_z
Si Si1 0.779107 0.426904 0.877262
Si Si2 0.803424 0.639026 0.559118
Si Si3 0.651211 0.595338 0.231564
Si Si4 0.981920 0.168555 0.975432
Si Si5 0.774477 0.152105 0.329610
Si Si6 0.175902 0.608280 0.777384
Si Si7 0.332225 0.207112 0.177733
Si Si8 0.402375 0.071382 0.193757
O O1 0.853827 0.540654 0.679063
O O2 0.493758 0.409292 0.878119
O O3 0.032973 0.402542 0.812506
O O4 0.776925 0.374900 0.109963
O O5 0.906853 0.726953 0.287333
O O6 0.480336 0.621567 0.655786
O O7 0.987095 0.659304 0.623978
O O8 0.500000 0.500000 0.500000
O O9 0.601475 0.696876 0.094738
O O10 0.210184 0.109063 0.053584
O O11 0.888483 0.169754 0.134743
O O12 0.713982 0.114475 0.042468
O O13 0.538574 0.206342 0.262830
O O14 0.033687 0.193728 0.298370
O O15 0.669226 0.041165 0.575304
O O16 0.000000 0.500000 0.000000
O O17 0.342845 0.116387 0.256249
#
# Coordination Sequence:
#
# PCOD9080811 Si02
#       8
#     2   2   2   2   2   2   2   2
#     4  11  23  39  56  72 112 152 192 229 273 313
#     4  11  21  34  60  83 107 141 191 237 292 324
#     4  12  26  36  53  79 116 155 197 216 253 323
#     4  10  19  28  50  80 111 132 173 213 286 332
#     4  10  19  34  54  75 110 148 177 225 281 330
#     4  10  20  39  57  79 101 141 194 246 286 325
#     4  10  20  33  50  71 108 142 193 215 250 317
#     4  10  19  33  53  76 113 146 175 223 284 333
#
# _framework density 21.275997
#
# number of rings (size 3 to 8) (size 9 to 14) (size 15 to 20)
#    0.000    1.500    0.000    9.375    7.000    0.000 
#    0.000    0.000    0.000    0.000    0.000    0.000 
#    0.000  116.000    0.000    0.000    0.000    0.000 
#
# Total GULP energy -89267.410110 kJ/mol
# GULP energy per Si atom -5579.213132 kJ/mol
# Density = 2.122757 g / cm^3
# Si number density = 21.275997 Si / 1000 Ang^3
#
#
#
# Elastic Constant Matrix: (Units=GPa)
#
#
# Indices 1 2 3 4 5 6 
#
# 1 193.7741 14.8383 51.6635 -4.0359 -9.7206 -19.8102
# 2 14.8383 15.4157 13.4030 -13.2013 7.5926 -0.7849
# 3 51.6635 13.4030 105.1310 -25.6448 17.2363 -6.3884
# 4 -4.0359 -13.2013 -25.6448 25.2040 -2.9865 4.3394
# 5 -9.7206 7.5926 17.2363 -2.9865 22.5579 -4.4131
# 6 -19.8102 -0.7849 -6.3884 4.3394 -4.4131 21.9166
#
#
#
# Elastic Compliance Matrix: (Units=1/GPa)
#
#
# Indices 1 2 3 4 5 6 
#
# 1 0.018662 -0.062477 -0.018097 -0.047880 0.041894 0.027272
# 2 -0.062477 0.367261 0.069508 0.249429 -0.192374 -0.111181
# 3 -0.018097 0.069508 0.032349 0.064979 -0.052772 -0.027931
# 4 -0.047880 0.249429 0.064979 0.227306 -0.141535 -0.088910
# 5 0.041894 -0.192374 -0.052772 -0.141535 0.163700 0.076582
# 6 0.027272 -0.111181 -0.027931 -0.088910 0.076582 0.091180
#
#
# Mechanical properties :
#
#
# Convention : Reuss Voigt Hill
#
# Bulk Modulus (GPa) = 2.52435 52.68116 27.60276
# Shear Modulus (GPa) = 4.74098 29.56342 17.15220
#
# Velocity S-wave (km/s) = 1.49438 3.73167 2.84240
# Velocity P-wave (km/s) = 2.04123 6.58648 4.87588
#
# Compressibility (1/GPa) = 0.39614113
#
# Stress axis : x y z
#
# Youngs Moduli (GPa) = 53.58420 2.72286 30.91307
#
# Poissons Ratio (x) = 0.17012 0.55942
# Poissons Ratio (y) = 3.34778 -2.14871
# Poissons Ratio (z) = 0.96970 -0.18926
#
# Static dielectric constant tensor:
#      x y z
#    x 1.969870 -0.005910 -0.027300 
#    y -0.005910 1.809260 0.009530 
#    z -0.027300 0.009530 1.753030 
# 
# From -- ./inp_files/371299.got.cif
#   From: 2010.05.17/outbox.cif.g08.bks.cpg/sg2_186_cif.got.tgz:371299.got - 2010.06.03 11:33:40.
