data_PCOD9080800
_publ_section_title
;
Structure prediction by ZEFSAII (Michael W. Deem and Ramdas Pophale) SiO2 
 PCOD9080800
Probable space group: P -1
;
_chemical_formula_sum "Si O2"
_cell_formula_units_Z 16
_cell_length_a 8.121136
_cell_length_b 12.928104
_cell_length_c 10.035031
_cell_angle_alpha 129.162008
_cell_angle_beta 93.341506
_cell_angle_gamma 119.618475
_cell_volume 593.340130
_symmetry_space_group_name_H-M "P -1"
_symmetry_group_IT_number 2
_symmetry_cell_setting 'triclinic'
loop_
_space_group_symop_operation_xyz
x,y,z
-x,-y,-z
loop_
_atom_site_type_symbol
_atom_site_label
_atom_site_fract_x
_atom_site_fract_y
_atom_site_fract_z
Si Si1 0.735413 0.216251 0.685347
Si Si2 0.308733 0.006560 0.797986
Si Si3 0.460578 0.652249 0.716305
Si Si4 0.465537 0.796479 0.567661
Si Si5 0.072726 0.815770 0.098260
Si Si6 0.669306 0.739185 0.173006
Si Si7 0.065054 0.190302 0.184357
Si Si8 0.786440 0.610622 0.267894
O O1 0.656805 0.296365 0.655155
O O2 0.830938 0.257114 0.873599
O O3 0.960179 0.288569 0.678101
O O4 0.500000 0.000000 0.500000
O O5 0.301402 0.093589 0.737028
O O6 0.404281 0.914094 0.703441
O O7 0.446936 0.168926 0.047569
O O8 0.058766 0.851742 0.718796
O O9 0.386176 0.662675 0.577137
O O10 0.669648 0.670233 0.710788
O O11 0.290531 0.484609 0.670455
O O12 0.736510 0.961819 0.702315
O O13 0.842101 0.748415 0.094897
O O14 0.038125 0.774385 0.907113
O O15 0.743995 0.739798 0.325253
O O16 0.409170 0.563036 0.979118
O O17 0.000000 0.000000 0.000000
#
# Coordination Sequence:
#
# PCOD9080800 Si02
#       8
#     2   2   2   2   2   2   2   2
#     4   9  21  34  50  72 104 143 169 199 249 316
#     4  10  18  29  50  83 107 129 163 212 266 294
#     4  10  18  30  53  80  99 132 172 218 252 287
#     4  11  20  31  49  79 115 137 156 200 263 318
#     4  10  16  32  52  74  99 130 179 208 241 290
#     4   9  16  31  55  76  98 128 175 226 243 281
#     4  10  15  28  52  77  96 125 172 220 245 278
#     4   9  17  31  53  75  96 130 182 216 239 285
#
# _framework density 26.965985
#
# number of rings (size 3 to 8) (size 9 to 14) (size 15 to 20)
#    0.000    2.250    6.250    0.375    0.000    0.500 
#    0.000    2.500    0.000   42.000    0.000    0.000 
#    0.000    0.000    0.000    0.000    0.000    0.000 
#
# Total GULP energy -89516.459874 kJ/mol
# GULP energy per Si atom -5594.778742 kJ/mol
# Density = 2.690461 g / cm^3
# Si number density = 26.965985 Si / 1000 Ang^3
#
#
#
# Elastic Constant Matrix: (Units=GPa)
#
#
# Indices 1 2 3 4 5 6 
#
# 1 106.1777 59.7515 38.8866 4.6677 15.7356 8.3662
# 2 59.7515 214.7204 65.8287 -24.1444 24.0319 -9.9567
# 3 38.8866 65.8287 120.7382 11.4693 23.0460 -17.9799
# 4 4.6677 -24.1444 11.4693 56.2326 -7.8547 39.2327
# 5 15.7356 24.0319 23.0460 -7.8547 44.5803 -9.0632
# 6 8.3662 -9.9567 -17.9799 39.2327 -9.0632 45.6149
#
#
#
# Elastic Compliance Matrix: (Units=1/GPa)
#
#
# Indices 1 2 3 4 5 6 
#
# 1 0.013094 -0.001571 -0.005205 0.006611 -0.002137 -0.010907
# 2 -0.001571 0.008397 -0.007362 0.014457 -0.000318 -0.013279
# 3 -0.005205 -0.007362 0.023640 -0.034011 -0.004896 0.036945
# 4 0.006611 0.014457 -0.034011 0.095972 0.005474 -0.092920
# 5 -0.002137 -0.000318 -0.004896 0.005474 0.026645 -0.001021
# 6 -0.010907 -0.013279 0.036945 -0.092920 -0.001021 0.115303
#
#
# Mechanical properties :
#
#
# Convention : Reuss Voigt Hill
#
# Bulk Modulus (GPa) = 59.33281 85.61887 72.47584
# Shear Modulus (GPa) = 15.77549 47.76352 31.76951
#
# Velocity S-wave (km/s) = 2.42133 4.21319 3.43612
# Velocity P-wave (km/s) = 5.46514 7.44900 6.53281
#
# Compressibility (1/GPa) = 0.01685408
#
# Stress axis : x y z
#
# Youngs Moduli (GPa) = 76.37026 119.08842 42.30125
#
# Poissons Ratio (x) = 0.18711 0.22018
# Poissons Ratio (y) = 0.11999 0.31143
# Poissons Ratio (z) = 0.39751 0.87676
#
# Static dielectric constant tensor:
#      x y z
#    x 2.070760 -0.018940 -0.018340 
#    y -0.018940 2.128030 -0.026580 
#    z -0.018340 -0.026580 2.199250 
# 
# From -- ./inp_files/397485.got.cif
#   From: 2010.05.17/outbox.cif.g08.bks.cpg/sg2_199_cif.got.tgz:397485.got - 2010.06.03 11:33:40.
