data_PCOD9080980
_publ_section_title
;
Structure prediction by ZEFSAII (Michael W. Deem and Ramdas Pophale) SiO2 
 PCOD9080980
Probable space group: P -1
;
_chemical_formula_sum "Si O2"
_cell_formula_units_Z 14
_cell_length_a 24.794696
_cell_length_b 5.407127
_cell_length_c 7.018483
_cell_angle_alpha 105.540693
_cell_angle_beta 129.313912
_cell_angle_gamma 47.571446
_cell_volume 515.961604
_symmetry_space_group_name_H-M "P -1"
_symmetry_group_IT_number 2
_symmetry_cell_setting 'triclinic'
loop_
_space_group_symop_operation_xyz
x,y,z
-x,-y,-z
loop_
_atom_site_type_symbol
_atom_site_label
_atom_site_fract_x
_atom_site_fract_y
_atom_site_fract_z
Si Si1 0.633879 0.405933 0.306795
Si Si2 0.857771 0.831082 0.613314
Si Si3 0.853591 0.231196 0.004528
Si Si4 0.041643 0.955004 0.294317
Si Si5 0.417179 0.605938 0.205127
Si Si6 0.305310 0.371208 0.977967
Si Si7 0.315455 0.194505 0.518700
O O1 0.621017 0.731937 0.403717
O O2 0.743196 0.125394 0.412923
O O3 0.638990 0.197327 0.448478
O O4 0.564341 0.502570 0.001305
O O5 0.893849 0.452711 0.599409
O O6 0.881728 0.898384 0.888000
O O7 0.905433 0.906195 0.584054
O O8 0.792305 0.323518 0.071245
O O9 0.783511 0.545765 0.760775
O O10 0.944326 0.177200 0.240248
O O11 0.000000 0.000000 0.000000
O O12 0.500000 0.500000 0.500000
O O13 0.370873 0.458447 0.145136
O O14 0.346054 0.024623 0.110769
O O15 0.302014 0.296312 0.733810
#
# Coordination Sequence:
#
# PCOD9080980 Si02
#       7
#     2   2   2   2   2   2   2
#     4   9  17  33  57  77 105 147 186 222 277 337
#     4  10  19  32  53  79 111 153 188 227 282 327
#     4  10  20  35  60  84 114 153 195 235 274 329
#     4  10  19  30  50  80 112 150 192 230 274 322
#     4  10  21  39  62  85 113 147 184 233 291 346
#     4  10  22  37  61  88 113 150 189 230 287 341
#     4   9  19  34  54  79 111 147 185 227 279 332
#
# _framework density 27.133800000000001
#
# number of rings (size 3 to 8) (size 9 to 14) (size 15 to 20)
#    0.000    2.286    0.000    4.714    0.000    6.857 
#    0.000    0.000    0.000   91.714    0.000    0.000 
#    0.000    0.000    0.000    0.000    0.000    0.000 
#
# Total GULP energy -78451.146541 kJ/mol
# GULP energy per Si atom -5603.653324 kJ/mol
# Density = 2.707204 g / cm^3
# Si number density = 27.133800 Si / 1000 Ang^3
#
#
#
# Elastic Constant Matrix: (Units=GPa)
#
#
# Indices 1 2 3 4 5 6 
#
# 1 131.6598 48.1244 32.4798 14.1580 29.7550 22.4718
# 2 48.1244 113.7770 24.8374 4.0654 -4.1903 46.7060
# 3 32.4798 24.8374 137.0750 6.2495 1.5763 8.7061
# 4 14.1580 4.0654 6.2495 40.7367 -0.7077 -6.9673
# 5 29.7550 -4.1903 1.5763 -0.7077 29.5685 9.1642
# 6 22.4718 46.7060 8.7061 -6.9673 9.1642 60.4676
#
#
#
# Elastic Compliance Matrix: (Units=1/GPa)
#
#
# Indices 1 2 3 4 5 6 
#
# 1 0.014301 -0.007096 -0.001898 -0.003833 -0.016145 0.002445
# 2 -0.007096 0.018040 -0.000837 -0.001261 0.013872 -0.013424
# 3 -0.001898 -0.000837 0.007904 -0.000454 0.001373 -0.000047
# 4 -0.003833 -0.001261 -0.000454 0.027006 0.002751 0.005159
# 5 -0.016145 0.013872 0.001373 0.002751 0.056084 -0.013096
# 6 0.002445 -0.013424 -0.000047 0.005159 -0.013096 0.028584
#
#
# Mechanical properties :
#
#
# Convention : Reuss Voigt Hill
#
# Bulk Modulus (GPa) = 48.57993 65.93279 57.25636
# Shear Modulus (GPa) = 28.02055 44.62591 36.32323
#
# Velocity S-wave (km/s) = 3.21702 4.05984 3.66275
# Velocity P-wave (km/s) = 5.63397 6.80649 6.24780
#
# Compressibility (1/GPa) = 0.02058463
#
# Stress axis : x y z
#
# Youngs Moduli (GPa) = 69.92621 55.43305 126.51132
#
# Poissons Ratio (x) = 0.39333 0.24008
# Poissons Ratio (y) = 0.49617 0.10587
# Poissons Ratio (z) = 0.13270 0.04639
#
# Static dielectric constant tensor:
#      x y z
#    x 2.213360 -0.012160 0.013630 
#    y -0.012160 2.134950 0.001750 
#    z 0.013630 0.001750 2.119290 
# 
# From -- ./inp_files/355913.got.cif
#   From: 2010.05.17/outbox.cif.g08.bks.cpg/sg2_178_cif.got.tgz:355913.got - 2010.06.03 11:33:40.
