data_PCOD9080536
_publ_section_title
;
Structure prediction by ZEFSAII (Michael W. Deem and Ramdas Pophale) SiO2 
 PCOD9080536
Probable space group: P -1
;
_chemical_formula_sum "Si O2"
_cell_formula_units_Z 13
_cell_length_a 13.158169
_cell_length_b 9.280247
_cell_length_c 9.330029
_cell_angle_alpha 105.546679
_cell_angle_beta 30.845492
_cell_angle_gamma 90.929097
_cell_volume 507.276005
_symmetry_space_group_name_H-M "P -1"
_symmetry_group_IT_number 2
_symmetry_cell_setting 'triclinic'
loop_
_space_group_symop_operation_xyz
x,y,z
-x,-y,-z
loop_
_atom_site_type_symbol
_atom_site_label
_atom_site_fract_x
_atom_site_fract_y
_atom_site_fract_z
Si Si1 0.066816 0.710947 0.227194
Si Si2 0.457874 0.847649 0.450064
Si Si3 0.227188 0.355466 0.237774
Si Si4 0.736815 0.623801 0.270332
Si Si5 0.157908 0.089053 0.692216
Si Si6 0.486882 0.664742 0.870009
Si Si7 0.500000 0.000000 0.000000
O O1 0.837514 0.762578 0.607738
O O2 0.025517 0.851631 0.195010
O O3 0.116663 0.544471 0.033625
O O4 0.265283 0.658947 0.084067
O O5 0.510163 0.718983 0.481283
O O6 0.500000 0.000000 0.500000
O O7 0.223495 0.932718 0.677148
O O8 0.638750 0.742633 0.086047
O O9 0.373498 0.413727 0.176692
O O10 0.000000 0.500000 0.500000
O O11 0.855717 0.746865 0.164985
O O12 0.658528 0.597846 0.513669
O O13 0.380300 0.037854 0.316189
O O14 0.410664 0.858744 0.040555
#
# Coordination Sequence:
#
# PCOD9080536 Si02
#       7
#     2   2   2   2   2   2   1
#     4  12  23  40  70 100 129 178 231 268 332 406
#     4  10  21  40  69  96 132 177 218 274 339 394
#     4  12  24  44  69  97 133 178 221 282 339 388
#     4  10  21  41  65  95 138 178 217 276 332 392
#     4  10  19  36  66  93 128 173 217 269 330 388
#     4  11  25  41  68  96 134 172 228 276 329 405
#     4  10  18  40  60  88 126 166 214 268 328 376
#
# _framework density 25.627075999999999
#
# number of rings (size 3 to 8) (size 9 to 14) (size 15 to 20)
#    0.000    1.231    6.154    0.923    0.000    1.231 
#    0.000    0.769    0.000    0.000    0.000    0.000 
#    0.000    0.000    0.000    0.000    0.000    0.000 
#
# Total GULP energy -72476.253858 kJ/mol
# GULP energy per Si atom -5575.096451 kJ/mol
# Density = 2.556875 g / cm^3
# Si number density = 25.627076 Si / 1000 Ang^3
#
#
#
# Elastic Constant Matrix: (Units=GPa)
#
#
# Indices 1 2 3 4 5 6 
#
# 1 204.4860 30.3433 62.7757 3.4758 -12.0499 -19.9976
# 2 30.3433 41.2884 17.2945 16.4947 1.3331 2.3391
# 3 62.7757 17.2945 128.1771 21.7953 8.9305 20.2020
# 4 3.4758 16.4947 21.7953 28.0537 10.6240 -0.2287
# 5 -12.0499 1.3331 8.9305 10.6240 52.7499 12.3396
# 6 -19.9976 2.3391 20.2020 -0.2287 12.3396 46.6643
#
#
#
# Elastic Compliance Matrix: (Units=1/GPa)
#
#
# Indices 1 2 3 4 5 6 
#
# 1 0.007944 -0.006856 -0.005111 0.007054 0.000032 0.005987
# 2 -0.006856 0.038493 0.003510 -0.026039 0.003875 -0.007539
# 3 -0.005111 0.003510 0.013132 -0.012041 0.000898 -0.008348
# 4 0.007054 -0.026039 -0.012041 0.063931 -0.011590 0.012919
# 5 0.000032 0.003875 0.000898 -0.011590 0.022593 -0.006601
# 6 0.005987 -0.007539 -0.008348 0.012919 -0.006601 0.029796
#
#
# Mechanical properties :
#
#
# Convention : Reuss Voigt Hill
#
# Bulk Modulus (GPa) = 23.44396 66.08650 44.76523
# Shear Modulus (GPa) = 24.15218 43.06278 33.60748
#
# Velocity S-wave (km/s) = 3.07326 4.10367 3.62526
# Velocity P-wave (km/s) = 4.66489 6.94962 5.91855
#
# Compressibility (1/GPa) = 0.04265491
#
# Stress axis : x y z
#
# Youngs Moduli (GPa) = 125.87928 25.97906 76.15068
#
# Poissons Ratio (x) = 0.17811 0.38920
# Poissons Ratio (y) = 0.86299 -0.26728
# Poissons Ratio (z) = 0.64337 -0.09118
#
# Static dielectric constant tensor:
#      x y z
#    x 1.962840 0.141950 0.207970 
#    y 0.141950 1.836350 -0.341730 
#    z 0.207970 -0.341730 1.657390 
# 
# From -- ./inp_files/254727.got.cif
#   From: 2010.05.17/outbox.cif.g08.bks.cpg/sg2_128_cif.got.tgz:254727.got - 2010.06.03 11:33:40.
