data_PCOD9080725
_publ_section_title
;
Structure prediction by ZEFSAII (Michael W. Deem and Ramdas Pophale) SiO2 
 PCOD9080725
Probable space group: P -1
;
_chemical_formula_sum "Si O2"
_cell_formula_units_Z 14
_cell_length_a 8.966344
_cell_length_b 20.872951
_cell_length_c 10.821231
_cell_angle_alpha 148.253233
_cell_angle_beta 140.189049
_cell_angle_gamma 32.602549
_cell_volume 564.503872
_symmetry_space_group_name_H-M "P -1"
_symmetry_group_IT_number 2
_symmetry_cell_setting 'triclinic'
loop_
_space_group_symop_operation_xyz
x,y,z
-x,-y,-z
loop_
_atom_site_type_symbol
_atom_site_label
_atom_site_fract_x
_atom_site_fract_y
_atom_site_fract_z
Si Si1 0.349214 0.078173 0.401103
Si Si2 0.175154 0.461753 0.423314
Si Si3 0.869233 0.605837 0.210433
Si Si4 0.459883 0.211950 0.032817
Si Si5 0.675733 0.309465 0.111365
Si Si6 0.177949 0.049056 0.870656
Si Si7 0.084038 0.108972 0.634019
O O1 0.116650 0.249890 0.546910
O O2 0.500000 0.000000 0.500000
O O3 0.613003 0.048626 0.440772
O O4 0.303103 0.961552 0.115569
O O5 0.387493 0.289795 0.245934
O O6 0.331523 0.544155 0.657746
O O7 0.000000 0.500000 0.500000
O O8 0.986851 0.525416 0.283375
O O9 0.540805 0.674415 0.101698
O O10 0.000000 0.500000 0.000000
O O11 0.552268 0.289856 0.126751
O O12 0.176587 0.216504 0.823952
O O13 0.986136 0.168835 0.048744
O O14 0.127074 0.917360 0.615047
O O15 0.038642 0.133132 0.789974
O O16 0.500000 0.000000 0.000000
#
# Coordination Sequence:
#
# PCOD9080725 Si02
#       7
#     2   2   2   2   2   2   2
#     4  10  18  41  76 107 146 189 250 320 377 455
#     4  12  28  47  74 114 162 205 259 323 396 475
#     4  12  24  46  80 114 148 208 255 317 401 463
#     4  10  21  46  73 108 151 200 254 325 383 456
#     4  12  24  46  79 103 156 200 265 325 383 471
#     4  11  23  40  67 109 145 204 244 317 385 461
#     4   9  21  41  68  98 152 181 252 313 377 451
#
# _framework density 24.800538
#
# number of rings (size 3 to 8) (size 9 to 14) (size 15 to 20)
#    0.857    0.286    4.286    1.286    2.000    0.571 
#    0.000    9.286    0.000    0.000    0.000    0.000 
#    0.000    0.000    0.000    0.000    0.000    0.000 
#
# Total GULP energy -78119.508406 kJ/mol
# GULP energy per Si atom -5579.964886 kJ/mol
# Density = 2.474409 g / cm^3
# Si number density = 24.800538 Si / 1000 Ang^3
#
#
#
# Elastic Constant Matrix: (Units=GPa)
#
#
# Indices 1 2 3 4 5 6 
#
# 1 139.2920 24.9459 66.3638 20.7982 -6.8842 -14.7608
# 2 24.9459 73.2193 32.0327 5.8328 -7.1482 -2.1001
# 3 66.3638 32.0327 189.5129 36.3977 10.0909 -13.8368
# 4 20.7982 5.8328 36.3977 41.5696 -11.2092 6.4231
# 5 -6.8842 -7.1482 10.0909 -11.2092 59.6664 -7.6937
# 6 -14.7608 -2.1001 -13.8368 6.4231 -7.6937 39.9399
#
#
#
# Elastic Compliance Matrix: (Units=1/GPa)
#
#
# Indices 1 2 3 4 5 6 
#
# 1 0.009388 -0.001769 -0.002318 -0.002595 0.001191 0.003220
# 2 -0.001769 0.015414 -0.002442 0.001553 0.002283 -0.000499
# 3 -0.002318 -0.002442 0.008126 -0.006759 -0.002900 0.002358
# 4 -0.002595 0.001553 -0.006759 0.033942 0.006447 -0.007436
# 5 0.001191 0.002283 -0.002900 0.006447 0.019157 0.002209
# 6 0.003220 -0.000499 0.002358 -0.007436 0.002209 0.028640
#
#
# Mechanical properties :
#
#
# Convention : Reuss Voigt Hill
#
# Bulk Modulus (GPa) = 50.33054 72.07878 61.20466
# Shear Modulus (GPa) = 37.21665 46.81398 42.01531
#
# Velocity S-wave (km/s) = 3.87801 4.34939 4.12045
# Velocity P-wave (km/s) = 6.35532 7.37220 6.88257
#
# Compressibility (1/GPa) = 0.01986865
#
# Stress axis : x y z
#
# Youngs Moduli (GPa) = 106.51716 64.87814 123.06140
#
# Poissons Ratio (x) = 0.11476 0.28531
# Poissons Ratio (y) = 0.18842 0.30055
# Poissons Ratio (z) = 0.24695 0.15845
#
# Static dielectric constant tensor:
#      x y z
#    x 2.010840 0.000040 -0.040780 
#    y 0.000040 2.157020 0.128180 
#    z -0.040780 0.128180 2.172160 
# 
# From -- ./inp_files/406922.got.cif
#   From: 2010.05.17/outbox.cif.g08.bks.cpg/sg2_204_cif.got.tgz:406922.got - 2010.06.03 11:33:40.
