data_PCOD9080676
_publ_section_title
;
Structure prediction by ZEFSAII (Michael W. Deem and Ramdas Pophale) SiO2 
 PCOD9080676
Probable space group: P -1
;
_chemical_formula_sum "Si O2"
_cell_formula_units_Z 14
_cell_length_a 19.677490
_cell_length_b 12.214252
_cell_length_c 7.861729
_cell_angle_alpha 125.856421
_cell_angle_beta 53.940123
_cell_angle_gamma 158.137448
_cell_volume 563.905680
_symmetry_space_group_name_H-M "P -1"
_symmetry_group_IT_number 2
_symmetry_cell_setting 'triclinic'
loop_
_space_group_symop_operation_xyz
x,y,z
-x,-y,-z
loop_
_atom_site_type_symbol
_atom_site_label
_atom_site_fract_x
_atom_site_fract_y
_atom_site_fract_z
Si Si1 0.146345 0.207819 0.817184
Si Si2 0.176450 0.770421 0.107029
Si Si3 0.241409 0.631268 0.102314
Si Si4 0.178124 0.332072 0.373483
Si Si5 0.933614 0.186804 0.411208
Si Si6 0.482455 0.092195 0.466056
Si Si7 0.535202 0.705117 0.089312
O O1 0.272923 0.517323 0.931067
O O2 0.005390 0.019779 0.692099
O O3 0.212907 0.147404 0.669659
O O4 0.000000 0.000000 0.000000
O O5 0.131946 0.777472 0.359142
O O6 0.328178 0.078172 0.069910
O O7 0.251645 0.730577 0.005947
O O8 0.000000 0.500000 0.000000
O O9 0.620282 0.108021 0.727815
O O10 0.032784 0.347273 0.230260
O O11 0.099533 0.359122 0.438178
O O12 0.309985 0.552758 0.537439
O O13 0.333511 0.484271 0.163128
O O14 0.500000 0.000000 0.500000
O O15 0.383039 0.081856 0.686298
O O16 0.500000 0.500000 0.000000
#
# Coordination Sequence:
#
# PCOD9080676 Si02
#       7
#     2   2   2   2   2   2   2
#     4   8  16  36  67  95 119 172 218 258 319 401
#     4  12  27  39  63 106 140 166 224 284 336 384
#     4  11  20  39  68 103 129 173 218 284 328 383
#     4   8  19  38  72  88 127 179 222 251 335 397
#     4   9  19  42  67  96 131 177 216 269 328 407
#     4  10  18  40  72  93 126 174 220 265 331 392
#     4  10  24  45  67  90 134 185 219 268 342 402
#
# _framework density 24.826847999999998
#
# number of rings (size 3 to 8) (size 9 to 14) (size 15 to 20)
#    1.714    0.571    1.429    1.286    2.000    0.000 
#    2.571    7.857    0.000    0.000    0.000    0.000 
#    0.000    0.000    0.000    0.000    0.000    0.000 
#
# Total GULP energy -78092.484845 kJ/mol
# GULP energy per Si atom -5578.034632 kJ/mol
# Density = 2.477034 g / cm^3
# Si number density = 24.826848 Si / 1000 Ang^3
#
#
#
# Elastic Constant Matrix: (Units=GPa)
#
#
# Indices 1 2 3 4 5 6 
#
# 1 81.0931 43.5984 14.3090 17.8385 9.0651 -8.1673
# 2 43.5984 159.7520 41.4069 14.6502 1.1143 -12.6394
# 3 14.3090 41.4069 80.2082 21.5492 1.5170 -19.1583
# 4 17.8385 14.6502 21.5492 51.0044 3.5510 -1.3684
# 5 9.0651 1.1143 1.5170 3.5510 40.8556 11.2855
# 6 -8.1673 -12.6394 -19.1583 -1.3684 11.2855 31.0754
#
#
#
# Elastic Compliance Matrix: (Units=1/GPa)
#
#
# Indices 1 2 3 4 5 6 
#
# 1 0.016278 -0.004022 0.001803 -0.004841 -0.004586 0.005206
# 2 -0.004022 0.008256 -0.003789 0.000569 0.000846 -0.000317
# 3 0.001803 -0.003789 0.018775 -0.006918 -0.003569 0.011499
# 4 -0.004841 0.000569 -0.006918 0.023908 0.000458 -0.004419
# 5 -0.004586 0.000846 -0.003569 0.000458 0.029348 -0.013700
# 6 0.005206 -0.000317 0.011499 -0.004419 -0.013700 0.045289
#
#
# Mechanical properties :
#
#
# Convention : Reuss Voigt Hill
#
# Bulk Modulus (GPa) = 31.95655 57.74247 44.84951
# Shear Modulus (GPa) = 30.43207 39.36966 34.90086
#
# Velocity S-wave (km/s) = 3.50490 3.98649 3.75343
# Velocity P-wave (km/s) = 5.41099 6.67069 6.07359
#
# Compressibility (1/GPa) = 0.03129249
#
# Stress axis : x y z
#
# Youngs Moduli (GPa) = 61.43447 121.11879 53.26316
#
# Poissons Ratio (x) = 0.48713 -0.09605
# Poissons Ratio (y) = 0.24708 0.20183
# Poissons Ratio (z) = -0.11078 0.45896
#
# Static dielectric constant tensor:
#      x y z
#    x 1.951450 0.001190 0.075050 
#    y 0.001190 2.024600 -0.001870 
#    z 0.075050 -0.001870 2.096290 
# 
# From -- ./inp_files/353179.got.cif
#   From: 2010.05.17/outbox.cif.g08.bks.cpg/sg2_177_cif.got.tgz:353179.got - 2010.06.03 11:33:40.
