data_PCOD9080545
_publ_section_title
;
Structure prediction by ZEFSAII (Michael W. Deem and Ramdas Pophale) SiO2 
 PCOD9080545
Probable space group: P -1
;
_chemical_formula_sum "Si O2"
_cell_formula_units_Z 16
_cell_length_a 11.295367
_cell_length_b 12.018735
_cell_length_c 7.217915
_cell_angle_alpha 91.709783
_cell_angle_beta 137.694326
_cell_angle_gamma 105.228667
_cell_volume 597.294335
_symmetry_space_group_name_H-M "P -1"
_symmetry_group_IT_number 2
_symmetry_cell_setting 'triclinic'
loop_
_space_group_symop_operation_xyz
x,y,z
-x,-y,-z
loop_
_atom_site_type_symbol
_atom_site_label
_atom_site_fract_x
_atom_site_fract_y
_atom_site_fract_z
Si Si1 0.057179 0.334640 0.318773
Si Si2 0.656097 0.290443 0.649716
Si Si3 0.337861 0.181114 0.027494
Si Si4 0.221090 0.838609 0.777695
Si Si5 0.415458 0.171292 0.687314
Si Si6 0.928431 0.053137 0.691441
Si Si7 0.831363 0.677749 0.927429
Si Si8 0.118827 0.589928 0.427188
O O1 0.988248 0.217150 0.364641
O O2 0.103714 0.462122 0.483688
O O3 0.853969 0.303690 0.975818
O O4 0.211137 0.352486 0.338591
O O5 0.512946 0.175714 0.350792
O O6 0.519264 0.280775 0.666314
O O7 0.744186 0.389490 0.593456
O O8 0.379235 0.200134 0.858440
O O9 0.313043 0.297891 0.099042
O O10 0.131805 0.069434 0.836950
O O11 0.214121 0.935653 0.630462
O O12 0.206921 0.712526 0.657591
O O13 0.422088 0.884036 0.120716
O O14 0.206566 0.071117 0.368011
O O15 0.994004 0.183529 0.874490
O O16 0.918917 0.590024 0.116762
#
# Coordination Sequence:
#
# PCOD9080545 Si02
#       8
#     2   2   2   2   2   2   2   2
#     4  10  20  37  64  87 107 154 196 240 295 335
#     4  10  21  36  60  87 114 151 193 239 277 346
#     4  10  21  38  58  80 127 154 185 238 278 345
#     4  10  20  37  63  87 114 145 200 248 277 338
#     4  11  21  38  60  88 115 158 191 227 296 334
#     4   9  21  38  57  83 119 156 186 234 288 338
#     4   8  19  35  54  82 113 150 187 233 280 333
#     4  10  18  40  62  81 115 150 194 245 288 333
#
# _framework density 26.787462999999999
#
# number of rings (size 3 to 8) (size 9 to 14) (size 15 to 20)
#    0.750    1.500    1.250    2.625    0.000    1.500 
#    2.250    8.750    0.000    4.500    0.000    0.000 
#    0.000    0.000    0.000    0.000    0.000    0.000 
#
# Total GULP energy -89193.798712 kJ/mol
# GULP energy per Si atom -5574.612420 kJ/mol
# Density = 2.672649 g / cm^3
# Si number density = 26.787463 Si / 1000 Ang^3
#
#
#
# Elastic Constant Matrix: (Units=GPa)
#
#
# Indices 1 2 3 4 5 6 
#
# 1 107.7806 34.6981 3.4601 4.3926 -19.6810 6.9293
# 2 34.6981 76.7125 0.6701 3.1450 4.3050 5.7861
# 3 3.4601 0.6701 66.4923 -10.1842 9.9691 -9.1983
# 4 4.3926 3.1450 -10.1842 23.8473 -5.4992 -7.5888
# 5 -19.6810 4.3050 9.9691 -5.4992 45.0583 1.7330
# 6 6.9293 5.7861 -9.1983 -7.5888 1.7330 40.8677
#
#
#
# Elastic Compliance Matrix: (Units=1/GPa)
#
#
# Indices 1 2 3 4 5 6 
#
# 1 0.012610 -0.005791 -0.002164 -0.001769 0.006417 -0.002406
# 2 -0.005791 0.016114 0.000204 -0.002461 -0.004356 -0.001526
# 3 -0.002164 0.000204 0.018025 0.009121 -0.004080 0.006262
# 4 -0.001769 -0.002461 0.009121 0.051053 0.003212 0.012045
# 5 0.006417 -0.004356 -0.004080 0.003212 0.026781 -0.001929
# 6 -0.002406 -0.001526 0.006262 0.012045 -0.001929 0.028821
#
#
# Mechanical properties :
#
#
# Convention : Reuss Voigt Hill
#
# Bulk Modulus (GPa) = 32.00265 36.51575 34.25920
# Shear Modulus (GPa) = 27.88290 36.09847 31.99068
#
# Velocity S-wave (km/s) = 3.22979 3.67493 3.45953
# Velocity P-wave (km/s) = 5.08739 5.62744 5.36422
#
# Compressibility (1/GPa) = 0.03124741
#
# Stress axis : x y z
#
# Youngs Moduli (GPa) = 79.29987 62.05895 55.47904
#
# Poissons Ratio (x) = 0.35939 0.12004
# Poissons Ratio (y) = 0.45923 -0.01131
# Poissons Ratio (z) = 0.17158 -0.01266
#
# Static dielectric constant tensor:
#      x y z
#    x 2.192300 -0.006870 -0.015050 
#    y -0.006870 2.075160 -0.034240 
#    z -0.015050 -0.034240 2.153280 
# 
# From -- ./inp_files/270530.got.cif
#   From: 2010.05.17/outbox.cif.g08.bks.cpg/sg2_136_cif.got.tgz:270530.got - 2010.06.03 11:33:40.
