data_PCOD9080382
_publ_section_title
;
Structure prediction by ZEFSAII (Michael W. Deem and Ramdas Pophale) SiO2 
 PCOD9080382
Probable space group: P -1
;
_chemical_formula_sum "Si O2"
_cell_formula_units_Z 14
_cell_length_a 11.372271
_cell_length_b 7.293157
_cell_length_c 10.407211
_cell_angle_alpha 89.112172
_cell_angle_beta 140.099558
_cell_angle_gamma 88.758115
_cell_volume 552.861307
_symmetry_space_group_name_H-M "P -1"
_symmetry_group_IT_number 2
_symmetry_cell_setting 'triclinic'
loop_
_space_group_symop_operation_xyz
x,y,z
-x,-y,-z
loop_
_atom_site_type_symbol
_atom_site_label
_atom_site_fract_x
_atom_site_fract_y
_atom_site_fract_z
Si Si1 0.774303 0.032680 0.453947
Si Si2 0.062641 0.286882 0.575950
Si Si3 0.569165 0.436665 0.694490
Si Si4 0.642991 0.574646 0.017488
Si Si5 0.178270 0.070708 0.224144
Si Si6 0.596882 0.042771 0.815968
Si Si7 0.105284 0.704360 0.909677
O O1 0.873899 0.840184 0.490963
O O2 0.772757 0.047468 0.607526
O O3 0.561012 0.041159 0.233177
O O4 0.890985 0.190629 0.493283
O O5 0.185523 0.569931 0.870710
O O6 0.000000 0.500000 0.500000
O O7 0.241414 0.271028 0.820660
O O8 0.500000 0.500000 0.500000
O O9 0.547372 0.574154 0.796388
O O10 0.501173 0.238564 0.684951
O O11 0.786589 0.379462 0.873857
O O12 0.500000 0.500000 0.000000
O O13 0.100287 0.260303 0.219237
O O14 0.336812 0.071269 0.252428
O O15 0.000000 0.000000 0.000000
O O16 0.786555 0.109790 0.034048
#
# Coordination Sequence:
#
# PCOD9080382 Si02
#       7
#     2   2   2   2   2   2   2
#     4  11  23  41  65 100 140 184 236 287 351 426
#     4  11  24  44  68  97 142 186 236 292 354 424
#     4   8  17  35  65 102 139 172 238 293 354 421
#     4   9  18  38  66  97 132 179 235 290 350 417
#     4  10  18  39  62  93 139 178 225 289 346 419
#     4   8  18  36  65  94 135 177 227 281 354 418
#     4   7  17  32  65  92 132 173 232 285 350 415
#
# _framework density 25.322807999999998
#
# number of rings (size 3 to 8) (size 9 to 14) (size 15 to 20)
#    1.714    0.857    0.000    3.000    0.000    0.000 
#    7.714    2.857    0.000   19.714    0.000    0.000 
#    0.000    0.000    0.000    0.000    0.000    0.000 
#
# Total GULP energy -77988.541194 kJ/mol
# GULP energy per Si atom -5570.610085 kJ/mol
# Density = 2.526517 g / cm^3
# Si number density = 25.322808 Si / 1000 Ang^3
#
#
#
# Elastic Constant Matrix: (Units=GPa)
#
#
# Indices 1 2 3 4 5 6 
#
# 1 130.6763 45.8543 38.8918 17.7070 8.6493 5.2501
# 2 45.8543 100.8254 20.6667 4.5716 -6.3812 2.0524
# 3 38.8918 20.6667 126.5689 18.2642 -10.6405 2.7353
# 4 17.7070 4.5716 18.2642 26.7058 -8.6931 1.1943
# 5 8.6493 -6.3812 -10.6405 -8.6931 33.8543 2.8093
# 6 5.2501 2.0524 2.7353 1.1943 2.8093 30.2465
#
#
#
# Elastic Compliance Matrix: (Units=1/GPa)
#
#
# Indices 1 2 3 4 5 6 
#
# 1 0.011421 -0.004803 -0.002194 -0.007286 -0.006335 -0.000582
# 2 -0.004803 0.012367 -0.000596 0.002842 0.004138 -0.000448
# 3 -0.002194 -0.000596 0.009480 -0.004120 0.002411 -0.000497
# 4 -0.007286 0.002842 -0.004120 0.049207 0.013886 -0.001788
# 5 -0.006335 0.004138 0.002411 0.013886 0.036538 -0.003341
# 6 -0.000582 -0.000448 -0.000497 -0.001788 -0.003341 0.033619
#
#
# Mechanical properties :
#
#
# Convention : Reuss Voigt Hill
#
# Bulk Modulus (GPa) = 55.30317 63.21068 59.25693
# Shear Modulus (GPa) = 28.76127 35.00518 31.88322
#
# Velocity S-wave (km/s) = 3.37380 3.72204 3.55219
# Velocity P-wave (km/s) = 6.08797 6.59451 6.34630
#
# Compressibility (1/GPa) = 0.01808215
#
# Stress axis : x y z
#
# Youngs Moduli (GPa) = 87.55953 80.86135 105.48310
#
# Poissons Ratio (x) = 0.38839 0.23140
# Poissons Ratio (y) = 0.42056 0.06287
# Poissons Ratio (z) = 0.19208 0.04819
#
# Static dielectric constant tensor:
#      x y z
#    x 1.935870 0.003280 -0.014020 
#    y 0.003280 2.196060 0.007810 
#    z -0.014020 0.007810 2.148950 
# 
# From -- ./inp_files/249579.got.cif
#   From: 2010.05.17/outbox.cif.g08.bks.cpg/sg2_125_cif.got.tgz:249579.got - 2010.06.03 11:33:40.
