data_PCOD9080411
_publ_section_title
;
Structure prediction by ZEFSAII (Michael W. Deem and Ramdas Pophale) SiO2 
 PCOD9080411
Probable space group: P -1
;
_chemical_formula_sum "Si O2"
_cell_formula_units_Z 14
_cell_length_a 8.434062
_cell_length_b 5.660300
_cell_length_c 20.657444
_cell_angle_alpha 109.174317
_cell_angle_beta 144.305630
_cell_angle_gamma 61.001471
_cell_volume 499.124066
_symmetry_space_group_name_H-M "P -1"
_symmetry_group_IT_number 2
_symmetry_cell_setting 'triclinic'
loop_
_space_group_symop_operation_xyz
x,y,z
-x,-y,-z
loop_
_atom_site_type_symbol
_atom_site_label
_atom_site_fract_x
_atom_site_fract_y
_atom_site_fract_z
Si Si1 0.613578 0.492411 0.876158
Si Si2 0.407126 0.917715 0.060317
Si Si3 0.902644 0.229950 0.700313
Si Si4 0.112005 0.150518 0.455541
Si Si5 0.109406 0.951393 0.180602
Si Si6 0.991302 0.510164 0.346649
Si Si7 0.613409 0.086237 0.338303
O O1 0.687473 0.759792 0.926567
O O2 0.755743 0.310758 0.844601
O O3 0.254437 0.607184 0.763189
O O4 0.688760 0.272188 0.939959
O O5 0.760327 0.807959 0.173134
O O6 0.240902 0.911825 0.937605
O O7 0.810703 0.503445 0.650957
O O8 0.797969 0.158976 0.726734
O O9 0.841376 0.046710 0.608073
O O10 0.277069 0.005245 0.560990
O O11 0.168525 0.389383 0.459827
O O12 0.766170 0.272386 0.374921
O O13 0.269837 0.147855 0.228003
O O14 0.777675 0.817944 0.323816
#
# Coordination Sequence:
#
# PCOD9080411 Si02
#       7
#     2   2   2   2   2   2   2
#     4  10  22  40  68  92 125 168 221 262 310 373
#     4  11  22  45  65  92 128 177 213 257 316 388
#     4  10  22  39  60  91 127 168 204 257 328 381
#     4  10  18  39  64  84 120 166 211 254 315 385
#     4  11  23  40  58  96 131 156 210 270 317 373
#     4   9  18  37  61  85 121 161 214 251 312 386
#     4   9  21  36  62  90 116 163 213 263 306 373
#
# _framework density 28.049140000000001
#
# number of rings (size 3 to 8) (size 9 to 14) (size 15 to 20)
#    0.000    2.000    1.429    2.571    0.000    0.571 
#    7.714    2.857    0.000    0.000    0.000    0.000 
#    0.000    0.000    0.000    0.000    0.000    0.000 
#
# Total GULP energy -78231.634669 kJ/mol
# GULP energy per Si atom -5587.973905 kJ/mol
# Density = 2.798530 g / cm^3
# Si number density = 28.049140 Si / 1000 Ang^3
#
#
#
# Elastic Constant Matrix: (Units=GPa)
#
#
# Indices 1 2 3 4 5 6 
#
# 1 112.4306 42.1679 38.3783 -1.7994 -22.8878 35.1391
# 2 42.1679 83.4433 17.4163 -7.3051 -9.2946 15.9350
# 3 38.3783 17.4163 107.3006 -1.1590 -18.2807 12.8373
# 4 -1.7994 -7.3051 -1.1590 34.4036 9.5330 -12.7140
# 5 -22.8878 -9.2946 -18.2807 9.5330 54.9323 -13.0012
# 6 35.1391 15.9350 12.8373 -12.7140 -13.0012 46.6141
#
#
#
# Elastic Compliance Matrix: (Units=1/GPa)
#
#
# Indices 1 2 3 4 5 6 
#
# 1 0.015479 -0.005464 -0.003046 -0.004791 0.003118 -0.009399
# 2 -0.005464 0.015103 -0.000516 0.002947 -0.000458 -0.000226
# 3 -0.003046 -0.000516 0.010892 -0.000565 0.002361 -0.000023
# 4 -0.004791 0.002947 -0.000565 0.034856 -0.005173 0.010824
# 5 0.003118 -0.000458 0.002361 -0.005173 0.021523 0.001748
# 6 -0.009399 -0.000226 -0.000023 0.010824 0.001748 0.032061
#
#
# Mechanical properties :
#
#
# Convention : Reuss Voigt Hill
#
# Bulk Modulus (GPa) = 42.69420 55.45549 49.07484
# Shear Modulus (GPa) = 32.09814 40.87080 36.48447
#
# Velocity S-wave (km/s) = 3.38650 3.82136 3.61048
# Velocity P-wave (km/s) = 5.52679 6.26770 5.90887
#
# Compressibility (1/GPa) = 0.02342239
#
# Stress axis : x y z
#
# Youngs Moduli (GPa) = 64.60455 66.21110 91.81426
#
# Poissons Ratio (x) = 0.36176 0.27962
# Poissons Ratio (y) = 0.35298 0.04741
# Poissons Ratio (z) = 0.19675 0.03419
#
# Static dielectric constant tensor:
#      x y z
#    x 2.192930 0.038190 0.068320 
#    y 0.038190 2.436360 0.006880 
#    z 0.068320 0.006880 2.210040 
# 
# From -- ./inp_files/287819.got.cif
#   From: 2010.05.17/outbox.cif.g08.bks.cpg/sg2_144_cif.got.tgz:287819.got - 2010.06.03 11:33:40.
