data_PCOD9080828
_publ_section_title
;
Structure prediction by ZEFSAII (Michael W. Deem and Ramdas Pophale) SiO2 
 PCOD9080828
Probable space group: P -1
;
_chemical_formula_sum "Si O2"
_cell_formula_units_Z 14
_cell_length_a 14.618091
_cell_length_b 12.536010
_cell_length_c 12.763180
_cell_angle_alpha 23.401689
_cell_angle_beta 121.517827
_cell_angle_gamma 113.189769
_cell_volume 765.944113
_symmetry_space_group_name_H-M "P -1"
_symmetry_group_IT_number 2
_symmetry_cell_setting 'triclinic'
loop_
_space_group_symop_operation_xyz
x,y,z
-x,-y,-z
loop_
_atom_site_type_symbol
_atom_site_label
_atom_site_fract_x
_atom_site_fract_y
_atom_site_fract_z
Si Si1 0.766610 0.831184 0.675222
Si Si2 0.999004 0.201897 0.220128
Si Si3 0.356801 0.296278 0.089457
Si Si4 0.756221 0.401678 0.867599
Si Si5 0.436366 0.689385 0.648409
Si Si6 0.595476 0.169846 0.121245
Si Si7 0.556399 0.746229 0.337842
O O1 0.886181 0.896017 0.685864
O O2 0.737033 0.714897 0.872170
O O3 0.766522 0.605234 0.787246
O O4 0.667010 0.088313 0.343813
O O5 0.000000 0.000000 0.500000
O O6 0.000000 0.500000 0.000000
O O7 0.880672 0.239829 0.058799
O O8 0.465152 0.292871 0.228050
O O9 0.382456 0.007248 0.301091
O O10 0.347236 0.556039 0.773753
O O11 0.686869 0.584233 0.568537
O O12 0.681838 0.212125 0.045123
O O13 0.500493 0.452199 0.820999
O O14 0.546128 0.912749 0.291854
O O15 0.500000 0.500000 0.500000
O O16 0.500000 0.000000 0.000000
#
# Coordination Sequence:
#
# PCOD9080828 Si02
#       7
#     2   2   2   2   2   2   2
#     4  10  19  30  48  72 104 140 168 195 233 286
#     4  10  20  32  47  72 100 135 172 199 231 291
#     4  10  19  29  44  68 101 136 170 196 226 282
#     4  10  20  33  51  72 100 136 167 201 245 297
#     4  10  20  29  44  69  98 135 170 196 234 288
#     4  11  19  32  52  70 101 135 165 199 249 300
#     4  11  23  36  52  72  96 128 166 215 260 297
#
# _framework density 18.278095
#
# number of rings (size 3 to 8) (size 9 to 14) (size 15 to 20)
#    0.000    1.714    4.286    2.571    2.000    0.000 
#    0.000    0.000    0.000    0.000    0.000    0.000 
#    0.000    6.857    0.000    0.000    0.000    0.000 
#
# Total GULP energy -77974.371557 kJ/mol
# GULP energy per Si atom -5569.597968 kJ/mol
# Density = 1.823649 g / cm^3
# Si number density = 18.278095 Si / 1000 Ang^3
#
#
#
# Elastic Constant Matrix: (Units=GPa)
#
#
# Indices 1 2 3 4 5 6 
#
# 1 122.5746 29.7614 33.2062 5.5498 -2.1252 19.2841
# 2 29.7614 61.7423 38.7639 -10.8188 10.3070 13.7976
# 3 33.2062 38.7639 94.6318 -4.3498 -6.6591 16.4045
# 4 5.5498 -10.8188 -4.3498 35.8446 8.9262 0.6972
# 5 -2.1252 10.3070 -6.6591 8.9262 26.5575 -5.3398
# 6 19.2841 13.7976 16.4045 0.6972 -5.3398 14.0920
#
#
#
# Elastic Compliance Matrix: (Units=1/GPa)
#
#
# Indices 1 2 3 4 5 6 
#
# 1 0.010908 -0.002754 -0.000895 -0.002506 0.000362 -0.010928
# 2 -0.002754 0.043051 -0.011281 0.021523 -0.034945 -0.039558
# 3 -0.000895 -0.011281 0.016576 -0.003405 0.008907 -0.003483
# 4 -0.002506 0.021523 -0.003405 0.042093 -0.028929 -0.026724
# 5 0.000362 -0.034945 0.008907 -0.028929 0.073808 0.052749
# 6 -0.010928 -0.039558 -0.003483 -0.026724 0.052749 0.150012
#
#
# Mechanical properties :
#
#
# Convention : Reuss Voigt Hill
#
# Bulk Modulus (GPa) = 24.58432 53.60132 39.09282
# Shear Modulus (GPa) = 13.16244 27.11331 20.13788
#
# Velocity S-wave (km/s) = 2.68642 3.85564 3.32286
# Velocity P-wave (km/s) = 4.80643 7.01501 6.01299
#
# Compressibility (1/GPa) = 0.04067634
#
# Stress axis : x y z
#
# Youngs Moduli (GPa) = 91.67231 23.22804 60.32673
#
# Poissons Ratio (x) = 0.06397 0.05399
# Poissons Ratio (y) = 0.25245 0.68055
# Poissons Ratio (z) = 0.08205 0.26204
#
# Static dielectric constant tensor:
#      x y z
#    x 1.700990 -0.006750 -0.007620 
#    y -0.006750 1.667080 -0.019970 
#    z -0.007620 -0.019970 1.714790 
# 
# From -- ./inp_files/533133.got.cif
#   From: 2010.05.17/outbox.cif.g08.bks.cpg/sg2_267_cif.got.tgz:533133.got - 2010.06.03 11:33:40.
