data_PCOD9080689
_publ_section_title
;
Structure prediction by ZEFSAII (Michael W. Deem and Ramdas Pophale) SiO2 
 PCOD9080689
Probable space group: P -1
;
_chemical_formula_sum "Si O2"
_cell_formula_units_Z 16
_cell_length_a 11.862181
_cell_length_b 15.564651
_cell_length_c 9.279887
_cell_angle_alpha 79.132185
_cell_angle_beta 96.624619
_cell_angle_gamma 153.370234
_cell_volume 748.667044
_symmetry_space_group_name_H-M "P -1"
_symmetry_group_IT_number 2
_symmetry_cell_setting 'triclinic'
loop_
_space_group_symop_operation_xyz
x,y,z
-x,-y,-z
loop_
_atom_site_type_symbol
_atom_site_label
_atom_site_fract_x
_atom_site_fract_y
_atom_site_fract_z
Si Si1 0.769604 0.771820 0.061106
Si Si2 0.749995 0.250464 0.493333
Si Si3 0.495464 0.275132 0.776898
Si Si4 0.234158 0.991141 0.076282
Si Si5 0.492736 0.981755 0.763828
Si Si6 0.725410 0.433313 0.462905
Si Si7 0.028302 0.415795 0.057141
Si Si8 0.559452 0.366675 0.160091
O O1 0.613233 0.706290 0.189993
O O2 0.589720 0.656826 0.931623
O O3 0.932375 0.797398 0.101360
O O4 0.000000 0.000000 0.000000
O O5 0.586690 0.113172 0.372822
O O6 0.788324 0.379474 0.430827
O O7 0.992462 0.352345 0.503746
O O8 0.629452 0.161385 0.665120
O O9 0.521767 0.289079 0.606289
O O10 0.778705 0.460890 0.821074
O O11 0.334380 0.091856 0.901338
O O12 0.324622 0.958328 0.145314
O O13 0.381692 0.160100 0.154035
O O14 0.238321 0.811217 0.872495
O O15 0.612787 0.409838 0.322142
O O16 0.177608 0.474099 0.930547
O O17 0.000000 0.500000 0.000000
#
# Coordination Sequence:
#
# PCOD9080689 Si02
#       8
#     2   2   2   2   2   2   2   2
#     4   7  15  31  48  77  92 125 179 205 231 286
#     4  10  23  29  48  75 110 131 159 201 254 301
#     4   9  17  27  51  73  99 131 163 201 246 290
#     4   9  16  32  53  72  98 130 172 207 232 290
#     4  11  18  34  50  75  99 139 167 196 241 304
#     4  11  19  34  46  77 107 130 155 210 258 292
#     4  10  15  28  50  74  93 133 167 196 232 303
#     4   9  17  28  51  72  97 131 164 201 246 286
#
# _framework density 21.371314999999999
#
# number of rings (size 3 to 8) (size 9 to 14) (size 15 to 20)
#    0.000    3.000    5.000    0.000    1.750    0.000 
#    0.000    8.125    0.000    1.500    0.000    0.000 
#    0.000    1.000    0.000    0.000    0.000    0.000 
#
# Total GULP energy -89173.606530 kJ/mol
# GULP energy per Si atom -5573.350408 kJ/mol
# Density = 2.132267 g / cm^3
# Si number density = 21.371315 Si / 1000 Ang^3
#
#
#
# Elastic Constant Matrix: (Units=GPa)
#
#
# Indices 1 2 3 4 5 6 
#
# 1 64.0571 44.3180 39.8508 5.9615 15.5015 31.1466
# 2 44.3180 79.7624 39.9232 -1.5216 13.3930 32.7311
# 3 39.8508 39.9232 153.2854 -0.9174 3.8972 24.5563
# 4 5.9615 -1.5216 -0.9174 21.6071 -0.9247 2.9909
# 5 15.5015 13.3930 3.8972 -0.9247 16.8873 2.1472
# 6 31.1466 32.7311 24.5563 2.9909 2.1472 39.6116
#
#
#
# Elastic Compliance Matrix: (Units=1/GPa)
#
#
# Indices 1 2 3 4 5 6 
#
# 1 0.042827 -0.007436 -0.004973 -0.010792 -0.030061 -0.022004
# 2 -0.007436 0.025126 -0.002166 0.005127 -0.010619 -0.013383
# 3 -0.004973 -0.002166 0.008243 0.001730 0.004447 0.000218
# 4 -0.010792 0.005127 0.001730 0.050197 0.008325 -0.001065
# 5 -0.030061 -0.010619 0.004447 0.008325 0.091602 0.024061
# 6 -0.022004 -0.013383 0.000218 -0.001065 0.024061 0.052246
#
#
# Mechanical properties :
#
#
# Convention : Reuss Voigt Hill
#
# Bulk Modulus (GPa) = 21.25552 60.58765 40.92159
# Shear Modulus (GPa) = 15.86936 27.15538 21.51237
#
# Velocity S-wave (km/s) = 2.72794 3.56848 3.17614
# Velocity P-wave (km/s) = 4.45978 6.73723 5.71314
#
# Compressibility (1/GPa) = 0.04704660
#
# Stress axis : x y z
#
# Youngs Moduli (GPa) = 23.34981 39.79978 121.31373
#
# Poissons Ratio (x) = 0.29594 0.60326
# Poissons Ratio (y) = 0.17362 0.26279
# Poissons Ratio (z) = 0.11611 0.08622
#
# Static dielectric constant tensor:
#      x y z
#    x 1.849450 -0.060740 0.006060 
#    y -0.060740 1.988380 -0.041510 
#    z 0.006060 -0.041510 1.801200 
# 
# From -- ./inp_files/318638.got.cif
#   From: 2010.05.17/outbox.cif.g08.bks.cpg/sg2_160_cif.got.tgz:318638.got - 2010.06.03 11:33:40.
