data_PCOD9080838
_publ_section_title
;
Structure prediction by ZEFSAII (Michael W. Deem and Ramdas Pophale) SiO2 
 PCOD9080838
Probable space group: P -1
;
_chemical_formula_sum "Si O2"
_cell_formula_units_Z 16
_cell_length_a 9.288762
_cell_length_b 9.891680
_cell_length_c 25.722447
_cell_angle_alpha 26.113417
_cell_angle_beta 147.148387
_cell_angle_gamma 139.222937
_cell_volume 564.260325
_symmetry_space_group_name_H-M "P -1"
_symmetry_group_IT_number 2
_symmetry_cell_setting 'triclinic'
loop_
_space_group_symop_operation_xyz
x,y,z
-x,-y,-z
loop_
_atom_site_type_symbol
_atom_site_label
_atom_site_fract_x
_atom_site_fract_y
_atom_site_fract_z
Si Si1 0.094707 0.443965 0.662458
Si Si2 0.369856 0.181543 0.446137
Si Si3 0.970853 0.507638 0.840023
Si Si4 0.499884 0.049689 0.857334
Si Si5 0.248512 0.213323 0.112854
Si Si6 0.300512 0.194434 0.644874
Si Si7 0.297639 0.141485 0.265107
Si Si8 0.713815 0.805938 0.099189
O O1 0.963991 0.709383 0.497680
O O2 0.343540 0.300013 0.757990
O O3 0.179835 0.473815 0.737889
O O4 0.877339 0.165035 0.693008
O O5 0.088491 0.304409 0.296409
O O6 0.556176 0.482850 0.407481
O O7 0.500000 0.000000 0.500000
O O8 0.426558 0.980933 0.584395
O O9 0.774235 0.216596 0.868621
O O10 0.842625 0.685370 0.789519
O O11 0.226539 0.375096 0.993418
O O12 0.300349 0.009002 0.763107
O O13 0.579061 0.767107 0.015697
O O14 0.495216 0.985097 0.266341
O O15 0.970944 0.023235 0.094374
O O16 0.275964 0.341285 0.136512
O O17 0.500000 0.000000 0.000000
#
# Coordination Sequence:
#
# PCOD9080838 Si02
#       8
#     2   2   2   2   2   2   2   2
#     4   9  17  30  48  70  94 122 157 196 234 277
#     4   8  16  29  44  65  94 122 152 190 230 275
#     4   9  17  30  48  70  94 122 157 196 234 277
#     4   9  17  30  48  70  94 122 157 196 234 277
#     4  10  19  29  46  73  99 122 154 196 237 277
#     4  10  19  29  46  73  99 122 154 196 237 277
#     4   9  17  30  48  70  94 122 157 196 234 277
#     4   8  16  29  44  65  94 122 152 190 230 275
#
# _framework density 28.355706999999999
#
# number of rings (size 3 to 8) (size 9 to 14) (size 15 to 20)
#    0.000    3.000    0.000    0.750    0.000    9.000 
#    0.000    0.000    0.000    1.500    0.000   66.500 
#    0.000    0.000    0.000    0.000    0.000    0.000 
#
# Total GULP energy -89447.534964 kJ/mol
# GULP energy per Si atom -5590.470935 kJ/mol
# Density = 2.829117 g / cm^3
# Si number density = 28.355707 Si / 1000 Ang^3
#
#
#
# Elastic Constant Matrix: (Units=GPa)
#
#
# Indices 1 2 3 4 5 6 
#
# 1 80.5031 14.4633 60.9981 -0.8860 -29.2169 -6.9331
# 2 14.4633 106.4091 54.2836 41.1815 -11.7625 -2.0463
# 3 60.9981 54.2836 254.2903 37.2492 -44.8981 -9.0749
# 4 -0.8860 41.1815 37.2492 55.3160 -1.8878 -6.0419
# 5 -29.2169 -11.7625 -44.8981 -1.8878 68.8631 -0.3288
# 6 -6.9331 -2.0463 -9.0749 -6.0419 -0.3288 29.5831
#
#
#
# Elastic Compliance Matrix: (Units=1/GPa)
#
#
# Indices 1 2 3 4 5 6 
#
# 1 0.017585 -0.001728 -0.003481 0.004512 0.005039 0.003911
# 2 -0.001728 0.014075 -0.001074 -0.009954 0.000689 -0.001786
# 3 -0.003481 -0.001074 0.005819 -0.003073 0.002051 0.000290
# 4 0.004512 -0.009954 -0.003073 0.028161 -0.000993 0.005166
# 5 0.005039 0.000689 0.002051 -0.000993 0.018096 0.001856
# 6 0.003911 -0.001786 0.000290 0.005166 0.001856 0.035761
#
#
# Mechanical properties :
#
#
# Convention : Reuss Voigt Hill
#
# Bulk Modulus (GPa) = 40.13950 77.85472 58.99711
# Shear Modulus (GPa) = 35.62073 51.51629 43.56851
#
# Velocity S-wave (km/s) = 3.54815 4.26700 3.92407
# Velocity P-wave (km/s) = 5.56527 7.19670 6.43291
#
# Compressibility (1/GPa) = 0.02491311
#
# Stress axis : x y z
#
# Youngs Moduli (GPa) = 56.86642 71.04917 171.83785
#
# Poissons Ratio (x) = 0.12279 0.59816
# Poissons Ratio (y) = 0.09828 0.18453
# Poissons Ratio (z) = 0.19795 0.07630
#
# Static dielectric constant tensor:
#      x y z
#    x 2.519430 0.191630 -0.222340 
#    y 0.191630 2.245690 -0.096640 
#    z -0.222340 -0.096640 2.275320 
# 
# From -- ./inp_files/304880.got.cif
#   From: 2010.05.17/outbox.cif.g08.bks.cpg/sg2_153_cif.got.tgz:304880.got - 2010.06.03 11:33:40.
