data_PCOD9080120
_publ_section_title
;
Structure prediction by ZEFSAII (Michael W. Deem and Ramdas Pophale) SiO2 
 PCOD9080120
Probable space group: P -1
;
_chemical_formula_sum "Si O2"
_cell_formula_units_Z 13
_cell_length_a 7.181631
_cell_length_b 7.958112
_cell_length_c 11.340097
_cell_angle_alpha 106.792970
_cell_angle_beta 61.902002
_cell_angle_gamma 84.753806
_cell_volume 527.110964
_symmetry_space_group_name_H-M "P -1"
_symmetry_group_IT_number 2
_symmetry_cell_setting 'triclinic'
loop_
_space_group_symop_operation_xyz
x,y,z
-x,-y,-z
loop_
_atom_site_type_symbol
_atom_site_label
_atom_site_fract_x
_atom_site_fract_y
_atom_site_fract_z
Si Si1 0.000000 0.500000 0.500000
Si Si2 0.185704 0.223080 0.175861
Si Si3 0.708706 0.952305 0.295986
Si Si4 0.866586 0.325706 0.902981
Si Si5 0.559673 0.152580 0.855451
Si Si6 0.809860 0.418965 0.190275
Si Si7 0.623806 0.708634 0.476165
O O1 0.111377 0.387667 0.323545
O O2 0.202709 0.375315 0.493584
O O3 0.964425 0.241954 0.169726
O O4 0.287347 0.040097 0.182971
O O5 0.371467 0.223377 0.023422
O O6 0.952771 0.863718 0.161594
O O7 0.550311 0.879810 0.240176
O O8 0.706301 0.857361 0.404791
O O9 0.607183 0.167425 0.383908
O O10 0.013142 0.461886 0.858140
O O11 0.711151 0.290731 0.839495
O O12 0.735404 0.383842 0.075227
O O13 0.622245 0.544605 0.353368
#
# Coordination Sequence:
#
# PCOD9080120 Si02
#       7
#     1   2   2   2   2   2   2
#     4  10  18  38  64  86 122 168 190 250 312 360
#     4  10  21  38  60  89 124 157 205 246 306 357
#     4  10  19  40  60  92 118 159 204 253 293 368
#     4  10  21  38  63  87 124 154 208 250 303 355
#     4  11  22  38  63  94 116 163 203 253 298 369
#     4   9  19  39  57  89 120 160 197 256 298 358
#     4   9  19  35  64  82 124 164 195 248 308 347
#
# _framework density 24.662738999999998
#
# number of rings (size 3 to 8) (size 9 to 14) (size 15 to 20)
#    0.000    2.154    3.077    0.000    0.000    1.231 
#    0.000    8.462    0.000    3.692    0.000    0.000 
#    0.000    0.000    0.000    0.000    0.000    0.000 
#
# Total GULP energy -72422.317327 kJ/mol
# GULP energy per Si atom -5570.947487 kJ/mol
# Density = 2.460661 g / cm^3
# Si number density = 24.662739 Si / 1000 Ang^3
#
#
#
# Elastic Constant Matrix: (Units=GPa)
#
#
# Indices 1 2 3 4 5 6 
#
# 1 77.2601 31.4105 21.0345 -7.8215 1.0968 -8.0603
# 2 31.4105 97.3198 23.9711 14.1884 -16.7374 -24.5492
# 3 21.0345 23.9711 132.3168 11.6776 -1.8286 -7.0218
# 4 -7.8215 14.1884 11.6776 36.8174 -20.6664 -3.9677
# 5 1.0968 -16.7374 -1.8286 -20.6664 21.4135 2.4580
# 6 -8.0603 -24.5492 -7.0218 -3.9677 2.4580 38.0826
#
#
#
# Elastic Compliance Matrix: (Units=1/GPa)
#
#
# Indices 1 2 3 4 5 6 
#
# 1 0.016531 -0.005512 -0.002242 0.007319 0.001696 0.000185
# 2 -0.005512 0.016774 -0.001651 0.001529 0.013739 0.008615
# 3 -0.002242 -0.001651 0.008662 -0.006197 -0.006396 -0.000174
# 4 0.007319 0.001529 -0.006197 0.066419 0.063912 0.004187
# 5 0.001696 0.013739 -0.006396 0.063912 0.117672 0.007100
# 6 0.000185 0.008615 -0.000174 0.004187 0.007100 0.031797
#
#
# Mechanical properties :
#
#
# Convention : Reuss Voigt Hill
#
# Bulk Modulus (GPa) = 43.18079 51.08097 47.13088
# Shear Modulus (GPa) = 17.58194 34.62808 26.10501
#
# Velocity S-wave (km/s) = 2.67291 3.75115 3.25696
# Velocity P-wave (km/s) = 5.20312 6.28636 5.77021
#
# Compressibility (1/GPa) = 0.02315845
#
# Stress axis : x y z
#
# Youngs Moduli (GPa) = 60.49334 59.61629 115.44261
#
# Poissons Ratio (x) = 0.32859 0.25883
# Poissons Ratio (y) = 0.33342 0.19054
# Poissons Ratio (z) = 0.13563 0.09840
#
# Static dielectric constant tensor:
#      x y z
#    x 1.914590 0.054290 -0.030500 
#    y 0.054290 2.026510 0.017020 
#    z -0.030500 0.017020 1.974960 
# 
# From -- ./inp_files/65201.got.cif
#   From: 2010.05.17/outbox.cif.g08.bks.cpg/sg2_33_cif.got.tgz:65201.got - 2010.06.03 11:33:40.
