data_PCOD9080535
_publ_section_title
;
Structure prediction by ZEFSAII (Michael W. Deem and Ramdas Pophale) SiO2 
 PCOD9080535
Probable space group: P -1
;
_chemical_formula_sum "Si O2"
_cell_formula_units_Z 12
_cell_length_a 9.058501
_cell_length_b 10.016591
_cell_length_c 6.870956
_cell_angle_alpha 103.257022
_cell_angle_beta 79.739414
_cell_angle_gamma 56.558090
_cell_volume 469.429009
_symmetry_space_group_name_H-M "P -1"
_symmetry_group_IT_number 2
_symmetry_cell_setting 'triclinic'
loop_
_space_group_symop_operation_xyz
x,y,z
-x,-y,-z
loop_
_atom_site_type_symbol
_atom_site_label
_atom_site_fract_x
_atom_site_fract_y
_atom_site_fract_z
Si Si1 0.742051 0.730390 0.473313
Si Si2 0.248748 0.848596 0.442058
Si Si3 0.158880 0.582492 0.433358
Si Si4 0.831348 0.033154 0.923904
Si Si5 0.537333 0.637493 0.005173
Si Si6 0.679033 0.947222 0.218775
O O1 0.760837 0.559004 0.461306
O O2 0.550152 0.905341 0.671050
O O3 0.934174 0.688514 0.502410
O O4 0.741251 0.779174 0.266036
O O5 0.217240 0.709830 0.472011
O O6 0.461874 0.740889 0.259810
O O7 0.243943 0.968887 0.642001
O O8 0.868516 0.045426 0.692128
O O9 0.258895 0.464513 0.174965
O O10 0.624467 0.222064 0.063075
O O11 0.781143 0.910932 0.976170
O O12 0.000000 0.000000 0.000000
O O13 0.500000 0.500000 0.000000
#
# Coordination Sequence:
#
# PCOD9080535 Si02
#       6
#     2   2   2   2   2   2
#     4  10  22  35  59  87 122 158 183 231 306 347
#     4   9  21  38  66  84 113 149 203 245 274 330
#     4  10  18  40  60  83 120 158 189 235 290 348
#     4  10  20  35  59  88 115 148 191 245 290 327
#     4   8  17  36  56  84 116 147 186 245 285 326
#     4  11  22  40  59  90 118 149 196 241 285 346
#
# _framework density 25.56297
#
# number of rings (size 3 to 8) (size 9 to 14) (size 15 to 20)
#    1.000    1.333    1.667    1.000    0.000    3.333 
#    0.000    8.333    0.000    4.000    0.000    0.000 
#    0.000    0.000    0.000    0.000    0.000    0.000 
#
# Total GULP energy -67012.926256 kJ/mol
# GULP energy per Si atom -5584.410521 kJ/mol
# Density = 2.550479 g / cm^3
# Si number density = 25.562970 Si / 1000 Ang^3
#
#
#
# Elastic Constant Matrix: (Units=GPa)
#
#
# Indices 1 2 3 4 5 6 
#
# 1 123.0191 64.1427 46.7014 -15.8409 -12.6774 0.7257
# 2 64.1427 193.5129 55.1504 -44.5025 -18.5593 20.0793
# 3 46.7014 55.1504 111.1433 -22.4272 -21.3509 3.1659
# 4 -15.8409 -44.5025 -22.4272 49.4054 6.8127 -13.0234
# 5 -12.6774 -18.5593 -21.3509 6.8127 37.3854 4.5925
# 6 0.7257 20.0793 3.1659 -13.0234 4.5925 45.5893
#
#
#
# Elastic Compliance Matrix: (Units=1/GPa)
#
#
# Indices 1 2 3 4 5 6 
#
# 1 0.010796 -0.002827 -0.003149 -0.000252 0.000359 0.001184
# 2 -0.002827 0.008009 -0.001440 0.004871 0.001571 -0.002149
# 3 -0.003149 -0.001440 0.012516 0.002734 0.004854 0.000107
# 4 -0.000252 0.004871 0.002734 0.027549 -0.001830 0.005723
# 5 0.000359 0.001571 0.004854 -0.001830 0.031335 -0.004714
# 6 0.001184 -0.002149 0.000107 0.005723 -0.004714 0.024965
#
#
# Mechanical properties :
#
#
# Convention : Reuss Voigt Hill
#
# Bulk Modulus (GPa) = 60.64988 84.40714 72.52851
# Shear Modulus (GPa) = 36.90042 43.92140 40.41091
#
# Velocity S-wave (km/s) = 3.80348 4.14957 3.98029
# Velocity P-wave (km/s) = 6.56245 7.48663 7.03972
#
# Compressibility (1/GPa) = 0.01648808
#
# Stress axis : x y z
#
# Youngs Moduli (GPa) = 92.62613 124.85782 79.89621
#
# Poissons Ratio (x) = 0.35303 0.25159
# Poissons Ratio (y) = 0.26190 0.11507
# Poissons Ratio (z) = 0.29168 0.17983
#
# Static dielectric constant tensor:
#      x y z
#    x 2.391890 0.316030 -0.366030 
#    y 0.316030 2.365660 -0.327650 
#    z -0.366030 -0.327650 2.417520 
# 
# From -- ./inp_files/248697.got.cif
#   From: 2010.05.17/outbox.cif.g08.bks.cpg/sg2_125_cif.got.tgz:248697.got - 2010.06.03 11:33:40.
