data_PCOD9080965
_publ_section_title
;
Structure prediction by ZEFSAII (Michael W. Deem and Ramdas Pophale) SiO2 
 PCOD9080965
Probable space group: P -1
;
_chemical_formula_sum "Si O2"
_cell_formula_units_Z 16
_cell_length_a 9.363870
_cell_length_b 5.234132
_cell_length_c 18.205411
_cell_angle_alpha 88.236430
_cell_angle_beta 105.894557
_cell_angle_gamma 58.288399
_cell_volume 713.202092
_symmetry_space_group_name_H-M "P -1"
_symmetry_group_IT_number 2
_symmetry_cell_setting 'triclinic'
loop_
_space_group_symop_operation_xyz
x,y,z
-x,-y,-z
loop_
_atom_site_type_symbol
_atom_site_label
_atom_site_fract_x
_atom_site_fract_y
_atom_site_fract_z
Si Si1 0.207497 0.877532 0.313483
Si Si2 0.785809 0.738909 0.316663
Si Si3 0.480153 0.701301 0.249761
Si Si4 0.462437 0.651010 0.872129
Si Si5 0.028561 0.560862 0.223118
Si Si6 0.971753 0.050976 0.409452
Si Si7 0.779620 0.751997 0.887444
Si Si8 0.340970 0.948423 0.991684
O O1 0.406660 0.643533 0.313406
O O2 0.090627 0.783412 0.252926
O O3 0.156061 0.875071 0.390251
O O4 0.152934 0.221374 0.282469
O O5 0.579348 0.863855 0.285411
O O6 0.854060 0.926527 0.364421
O O7 0.845888 0.686988 0.240115
O O8 0.877261 0.406899 0.371370
O O9 0.596980 0.425667 0.211193
O O10 0.308011 0.930026 0.173276
O O11 0.612963 0.713900 0.870796
O O12 0.568671 0.355552 0.943076
O O13 0.306038 0.887312 0.904505
O O14 0.063970 0.490512 0.142156
O O15 0.000000 0.000000 0.500000
O O16 0.808304 0.801353 0.975954
O O17 0.500000 0.000000 0.000000
#
# Coordination Sequence:
#
# PCOD9080965 Si02
#       8
#     2   2   2   2   2   2   2   2
#     4   9  18  32  53  74 100 133 170 205 249 306
#     4  10  22  34  56  80 105 131 170 212 259 305
#     4  10  19  30  49  79 105 130 165 221 264 294
#     4   9  15  26  45  68 103 131 168 211 256 290
#     4   9  17  32  48  74 100 136 172 208 247 301
#     4  10  21  40  57  74 102 140 172 203 249 315
#     4   9  16  27  48  70 101 134 175 209 253 296
#     4   8  15  25  40  71  98 134 172 211 240 300
#
# _framework density 22.434035000000002
#
# number of rings (size 3 to 8) (size 9 to 14) (size 15 to 20)
#    0.000    2.750    1.250    0.375    1.750    0.000 
#    0.000    1.250    0.000    0.750    0.000   29.750 
#    0.000    0.000    0.000    0.000    0.000    0.000 
#
# Total GULP energy -89153.535270 kJ/mol
# GULP energy per Si atom -5572.095954 kJ/mol
# Density = 2.238297 g / cm^3
# Si number density = 22.434035 Si / 1000 Ang^3
#
#
#
# Elastic Constant Matrix: (Units=GPa)
#
#
# Indices 1 2 3 4 5 6 
#
# 1 97.4577 15.6894 52.2413 14.8195 -27.1795 0.9253
# 2 15.6894 67.3114 45.6506 8.9640 -9.1402 7.6867
# 3 52.2413 45.6506 171.5501 23.7555 -38.9387 -11.3230
# 4 14.8195 8.9640 23.7555 35.9613 -3.3505 -12.3234
# 5 -27.1795 -9.1402 -38.9387 -3.3505 33.3136 7.0020
# 6 0.9253 7.6867 -11.3230 -12.3234 7.0020 35.1146
#
#
#
# Elastic Compliance Matrix: (Units=1/GPa)
#
#
# Indices 1 2 3 4 5 6 
#
# 1 0.015157 0.000606 -0.001815 -0.006035 0.010943 -0.005418
# 2 0.000606 0.019796 -0.005096 -0.004368 0.001161 -0.007757
# 3 -0.001815 -0.005096 0.010219 -0.003405 0.008388 0.001591
# 4 -0.006035 -0.004368 -0.003405 0.037970 -0.009486 0.015234
# 5 0.010943 0.001161 0.008388 -0.009486 0.050475 -0.011232
# 6 -0.005418 -0.007757 0.001591 0.015234 -0.011232 0.038418
#
#
# Mechanical properties :
#
#
# Convention : Reuss Voigt Hill
#
# Bulk Modulus (GPa) = 30.71060 62.60909 46.65985
# Shear Modulus (GPa) = 25.57556 35.72709 30.65132
#
# Velocity S-wave (km/s) = 3.38010 3.99499 3.70034
# Velocity P-wave (km/s) = 5.38075 7.01774 6.25304
#
# Compressibility (1/GPa) = 0.03256204
#
# Stress axis : x y z
#
# Youngs Moduli (GPa) = 65.97552 50.51400 97.86088
#
# Poissons Ratio (x) = -0.03063 0.17763
# Poissons Ratio (y) = -0.04001 0.49873
# Poissons Ratio (z) = 0.11976 0.25744
#
# Static dielectric constant tensor:
#      x y z
#    x 1.811540 -0.023270 -0.052450 
#    y -0.023270 1.995710 0.049340 
#    z -0.052450 0.049340 1.827200 
# 
# From -- ./inp_files/43606.got.cif
#   From: 2010.05.17/outbox.cif.g08.bks.cpg/sg2_22_cif.got.tgz:43606.got - 2010.06.03 11:33:40.
