data_PCOD9080055
_publ_section_title
;
Structure prediction by ZEFSAII (Michael W. Deem and Ramdas Pophale) SiO2 
 PCOD9080055
Probable space group: P -1
;
_chemical_formula_sum "Si O2"
_cell_formula_units_Z 16
_cell_length_a 11.059320
_cell_length_b 15.144799
_cell_length_c 7.289251
_cell_angle_alpha 110.614486
_cell_angle_beta 138.298125
_cell_angle_gamma 49.775092
_cell_volume 599.446767
_symmetry_space_group_name_H-M "P -1"
_symmetry_group_IT_number 2
_symmetry_cell_setting 'triclinic'
loop_
_space_group_symop_operation_xyz
x,y,z
-x,-y,-z
loop_
_atom_site_type_symbol
_atom_site_label
_atom_site_fract_x
_atom_site_fract_y
_atom_site_fract_z
Si Si1 0.817999 0.900514 0.805764
Si Si2 0.677722 0.292868 0.288824
Si Si3 0.366988 0.896866 0.778979
Si Si4 0.304186 0.408438 0.472631
Si Si5 0.176602 0.150908 0.645824
Si Si6 0.184769 0.461233 0.945554
Si Si7 0.255683 0.651839 0.192304
Si Si8 0.466063 0.856566 0.450177
O O1 0.769883 0.894549 0.533930
O O2 0.664258 0.872263 0.713568
O O3 0.720158 0.036677 0.818826
O O4 0.080740 0.791552 0.051244
O O5 0.723867 0.166134 0.269003
O O6 0.404358 0.382002 0.003276
O O7 0.682301 0.348352 0.527001
O O8 0.905075 0.259590 0.423339
O O9 0.353869 0.875487 0.533765
O O10 0.239402 0.038421 0.758275
O O11 0.638080 0.828513 0.078684
O O12 0.252292 0.409666 0.194073
O O13 0.513234 0.415445 0.715661
O O14 0.413304 0.276873 0.573161
O O15 0.057230 0.510609 0.353164
O O16 0.137782 0.588550 0.994318
#
# Coordination Sequence:
#
# PCOD9080055 Si02
#       8
#     2   2   2   2   2   2   2   2
#     4  10  22  37  57  90 124 159 185 237 304 363
#     4  11  21  37  62  91 111 154 202 246 288 343
#     4  10  20  40  60  87 114 157 203 241 284 343
#     4  10  19  34  58  88 113 145 192 257 282 334
#     4  10  23  38  58  83 127 158 189 239 293 355
#     4  10  21  35  59  92 115 144 202 255 289 328
#     4  11  21  37  61  91 118 148 197 248 297 342
#     4  10  18  38  62  85 118 151 200 240 293 341
#
# _framework density 26.691279000000002
#
# number of rings (size 3 to 8) (size 9 to 14) (size 15 to 20)
#    0.000    1.750    3.750    2.625    0.000    2.500 
#    2.250    0.625    0.000    1.500    0.000    0.000 
#    0.000    0.000    0.000    0.000    0.000    0.000 
#
# Total GULP energy -89546.381970 kJ/mol
# GULP energy per Si atom -5596.648873 kJ/mol
# Density = 2.663053 g / cm^3
# Si number density = 26.691279 Si / 1000 Ang^3
#
#
#
# Elastic Constant Matrix: (Units=GPa)
#
#
# Indices 1 2 3 4 5 6 
#
# 1 70.0942 24.6361 45.4941 0.4646 32.7993 -8.3191
# 2 24.6361 87.6621 41.8861 -10.2843 7.3319 16.1928
# 3 45.4941 41.8861 90.6703 -24.4117 34.3079 0.6546
# 4 0.4646 -10.2843 -24.4117 45.4258 -8.8748 4.7139
# 5 32.7993 7.3319 34.3079 -8.8748 46.7775 -7.6742
# 6 -8.3191 16.1928 0.6546 4.7139 -7.6742 41.4317
#
#
#
# Elastic Compliance Matrix: (Units=1/GPa)
#
#
# Indices 1 2 3 4 5 6 
#
# 1 0.029916 -0.004652 -0.010681 -0.010391 -0.013283 0.006716
# 2 -0.004652 0.017043 -0.006804 0.001899 0.004824 -0.006810
# 3 -0.010681 -0.006804 0.025832 0.011029 -0.008752 -0.002770
# 4 -0.010391 0.001899 0.011029 0.029776 0.003610 -0.005722
# 5 -0.013283 0.004824 -0.008752 0.003610 0.037384 0.002100
# 6 0.006716 -0.006810 -0.002770 -0.005722 0.002100 0.029230
#
#
# Mechanical properties :
#
#
# Convention : Reuss Voigt Hill
#
# Bulk Modulus (GPa) = 35.06770 52.49546 43.78158
# Shear Modulus (GPa) = 22.42548 35.82103 29.12326
#
# Velocity S-wave (km/s) = 2.90173 3.66737 3.30679
# Velocity P-wave (km/s) = 4.93898 6.13540 5.56941
#
# Compressibility (1/GPa) = 0.02851627
#
# Stress axis : x y z
#
# Youngs Moduli (GPa) = 33.42740 58.67479 38.71109
#
# Poissons Ratio (x) = 0.27297 0.41349
# Poissons Ratio (y) = 0.15551 0.26338
# Poissons Ratio (z) = 0.35705 0.39921
#
# Static dielectric constant tensor:
#      x y z
#    x 2.097490 0.010150 -0.017900 
#    y 0.010150 2.075310 -0.077590 
#    z -0.017900 -0.077590 2.095110 
# 
# From -- ./inp_files/272642.got.cif
#   From: 2010.05.17/outbox.cif.g08.bks.cpg/sg2_137_cif.got.tgz:272642.got - 2010.06.03 11:33:40.
