data_PCOD9080103
_publ_section_title
;
Structure prediction by ZEFSAII (Michael W. Deem and Ramdas Pophale) SiO2 
 PCOD9080103
Probable space group: P -1
;
_chemical_formula_sum "Si O2"
_cell_formula_units_Z 16
_cell_length_a 18.697372
_cell_length_b 10.691207
_cell_length_c 5.226012
_cell_angle_alpha 73.379516
_cell_angle_beta 90.825654
_cell_angle_gamma 47.706585
_cell_volume 708.219273
_symmetry_space_group_name_H-M "P -1"
_symmetry_group_IT_number 2
_symmetry_cell_setting 'triclinic'
loop_
_space_group_symop_operation_xyz
x,y,z
-x,-y,-z
loop_
_atom_site_type_symbol
_atom_site_label
_atom_site_fract_x
_atom_site_fract_y
_atom_site_fract_z
Si Si1 0.584253 0.462556 0.262390
Si Si2 0.760051 0.286872 0.722057
Si Si3 0.908193 0.297052 0.622132
Si Si4 0.183357 0.450264 0.027142
Si Si5 0.793772 0.879525 0.790795
Si Si6 0.374134 0.352017 0.216882
Si Si7 0.856346 0.956724 0.248624
Si Si8 0.560014 0.220866 0.512497
O O1 0.682916 0.305500 0.537113
O O2 0.560209 0.344843 0.241949
O O3 0.496714 0.638732 0.332147
O O4 0.619299 0.534227 0.041919
O O5 0.862877 0.208822 0.652901
O O6 0.693790 0.501139 0.645301
O O7 0.788775 0.168683 0.043604
O O8 0.874620 0.399943 0.834393
O O9 0.027750 0.149655 0.689073
O O10 0.858357 0.443648 0.305348
O O11 0.167395 0.317292 0.129132
O O12 0.303849 0.328888 0.119738
O O13 0.830407 0.922236 0.533719
O O14 0.671796 0.031505 0.689922
O O15 0.833110 0.887002 0.055511
O O16 0.488404 0.197324 0.416315
#
# Coordination Sequence:
#
# PCOD9080103 Si02
#       8
#     2   2   2   2   2   2   2   2
#     4  10  18  38  63  94 129 164 209 258 333 387
#     4  10  21  39  66 100 131 161 209 273 331 387
#     4  11  24  45  70  95 127 171 217 270 329 379
#     4  11  25  46  67  92 131 175 221 264 312 384
#     4  12  27  44  64  96 134 174 220 264 311 380
#     4  10  21  38  65  93 130 171 211 258 325 388
#     4  12  26  43  68  98 130 168 217 273 327 379
#     4  10  22  35  63  95 130 168 207 265 320 387
#
# _framework density 22.591871999999999
#
# number of rings (size 3 to 8) (size 9 to 14) (size 15 to 20)
#    0.000    1.250    2.500    3.000    1.750    3.500 
#    0.000    3.750    0.000    0.000    0.000    0.000 
#    0.000    0.000    0.000    0.000    0.000    0.000 
#
# Total GULP energy -89391.858868 kJ/mol
# GULP energy per Si atom -5586.991179 kJ/mol
# Density = 2.254045 g / cm^3
# Si number density = 22.591872 Si / 1000 Ang^3
#
#
#
# Elastic Constant Matrix: (Units=GPa)
#
#
# Indices 1 2 3 4 5 6 
#
# 1 89.8401 23.4985 6.4134 -5.9819 4.4321 -27.1054
# 2 23.4985 38.0069 6.1728 6.9600 -1.0911 -11.8751
# 3 6.4134 6.1728 53.7283 10.6662 -6.6017 -9.5157
# 4 -5.9819 6.9600 10.6662 16.3424 1.1068 -6.4788
# 5 4.4321 -1.0911 -6.6017 1.1068 34.7605 -5.3612
# 6 -27.1054 -11.8751 -9.5157 -6.4788 -5.3612 27.3972
#
#
#
# Elastic Compliance Matrix: (Units=1/GPa)
#
#
# Indices 1 2 3 4 5 6 
#
# 1 0.022272 -0.010822 -0.002223 0.022922 -0.000969 0.021803
# 2 -0.010822 0.037178 0.001921 -0.020527 0.003870 0.001978
# 3 -0.002223 0.001921 0.023200 -0.015518 0.005888 0.004174
# 4 0.022922 -0.020527 -0.015518 0.101219 -0.004899 0.031368
# 5 -0.000969 0.003870 0.005888 -0.004899 0.031485 0.007767
# 6 0.021803 0.001978 0.004174 0.031368 0.007767 0.069316
#
#
# Mechanical properties :
#
#
# Convention : Reuss Voigt Hill
#
# Bulk Modulus (GPa) = 16.55559 28.19386 22.37473
# Shear Modulus (GPa) = 15.28801 25.39936 20.34369
#
# Velocity S-wave (km/s) = 2.60418 3.35665 3.00407
# Velocity P-wave (km/s) = 4.04800 5.24686 4.68593
#
# Compressibility (1/GPa) = 0.06040254
#
# Stress axis : x y z
#
# Youngs Moduli (GPa) = 44.89844 26.89741 43.10306
#
# Poissons Ratio (x) = 0.29109 0.09583
# Poissons Ratio (y) = 0.48591 -0.08282
# Poissons Ratio (z) = 0.09982 -0.05168
#
# Static dielectric constant tensor:
#      x y z
#    x 1.889760 -0.016770 0.035360 
#    y -0.016770 1.835020 0.029900 
#    z 0.035360 0.029900 1.872880 
# 
# From -- ./inp_files/77097.got.cif
#   From: 2010.05.17/outbox.cif.g08.bks.cpg/sg2_39_cif.got.tgz:77097.got - 2010.06.03 11:33:40.
