data_PCOD9080337
_publ_section_title
;
Structure prediction by ZEFSAII (Michael W. Deem and Ramdas Pophale) SiO2 
 PCOD9080337
Probable space group: P -1
;
_chemical_formula_sum "Si O2"
_cell_formula_units_Z 14
_cell_length_a 9.348964
_cell_length_b 14.562976
_cell_length_c 9.347617
_cell_angle_alpha 117.155205
_cell_angle_beta 44.339803
_cell_angle_gamma 84.285247
_cell_volume 576.578523
_symmetry_space_group_name_H-M "P -1"
_symmetry_group_IT_number 2
_symmetry_cell_setting 'triclinic'
loop_
_space_group_symop_operation_xyz
x,y,z
-x,-y,-z
loop_
_atom_site_type_symbol
_atom_site_label
_atom_site_fract_x
_atom_site_fract_y
_atom_site_fract_z
Si Si1 0.756672 0.580757 0.522177
Si Si2 0.501200 0.826666 0.281354
Si Si3 0.734058 0.877798 0.924877
Si Si4 0.059447 0.677392 0.960629
Si Si5 0.236592 0.208346 0.456685
Si Si6 0.393625 0.422373 0.055268
Si Si7 0.011799 0.105066 0.982519
O O1 0.646528 0.720329 0.620162
O O2 0.613296 0.593217 0.780093
O O3 0.074952 0.508229 0.288408
O O4 0.773410 0.477268 0.330776
O O5 0.596745 0.822117 0.048982
O O6 0.749926 0.764284 0.171466
O O7 0.257873 0.989014 0.613583
O O8 0.435479 0.728595 0.252866
O O9 0.933478 0.841240 0.882922
O O10 0.495428 0.047712 0.206908
O O11 0.862964 0.811865 0.632303
O O12 0.996542 0.699767 0.189790
O O13 0.165465 0.752939 0.885883
O O14 0.500000 0.500000 0.000000
O O15 0.000000 0.000000 0.000000
#
# Coordination Sequence:
#
# PCOD9080337 Si02
#       7
#     2   2   2   2   2   2   2
#     4  10  22  37  60  88 116 155 197 235 297 351
#     4  10  18  39  59  81 112 152 198 232 284 343
#     4  10  20  36  61  84 111 152 194 236 287 347
#     4  10  20  37  60  82 114 154 193 237 286 348
#     4  11  19  36  62  85 113 149 196 239 291 351
#     4  10  22  38  61  87 116 153 197 246 285 345
#     4  11  22  36  58  87 115 152 196 239 284 347
#
# _framework density 24.281168999999998
#
# number of rings (size 3 to 8) (size 9 to 14) (size 15 to 20)
#    0.000    1.714    4.286    1.286    4.000    0.000 
#    0.000    2.143    0.000    3.429    0.000    0.000 
#    0.000    0.000    0.000    0.000    0.000    0.000 
#
# Total GULP energy -78157.382759 kJ/mol
# GULP energy per Si atom -5582.670197 kJ/mol
# Density = 2.422590 g / cm^3
# Si number density = 24.281169 Si / 1000 Ang^3
#
#
#
# Elastic Constant Matrix: (Units=GPa)
#
#
# Indices 1 2 3 4 5 6 
#
# 1 61.2033 38.5863 54.0281 -11.1453 16.3402 15.6449
# 2 38.5863 179.5345 46.2837 -10.0866 13.3448 35.6090
# 3 54.0281 46.2837 113.9114 -3.4808 44.5721 4.8229
# 4 -11.1453 -10.0866 -3.4808 50.1250 -8.6664 6.8778
# 5 16.3402 13.3448 44.5721 -8.6664 36.0680 -1.0276
# 6 15.6449 35.6090 4.8229 6.8778 -1.0276 32.2605
#
#
#
# Elastic Compliance Matrix: (Units=1/GPa)
#
#
# Indices 1 2 3 4 5 6 
#
# 1 0.039742 0.000895 -0.022832 0.012165 0.012260 -0.019051
# 2 0.000895 0.008408 -0.004172 0.003309 0.002157 -0.009728
# 3 -0.022832 -0.004172 0.032283 -0.010562 -0.030199 0.012141
# 4 0.012165 0.003309 -0.010562 0.026533 0.012315 -0.013238
# 5 0.012260 0.002157 -0.030199 0.012315 0.061524 -0.004478
# 6 -0.019051 -0.009728 0.012141 -0.013238 -0.004478 0.051839
#
#
# Mechanical properties :
#
#
# Convention : Reuss Voigt Hill
#
# Bulk Modulus (GPa) = 35.44195 70.27170 52.85682
# Shear Modulus (GPa) = 17.73357 38.07411 27.90384
#
# Velocity S-wave (km/s) = 2.70542 3.96416 3.39366
# Velocity P-wave (km/s) = 4.93834 7.06798 6.09687
#
# Compressibility (1/GPa) = 0.02821515
#
# Stress axis : x y z
#
# Youngs Moduli (GPa) = 25.16239 118.93221 30.97621
#
# Poissons Ratio (x) = -0.10649 0.70725
# Poissons Ratio (y) = -0.02253 0.12924
# Poissons Ratio (z) = 0.57451 0.49620
#
# Static dielectric constant tensor:
#      x y z
#    x 1.979730 0.009940 -0.058880 
#    y 0.009940 1.992910 -0.047600 
#    z -0.058880 -0.047600 1.941220 
# 
# From -- ./inp_files/169536.got.cif
#   From: 2010.05.17/outbox.cif.g08.bks.cpg/sg2_85_cif.got.tgz:169536.got - 2010.06.03 11:33:40.
