data_PCOD9080200
_publ_section_title
;
Structure prediction by ZEFSAII (Michael W. Deem and Ramdas Pophale) SiO2 
 PCOD9080200
Probable space group: P -1
;
_chemical_formula_sum "Si O2"
_cell_formula_units_Z 15
_cell_length_a 20.367568
_cell_length_b 6.917071
_cell_length_c 15.046192
_cell_angle_alpha 101.527834
_cell_angle_beta 158.346626
_cell_angle_gamma 66.878415
_cell_volume 628.436016
_symmetry_space_group_name_H-M "P -1"
_symmetry_group_IT_number 2
_symmetry_cell_setting 'triclinic'
loop_
_space_group_symop_operation_xyz
x,y,z
-x,-y,-z
loop_
_atom_site_type_symbol
_atom_site_label
_atom_site_fract_x
_atom_site_fract_y
_atom_site_fract_z
Si Si1 0.192962 0.373002 0.419235
Si Si2 0.500000 0.500000 0.500000
Si Si3 0.283602 0.296767 0.080365
Si Si4 0.851167 0.989328 0.573579
Si Si5 0.378855 0.220559 0.463049
Si Si6 0.220107 0.938504 0.146554
Si Si7 0.110585 0.578820 0.715830
Si Si8 0.500069 0.514526 0.106595
O O1 0.207040 0.131600 0.434624
O O2 0.224164 0.407060 0.358644
O O3 0.388628 0.352791 0.714219
O O4 0.962364 0.585726 0.186382
O O5 0.369820 0.429633 0.255108
O O6 0.248582 0.756510 0.240067
O O7 0.436323 0.017354 0.272581
O O8 0.259675 0.362630 0.952951
O O9 0.944613 0.803895 0.590942
O O10 0.655953 0.247619 0.319246
O O11 0.041134 0.001472 0.856623
O O12 0.525006 0.273316 0.590352
O O13 0.253833 0.138475 0.239671
O O14 0.000000 0.500000 0.500000
O O15 0.263270 0.633060 0.860175
O O16 0.500000 0.500000 0.000000
#
# Coordination Sequence:
#
# PCOD9080200 Si02
#       8
#     2   1   2   2   2   2   2   2
#     4  11  23  41  66 100 131 170 226 275 329 395
#     4  10  18  38  66  86 130 176 212 260 322 400
#     4  10  21  41  64  94 131 174 219 269 331 393
#     4  11  24  46  67  95 139 174 218 280 332 406
#     4  10  22  38  63  96 129 173 223 277 321 398
#     4  10  20  40  63  92 134 179 217 268 342 388
#     4  11  24  44  72  99 131 182 221 273 344 396
#     4  12  27  44  69 102 131 176 228 280 333 395
#
# _framework density 23.868777999999999
#
# number of rings (size 3 to 8) (size 9 to 14) (size 15 to 20)
#    0.000    1.333    2.667    4.000    0.000    4.267 
#    2.400    6.667    0.000    0.000    0.000    0.000 
#    0.000    0.000    0.000    0.000    0.000    0.000 
#
# Total GULP energy -83804.615538 kJ/mol
# GULP energy per Si atom -5586.974369 kJ/mol
# Density = 2.381445 g / cm^3
# Si number density = 23.868778 Si / 1000 Ang^3
#
#
#
# Elastic Constant Matrix: (Units=GPa)
#
#
# Indices 1 2 3 4 5 6 
#
# 1 122.8151 9.4273 41.0593 21.8644 1.1100 -4.4758
# 2 9.4273 62.6589 33.5186 28.3663 2.4525 12.0831
# 3 41.0593 33.5186 122.8476 40.9959 -1.5591 -5.1511
# 4 21.8644 28.3663 40.9959 53.1694 -2.3080 -8.1424
# 5 1.1100 2.4525 -1.5591 -2.3080 33.5768 -6.3734
# 6 -4.4758 12.0831 -5.1511 -8.1424 -6.3734 41.6058
#
#
#
# Elastic Compliance Matrix: (Units=1/GPa)
#
#
# Indices 1 2 3 4 5 6 
#
# 1 0.009383 0.001252 -0.002643 -0.002567 -0.000758 -0.000300
# 2 0.001252 0.026337 -0.003540 -0.013820 -0.005255 -0.011462
# 3 -0.002643 -0.003540 0.012097 -0.006146 0.000703 0.001146
# 4 -0.002567 -0.013820 -0.006146 0.033785 0.005100 0.010369
# 5 -0.000758 -0.005255 0.000703 0.005100 0.031985 0.007429
# 6 -0.000300 -0.011462 0.001146 0.010369 0.007429 0.030641
#
#
# Mechanical properties :
#
#
# Convention : Reuss Voigt Hill
#
# Bulk Modulus (GPa) = 26.34677 52.92579 39.63628
# Shear Modulus (GPa) = 29.98651 40.62482 35.30566
#
# Velocity S-wave (km/s) = 3.54829 4.13001 3.85015
# Velocity P-wave (km/s) = 5.27724 6.70556 6.03381
#
# Compressibility (1/GPa) = 0.03795532
#
# Stress axis : x y z
#
# Youngs Moduli (GPa) = 106.57795 37.96934 82.66213
#
# Poissons Ratio (x) = -0.04753 0.21848
# Poissons Ratio (y) = -0.13342 0.29261
# Poissons Ratio (z) = 0.28169 0.13440
#
# Static dielectric constant tensor:
#      x y z
#    x 1.966720 0.047970 0.027440 
#    y 0.047970 1.987050 -0.075940 
#    z 0.027440 -0.075940 1.911380 
# 
# From -- ./inp_files/540524.got.cif
#   From: 2010.05.17/outbox.cif.g08.bks.cpg/sg2_271_cif.got.tgz:540524.got - 2010.06.03 11:33:40.
