data_PCOD9080449
_publ_section_title
;
Structure prediction by ZEFSAII (Michael W. Deem and Ramdas Pophale) SiO2 
 PCOD9080449
Probable space group: P -1
;
_chemical_formula_sum "Si O2"
_cell_formula_units_Z 16
_cell_length_a 17.054335
_cell_length_b 12.842591
_cell_length_c 18.494989
_cell_angle_alpha 21.471532
_cell_angle_beta 27.682351
_cell_angle_gamma 24.859441
_cell_volume 600.621898
_symmetry_space_group_name_H-M "P -1"
_symmetry_group_IT_number 2
_symmetry_cell_setting 'triclinic'
loop_
_space_group_symop_operation_xyz
x,y,z
-x,-y,-z
loop_
_atom_site_type_symbol
_atom_site_label
_atom_site_fract_x
_atom_site_fract_y
_atom_site_fract_z
Si Si1 0.827888 0.033967 0.771068
Si Si2 0.770186 0.473779 0.261254
Si Si3 0.886831 0.656602 0.577240
Si Si4 0.229907 0.445827 0.111385
Si Si5 0.213010 0.242693 0.784651
Si Si6 0.200958 0.702046 0.234135
Si Si7 0.313530 0.050230 0.666619
Si Si8 0.581140 0.126669 0.786921
O O1 0.743860 0.145450 0.688435
O O2 0.055367 0.879890 0.670273
O O3 0.726632 0.313286 0.733190
O O4 0.808596 0.739654 0.014476
O O5 0.770170 0.547244 0.298484
O O6 0.573352 0.544792 0.337604
O O7 0.968195 0.876560 0.330758
O O8 0.769782 0.709923 0.710926
O O9 0.773844 0.580904 0.656724
O O10 0.096511 0.329464 0.636085
O O11 0.351764 0.152281 0.147266
O O12 0.011913 0.609939 0.150952
O O13 0.297657 0.716765 0.891198
O O14 0.323671 0.149022 0.678158
O O15 0.264786 0.912822 0.998601
O O16 0.500000 0.000000 0.500000
O O17 0.500000 0.000000 0.000000
#
# Coordination Sequence:
#
# PCOD9080449 Si02
#       8
#     2   2   2   2   2   2   2   2
#     4   9  18  34  60  92 125 166 211 264 327 369
#     4   9  18  33  59  94 122 166 218 259 317 389
#     4  10  21  39  62  94 126 169 222 257 325 395
#     4  11  20  41  65  89 127 176 213 262 328 390
#     4  10  18  39  66  91 124 175 215 255 330 392
#     4  10  19  36  66  92 120 164 225 260 307 397
#     4  11  23  38  61  95 131 167 210 272 329 382
#     4  10  21  35  60  95 127 167 219 267 315 388
#
# _framework density 26.639054000000002
#
# number of rings (size 3 to 8) (size 9 to 14) (size 15 to 20)
#    0.000    2.000    3.750    0.750    1.750    3.000 
#    4.500    1.875    2.750    0.750    0.000    2.625 
#    0.000    0.000    0.000    0.000    0.000    0.000 
#
# Total GULP energy -89366.869590 kJ/mol
# GULP energy per Si atom -5585.429349 kJ/mol
# Density = 2.657842 g / cm^3
# Si number density = 26.639054 Si / 1000 Ang^3
#
#
#
# Elastic Constant Matrix: (Units=GPa)
#
#
# Indices 1 2 3 4 5 6 
#
# 1 193.7293 80.1858 44.4647 15.6615 28.0912 33.7711
# 2 80.1858 134.3598 27.2265 32.7688 13.7908 18.3536
# 3 44.4647 27.2265 119.0687 28.2315 28.0842 12.4487
# 4 15.6615 32.7688 28.2315 31.1735 11.1900 13.3741
# 5 28.0912 13.7908 28.0842 11.1900 43.9436 15.3745
# 6 33.7711 18.3536 12.4487 13.3741 15.3745 51.8907
#
#
#
# Elastic Compliance Matrix: (Units=1/GPa)
#
#
# Indices 1 2 3 4 5 6 
#
# 1 0.008405 -0.005204 -0.002391 0.005927 -0.002362 -0.003884
# 2 -0.005204 0.013285 0.001833 -0.014047 0.001015 0.001568
# 3 -0.002391 0.001833 0.012460 -0.011208 -0.004952 0.002274
# 4 0.005927 -0.014047 -0.011208 0.059887 -0.003790 -0.010513
# 5 -0.002362 0.001015 -0.004952 -0.003790 0.030020 -0.005551
# 6 -0.003884 0.001568 0.002274 -0.010513 -0.005551 0.025053
#
#
# Mechanical properties :
#
#
# Convention : Reuss Voigt Hill
#
# Bulk Modulus (GPa) = 44.19824 83.43464 63.81644
# Shear Modulus (GPa) = 29.73094 45.08694 37.40894
#
# Velocity S-wave (km/s) = 3.34438 4.11848 3.75145
# Velocity P-wave (km/s) = 5.61611 7.34876 6.54007
#
# Compressibility (1/GPa) = 0.02262533
#
# Stress axis : x y z
#
# Youngs Moduli (GPa) = 118.97654 75.27467 80.25856
#
# Poissons Ratio (x) = 0.39175 0.19189
# Poissons Ratio (y) = 0.61918 -0.14712
# Poissons Ratio (z) = 0.28446 -0.13798
#
# Static dielectric constant tensor:
#      x y z
#    x 2.236070 -0.116640 -0.017260 
#    y -0.116640 2.153540 -0.038600 
#    z -0.017260 -0.038600 2.282770 
# 
# From -- ./inp_files/575913.got.cif
#   From: 2010.05.17/outbox.cif.g08.bks.cpg/sg2_288_cif.got.tgz:575913.got - 2010.06.03 11:33:40.
