data_PCOD9080542
_publ_section_title
;
Structure prediction by ZEFSAII (Michael W. Deem and Ramdas Pophale) SiO2 
 PCOD9080542
Probable space group: P -1
;
_chemical_formula_sum "Si O2"
_cell_formula_units_Z 12
_cell_length_a 10.851347
_cell_length_b 10.798606
_cell_length_c 5.144585
_cell_angle_alpha 80.179123
_cell_angle_beta 112.803178
_cell_angle_gamma 126.698735
_cell_volume 444.049888
_symmetry_space_group_name_H-M "P -1"
_symmetry_group_IT_number 2
_symmetry_cell_setting 'triclinic'
loop_
_space_group_symop_operation_xyz
x,y,z
-x,-y,-z
loop_
_atom_site_type_symbol
_atom_site_label
_atom_site_fract_x
_atom_site_fract_y
_atom_site_fract_z
Si Si1 0.964529 0.701605 0.258037
Si Si2 0.666795 0.725444 0.087118
Si Si3 0.535385 0.210690 0.438897
Si Si4 0.750450 0.014143 0.349310
Si Si5 0.500000 0.500000 0.500000
Si Si6 0.500000 0.000000 0.000000
Si Si7 0.165640 0.476753 0.280776
O O1 0.806769 0.706922 0.127466
O O2 0.947816 0.613047 0.535908
O O3 0.121296 0.878474 0.367304
O O4 0.941527 0.598291 0.035053
O O5 0.527006 0.601952 0.215014
O O6 0.764335 0.891467 0.256729
O O7 0.571379 0.720804 0.745691
O O8 0.716307 0.341493 0.631144
O O9 0.437361 0.088776 0.638841
O O10 0.532605 0.133339 0.200753
O O11 0.705932 0.097110 0.082503
O O12 0.307515 0.445331 0.398446
#
# Coordination Sequence:
#
# PCOD9080542 Si02
#       7
#     2   2   2   2   1   1   2
#     4  11  26  40  68 105 152 173 215 282 358 408
#     4  10  22  39  69 104 142 179 225 272 342 416
#     4  11  23  44  73  96 132 182 244 273 337 407
#     4  11  24  46  68  99 133 184 231 288 337 408
#     4  10  18  40  62 102 138 182 214 266 328 420
#     4  10  26  46  74  92 128 180 248 290 332 396
#     4  11  23  41  65 102 141 182 221 275 338 418
#
# _framework density 27.023989
#
# number of rings (size 3 to 8) (size 9 to 14) (size 15 to 20)
#    0.000    1.333    1.667    3.000    9.333    3.333 
#    0.000    1.667    0.000    0.000    0.000    0.000 
#    0.000    0.000    0.000    0.000    0.000    0.000 
#
# Total GULP energy -66852.201373 kJ/mol
# GULP energy per Si atom -5571.016781 kJ/mol
# Density = 2.696248 g / cm^3
# Si number density = 27.023989 Si / 1000 Ang^3
#
#
#
# Elastic Constant Matrix: (Units=GPa)
#
#
# Indices 1 2 3 4 5 6 
#
# 1 67.8871 21.6585 41.0528 10.6121 -7.4088 -9.6838
# 2 21.6585 105.6771 88.2427 29.9499 -5.0015 15.6913
# 3 41.0528 88.2427 209.3787 43.1844 -34.4444 4.9210
# 4 10.6121 29.9499 43.1844 67.6399 -6.3651 7.3129
# 5 -7.4088 -5.0015 -34.4444 -6.3651 50.4419 -3.2378
# 6 -9.6838 15.6913 4.9210 7.3129 -3.2378 24.7500
#
#
#
# Elastic Compliance Matrix: (Units=1/GPa)
#
#
# Indices 1 2 3 4 5 6 
#
# 1 0.018866 -0.003289 -0.002060 -0.001169 0.001560 0.010426
# 2 -0.003289 0.018053 -0.006973 -0.002227 -0.004459 -0.011272
# 3 -0.002060 -0.006973 0.009427 -0.002448 0.005338 0.003162
# 4 -0.001169 -0.002227 -0.002448 0.017929 -0.000049 -0.003863
# 5 0.001560 -0.004459 0.005338 -0.000049 0.023602 0.005478
# 6 0.010426 -0.011272 0.003162 -0.003863 0.005478 0.052859
#
#
# Mechanical properties :
#
#
# Convention : Reuss Voigt Hill
#
# Bulk Modulus (GPa) = 46.08016 76.09454 61.08735
# Shear Modulus (GPa) = 28.96626 44.03228 36.49927
#
# Velocity S-wave (km/s) = 3.27750 4.04093 3.67907
# Velocity P-wave (km/s) = 5.60457 7.07046 6.37976
#
# Compressibility (1/GPa) = 0.02170131
#
# Stress axis : x y z
#
# Youngs Moduli (GPa) = 53.00642 55.39185 106.07482
#
# Poissons Ratio (x) = 0.18220 0.21853
# Poissons Ratio (y) = 0.17436 0.73966
# Poissons Ratio (z) = 0.10920 0.38625
#
# Static dielectric constant tensor:
#      x y z
#    x 1.912310 0.093890 0.149730 
#    y 0.093890 2.013250 -0.205910 
#    z 0.149730 -0.205910 2.619310 
# 
# From -- ./inp_files/19797.got.cif
#   From: 2010.05.17/outbox.cif.g08.bks.cpg/sg2_10_cif.got.tgz:19797.got - 2010.06.03 11:33:40.
