data_PCOD9080737
_publ_section_title
;
Structure prediction by ZEFSAII (Michael W. Deem and Ramdas Pophale) SiO2 
 PCOD9080737
Probable space group: P -1
;
_chemical_formula_sum "Si O2"
_cell_formula_units_Z 15
_cell_length_a 12.727962
_cell_length_b 16.299681
_cell_length_c 4.945160
_cell_angle_alpha 68.099259
_cell_angle_beta 68.483306
_cell_angle_gamma 35.161882
_cell_volume 544.500349
_symmetry_space_group_name_H-M "P -1"
_symmetry_group_IT_number 2
_symmetry_cell_setting 'triclinic'
loop_
_space_group_symop_operation_xyz
x,y,z
-x,-y,-z
loop_
_atom_site_type_symbol
_atom_site_label
_atom_site_fract_x
_atom_site_fract_y
_atom_site_fract_z
Si Si1 0.014907 0.324208 0.898718
Si Si2 0.419112 0.128288 0.597921
Si Si3 0.407644 0.851938 0.267676
Si Si4 0.358351 0.357251 0.101292
Si Si5 0.500000 0.500000 0.500000
Si Si6 0.030859 0.072206 0.225956
Si Si7 0.079618 0.722876 0.461918
Si Si8 0.340975 0.725123 0.839404
O O1 0.840091 0.493881 0.791658
O O2 0.990475 0.255942 0.799869
O O3 0.217118 0.233843 0.767115
O O4 0.978605 0.327545 0.244199
O O5 0.561614 0.066909 0.774722
O O6 0.406960 0.230897 0.333142
O O7 0.500000 0.000000 0.500000
O O8 0.347257 0.818033 0.587173
O O9 0.242652 0.947338 0.089233
O O10 0.601627 0.691735 0.185728
O O11 0.493954 0.362472 0.992779
O O12 0.298296 0.600198 0.424125
O O13 0.393925 0.622147 0.689451
O O14 0.010677 0.151302 0.401455
O O15 0.871016 0.166277 0.031647
O O16 0.000000 0.000000 0.500000
#
# Coordination Sequence:
#
# PCOD9080737 Si02
#       8
#     2   2   2   2   1   2   2   2
#     4  12  27  47  73 106 145 185 243 296 362 420
#     4  11  27  46  71  97 138 187 243 301 358 427
#     4  10  22  41  67  95 137 179 241 284 364 414
#     4  11  24  42  69 100 138 184 234 299 358 432
#     4  10  18  42  66  96 144 174 232 272 358 402
#     4   9  20  43  66  99 142 188 235 295 353 429
#     4  11  25  44  73 106 144 185 241 294 350 432
#     4   9  19  39  61 100 132 181 227 290 347 426
#
# _framework density 27.548195
#
# number of rings (size 3 to 8) (size 9 to 14) (size 15 to 20)
#    0.000    1.600    1.333    2.000    5.600    2.133 
#   14.400    0.000    0.000    0.000    0.000    0.000 
#    0.000    0.000    0.000    0.000    0.000    0.000 
#
# Total GULP energy -83681.322659 kJ/mol
# GULP energy per Si atom -5578.754844 kJ/mol
# Density = 2.748549 g / cm^3
# Si number density = 27.548195 Si / 1000 Ang^3
#
#
#
# Elastic Constant Matrix: (Units=GPa)
#
#
# Indices 1 2 3 4 5 6 
#
# 1 185.4215 47.3142 32.7359 26.6922 -10.7471 -9.9153
# 2 47.3142 116.5106 11.8232 34.5139 -5.3953 0.8553
# 3 32.7359 11.8232 69.0682 29.9369 14.3376 -7.5160
# 4 26.6922 34.5139 29.9369 36.0420 -5.0425 -4.6064
# 5 -10.7471 -5.3953 14.3376 -5.0425 45.2696 14.1755
# 6 -9.9153 0.8553 -7.5160 -4.6064 14.1755 52.3783
#
#
#
# Elastic Compliance Matrix: (Units=1/GPa)
#
#
# Indices 1 2 3 4 5 6 
#
# 1 0.006696 -0.002456 -0.003538 0.000698 0.002432 0.000203
# 2 -0.002456 0.014082 0.007207 -0.018137 -0.003075 -0.000424
# 3 -0.003538 0.007207 0.033353 -0.033531 -0.015961 0.005369
# 4 0.000698 -0.018137 -0.033531 0.074595 0.017756 -0.002628
# 5 0.002432 -0.003075 -0.015961 0.017756 0.032124 -0.008912
# 6 0.000203 -0.000424 0.005369 -0.002628 -0.008912 0.022089
#
#
# Mechanical properties :
#
#
# Convention : Reuss Voigt Hill
#
# Bulk Modulus (GPa) = 17.68163 61.63854 39.66008
# Shear Modulus (GPa) = 25.07950 45.34645 35.21298
#
# Velocity S-wave (km/s) = 3.02053 4.06159 3.57912
# Velocity P-wave (km/s) = 4.31245 6.66474 5.61320
#
# Compressibility (1/GPa) = 0.05655587
#
# Stress axis : x y z
#
# Youngs Moduli (GPa) = 149.34794 71.01157 29.98241
#
# Poissons Ratio (x) = 0.17438 0.10609
# Poissons Ratio (y) = 0.36675 -0.21607
# Poissons Ratio (z) = 0.52846 -0.51175
#
# Static dielectric constant tensor:
#      x y z
#    x 2.159260 -0.039970 0.034400 
#    y -0.039970 1.785440 0.311930 
#    z 0.034400 0.311930 1.708550 
# 
# From -- ./inp_files/67834.got.cif
#   From: 2010.05.17/outbox.cif.g08.bks.cpg/sg2_34_cif.got.tgz:67834.got - 2010.06.03 11:33:40.
