data_PCOD9080723
_publ_section_title
;
Structure prediction by ZEFSAII (Michael W. Deem and Ramdas Pophale) SiO2 
 PCOD9080723
Probable space group: P -1
;
_chemical_formula_sum "Si O2"
_cell_formula_units_Z 14
_cell_length_a 11.780976
_cell_length_b 8.502816
_cell_length_c 14.387460
_cell_angle_alpha 129.337223
_cell_angle_beta 31.345134
_cell_angle_gamma 113.418660
_cell_volume 541.476778
_symmetry_space_group_name_H-M "P -1"
_symmetry_group_IT_number 2
_symmetry_cell_setting 'triclinic'
loop_
_space_group_symop_operation_xyz
x,y,z
-x,-y,-z
loop_
_atom_site_type_symbol
_atom_site_label
_atom_site_fract_x
_atom_site_fract_y
_atom_site_fract_z
Si Si1 0.500000 0.000000 0.000000
Si Si2 0.421325 0.369029 0.865304
Si Si3 0.290933 0.665001 0.523574
Si Si4 0.091793 0.387044 0.687428
Si Si5 0.720913 0.051762 0.201257
Si Si6 0.855184 0.081754 0.920590
Si Si7 0.000000 0.500000 0.000000
Si Si8 0.738201 0.071054 0.672079
O O1 0.570670 0.072359 0.875127
O O2 0.718360 0.050510 0.915298
O O3 0.524765 0.430477 0.722442
O O4 0.343050 0.162060 0.820117
O O5 0.618698 0.285904 0.774334
O O6 0.179288 0.553954 0.129929
O O7 0.396306 0.773697 0.571371
O O8 0.201234 0.492261 0.570037
O O9 0.073516 0.857563 0.702582
O O10 0.230057 0.131339 0.496065
O O11 0.089147 0.505561 0.831117
O O12 0.691887 0.122103 0.141331
O O13 0.000000 0.000000 0.000000
O O14 0.949761 0.278372 0.924746
O O15 0.000000 0.000000 0.500000
#
# Coordination Sequence:
#
# PCOD9080723 Si02
#       8
#     1   2   2   2   2   2   1   2
#     4  12  24  50  76 104 158 212 254 320 392 456
#     4  12  24  47  76 107 154 205 250 320 410 452
#     4  11  22  43  75 111 150 201 258 320 393 471
#     4  12  26  48  75 115 157 194 263 329 387 469
#     4  10  18  41  73 104 150 197 246 318 386 459
#     4  11  22  45  77 111 158 204 260 326 388 467
#     4  12  24  44  78 116 160 200 254 334 390 462
#     4  12  29  51  77 111 157 210 270 322 386 479
#
# _framework density 25.855218000000001
#
# number of rings (size 3 to 8) (size 9 to 14) (size 15 to 20)
#    0.000    0.571    5.714    3.857    0.000    4.000 
#    0.000    8.571    0.000    0.000    0.000    0.000 
#    0.000    0.000    0.000    0.000    0.000    0.000 
#
# Total GULP energy -78027.312631 kJ/mol
# GULP energy per Si atom -5573.379474 kJ/mol
# Density = 2.579637 g / cm^3
# Si number density = 25.855218 Si / 1000 Ang^3
#
#
#
# Elastic Constant Matrix: (Units=GPa)
#
#
# Indices 1 2 3 4 5 6 
#
# 1 135.1933 14.0497 32.0870 6.2461 6.0344 -6.5875
# 2 14.0497 90.9491 47.3311 -15.6693 -8.6485 -15.0881
# 3 32.0870 47.3311 106.1187 -12.3337 -4.8563 -28.2101
# 4 6.2461 -15.6693 -12.3337 54.4369 -15.3738 9.4056
# 5 6.0344 -8.6485 -4.8563 -15.3738 51.3749 -14.8138
# 6 -6.5875 -15.0881 -28.2101 9.4056 -14.8138 39.5925
#
#
#
# Elastic Compliance Matrix: (Units=1/GPa)
#
#
# Indices 1 2 3 4 5 6 
#
# 1 0.008310 -0.000567 -0.002984 -0.002243 -0.002407 -0.001327
# 2 -0.000567 0.015364 -0.005365 0.003985 0.004063 0.002512
# 3 -0.002984 -0.005365 0.015760 0.001892 0.004348 0.009866
# 4 -0.002243 0.003985 0.001892 0.022401 0.007848 0.000109
# 5 -0.002407 0.004063 0.004348 0.007848 0.026765 0.012396
# 6 -0.001327 0.002512 0.009866 0.000109 0.012396 0.037635
#
#
# Mechanical properties :
#
#
# Convention : Reuss Voigt Hill
#
# Bulk Modulus (GPa) = 46.28646 57.68850 51.98748
# Shear Modulus (GPa) = 33.05417 45.00041 39.02729
#
# Velocity S-wave (km/s) = 3.57940 4.17643 3.88939
# Velocity P-wave (km/s) = 5.91809 6.75406 6.34985
#
# Compressibility (1/GPa) = 0.02160459
#
# Stress axis : x y z
#
# Youngs Moduli (GPa) = 120.33261 65.08666 63.45241
#
# Poissons Ratio (x) = 0.03687 0.18933
# Poissons Ratio (y) = 0.06817 0.34039
# Poissons Ratio (z) = 0.35904 0.34916
#
# Static dielectric constant tensor:
#      x y z
#    x 2.039940 0.030620 -0.006040 
#    y 0.030620 2.015990 -0.006780 
#    z -0.006040 -0.006780 2.042630 
# 
# From -- ./inp_files/516190.got.cif
#   From: 2010.05.17/outbox.cif.g08.bks.cpg/sg2_259_cif.got.tgz:516190.got - 2010.06.03 11:33:40.
