data_PCOD9080863
_publ_section_title
;
Structure prediction by ZEFSAII (Michael W. Deem and Ramdas Pophale) SiO2 
 PCOD9080863
Probable space group: P -1
;
_chemical_formula_sum "Si O2"
_cell_formula_units_Z 12
_cell_length_a 5.655810
_cell_length_b 7.119403
_cell_length_c 18.646655
_cell_angle_alpha 42.210668
_cell_angle_beta 69.214801
_cell_angle_gamma 90.677611
_cell_volume 424.138718
_symmetry_space_group_name_H-M "P -1"
_symmetry_group_IT_number 2
_symmetry_cell_setting 'triclinic'
loop_
_space_group_symop_operation_xyz
x,y,z
-x,-y,-z
loop_
_atom_site_type_symbol
_atom_site_label
_atom_site_fract_x
_atom_site_fract_y
_atom_site_fract_z
Si Si1 0.746722 0.770205 0.851362
Si Si2 0.458705 0.760070 0.506105
Si Si3 0.687561 0.696146 0.163092
Si Si4 0.197354 0.735923 0.090014
Si Si5 0.144261 0.364513 0.405266
Si Si6 0.650928 0.128131 0.232653
O O1 0.802258 0.586406 0.831690
O O2 0.592959 0.960131 0.776704
O O3 0.056582 0.875690 0.823571
O O4 0.500000 0.500000 0.000000
O O5 0.666019 0.611383 0.551501
O O6 0.124160 0.560888 0.585031
O O7 0.500000 0.000000 0.500000
O O8 0.563361 0.933814 0.370427
O O9 0.380119 0.549071 0.268912
O O10 0.694464 0.470270 0.160733
O O11 0.941439 0.680824 0.185334
O O12 0.812533 0.065349 0.034565
O O13 0.500000 0.000000 0.000000
O O14 0.000000 0.000000 0.500000
#
# Coordination Sequence:
#
# PCOD9080863 Si02
#       6
#     2   2   2   2   2   2
#     4  11  24  39  57  82 113 156 198 232 279 341
#     4  10  19  29  49  84 115 144 176 231 296 333
#     4  10  20  32  52  86 116 151 176 239 289 344
#     4  10  21  35  56  80 118 149 191 232 296 335
#     4  10  19  29  49  80 122 138 183 223 296 338
#     4  11  20  35  58  80 120 144 186 240 285 333
#
# _framework density 28.292632000000001
#
# number of rings (size 3 to 8) (size 9 to 14) (size 15 to 20)
#    0.000    1.667    5.000    1.500    4.667    0.000 
#    0.000    0.000    0.000    0.000    0.000    7.000 
#    0.000    0.000    0.000    0.000    0.000    0.000 
#
# Total GULP energy -66905.569892 kJ/mol
# GULP energy per Si atom -5575.464158 kJ/mol
# Density = 2.822824 g / cm^3
# Si number density = 28.292632 Si / 1000 Ang^3
#
#
#
# Elastic Constant Matrix: (Units=GPa)
#
#
# Indices 1 2 3 4 5 6 
#
# 1 311.0062 27.5129 91.8134 18.3778 -28.8363 -27.4724
# 2 27.5129 118.4704 11.6309 1.0439 -3.4351 -1.4964
# 3 91.8134 11.6309 104.7472 13.1572 -25.5806 -0.7792
# 4 18.3778 1.0439 13.1572 34.8297 -4.7151 1.6314
# 5 -28.8363 -3.4351 -25.5806 -4.7151 73.5980 0.0510
# 6 -27.4724 -1.4964 -0.7792 1.6314 0.0510 28.5100
#
#
#
# Elastic Compliance Matrix: (Units=1/GPa)
#
#
# Indices 1 2 3 4 5 6 
#
# 1 0.004989 -0.000683 -0.003993 -0.001264 0.000451 0.004734
# 2 -0.000683 0.008633 -0.000391 0.000262 0.000017 -0.000230
# 3 -0.003993 -0.000391 0.014174 -0.002649 0.003176 -0.003335
# 4 -0.001264 0.000262 -0.002649 0.030589 0.000558 -0.003028
# 5 0.000451 0.000017 0.003176 0.000558 0.014904 0.000463
# 6 0.004734 -0.000230 -0.003335 -0.003028 0.000463 0.039707
#
#
# Mechanical properties :
#
#
# Convention : Reuss Voigt Hill
#
# Bulk Modulus (GPa) = 56.61593 88.45980 72.53786
# Shear Modulus (GPa) = 38.75448 54.27197 46.51322
#
# Velocity S-wave (km/s) = 3.70506 4.38452 4.05903
# Velocity P-wave (km/s) = 6.19335 7.54758 6.90375
#
# Compressibility (1/GPa) = 0.01766287
#
# Stress axis : x y z
#
# Youngs Moduli (GPa) = 200.42583 115.83334 70.55094
#
# Poissons Ratio (x) = 0.07907 0.28174
# Poissons Ratio (y) = 0.13682 0.02757
# Poissons Ratio (z) = 0.80038 0.04527
#
# Static dielectric constant tensor:
#      x y z
#    x 2.330120 0.232190 -0.111800 
#    y 0.232190 2.160640 0.302370 
#    z -0.111800 0.302370 4.474870 
# 
# From -- ./inp_files/62820.got.cif
#   From: 2010.05.17/outbox.cif.g08.bks.cpg/sg2_32_cif.got.tgz:62820.got - 2010.06.03 11:33:40.
