data_PCOD9080999
_publ_section_title
;
Structure prediction by ZEFSAII (Michael W. Deem and Ramdas Pophale) SiO2 
 PCOD9080999
Probable space group: P -1
;
_chemical_formula_sum "Si O2"
_cell_formula_units_Z 16
_cell_length_a 11.851707
_cell_length_b 15.835686
_cell_length_c 5.446733
_cell_angle_alpha 63.327920
_cell_angle_beta 109.936217
_cell_angle_gamma 80.467342
_cell_volume 794.538231
_symmetry_space_group_name_H-M "P -1"
_symmetry_group_IT_number 2
_symmetry_cell_setting 'triclinic'
loop_
_space_group_symop_operation_xyz
x,y,z
-x,-y,-z
loop_
_atom_site_type_symbol
_atom_site_label
_atom_site_fract_x
_atom_site_fract_y
_atom_site_fract_z
Si Si1 0.487575 0.063241 0.158018
Si Si2 0.580638 0.420338 0.361078
Si Si3 0.570283 0.619841 0.316605
Si Si4 0.020144 0.695281 0.286110
Si Si5 0.673983 0.184649 0.215790
Si Si6 0.239130 0.267401 0.714563
Si Si7 0.796892 0.207648 0.764244
Si Si8 0.995093 0.389194 0.116072
O O1 0.595716 0.113038 0.191086
O O2 0.500000 0.000000 0.500000
O O3 0.348653 0.156394 0.922936
O O4 0.500000 0.000000 0.000000
O O5 0.610529 0.499455 0.460264
O O6 0.483467 0.369010 0.460355
O O7 0.710948 0.328544 0.514023
O O8 0.500000 0.500000 0.000000
O O9 0.685563 0.656330 0.298598
O O10 0.438800 0.700572 0.987488
O O11 0.865858 0.725259 0.164858
O O12 0.072250 0.636056 0.659687
O O13 0.059719 0.792616 0.158623
O O14 0.060998 0.627273 0.161561
O O15 0.753039 0.157666 0.565217
O O16 0.761691 0.181434 0.044800
O O17 0.143048 0.307110 0.359792
O O18 0.000000 0.500000 0.000000
#
# Coordination Sequence:
#
# PCOD9080999 Si02
#       8
#     2   2   2   2   2   2   2   2
#     4  11  24  43  72  98 119 151 203 266 330 376
#     4  10  19  30  51  80 118 161 203 246 293 350
#     4   9  19  35  49  82 115 158 198 252 301 354
#     4  10  23  38  58  87 121 175 205 249 298 355
#     4  10  21  39  59  88 117 153 192 252 313 360
#     4   9  24  39  63  87 128 159 207 262 311 361
#     4  11  21  36  59  83 124 159 206 236 297 371
#     4  10  22  38  56  88 125 171 216 243 294 353
#
# _framework density 20.13748
#
# number of rings (size 3 to 8) (size 9 to 14) (size 15 to 20)
#    0.750    1.250    1.250    1.875    3.500    2.000 
#    0.000    0.000    0.000    4.500    0.000    0.000 
#    0.000    0.000    0.000    0.000    0.000    0.000 
#
# Total GULP energy -89068.060754 kJ/mol
# GULP energy per Si atom -5566.753797 kJ/mol
# Density = 2.009165 g / cm^3
# Si number density = 20.137480 Si / 1000 Ang^3
#
#
#
# Elastic Constant Matrix: (Units=GPa)
#
#
# Indices 1 2 3 4 5 6 
#
# 1 116.2751 30.4419 40.8463 9.0551 -23.4122 18.5827
# 2 30.4419 98.2769 36.3827 16.8008 -15.3327 3.1074
# 3 40.8463 36.3827 57.2202 7.5002 -13.2365 -10.4022
# 4 9.0551 16.8008 7.5002 37.0640 -2.2045 -5.1698
# 5 -23.4122 -15.3327 -13.2365 -2.2045 19.7416 1.1488
# 6 18.5827 3.1074 -10.4022 -5.1698 1.1488 19.7541
#
#
#
# Elastic Compliance Matrix: (Units=1/GPa)
#
#
# Indices 1 2 3 4 5 6 
#
# 1 0.030115 0.008564 -0.028719 -0.010799 0.024759 -0.049065
# 2 0.008564 0.018542 -0.018010 -0.009391 0.012810 -0.023659
# 3 -0.028719 -0.018010 0.056511 0.011848 -0.012526 0.063436
# 4 -0.010799 -0.009391 0.011848 0.034731 -0.009881 0.027539
# 5 0.024759 0.012810 -0.012526 -0.009881 0.082751 -0.039300
# 6 -0.049065 -0.023659 0.063436 0.027539 -0.039300 0.143397
#
#
# Mechanical properties :
#
#
# Convention : Reuss Voigt Hill
#
# Bulk Modulus (GPa) = 34.67807 54.12377 44.40092
# Shear Modulus (GPa) = 11.06220 26.25200 18.65710
#
# Velocity S-wave (km/s) = 2.34633 3.61451 3.04713
# Velocity P-wave (km/s) = 4.95968 6.65996 5.87169
#
# Compressibility (1/GPa) = 0.02883667
#
# Stress axis : x y z
#
# Youngs Moduli (GPa) = 33.20652 53.93154 17.69579
#
# Poissons Ratio (x) = -0.46187 0.50821
# Poissons Ratio (y) = -0.28438 0.31870
# Poissons Ratio (z) = 0.95367 0.97131
#
# Static dielectric constant tensor:
#      x y z
#    x 1.867550 -0.012990 0.018940 
#    y -0.012990 1.776420 0.035160 
#    z 0.018940 0.035160 1.764380 
# 
# From -- ./inp_files/77226.got.cif
#   From: 2010.05.17/outbox.cif.g08.bks.cpg/sg2_39_cif.got.tgz:77226.got - 2010.06.03 11:33:40.
