data_PCOD9080363
_publ_section_title
;
Structure prediction by ZEFSAII (Michael W. Deem and Ramdas Pophale) SiO2 
 PCOD9080363
Probable space group: P -1
;
_chemical_formula_sum "Si O2"
_cell_formula_units_Z 12
_cell_length_a 6.795046
_cell_length_b 11.907997
_cell_length_c 9.441807
_cell_angle_alpha 59.230207
_cell_angle_beta 99.314889
_cell_angle_gamma 136.281679
_cell_volume 424.965579
_symmetry_space_group_name_H-M "P -1"
_symmetry_group_IT_number 2
_symmetry_cell_setting 'triclinic'
loop_
_space_group_symop_operation_xyz
x,y,z
-x,-y,-z
loop_
_atom_site_type_symbol
_atom_site_label
_atom_site_fract_x
_atom_site_fract_y
_atom_site_fract_z
Si Si1 0.775073 0.010518 0.983751
Si Si2 0.563707 0.310587 0.079200
Si Si3 0.777470 0.041254 0.559432
Si Si4 0.829547 0.693400 0.808234
Si Si5 0.672121 0.195623 0.682788
Si Si6 0.446267 0.357288 0.477296
O O1 0.502047 0.817840 0.975427
O O2 0.877673 0.200354 0.805425
O O3 0.630455 0.961500 0.151833
O O4 0.000000 0.000000 0.000000
O O5 0.294359 0.286477 0.087516
O O6 0.496683 0.190090 0.286817
O O7 0.842504 0.546360 0.938305
O O8 0.726385 0.147115 0.572893
O O9 0.870558 0.111220 0.364089
O O10 0.091841 0.137208 0.596435
O O11 0.583977 0.598521 0.712935
O O12 0.669766 0.348589 0.545089
O O13 0.500000 0.500000 0.500000
#
# Coordination Sequence:
#
# PCOD9080363 Si02
#       6
#     2   2   2   2   2   2
#     4  10  21  36  62  92 119 159 206 247 300 363
#     4  10  18  39  62  83 120 162 200 243 308 354
#     4   9  21  37  62  86 118 158 200 249 300 355
#     4   9  21  35  63  88 117 160 199 250 300 358
#     4  10  19  36  61  88 121 157 201 249 305 355
#     4  10  21  38  58  93 121 154 202 251 301 360
#
# _framework density 28.237577999999999
#
# number of rings (size 3 to 8) (size 9 to 14) (size 15 to 20)
#    1.000    1.333    0.000    3.500    0.000    0.667 
#    0.000    3.333    7.333    2.000    0.000    0.000 
#    0.000    0.000    0.000    0.000    0.000    0.000 
#
# Total GULP energy -67000.121308 kJ/mol
# GULP energy per Si atom -5583.343442 kJ/mol
# Density = 2.817331 g / cm^3
# Si number density = 28.237578 Si / 1000 Ang^3
#
#
#
# Elastic Constant Matrix: (Units=GPa)
#
#
# Indices 1 2 3 4 5 6 
#
# 1 179.9541 41.8819 47.3484 0.7054 30.6990 -26.9512
# 2 41.8819 126.7112 61.1688 13.0002 3.5120 -48.9034
# 3 47.3484 61.1688 198.6219 0.3597 12.8644 -29.7206
# 4 0.7054 13.0002 0.3597 49.7183 -17.5323 -2.1789
# 5 30.6990 3.5120 12.8644 -17.5323 57.2962 -6.5273
# 6 -26.9512 -48.9034 -29.7206 -2.1789 -6.5273 68.5833
#
#
#
# Elastic Compliance Matrix: (Units=1/GPa)
#
#
# Indices 1 2 3 4 5 6 
#
# 1 0.006844 -0.001238 -0.000858 -0.000982 -0.003578 0.001064
# 2 -0.001238 0.012642 -0.002516 -0.002790 0.000441 0.007391
# 3 -0.000858 -0.002516 0.006122 0.000446 -0.000569 0.000482
# 4 -0.000982 -0.002790 0.000446 0.023546 0.007723 -0.000699
# 5 -0.003578 0.000441 -0.000569 0.007723 0.021948 0.000996
# 6 0.001064 0.007391 0.000482 -0.000699 0.000996 0.020551
#
#
# Mechanical properties :
#
#
# Convention : Reuss Voigt Hill
#
# Bulk Modulus (GPa) = 61.02753 89.56503 75.29628
# Shear Modulus (GPa) = 47.01999 58.77877 52.89938
#
# Velocity S-wave (km/s) = 4.08506 4.56738 4.33294
# Velocity P-wave (km/s) = 6.62641 7.72023 7.19414
#
# Compressibility (1/GPa) = 0.01638605
#
# Stress axis : x y z
#
# Youngs Moduli (GPa) = 146.10784 79.09975 163.34113
#
# Poissons Ratio (x) = 0.09790 0.14010
# Poissons Ratio (y) = 0.18084 0.41095
# Poissons Ratio (z) = 0.12532 0.19900
#
# Static dielectric constant tensor:
#      x y z
#    x 2.270680 0.104710 -0.009910 
#    y 0.104710 2.188470 -0.074200 
#    z -0.009910 -0.074200 2.214830 
# 
# From -- ./inp_files/361034.got.cif
#   From: 2010.05.17/outbox.cif.g08.bks.cpg/sg2_181_cif.got.tgz:361034.got - 2010.06.03 11:33:40.
