data_PCOD9080786
_publ_section_title
;
Structure prediction by ZEFSAII (Michael W. Deem and Ramdas Pophale) SiO2 
 PCOD9080786
Probable space group: P -1
;
_chemical_formula_sum "Si O2"
_cell_formula_units_Z 14
_cell_length_a 12.514366
_cell_length_b 6.774102
_cell_length_c 9.180974
_cell_angle_alpha 111.076466
_cell_angle_beta 48.543337
_cell_angle_gamma 102.376629
_cell_volume 543.969018
_symmetry_space_group_name_H-M "P -1"
_symmetry_group_IT_number 2
_symmetry_cell_setting 'triclinic'
loop_
_space_group_symop_operation_xyz
x,y,z
-x,-y,-z
loop_
_atom_site_type_symbol
_atom_site_label
_atom_site_fract_x
_atom_site_fract_y
_atom_site_fract_z
Si Si1 0.636239 0.361774 0.794469
Si Si2 0.416400 0.121069 0.766429
Si Si3 0.884332 0.404478 0.394933
Si Si4 0.044545 0.041117 0.635936
Si Si5 0.180501 0.855333 0.889829
Si Si6 0.766732 0.766766 0.268729
Si Si7 0.198476 0.510607 0.084257
O O1 0.567112 0.175184 0.713175
O O2 0.745347 0.489063 0.628719
O O3 0.500000 0.500000 0.000000
O O4 0.295570 0.297215 0.985371
O O5 0.394346 0.173398 0.626050
O O6 0.343110 0.899555 0.800541
O O7 0.915726 0.189398 0.399253
O O8 0.842820 0.328232 0.252756
O O9 0.719214 0.310371 0.856332
O O10 0.034741 0.515803 0.283839
O O11 0.000000 0.000000 0.500000
O O12 0.175685 0.188342 0.610415
O O13 0.915479 0.131146 0.877037
O O14 0.849512 0.934505 0.133848
O O15 0.797914 0.539524 0.104440
#
# Coordination Sequence:
#
# PCOD9080786 Si02
#       7
#     2   2   2   2   2   2   2
#     4  10  19  27  43  83  92 120 158 200 221 277
#     4   7  14  27  46  65 103 114 141 191 248 268
#     4  11  16  29  49  72 100 121 147 199 239 270
#     4  11  17  27  48  76  95 120 155 196 235 280
#     4   8  14  29  47  66  96 117 146 193 251 268
#     4   7  13  27  47  62  98 116 140 191 245 261
#     4   8  14  27  47  67  98 117 150 189 240 262
#
# _framework density 25.736757999999998
#
# number of rings (size 3 to 8) (size 9 to 14) (size 15 to 20)
#    1.714    1.143    4.286    1.286    0.000    0.571 
#    0.000    0.000    0.000    1.714    0.000    3.000 
#    0.000    0.000    0.000    0.000    0.000    0.000 
#
# Total GULP energy -77934.818156 kJ/mol
# GULP energy per Si atom -5566.772725 kJ/mol
# Density = 2.567818 g / cm^3
# Si number density = 25.736758 Si / 1000 Ang^3
#
#
#
# Elastic Constant Matrix: (Units=GPa)
#
#
# Indices 1 2 3 4 5 6 
#
# 1 203.9710 65.5882 83.4945 -2.1855 38.8084 62.2797
# 2 65.5882 58.0471 28.4162 7.4293 16.8453 30.0776
# 3 83.4945 28.4162 147.7056 3.6394 19.5419 11.4409
# 4 -2.1855 7.4293 3.6394 33.2205 13.6088 6.4344
# 5 38.8084 16.8453 19.5419 13.6088 59.6081 8.5546
# 6 62.2797 30.0776 11.4409 6.4344 8.5546 56.0144
#
#
#
# Elastic Compliance Matrix: (Units=1/GPa)
#
#
# Indices 1 2 3 4 5 6 
#
# 1 0.013204 -0.006665 -0.004875 0.007008 -0.005264 -0.010108
# 2 -0.006665 0.030546 -0.001154 -0.004930 -0.001650 -0.007937
# 3 -0.004875 -0.001154 0.009431 -0.002035 0.000255 0.004309
# 4 0.007008 -0.004930 -0.002035 0.037426 -0.009970 -0.007505
# 5 -0.005264 -0.001650 0.000255 -0.009970 0.022226 0.004438
# 6 -0.010108 -0.007937 0.004309 -0.007505 0.004438 0.032657
#
#
# Mechanical properties :
#
#
# Convention : Reuss Voigt Hill
#
# Bulk Modulus (GPa) = 35.98147 84.96904 60.47526
# Shear Modulus (GPa) = 27.75566 45.25024 36.50295
#
# Velocity S-wave (km/s) = 3.28753 4.19763 3.77014
# Velocity P-wave (km/s) = 5.33117 7.52196 6.51925
#
# Compressibility (1/GPa) = 0.02779209
#
# Stress axis : x y z
#
# Youngs Moduli (GPa) = 75.73231 32.73739 106.03533
#
# Poissons Ratio (x) = 0.21820 0.51694
# Poissons Ratio (y) = 0.50476 0.12241
# Poissons Ratio (z) = 0.36921 0.03779
#
# Static dielectric constant tensor:
#      x y z
#    x 2.209360 -0.035110 -0.007290 
#    y -0.035110 2.184880 0.051650 
#    z -0.007290 0.051650 2.114840 
# 
# From -- ./inp_files/259836.got.cif
#   From: 2010.05.17/outbox.cif.g08.bks.cpg/sg2_130_cif.got.tgz:259836.got - 2010.06.03 11:33:40.
