data_PCOD9080989
_publ_section_title
;
Structure prediction by ZEFSAII (Michael W. Deem and Ramdas Pophale) SiO2 
 PCOD9080989
Probable space group: P -1
;
_chemical_formula_sum "Si O2"
_cell_formula_units_Z 16
_cell_length_a 18.477233
_cell_length_b 5.580345
_cell_length_c 8.341570
_cell_angle_alpha 85.086403
_cell_angle_beta 121.053510
_cell_angle_gamma 92.224182
_cell_volume 734.107789
_symmetry_space_group_name_H-M "P -1"
_symmetry_group_IT_number 2
_symmetry_cell_setting 'triclinic'
loop_
_space_group_symop_operation_xyz
x,y,z
-x,-y,-z
loop_
_atom_site_type_symbol
_atom_site_label
_atom_site_fract_x
_atom_site_fract_y
_atom_site_fract_z
Si Si1 0.261097 0.245037 0.978950
Si Si2 0.937384 0.389782 0.562304
Si Si3 0.338945 0.745346 0.055805
Si Si4 0.082861 0.090264 0.913696
Si Si5 0.969009 0.713162 0.839833
Si Si6 0.290140 0.294198 0.624144
Si Si7 0.512806 0.737026 0.113317
Si Si8 0.758765 0.210029 0.393060
O O1 0.297519 0.493635 0.077658
O O2 0.309976 0.995435 0.089432
O O3 0.165075 0.197986 0.922984
O O4 0.268371 0.277957 0.792230
O O5 0.914285 0.611932 0.639503
O O6 0.852529 0.254076 0.427006
O O7 0.000000 0.500000 0.500000
O O8 0.998712 0.213731 0.739856
O O9 0.439623 0.722301 0.163302
O O10 0.306855 0.776847 0.831535
O O11 0.081095 0.119460 0.102256
O O12 0.057427 0.816661 0.867079
O O13 0.000000 0.500000 0.000000
O O14 0.390763 0.275077 0.719752
O O15 0.261612 0.562970 0.529691
O O16 0.250526 0.050566 0.523837
O O17 0.500000 0.500000 0.000000
O O18 0.500000 0.000000 0.000000
#
# Coordination Sequence:
#
# PCOD9080989 Si02
#       8
#     2   2   2   2   2   2   2   2
#     4  10  19  30  51  73 104 139 187 227 278 320
#     4  11  23  35  56  83 113 152 191 239 289 345
#     4  10  19  31  46  79 110 145 180 232 277 343
#     4  10  22  39  58  76 110 158 193 244 283 337
#     4   9  22  41  56  77 104 153 201 240 290 335
#     4  10  19  31  46  75 112 147 177 226 282 342
#     4  12  16  30  47  69 110 154 182 213 287 347
#     4  10  20  31  45  73 109 140 182 223 273 331
#
# _framework density 21.795162000000001
#
# number of rings (size 3 to 8) (size 9 to 14) (size 15 to 20)
#    0.000    1.750    5.000    1.500    8.750    0.500 
#    0.000    0.000    0.000    0.000    0.000    0.000 
#    0.000   11.000    0.000    0.000    0.000    0.000 
#
# Total GULP energy -89192.813358 kJ/mol
# GULP energy per Si atom -5574.550835 kJ/mol
# Density = 2.174556 g / cm^3
# Si number density = 21.795162 Si / 1000 Ang^3
#
#
#
# Elastic Constant Matrix: (Units=GPa)
#
#
# Indices 1 2 3 4 5 6 
#
# 1 109.5028 26.3728 20.8694 -1.3589 37.4453 18.9253
# 2 26.3728 179.2563 5.7196 -3.8646 16.1971 5.8904
# 3 20.8694 5.7196 24.7224 4.6467 8.0266 6.0613
# 4 -1.3589 -3.8646 4.6467 17.5927 1.3064 8.5684
# 5 37.4453 16.1971 8.0266 1.3064 21.7762 4.8553
# 6 18.9253 5.8904 6.0613 8.5684 4.8553 41.3025
#
#
#
# Elastic Compliance Matrix: (Units=1/GPa)
#
#
# Indices 1 2 3 4 5 6 
#
# 1 0.026572 0.000680 -0.009225 0.011862 -0.041616 -0.008487
# 2 0.000680 0.006068 -0.000415 0.002371 -0.005456 -0.000966
# 3 -0.009225 -0.000415 0.051688 -0.014255 -0.002001 -0.000107
# 4 0.011862 0.002371 -0.014255 0.071344 -0.017526 -0.016422
# 5 -0.041616 -0.005456 -0.002001 -0.017526 0.121206 0.009528
# 6 -0.008487 -0.000966 -0.000107 -0.016422 0.009528 0.030541
#
#
# Mechanical properties :
#
#
# Convention : Reuss Voigt Hill
#
# Bulk Modulus (GPa) = 15.05864 46.60056 30.82960
# Shear Modulus (GPa) = 14.38961 33.50224 23.94593
#
# Velocity S-wave (km/s) = 2.57226 3.92489 3.31823
# Velocity P-wave (km/s) = 3.96815 6.47822 5.37185
#
# Compressibility (1/GPa) = 0.06640706
#
# Stress axis : x y z
#
# Youngs Moduli (GPa) = 37.63427 164.80754 19.34697
#
# Poissons Ratio (x) = -0.11207 0.17847
# Poissons Ratio (y) = -0.02559 0.00803
# Poissons Ratio (z) = 0.34717 0.06839
#
# Static dielectric constant tensor:
#      x y z
#    x 1.800100 -0.082830 0.004110 
#    y -0.082830 2.329410 -0.026470 
#    z 0.004110 -0.026470 1.791900 
# 
# From -- ./inp_files/37444.got.cif
#   From: 2010.05.17/outbox.cif.g08.bks.cpg/sg2_19_cif.got.tgz:37444.got - 2010.06.03 11:33:40.
