data_PCOD9080740
_publ_section_title
;
Structure prediction by ZEFSAII (Michael W. Deem and Ramdas Pophale) SiO2 
 PCOD9080740
Probable space group: P -1
;
_chemical_formula_sum "Si O2"
_cell_formula_units_Z 15
_cell_length_a 7.396472
_cell_length_b 5.622323
_cell_length_c 16.001728
_cell_angle_alpha 117.629613
_cell_angle_beta 80.110796
_cell_angle_gamma 107.358196
_cell_volume 562.265694
_symmetry_space_group_name_H-M "P -1"
_symmetry_group_IT_number 2
_symmetry_cell_setting 'triclinic'
loop_
_space_group_symop_operation_xyz
x,y,z
-x,-y,-z
loop_
_atom_site_type_symbol
_atom_site_label
_atom_site_fract_x
_atom_site_fract_y
_atom_site_fract_z
Si Si1 0.413923 0.179389 0.471125
Si Si2 0.986006 0.276546 0.362189
Si Si3 0.661792 0.367550 0.688598
Si Si4 0.242251 0.074136 0.901035
Si Si5 0.679376 0.375855 0.284664
Si Si6 0.179331 0.336619 0.106545
Si Si7 0.000000 0.000000 0.500000
Si Si8 0.949294 0.730906 0.188326
O O1 0.500000 0.500000 0.500000
O O2 0.495925 0.484044 0.679260
O O3 0.500000 0.000000 0.500000
O O4 0.385387 0.967895 0.359167
O O5 0.145427 0.555466 0.370692
O O6 0.997960 0.182426 0.439688
O O7 0.779386 0.282377 0.343561
O O8 0.038856 0.040725 0.261904
O O9 0.711232 0.521805 0.797618
O O10 0.219442 0.290950 0.867385
O O11 0.364365 0.886338 0.818529
O O12 0.293074 0.207097 0.008672
O O13 0.021155 0.889422 0.895887
O O14 0.855047 0.581873 0.255760
O O15 0.787062 0.832992 0.474823
O O16 0.101936 0.586789 0.114683
#
# Coordination Sequence:
#
# PCOD9080740 Si02
#       8
#     2   2   2   2   2   2   1   2
#     4  12  32  59  83 125 166 210 280 356 425 500
#     4  11  25  50  75 115 154 209 278 331 420 496
#     4  12  25  50  81 114 156 220 270 329 419 499
#     4   9  19  39  69 112 161 207 262 335 394 468
#     4  10  24  45  73 111 167 211 259 339 399 484
#     4  10  19  38  72 112 154 207 272 325 394 488
#     4  12  30  54  90 114 154 214 266 350 430 508
#     4  10  18  42  67 106 153 211 259 326 402 468
#
# _framework density 26.677778
#
# number of rings (size 3 to 8) (size 9 to 14) (size 15 to 20)
#    0.000    1.333    4.000    2.000    1.867    4.800 
#    9.600    0.667    0.000    0.000    0.000    0.000 
#    0.000    0.000    0.000    0.000    0.000    0.000 
#
# Total GULP energy -83737.840671 kJ/mol
# GULP energy per Si atom -5582.522711 kJ/mol
# Density = 2.661706 g / cm^3
# Si number density = 26.677778 Si / 1000 Ang^3
#
#
#
# Elastic Constant Matrix: (Units=GPa)
#
#
# Indices 1 2 3 4 5 6 
#
# 1 110.8036 37.9210 32.7657 10.8477 1.8198 1.1438
# 2 37.9210 139.2670 59.7956 7.1224 13.9715 1.1194
# 3 32.7657 59.7956 178.9882 2.6228 -3.6724 -24.1803
# 4 10.8477 7.1224 2.6228 32.7408 -4.8044 0.4936
# 5 1.8198 13.9715 -3.6724 -4.8044 38.6190 7.9235
# 6 1.1438 1.1194 -24.1803 0.4936 7.9235 35.7843
#
#
#
# Elastic Compliance Matrix: (Units=1/GPa)
#
#
# Indices 1 2 3 4 5 6 
#
# 1 0.010431 -0.002126 -0.001308 -0.002868 0.000025 -0.001117
# 2 -0.002126 0.009512 -0.003037 -0.001617 -0.003528 -0.001478
# 3 -0.001308 -0.003037 0.007529 0.000550 0.000916 0.005014
# 4 -0.002868 -0.001617 0.000550 0.032556 0.005038 -0.001051
# 5 0.000025 -0.003528 0.000916 0.005038 0.029068 -0.005777
# 6 -0.001117 -0.001478 0.005014 -0.001051 -0.005777 0.032709
#
#
# Mechanical properties :
#
#
# Convention : Reuss Voigt Hill
#
# Bulk Modulus (GPa) = 68.81736 76.66925 72.74331
# Shear Modulus (GPa) = 35.81940 41.33392 38.57666
#
# Velocity S-wave (km/s) = 3.66822 3.94048 3.80679
# Velocity P-wave (km/s) = 6.61762 7.03595 6.82999
#
# Compressibility (1/GPa) = 0.01453122
#
# Stress axis : x y z
#
# Youngs Moduli (GPa) = 95.86746 105.13440 132.82022
#
# Poissons Ratio (x) = 0.22348 0.17368
# Poissons Ratio (y) = 0.20379 0.40336
# Poissons Ratio (z) = 0.12536 0.31928
#
# Static dielectric constant tensor:
#      x y z
#    x 2.298490 -0.359860 -0.026250 
#    y -0.359860 2.976430 -0.095240 
#    z -0.026250 -0.095240 2.242000 
# 
# From -- ./inp_files/524679.got.cif
#   From: 2010.05.17/outbox.cif.g08.bks.cpg/sg2_263_cif.got.tgz:524679.got - 2010.06.03 11:33:40.
