data_PCOD9080896
_publ_section_title
;
Structure prediction by ZEFSAII (Michael W. Deem and Ramdas Pophale) SiO2 
 PCOD9080896
Probable space group: P -1
;
_chemical_formula_sum "Si O2"
_cell_formula_units_Z 16
_cell_length_a 7.674766
_cell_length_b 13.699562
_cell_length_c 12.197452
_cell_angle_alpha 67.027822
_cell_angle_beta 78.241531
_cell_angle_gamma 45.419546
_cell_volume 836.177935
_symmetry_space_group_name_H-M "P -1"
_symmetry_group_IT_number 2
_symmetry_cell_setting 'triclinic'
loop_
_space_group_symop_operation_xyz
x,y,z
-x,-y,-z
loop_
_atom_site_type_symbol
_atom_site_label
_atom_site_fract_x
_atom_site_fract_y
_atom_site_fract_z
Si Si1 0.885380 0.147996 0.706229
Si Si2 0.198946 0.607740 0.820626
Si Si3 0.586285 0.265339 0.910117
Si Si4 0.168477 0.781118 0.564637
Si Si5 0.609510 0.958665 0.319629
Si Si6 0.619590 0.093139 0.476549
Si Si7 0.669362 0.765916 0.887730
Si Si8 0.222408 0.815796 0.856616
O O1 0.688800 0.222012 0.794481
O O2 0.785632 0.227913 0.567095
O O3 0.111892 0.134043 0.710341
O O4 0.024369 0.976753 0.758109
O O5 0.428122 0.435857 0.876338
O O6 0.187431 0.662167 0.675849
O O7 0.215156 0.703942 0.854194
O O8 0.951109 0.648045 0.869006
O O9 0.407385 0.241240 0.978092
O O10 0.807192 0.173673 0.011721
O O11 0.344361 0.796870 0.589645
O O12 0.886645 0.936405 0.544763
O O13 0.557991 0.866030 0.418959
O O14 0.555693 0.057809 0.388716
O O15 0.430356 0.075653 0.197671
O O16 0.494863 0.756926 0.844597
#
# Coordination Sequence:
#
# PCOD9080896 Si02
#       8
#     2   2   2   2   2   2   2   2
#     4  10  20  38  55  82 113 151 176 227 291 324
#     4  12  20  38  59  87 108 148 189 229 278 326
#     4  10  23  38  56  77 120 152 180 221 280 340
#     4  10  19  29  56  81 113 136 182 234 273 333
#     4   9  16  29  56  78 112 137 183 232 280 319
#     4   9  16  30  49  87 106 136 183 239 273 309
#     4   9  20  34  57  84 107 144 186 234 270 320
#     4   9  21  37  61  80 107 145 190 238 262 320
#
# _framework density 19.134685000000001
#
# number of rings (size 3 to 8) (size 9 to 14) (size 15 to 20)
#    0.750    1.500    1.250    4.125    0.000    0.500 
#    0.000    1.875    0.000    0.750    0.000    0.000 
#    0.000    0.000    0.000    0.000    0.000    0.000 
#
# Total GULP energy -89084.227602 kJ/mol
# GULP energy per Si atom -5567.764225 kJ/mol
# Density = 1.909113 g / cm^3
# Si number density = 19.134685 Si / 1000 Ang^3
#
#
#
# Elastic Constant Matrix: (Units=GPa)
#
#
# Indices 1 2 3 4 5 6 
#
# 1 48.1045 15.8041 22.0433 15.0998 -19.1712 -0.9608
# 2 15.8041 32.3033 22.3975 10.4795 -11.9312 -1.8147
# 3 22.0433 22.3975 131.8334 13.9142 -25.2392 -11.0650
# 4 15.0998 10.4795 13.9142 21.3285 -3.2222 -3.5453
# 5 -19.1712 -11.9312 -25.2392 -3.2222 33.0608 1.0095
# 6 -0.9608 -1.8147 -11.0650 -3.5453 1.0095 8.4377
#
#
#
# Elastic Compliance Matrix: (Units=1/GPa)
#
#
# Indices 1 2 3 4 5 6 
#
# 1 0.035899 -0.004372 -0.000410 -0.021854 0.017059 -0.008614
# 2 -0.004372 0.043712 -0.003631 -0.015193 0.009088 -0.003330
# 3 -0.000410 -0.003631 0.010597 -0.002021 0.005993 0.011503
# 4 -0.021854 -0.015193 -0.002021 0.073104 -0.013303 0.023901
# 5 0.017059 0.009088 0.005993 -0.013303 0.046680 0.000582
# 6 -0.008614 -0.003330 0.011503 0.023901 0.000582 0.141877
#
#
# Mechanical properties :
#
#
# Convention : Reuss Voigt Hill
#
# Bulk Modulus (GPa) = 13.62768 36.97011 25.29889
# Shear Modulus (GPa) = 12.71758 22.69847 17.70802
#
# Velocity S-wave (km/s) = 2.58085 3.44793 3.04541
# Velocity P-wave (km/s) = 4.00231 5.93413 5.06124
#
# Compressibility (1/GPa) = 0.07338008
#
# Stress axis : x y z
#
# Youngs Moduli (GPa) = 27.85609 22.87698 94.36581
#
# Poissons Ratio (x) = 0.10003 0.03871
# Poissons Ratio (y) = 0.12180 0.34267
# Poissons Ratio (z) = 0.01143 0.08307
#
# Static dielectric constant tensor:
#      x y z
#    x 1.707750 0.002630 -0.005380 
#    y 0.002630 1.622500 -0.004420 
#    z -0.005380 -0.004420 1.764160 
# 
# From -- ./inp_files/395733.got.cif
#   From: 2010.05.17/outbox.cif.g08.bks.cpg/sg2_198_cif.got.tgz:395733.got - 2010.06.03 11:33:40.
