data_PCOD9080607
_publ_section_title
;
Structure prediction by ZEFSAII (Michael W. Deem and Ramdas Pophale) SiO2 
 PCOD9080607
Probable space group: P -1
;
_chemical_formula_sum "Si O2"
_cell_formula_units_Z 15
_cell_length_a 8.646145
_cell_length_b 9.685322
_cell_length_c 10.598815
_cell_angle_alpha 70.033883
_cell_angle_beta 76.603134
_cell_angle_gamma 45.493499
_cell_volume 594.892236
_symmetry_space_group_name_H-M "P -1"
_symmetry_group_IT_number 2
_symmetry_cell_setting 'triclinic'
loop_
_space_group_symop_operation_xyz
x,y,z
-x,-y,-z
loop_
_atom_site_type_symbol
_atom_site_label
_atom_site_fract_x
_atom_site_fract_y
_atom_site_fract_z
Si Si1 0.167024 0.667148 0.761022
Si Si2 0.463062 0.396961 0.400655
Si Si3 0.274482 0.022416 0.406302
Si Si4 0.577961 0.778961 0.790203
Si Si5 0.000000 0.500000 0.000000
Si Si6 0.017260 0.316686 0.585346
Si Si7 0.221173 0.813954 0.951216
Si Si8 0.943152 0.353262 0.874710
O O1 0.954402 0.834957 0.666700
O O2 0.159821 0.512635 0.873624
O O3 0.387534 0.560681 0.676851
O O4 0.174611 0.789348 0.827423
O O5 0.422603 0.316200 0.309942
O O6 0.222838 0.592827 0.426689
O O7 0.594964 0.208585 0.528402
O O8 0.418526 0.055035 0.299767
O O9 0.201638 0.127285 0.526034
O O10 0.399985 0.825389 0.902268
O O11 0.817797 0.587863 0.861914
O O12 0.103682 0.274559 0.983703
O O13 0.043034 0.282333 0.741363
O O14 0.000000 0.500000 0.500000
O O15 0.251773 0.641612 0.073903
O O16 0.000000 0.000000 0.000000
#
# Coordination Sequence:
#
# PCOD9080607 Si02
#       8
#     2   2   2   2   1   2   2   2
#     4  10  22  41  64  95 128 175 210 263 340 368
#     4  10  23  39  62  98 130 168 213 264 320 393
#     4  12  22  41  68  92 139 168 207 273 327 385
#     4  10  20  39  62  91 120 170 214 255 330 375
#     4  10  18  40  66  84 128 170 210 270 318 378
#     4  11  22  38  64 100 123 168 225 252 325 390
#     4  10  23  39  65  90 126 164 222 267 314 385
#     4  10  20  37  64  91 122 166 213 266 314 384
#
# _framework density 25.214651
#
# number of rings (size 3 to 8) (size 9 to 14) (size 15 to 20)
#    0.000    1.600    4.000    1.200    3.733    1.600 
#    0.000    0.667    8.800    0.000    0.000    0.000 
#    0.000    0.000    0.000    0.000    0.000    0.000 
#
# Total GULP energy -83700.242391 kJ/mol
# GULP energy per Si atom -5580.016159 kJ/mol
# Density = 2.515726 g / cm^3
# Si number density = 25.214651 Si / 1000 Ang^3
#
#
#
# Elastic Constant Matrix: (Units=GPa)
#
#
# Indices 1 2 3 4 5 6 
#
# 1 125.7443 21.6625 60.9695 8.8667 -32.1363 -18.8421
# 2 21.6625 80.1865 27.8246 6.8888 -14.4206 -9.1134
# 3 60.9695 27.8246 132.9513 6.6620 -26.9064 -3.4546
# 4 8.8667 6.8888 6.6620 39.1527 -6.3907 1.2652
# 5 -32.1363 -14.4206 -26.9064 -6.3907 66.4646 5.5527
# 6 -18.8421 -9.1134 -3.4546 1.2652 5.5527 30.5735
#
#
#
# Elastic Compliance Matrix: (Units=1/GPa)
#
#
# Indices 1 2 3 4 5 6 
#
# 1 0.012125 -0.000231 -0.004606 -0.001594 0.003263 0.006356
# 2 -0.000231 0.014206 -0.002369 -0.001913 0.001525 0.003627
# 3 -0.004606 -0.002369 0.010401 0.000054 0.001699 -0.002680
# 4 -0.001594 -0.001913 0.000054 0.026592 0.001639 -0.002945
# 5 0.003263 0.001525 0.001699 0.001639 0.017854 -0.000653
# 6 0.006356 0.003627 -0.002680 -0.002945 -0.000653 0.037644
#
#
# Mechanical properties :
#
#
# Convention : Reuss Voigt Hill
#
# Bulk Modulus (GPa) = 44.80276 62.19949 53.50112
# Shear Modulus (GPa) = 35.54323 42.46653 39.00488
#
# Velocity S-wave (km/s) = 3.75857 4.10835 3.93735
# Velocity P-wave (km/s) = 6.05334 6.87214 6.47569
#
# Compressibility (1/GPa) = 0.02232005
#
# Stress axis : x y z
#
# Youngs Moduli (GPa) = 82.47545 70.39329 96.14349
#
# Poissons Ratio (x) = 0.01625 0.44288
# Poissons Ratio (y) = 0.01904 0.22772
# Poissons Ratio (z) = 0.37992 0.16673
#
# Static dielectric constant tensor:
#      x y z
#    x 2.203680 0.075910 0.034200 
#    y 0.075910 2.189960 -0.120420 
#    z 0.034200 -0.120420 2.167350 
# 
# From -- ./inp_files/212852.got.cif
#   From: 2010.05.17/outbox.cif.g08.bks.cpg/sg2_107_cif.got.tgz:212852.got - 2010.06.03 11:33:40.
