data_PCOD9080829
_publ_section_title
;
Structure prediction by ZEFSAII (Michael W. Deem and Ramdas Pophale) SiO2 
 PCOD9080829
Probable space group: P -1
;
_chemical_formula_sum "Si O2"
_cell_formula_units_Z 12
_cell_length_a 9.973561
_cell_length_b 11.726527
_cell_length_c 8.474328
_cell_angle_alpha 38.858827
_cell_angle_beta 101.843324
_cell_angle_gamma 127.983041
_cell_volume 408.013370
_symmetry_space_group_name_H-M "P -1"
_symmetry_group_IT_number 2
_symmetry_cell_setting 'triclinic'
loop_
_space_group_symop_operation_xyz
x,y,z
-x,-y,-z
loop_
_atom_site_type_symbol
_atom_site_label
_atom_site_fract_x
_atom_site_fract_y
_atom_site_fract_z
Si Si1 0.486809 0.765676 0.251638
Si Si2 0.009067 0.304790 0.649130
Si Si3 0.527255 0.854066 0.830198
Si Si4 0.551812 0.306555 0.342335
Si Si5 0.946235 0.684686 0.698495
Si Si6 0.980891 0.131844 0.162073
O O1 0.246498 0.482734 0.498485
O O2 0.575466 0.802967 0.062184
O O3 0.559655 0.768024 0.437742
O O4 0.500000 0.000000 0.000000
O O5 0.937012 0.238576 0.520612
O O6 0.000000 0.500000 0.500000
O O7 0.923193 0.114695 0.985187
O O8 0.277173 0.623962 0.022334
O O9 0.562415 0.779242 0.757937
O O10 0.594654 0.130546 0.545123
O O11 0.769998 0.617852 0.055915
O O12 0.050332 0.759908 0.814141
O O13 0.908628 0.863220 0.483812
#
# Coordination Sequence:
#
# PCOD9080829 Si02
#       6
#     2   2   2   2   2   2
#     4   8  14  25  40  59  82 110 145 180 213 255
#     4  10  19  29  44  69  97 120 147 188 234 273
#     4   8  13  22  38  61  83 104 138 182 219 251
#     4   8  13  22  38  61  83 104 138 182 219 251
#     4   9  17  29  45  66  91 119 152 188 225 268
#     4   9  17  29  45  66  91 119 152 188 225 268
#
# _framework density 29.410803000000001
#
# number of rings (size 3 to 8) (size 9 to 14) (size 15 to 20)
#    0.000    3.333    0.000    0.500    0.000    0.667 
#    0.000    0.000    0.000    0.000    0.000   74.667 
#    0.000  122.667    0.000    0.000    0.000    0.000 
#
# Total GULP energy -67197.776967 kJ/mol
# GULP energy per Si atom -5599.814747 kJ/mol
# Density = 2.934386 g / cm^3
# Si number density = 29.410803 Si / 1000 Ang^3
#
#
#
# Elastic Constant Matrix: (Units=GPa)
#
#
# Indices 1 2 3 4 5 6 
#
# 1 72.3756 50.2548 43.9242 15.5229 -0.5382 -0.6204
# 2 50.2548 238.4392 43.5594 80.4991 1.6247 14.5501
# 3 43.9242 43.5594 146.0416 37.6371 -18.4678 -2.0899
# 4 15.5229 80.4991 37.6371 86.0546 -23.6771 -12.9937
# 5 -0.5382 1.6247 -18.4678 -23.6771 44.0625 13.8538
# 6 -0.6204 14.5501 -2.0899 -12.9937 13.8538 46.7255
#
#
#
# Elastic Compliance Matrix: (Units=1/GPa)
#
#
# Indices 1 2 3 4 5 6 
#
# 1 0.019441 -0.004221 -0.005437 0.002887 -0.001108 0.002461
# 2 -0.004221 0.008191 0.000568 -0.008726 -0.003562 -0.003952
# 3 -0.005437 0.000568 0.009445 -0.003183 0.002630 -0.001492
# 4 0.002887 -0.008726 -0.003183 0.024408 0.010127 0.006398
# 5 -0.001108 -0.003562 0.002630 0.010127 0.030978 -0.005157
# 6 0.002461 -0.003952 -0.001492 0.006398 -0.005157 0.025906
#
#
# Mechanical properties :
#
#
# Convention : Reuss Voigt Hill
#
# Bulk Modulus (GPa) = 52.91752 81.37035 67.14394
# Shear Modulus (GPa) = 35.00207 56.64305 45.82256
#
# Velocity S-wave (km/s) = 3.45354 4.39330 3.95146
# Velocity P-wave (km/s) = 5.82530 7.31175 6.61044
#
# Compressibility (1/GPa) = 0.01889733
#
# Stress axis : x y z
#
# Youngs Moduli (GPa) = 51.43643 122.07904 105.87956
#
# Poissons Ratio (x) = 0.51536 0.57567
# Poissons Ratio (y) = 0.21714 -0.06018
# Poissons Ratio (z) = 0.27966 -0.06939
#
# Static dielectric constant tensor:
#      x y z
#    x 2.422990 0.383400 0.075300 
#    y 0.383400 2.820910 0.253170 
#    z 0.075300 0.253170 2.301340 
# 
# From -- ./inp_files/74356.got.cif
#   From: 2010.05.17/outbox.cif.g08.bks.cpg/sg2_38_cif.got.tgz:74356.got - 2010.06.03 11:33:40.
