data_PCOD9080527
_publ_section_title
;
Structure prediction by ZEFSAII (Michael W. Deem and Ramdas Pophale) SiO2 
 PCOD9080527
Probable space group: P -1
;
_chemical_formula_sum "Si O2"
_cell_formula_units_Z 16
_cell_length_a 14.719348
_cell_length_b 9.299117
_cell_length_c 11.623148
_cell_angle_alpha 143.852066
_cell_angle_beta 104.399603
_cell_angle_gamma 80.309888
_cell_volume 907.499097
_symmetry_space_group_name_H-M "P -1"
_symmetry_group_IT_number 2
_symmetry_cell_setting 'triclinic'
loop_
_space_group_symop_operation_xyz
x,y,z
-x,-y,-z
loop_
_atom_site_type_symbol
_atom_site_label
_atom_site_fract_x
_atom_site_fract_y
_atom_site_fract_z
Si Si1 0.493687 0.358712 0.032012
Si Si2 0.111381 0.847924 0.001479
Si Si3 0.115614 0.943564 0.593239
Si Si4 0.004641 0.405645 0.810058
Si Si5 0.013428 0.791469 0.697951
Si Si6 0.686979 0.338687 0.001677
Si Si7 0.408879 0.816256 0.364993
Si Si8 0.681268 0.898576 0.280860
O O1 0.452006 0.554255 0.230355
O O2 0.586392 0.854109 0.147396
O O3 0.500000 0.500000 0.000000
O O4 0.601435 0.298350 0.040197
O O5 0.084444 0.872706 0.875778
O O6 0.042529 0.628197 0.887366
O O7 0.216818 0.771766 0.002438
O O8 0.082587 0.083664 0.216803
O O9 0.091107 0.723691 0.353914
O O10 0.055680 0.885229 0.651200
O O11 0.225491 0.995403 0.683484
O O12 0.077101 0.191147 0.689352
O O13 0.000000 0.500000 0.000000
O O14 0.000000 0.500000 0.500000
O O15 0.649826 0.211855 0.789635
O O16 0.700096 0.629515 0.165465
O O17 0.500000 0.000000 0.500000
O O18 0.344127 0.919459 0.508488
#
# Coordination Sequence:
#
# PCOD9080527 Si02
#       8
#     2   2   2   2   2   2   2   2
#     4   8  16  29  45  77 116 137 175 220 277 339
#     4  11  23  39  61  80 113 153 193 239 282 335
#     4  11  23  35  59  82 116 152 187 235 285 341
#     4  11  22  36  55  88 114 137 187 244 288 329
#     4  11  24  44  56  76 114 158 201 232 278 342
#     4  10  19  30  53  84 111 141 185 228 282 336
#     4  10  15  28  48  77 120 148 167 222 287 336
#     4  10  18  30  50  83 115 145 175 225 285 333
#
# _framework density 17.630870999999999
#
# number of rings (size 3 to 8) (size 9 to 14) (size 15 to 20)
#    0.000    2.000    7.500    0.000    1.750    1.000 
#    0.000    0.000    0.000    0.750    0.000    1.750 
#    0.000    0.000    0.000    0.000    0.000    0.000 
#
# Total GULP energy -89139.487031 kJ/mol
# GULP energy per Si atom -5571.217939 kJ/mol
# Density = 1.759074 g / cm^3
# Si number density = 17.630871 Si / 1000 Ang^3
#
#
#
# Elastic Constant Matrix: (Units=GPa)
#
#
# Indices 1 2 3 4 5 6 
#
# 1 107.5478 14.3544 38.6775 1.6463 4.7568 -23.0572
# 2 14.3544 35.2836 14.1089 2.1781 -5.7373 -4.5968
# 3 38.6775 14.1089 102.7717 1.5067 -10.5019 -4.5384
# 4 1.6463 2.1781 1.5067 22.1021 -0.6559 -4.2468
# 5 4.7568 -5.7373 -10.5019 -0.6559 30.9560 2.7394
# 6 -23.0572 -4.5968 -4.5384 -4.2468 2.7394 22.3155
#
#
#
# Elastic Compliance Matrix: (Units=1/GPa)
#
#
# Indices 1 2 3 4 5 6 
#
# 1 0.015033 -0.003191 -0.005198 0.002250 -0.005942 0.014975
# 2 -0.003191 0.031875 -0.002522 -0.002252 0.005347 0.001671
# 3 -0.005198 -0.002522 0.012361 -0.000857 0.004873 -0.004138
# 4 0.002250 -0.002252 -0.000857 0.047409 -0.001008 0.010833
# 5 -0.005942 0.005347 0.004873 -0.001008 0.036613 -0.008734
# 6 0.014975 0.001671 -0.004138 0.010833 -0.008734 0.062921
#
#
# Mechanical properties :
#
#
# Convention : Reuss Voigt Hill
#
# Bulk Modulus (GPa) = 26.70553 42.20940 34.45747
# Shear Modulus (GPa) = 20.78878 26.97221 23.88049
#
# Velocity S-wave (km/s) = 3.43755 3.91555 3.68431
# Velocity P-wave (km/s) = 5.56197 6.66593 6.13882
#
# Compressibility (1/GPa) = 0.03744542
#
# Stress axis : x y z
#
# Youngs Moduli (GPa) = 66.52253 31.37297 80.90241
#
# Poissons Ratio (x) = 0.10012 0.42055
# Poissons Ratio (y) = 0.21229 0.20401
# Poissons Ratio (z) = 0.34580 0.07911
#
# Static dielectric constant tensor:
#      x y z
#    x 1.640180 -0.021510 -0.006310 
#    y -0.021510 1.595980 -0.001520 
#    z -0.006310 -0.001520 1.634690 
# 
# From -- ./inp_files/446498.got.cif
#   From: 2010.05.17/outbox.cif.g08.bks.cpg/sg2_224_cif.got.tgz:446498.got - 2010.06.03 11:33:40.
