data_PCOD9080066
_publ_section_title
;
Structure prediction by ZEFSAII (Michael W. Deem and Ramdas Pophale) SiO2 
 PCOD9080066
Probable space group: P -1
;
_chemical_formula_sum "Si O2"
_cell_formula_units_Z 16
_cell_length_a 15.372332
_cell_length_b 9.115256
_cell_length_c 8.205895
_cell_angle_alpha 94.708456
_cell_angle_beta 123.853135
_cell_angle_gamma 56.537071
_cell_volume 753.406183
_symmetry_space_group_name_H-M "P -1"
_symmetry_group_IT_number 2
_symmetry_cell_setting 'triclinic'
loop_
_space_group_symop_operation_xyz
x,y,z
-x,-y,-z
loop_
_atom_site_type_symbol
_atom_site_label
_atom_site_fract_x
_atom_site_fract_y
_atom_site_fract_z
Si Si1 0.193685 0.523580 0.942664
Si Si2 0.120490 0.252492 0.771371
Si Si3 0.968789 0.897161 0.580651
Si Si4 0.581759 0.088594 0.903439
Si Si5 0.578795 0.284612 0.605067
Si Si6 0.866225 0.034680 0.809206
Si Si7 0.495876 0.185441 0.190700
Si Si8 0.975228 0.351936 0.934057
O O1 0.135694 0.415579 0.808082
O O2 0.106885 0.724919 0.788118
O O3 0.159568 0.565604 0.104027
O O4 0.348422 0.382233 0.058120
O O5 0.094908 0.194313 0.570701
O O6 0.999542 0.304093 0.765535
O O7 0.260678 0.071756 0.966017
O O8 0.000000 0.000000 0.500000
O O9 0.865906 0.049993 0.617602
O O10 0.537668 0.234144 0.723459
O O11 0.517240 0.980574 0.815400
O O12 0.554611 0.163100 0.068756
O O13 0.500000 0.500000 0.500000
O O14 0.733494 0.192243 0.772772
O O15 0.568053 0.189264 0.425117
O O16 0.904907 0.833574 0.867846
O O17 0.000000 0.000000 0.000000
O O18 0.000000 0.500000 0.000000
#
# Coordination Sequence:
#
# PCOD9080066 Si02
#       8
#     2   2   2   2   2   2   2   2
#     4   9  21  37  60  89 127 158 202 273 320 385
#     4  10  18  38  62  90 120 157 216 261 331 376
#     4  11  23  35  60  90 122 168 207 262 325 383
#     4  10  22  44  71  93 129 179 216 292 327 389
#     4  12  27  42  67 100 136 183 224 268 337 411
#     4  11  24  43  60  88 130 168 214 264 322 389
#     4  10  23  45  67  97 130 171 232 274 336 394
#     4   9  18  36  64  88 116 160 203 265 323 368
#
# _framework density 21.236884
#
# number of rings (size 3 to 8) (size 9 to 14) (size 15 to 20)
#    0.000    1.750    1.250    2.250    3.500    1.500 
#    2.250    0.000    0.000    0.000    0.000    0.000 
#    0.000    0.000    0.000    0.000    0.000    0.000 
#
# Total GULP energy -89255.406077 kJ/mol
# GULP energy per Si atom -5578.462880 kJ/mol
# Density = 2.118855 g / cm^3
# Si number density = 21.236884 Si / 1000 Ang^3
#
#
#
# Elastic Constant Matrix: (Units=GPa)
#
#
# Indices 1 2 3 4 5 6 
#
# 1 112.6906 48.5321 37.2875 -5.0259 -24.1444 -9.3778
# 2 48.5321 84.1199 28.2131 -16.5754 -10.5014 -4.2670
# 3 37.2875 28.2131 72.2904 9.4486 -11.1869 11.5089
# 4 -5.0259 -16.5754 9.4486 48.6289 1.4890 -10.0730
# 5 -24.1444 -10.5014 -11.1869 1.4890 36.1577 1.0009
# 6 -9.3778 -4.2670 11.5089 -10.0730 1.0009 28.1146
#
#
#
# Elastic Compliance Matrix: (Units=1/GPa)
#
#
# Indices 1 2 3 4 5 6 
#
# 1 0.015297 -0.004931 -0.006534 0.002572 0.006441 0.007721
# 2 -0.004931 0.019385 -0.007535 0.009172 -0.000585 0.007689
# 3 -0.006534 -0.007535 0.024853 -0.011827 0.002118 -0.017810
# 4 0.002572 0.009172 -0.011827 0.029987 -0.001007 0.017871
# 5 0.006441 -0.000585 0.002118 -0.001007 0.032493 -0.000325
# 6 0.007721 0.007689 -0.017810 0.017871 -0.000325 0.053016
#
#
# Mechanical properties :
#
#
# Convention : Reuss Voigt Hill
#
# Bulk Modulus (GPa) = 46.44008 55.24072 50.84040
# Shear Modulus (GPa) = 22.70564 32.91812 27.81188
#
# Velocity S-wave (km/s) = 3.27335 3.94133 3.62277
# Velocity P-wave (km/s) = 6.01677 6.83961 6.44134
#
# Compressibility (1/GPa) = 0.02153313
#
# Stress axis : x y z
#
# Youngs Moduli (GPa) = 65.37263 51.58758 40.23653
#
# Poissons Ratio (x) = 0.25440 0.26291
# Poissons Ratio (y) = 0.32238 0.30319
# Poissons Ratio (z) = 0.42715 0.38872
#
# Static dielectric constant tensor:
#      x y z
#    x 1.820490 0.001910 -0.016600 
#    y 0.001910 1.779650 0.042060 
#    z -0.016600 0.042060 1.791380 
# 
# From -- ./inp_files/295596.got.cif
#   From: 2010.05.17/outbox.cif.g08.bks.cpg/sg2_148_cif.got.tgz:295596.got - 2010.06.03 11:33:40.
