data_PCOD9080428
_publ_section_title
;
Structure prediction by ZEFSAII (Michael W. Deem and Ramdas Pophale) SiO2 
 PCOD9080428
Probable space group: P -1
;
_chemical_formula_sum "Si O2"
_cell_formula_units_Z 16
_cell_length_a 9.509211
_cell_length_b 13.703489
_cell_length_c 7.910983
_cell_angle_alpha 109.032964
_cell_angle_beta 113.139494
_cell_angle_gamma 42.743954
_cell_volume 642.226944
_symmetry_space_group_name_H-M "P -1"
_symmetry_group_IT_number 2
_symmetry_cell_setting 'triclinic'
loop_
_space_group_symop_operation_xyz
x,y,z
-x,-y,-z
loop_
_atom_site_type_symbol
_atom_site_label
_atom_site_fract_x
_atom_site_fract_y
_atom_site_fract_z
Si Si1 0.295412 0.068633 0.751981
Si Si2 0.859253 0.626066 0.746401
Si Si3 0.190481 0.929673 0.422444
Si Si4 0.083799 0.721392 0.044078
Si Si5 0.535437 0.413217 0.629616
Si Si6 0.267062 0.829080 0.048484
Si Si7 0.284545 0.379369 0.661721
Si Si8 0.549706 0.808068 0.961542
O O1 0.085301 0.162901 0.826438
O O2 0.260722 0.013901 0.542240
O O3 0.489852 0.917854 0.849094
O O4 0.361659 0.157771 0.830322
O O5 0.725795 0.690273 0.545503
O O6 0.721753 0.656288 0.861008
O O7 0.066943 0.461951 0.704728
O O8 0.967740 0.681507 0.881600
O O9 0.343611 0.756050 0.432428
O O10 0.149941 0.943265 0.210046
O O11 0.000000 0.000000 0.500000
O O12 0.308008 0.598551 0.177285
O O13 0.153770 0.773326 0.969066
O O14 0.500000 0.500000 0.500000
O O15 0.313253 0.479405 0.644017
O O16 0.513884 0.711562 0.169301
O O17 0.325793 0.858831 0.923282
#
# Coordination Sequence:
#
# PCOD9080428 Si02
#       8
#     2   2   2   2   2   2   2   2
#     4  10  19  40  61  88 126 169 203 257 321 375
#     4  10  20  43  60  86 122 177 202 254 322 381
#     4  10  18  39  65  86 126 171 201 257 315 370
#     4   9  20  40  66  87 130 165 209 261 321 373
#     4  10  21  40  63  98 129 163 214 267 314 381
#     4  10  21  38  62  95 122 163 212 267 312 377
#     4   9  21  42  63  83 130 170 211 261 323 383
#     4  10  22  36  62  91 126 157 211 265 314 377
#
# _framework density 24.913309999999999
#
# number of rings (size 3 to 8) (size 9 to 14) (size 15 to 20)
#    0.000    2.500    2.500    1.500    0.000    3.500 
#   18.000    2.500    0.000    0.000    0.000    0.000 
#    0.000    0.000    0.000    0.000    0.000    0.000 
#
# Total GULP energy -89189.491050 kJ/mol
# GULP energy per Si atom -5574.343191 kJ/mol
# Density = 2.485661 g / cm^3
# Si number density = 24.913310 Si / 1000 Ang^3
#
#
#
# Elastic Constant Matrix: (Units=GPa)
#
#
# Indices 1 2 3 4 5 6 
#
# 1 142.4160 24.0300 17.8487 14.8983 3.6440 -13.8824
# 2 24.0300 49.1049 10.3407 0.4787 -9.8514 -6.6868
# 3 17.8487 10.3407 83.4389 24.9411 26.5210 2.4459
# 4 14.8983 0.4787 24.9411 36.3235 -6.2534 -5.4052
# 5 3.6440 -9.8514 26.5210 -6.2534 41.1259 1.7013
# 6 -13.8824 -6.6868 2.4459 -5.4052 1.7013 42.7942
#
#
#
# Elastic Compliance Matrix: (Units=1/GPa)
#
#
# Indices 1 2 3 4 5 6 
#
# 1 0.008391 -0.004815 0.001231 -0.004601 -0.003451 0.001455
# 2 -0.004815 0.029315 -0.012364 0.013770 0.017318 0.004776
# 3 0.001231 -0.012364 0.029184 -0.025587 -0.025557 -0.005416
# 4 -0.004601 0.013770 -0.025587 0.052752 0.027910 0.007675
# 5 -0.003451 0.017318 -0.025557 0.027910 0.049304 0.004613
# 6 0.001455 0.004776 -0.005416 0.007675 0.004613 0.025682
#
#
# Mechanical properties :
#
#
# Convention : Reuss Voigt Hill
#
# Bulk Modulus (GPa) = 28.57493 42.15539 35.36516
# Shear Modulus (GPa) = 20.99178 38.89806 29.94492
#
# Velocity S-wave (km/s) = 2.90589 3.95566 3.47070
# Velocity P-wave (km/s) = 4.77007 6.14984 5.50337
#
# Compressibility (1/GPa) = 0.03499571
#
# Stress axis : x y z
#
# Youngs Moduli (GPa) = 119.17102 34.11238 34.26504
#
# Poissons Ratio (x) = 0.16425 -0.04219
# Poissons Ratio (y) = 0.57379 0.42364
# Poissons Ratio (z) = -0.14672 0.42175
#
# Static dielectric constant tensor:
#      x y z
#    x 2.081500 -0.054390 -0.067720 
#    y -0.054390 2.110650 -0.008890 
#    z -0.067720 -0.008890 2.074510 
# 
# From -- ./inp_files/208475.got.cif
#   From: 2010.05.17/outbox.cif.g08.bks.cpg/sg2_105_cif.got.tgz:208475.got - 2010.06.03 11:33:40.
