data_PCOD9080770
_publ_section_title
;
Structure prediction by ZEFSAII (Michael W. Deem and Ramdas Pophale) SiO2 
 PCOD9080770
Probable space group: P -1
;
_chemical_formula_sum "Si O2"
_cell_formula_units_Z 14
_cell_length_a 17.763604
_cell_length_b 8.282869
_cell_length_c 7.490372
_cell_angle_alpha 71.174130
_cell_angle_beta 149.348155
_cell_angle_gamma 112.252117
_cell_volume 520.010118
_symmetry_space_group_name_H-M "P -1"
_symmetry_group_IT_number 2
_symmetry_cell_setting 'triclinic'
loop_
_space_group_symop_operation_xyz
x,y,z
-x,-y,-z
loop_
_atom_site_type_symbol
_atom_site_label
_atom_site_fract_x
_atom_site_fract_y
_atom_site_fract_z
Si Si1 0.621666 0.892224 0.017786
Si Si2 0.215288 0.554384 0.591263
Si Si3 0.357695 0.743470 0.172035
Si Si4 0.244766 0.156993 0.076966
Si Si5 0.148514 0.928574 0.279298
Si Si6 0.500000 0.500000 0.000000
Si Si7 0.978328 0.327033 0.396756
Si Si8 0.500000 0.500000 0.500000
O O1 0.736146 0.982768 0.367667
O O2 0.710652 0.862007 0.030273
O O3 0.525820 0.720380 0.973141
O O4 0.553348 0.064058 0.761971
O O5 0.323003 0.488359 0.698073
O O6 0.070384 0.400475 0.383554
O O7 0.148344 0.724640 0.366036
O O8 0.328025 0.607589 0.984383
O O9 0.440689 0.616800 0.498731
O O10 0.198119 0.748452 0.928566
O O11 0.218803 0.991566 0.209663
O O12 0.368465 0.320391 0.346090
O O13 0.078964 0.203013 0.726825
O O14 0.000000 0.000000 0.000000
O O15 0.000000 0.500000 0.500000
#
# Coordination Sequence:
#
# PCOD9080770 Si02
#       8
#     2   2   2   2   2   1   2   1
#     4  11  27  48  75 105 157 198 242 318 382 447
#     4  10  22  45  70 104 152 201 241 314 385 442
#     4  10  23  42  74 105 145 199 247 315 380 445
#     4  12  25  46  75 112 146 196 255 306 380 456
#     4  11  27  47  79 112 146 196 261 316 377 453
#     4  12  24  46  70 106 152 206 246 298 384 460
#     4  10  18  43  75 101 142 199 246 302 390 442
#     4  12  24  40  72 114 140 192 262 298 364 460
#
# _framework density 26.922552
#
# number of rings (size 3 to 8) (size 9 to 14) (size 15 to 20)
#    0.000    1.143    4.286    2.571    6.000    4.000 
#    2.571    0.714    0.000    0.000    0.000    0.000 
#    0.000    0.000    0.000    0.000    0.000    0.000 
#
# Total GULP energy -77940.126090 kJ/mol
# GULP energy per Si atom -5567.151864 kJ/mol
# Density = 2.686127 g / cm^3
# Si number density = 26.922552 Si / 1000 Ang^3
#
#
#
# Elastic Constant Matrix: (Units=GPa)
#
#
# Indices 1 2 3 4 5 6 
#
# 1 95.0557 11.7571 19.8045 -1.7293 16.9154 15.3579
# 2 11.7571 185.4219 31.1489 -24.1423 14.6877 29.0831
# 3 19.8045 31.1489 75.6549 -1.3804 26.0539 -8.1204
# 4 -1.7293 -24.1423 -1.3804 33.6278 -3.0731 13.2890
# 5 16.9154 14.6877 26.0539 -3.0731 59.5816 10.8820
# 6 15.3579 29.0831 -8.1204 13.2890 10.8820 42.7624
#
#
#
# Elastic Compliance Matrix: (Units=1/GPa)
#
#
# Indices 1 2 3 4 5 6 
#
# 1 0.012808 0.002074 -0.004988 0.005323 -0.000125 -0.008580
# 2 0.002074 0.009939 -0.006927 0.012585 0.003109 -0.013522
# 3 -0.004988 -0.006927 0.022638 -0.012077 -0.010547 0.017238
# 4 0.005323 0.012585 -0.012077 0.051671 0.009016 -0.031116
# 5 -0.000125 0.003109 -0.010547 0.009016 0.023476 -0.012848
# 6 -0.008580 -0.013522 0.017238 -0.031116 -0.012848 0.051876
#
#
# Mechanical properties :
#
#
# Convention : Reuss Voigt Hill
#
# Bulk Modulus (GPa) = 38.90602 53.50594 46.20598
# Shear Modulus (GPa) = 24.91821 46.75582 35.83702
#
# Velocity S-wave (km/s) = 3.04559 4.17187 3.65240
# Velocity P-wave (km/s) = 5.18169 6.56682 5.91494
#
# Compressibility (1/GPa) = 0.02570296
#
# Stress axis : x y z
#
# Youngs Moduli (GPa) = 78.07560 100.61797 44.17408
#
# Poissons Ratio (x) = -0.20873 0.22033
# Poissons Ratio (y) = -0.16196 0.30601
# Poissons Ratio (z) = 0.38942 0.69703
#
# Static dielectric constant tensor:
#      x y z
#    x 5.035230 7.838970 1.761620 
#    y 7.838970 25.533550 5.099220 
#    z 1.761620 5.099220 3.256450 
# 
# From -- ./inp_files/328640.got.cif
#   From: 2010.05.17/outbox.cif.g08.bks.cpg/sg2_165_cif.got.tgz:328640.got - 2010.06.03 11:33:40.
