data_PCOD9080961
_publ_section_title
;
Structure prediction by ZEFSAII (Michael W. Deem and Ramdas Pophale) SiO2 
 PCOD9080961
Probable space group: P -1
;
_chemical_formula_sum "Si O2"
_cell_formula_units_Z 12
_cell_length_a 11.972036
_cell_length_b 13.806749
_cell_length_c 15.510311
_cell_angle_alpha 132.854956
_cell_angle_beta 44.083367
_cell_angle_gamma 159.469916
_cell_volume 625.226523
_symmetry_space_group_name_H-M "P -1"
_symmetry_group_IT_number 2
_symmetry_cell_setting 'triclinic'
loop_
_space_group_symop_operation_xyz
x,y,z
-x,-y,-z
loop_
_atom_site_type_symbol
_atom_site_label
_atom_site_fract_x
_atom_site_fract_y
_atom_site_fract_z
Si Si1 0.684922 0.255933 0.464790
Si Si2 0.722321 0.780706 0.334494
Si Si3 0.543061 0.336332 0.919247
Si Si4 0.821789 0.281644 0.662944
Si Si5 0.899484 0.846303 0.085682
Si Si6 0.224942 0.311688 0.464713
O O1 0.424746 0.182574 0.587763
O O2 0.000000 0.500000 0.500000
O O3 0.860131 0.416341 0.373573
O O4 0.471222 0.968979 0.395324
O O5 0.849635 0.809637 0.193242
O O6 0.423061 0.490798 0.374807
O O7 0.015220 0.028069 0.389618
O O8 0.667171 0.276138 0.809808
O O9 0.367357 0.251460 0.874805
O O10 0.830675 0.650890 0.967632
O O11 0.263064 0.153669 0.037511
O O12 0.968872 0.246623 0.589727
O O13 0.500000 0.500000 0.500000
#
# Coordination Sequence:
#
# PCOD9080961 Si02
#       6
#     2   2   2   2   2   2
#     4  10  19  30  49  76 105 131 162 210 259 309
#     4  10  20  34  54  78 103 134 173 213 259 310
#     4  10  20  33  51  75 108 143 170 198 242 307
#     4  10  20  33  51  75 101 135 172 208 256 307
#     4  10  20  33  51  76 107 142 170 199 244 306
#     4  10  21  37  57  77  99 132 174 226 272 300
#
# _framework density 19.193044
#
# number of rings (size 3 to 8) (size 9 to 14) (size 15 to 20)
#    0.000    2.000    0.000    4.000    0.000    5.333 
#    0.000    0.000    0.000    6.000    0.000    0.000 
#    0.000    0.000    0.000    0.000    0.000    0.000 
#
# Total GULP energy -66925.528530 kJ/mol
# GULP energy per Si atom -5577.127378 kJ/mol
# Density = 1.914936 g / cm^3
# Si number density = 19.193044 Si / 1000 Ang^3
#
#
#
# Elastic Constant Matrix: (Units=GPa)
#
#
# Indices 1 2 3 4 5 6 
#
# 1 31.1227 3.2509 18.5084 0.2262 0.7866 12.5272
# 2 3.2509 80.7264 2.9789 9.2235 -3.4518 0.4092
# 3 18.5084 2.9789 68.7400 -3.3590 -1.9702 10.8265
# 4 0.2262 9.2235 -3.3590 16.1261 -5.3966 2.5988
# 5 0.7866 -3.4518 -1.9702 -5.3966 18.1112 1.8248
# 6 12.5272 0.4092 10.8265 2.5988 1.8248 35.9748
#
#
#
# Elastic Compliance Matrix: (Units=1/GPa)
#
#
# Indices 1 2 3 4 5 6 
#
# 1 0.042870 -0.001322 -0.009719 -0.000696 -0.002187 -0.011827
# 2 -0.001322 0.013376 -0.000788 -0.007965 0.000035 0.001119
# 3 -0.009719 -0.000788 0.018057 0.006249 0.004372 -0.002714
# 4 -0.000696 -0.007965 0.006249 0.076885 0.022934 -0.008265
# 5 -0.002187 0.000035 0.004372 0.022934 0.063171 -0.005416
# 6 -0.011827 0.001119 -0.002714 -0.008265 -0.005416 0.033591
#
#
# Mechanical properties :
#
#
# Convention : Reuss Voigt Hill
#
# Bulk Modulus (GPa) = 19.74591 25.56283 22.65437
# Shear Modulus (GPa) = 17.33164 24.43247 20.88205
#
# Velocity S-wave (km/s) = 3.00828 3.57176 3.30206
# Velocity P-wave (km/s) = 4.73041 5.50978 5.13490
#
# Compressibility (1/GPa) = 0.05064339
#
# Stress axis : x y z
#
# Youngs Moduli (GPa) = 23.32647 74.76264 55.38089
#
# Poissons Ratio (x) = 0.09882 0.53827
# Poissons Ratio (y) = 0.03083 0.04365
# Poissons Ratio (z) = 0.22672 0.05893
#
# Static dielectric constant tensor:
#      x y z
#    x 1.704160 0.007470 0.014520 
#    y 0.007470 1.690270 0.011660 
#    z 0.014520 0.011660 1.664990 
# 
# From -- ./inp_files/18514.got.cif
#   From: 2010.05.17/outbox.cif.g08.bks.cpg/sg2_10_cif.got.tgz:18514.got - 2010.06.03 11:33:40.
