data_PCOD9080360
_publ_section_title
;
Structure prediction by ZEFSAII (Michael W. Deem and Ramdas Pophale) SiO2 
 PCOD9080360
Probable space group: P -1
;
_chemical_formula_sum "Si O2"
_cell_formula_units_Z 14
_cell_length_a 15.463923
_cell_length_b 14.606265
_cell_length_c 5.538839
_cell_angle_alpha 97.195283
_cell_angle_beta 70.043322
_cell_angle_gamma 38.457071
_cell_volume 541.958526
_symmetry_space_group_name_H-M "P -1"
_symmetry_group_IT_number 2
_symmetry_cell_setting 'triclinic'
loop_
_space_group_symop_operation_xyz
x,y,z
-x,-y,-z
loop_
_atom_site_type_symbol
_atom_site_label
_atom_site_fract_x
_atom_site_fract_y
_atom_site_fract_z
Si Si1 0.101597 0.140765 0.082020
Si Si2 0.308561 0.229060 0.693621
Si Si3 0.263029 0.700729 0.310755
Si Si4 0.509617 0.759458 0.355634
Si Si5 0.675004 0.422462 0.289522
Si Si6 0.938497 0.478011 0.360698
Si Si7 0.163243 0.997486 0.480719
O O1 0.967702 0.345777 0.355974
O O2 0.113913 0.059551 0.269324
O O3 0.336047 0.956127 0.755495
O O4 0.058695 0.146798 0.848041
O O5 0.329201 0.304373 0.858133
O O6 0.266295 0.310186 0.497597
O O7 0.500000 0.000000 0.500000
O O8 0.119373 0.331621 0.947596
O O9 0.231753 0.665463 0.562238
O O10 0.500000 0.500000 0.000000
O O11 0.203933 0.717416 0.108446
O O12 0.174960 0.879423 0.497079
O O13 0.591217 0.596420 0.357064
O O14 0.392517 0.829207 0.253209
O O15 0.500000 0.500000 0.500000
O O16 0.000000 0.500000 0.500000
#
# Coordination Sequence:
#
# PCOD9080360 Si02
#       7
#     2   2   2   2   2   2   2
#     4  10  21  37  61  90 129 165 225 265 333 397
#     4  11  24  48  67  99 133 176 232 281 344 410
#     4  10  15  28  47  83 132 161 210 267 325 379
#     4  10  21  34  62  94 130 172 224 274 335 394
#     4  10  17  28  50  87 134 164 209 279 319 393
#     4  11  27  44  69  94 138 179 223 288 351 403
#     4  10  19  32  59  92 128 174 216 273 325 399
#
# _framework density 25.832236000000002
#
# number of rings (size 3 to 8) (size 9 to 14) (size 15 to 20)
#    0.857    0.857    4.286    2.571    6.000    1.714 
#    0.000    0.000    0.000    0.000    0.000   11.000 
#    0.000    0.000    0.000    0.000    0.000    0.143 
#
# Total GULP energy -78212.060427 kJ/mol
# GULP energy per Si atom -5586.575745 kJ/mol
# Density = 2.577344 g / cm^3
# Si number density = 25.832236 Si / 1000 Ang^3
#
#
#
# Elastic Constant Matrix: (Units=GPa)
#
#
# Indices 1 2 3 4 5 6 
#
# 1 124.2264 47.7593 -1.0708 -4.7850 25.2757 14.1183
# 2 47.7593 197.7739 10.8243 -3.0153 30.8608 -3.2818
# 3 -1.0708 10.8243 65.5898 -5.0731 6.8217 0.9418
# 4 -4.7850 -3.0153 -5.0731 43.2779 2.2916 12.1349
# 5 25.2757 30.8608 6.8217 2.2916 49.3548 1.6388
# 6 14.1183 -3.2818 0.9418 12.1349 1.6388 59.9990
#
#
#
# Elastic Compliance Matrix: (Units=1/GPa)
#
#
# Indices 1 2 3 4 5 6 
#
# 1 0.010007 -0.001847 0.001100 0.002107 -0.004127 -0.002786
# 2 -0.001847 0.005982 -0.000744 0.000034 -0.002721 0.000841
# 3 0.001100 -0.000744 0.015825 0.002317 -0.002362 -0.000952
# 4 0.002107 0.000034 0.002317 0.025306 -0.002410 -0.005583
# 5 -0.004127 -0.002721 -0.002362 -0.002410 0.024493 0.000678
# 6 -0.002786 0.000841 -0.000952 -0.005583 0.000678 0.018494
#
#
# Mechanical properties :
#
#
# Convention : Reuss Voigt Hill
#
# Bulk Modulus (GPa) = 34.68134 55.84618 45.26376
# Shear Modulus (GPa) = 44.36582 52.53148 48.44865
#
# Velocity S-wave (km/s) = 4.14872 4.51440 4.33542
# Velocity P-wave (km/s) = 6.03357 6.98847 6.52850
#
# Compressibility (1/GPa) = 0.02883395
#
# Stress axis : x y z
#
# Youngs Moduli (GPa) = 99.93107 167.16593 63.18917
#
# Poissons Ratio (x) = 0.30872 -0.06953
# Poissons Ratio (y) = 0.18455 0.04700
# Poissons Ratio (z) = -0.10996 0.12434
#
# Static dielectric constant tensor:
#      x y z
#    x 2.386420 -0.436150 -0.288310 
#    y -0.436150 2.375420 0.253580 
#    z -0.288310 0.253580 2.294580 
# 
# From -- ./inp_files/51436.got.cif
#   From: 2010.05.17/outbox.cif.g08.bks.cpg/sg2_26_cif.got.tgz:51436.got - 2010.06.03 11:33:40.
