data_PCOD9080155
_publ_section_title
;
Structure prediction by ZEFSAII (Michael W. Deem and Ramdas Pophale) SiO2 
 PCOD9080155
Probable space group: P -1
;
_chemical_formula_sum "Si O2"
_cell_formula_units_Z 16
_cell_length_a 12.376763
_cell_length_b 19.814284
_cell_length_c 11.684121
_cell_angle_alpha 45.496485
_cell_angle_beta 60.964748
_cell_angle_gamma 24.766251
_cell_volume 738.493087
_symmetry_space_group_name_H-M "P -1"
_symmetry_group_IT_number 2
_symmetry_cell_setting 'triclinic'
loop_
_space_group_symop_operation_xyz
x,y,z
-x,-y,-z
loop_
_atom_site_type_symbol
_atom_site_label
_atom_site_fract_x
_atom_site_fract_y
_atom_site_fract_z
Si Si1 0.985622 0.423370 0.382745
Si Si2 0.815958 0.166689 0.684378
Si Si3 0.699189 0.727553 0.961357
Si Si4 0.579161 0.239613 0.054888
Si Si5 0.329199 0.373551 0.270290
Si Si6 0.480414 0.762235 0.420085
Si Si7 0.788607 0.400206 0.369728
Si Si8 0.693572 0.899635 0.912424
O O1 0.806000 0.529663 0.465674
O O2 0.030758 0.297138 0.433930
O O3 0.243845 0.321086 0.385673
O O4 0.757809 0.637871 0.160246
O O5 0.749125 0.140118 0.650159
O O6 0.871306 0.233018 0.526614
O O7 0.512221 0.382002 0.658047
O O8 0.091153 0.947549 0.885131
O O9 0.437560 0.850374 0.892185
O O10 0.639028 0.876879 0.850911
O O11 0.000000 0.500000 0.000000
O O12 0.502208 0.273582 0.184921
O O13 0.324173 0.479167 0.836972
O O14 0.486088 0.293697 0.400850
O O15 0.026632 0.643238 0.086096
O O16 0.374608 0.943927 0.257447
O O17 0.500000 0.000000 0.000000
#
# Coordination Sequence:
#
# PCOD9080155 Si02
#       8
#     2   2   2   2   2   2   2   2
#     4   9  18  37  64  89 124 158 206 265 315 360
#     4  10  23  43  61  93 123 170 223 249 308 377
#     4  10  18  38  64  95 128 152 203 265 316 372
#     4  11  22  40  67  92 127 165 206 269 317 371
#     4  11  23  39  63  95 129 162 207 262 329 371
#     4  11  23  41  62  89 130 168 211 262 298 386
#     4   9  21  41  66  88 126 165 210 270 306 369
#     4  11  22  40  65  96 125 167 209 252 325 378
#
# _framework density 21.665741000000001
#
# number of rings (size 3 to 8) (size 9 to 14) (size 15 to 20)
#    0.000    1.750    5.000    0.750    0.000    3.500 
#    4.500    2.500    0.000    0.000    0.000    0.000 
#    0.000    0.000    0.000    0.000    0.000    0.000 
#
# Total GULP energy -89337.285488 kJ/mol
# GULP energy per Si atom -5583.580343 kJ/mol
# Density = 2.161643 g / cm^3
# Si number density = 21.665741 Si / 1000 Ang^3
#
#
#
# Elastic Constant Matrix: (Units=GPa)
#
#
# Indices 1 2 3 4 5 6 
#
# 1 543.6731 -68.3831 146.7507 -153.4986 -37.9316 97.6914
# 2 -68.3831 84.4333 -6.3449 45.5546 16.7238 4.4658
# 3 146.7507 -6.3449 104.3710 -29.1223 -10.8923 35.4601
# 4 -153.4986 45.5546 -29.1223 88.9464 21.0961 -19.2216
# 5 -37.9316 16.7238 -10.8923 21.0961 44.8404 -6.1021
# 6 97.6914 4.4658 35.4601 -19.2216 -6.1021 40.3354
#
#
#
# Elastic Compliance Matrix: (Units=1/GPa)
#
#
# Indices 1 2 3 4 5 6 
#
# 1 0.007565 0.001939 -0.004671 0.008464 -0.000874 -0.010528
# 2 0.001939 0.018919 -0.000546 -0.008062 -0.003204 -0.010637
# 3 -0.004671 -0.000546 0.016965 -0.003655 0.001403 -0.005071
# 4 0.008464 -0.008062 -0.003655 0.029258 -0.004921 -0.003196
# 5 -0.000874 -0.003204 0.001403 -0.004921 0.025794 0.002794
# 6 -0.010528 -0.010637 -0.005071 -0.003196 0.002794 0.054827
#
#
# Mechanical properties :
#
#
# Convention : Reuss Voigt Hill
#
# Bulk Modulus (GPa) = 27.10507 97.39142 62.24825
# Shear Modulus (GPa) = 29.03931 78.85474 53.94703
#
# Velocity S-wave (km/s) = 3.66503 6.03946 4.99537
# Velocity P-wave (km/s) = 5.51794 9.67899 7.87815
#
# Compressibility (1/GPa) = 0.03689347
#
# Stress axis : x y z
#
# Youngs Moduli (GPa) = 132.19566 52.85575 58.94593
#
# Poissons Ratio (x) = -0.10247 0.27532
# Poissons Ratio (y) = -0.25629 0.03216
# Poissons Ratio (z) = 0.61745 0.02884
#
# Static dielectric constant tensor:
#      x y z
#    x 1.825790 -0.003170 -0.018020 
#    y -0.003170 1.621960 0.027880 
#    z -0.018020 0.027880 1.789010 
# 
# From -- ./inp_files/436620.got.cif
#   From: 2010.05.17/outbox.cif.g08.bks.cpg/sg2_219_cif.got.tgz:436620.got - 2010.06.03 11:33:40.
