data_PCOD9080324
_publ_section_title
;
Structure prediction by ZEFSAII (Michael W. Deem and Ramdas Pophale) SiO2 
 PCOD9080324
Probable space group: P -1
;
_chemical_formula_sum "Si O2"
_cell_formula_units_Z 12
_cell_length_a 6.973085
_cell_length_b 8.347796
_cell_length_c 9.824785
_cell_angle_alpha 87.458043
_cell_angle_beta 64.241649
_cell_angle_gamma 61.053057
_cell_volume 440.614388
_symmetry_space_group_name_H-M "P -1"
_symmetry_group_IT_number 2
_symmetry_cell_setting 'triclinic'
loop_
_space_group_symop_operation_xyz
x,y,z
-x,-y,-z
loop_
_atom_site_type_symbol
_atom_site_label
_atom_site_fract_x
_atom_site_fract_y
_atom_site_fract_z
Si Si1 0.999788 0.721289 0.197621
Si Si2 0.478423 0.937023 0.708708
Si Si3 0.036086 0.675838 0.491820
Si Si4 0.635853 0.562738 0.068991
Si Si5 0.737677 0.063709 0.935259
Si Si6 0.231585 0.703798 0.707672
O O1 0.108055 0.694391 0.316365
O O2 0.100355 0.531930 0.089976
O O3 0.704972 0.851743 0.292840
O O4 0.091718 0.845803 0.087255
O O5 0.765626 0.856255 0.597424
O O6 0.415637 0.927442 0.886015
O O7 0.390248 0.805851 0.667690
O O8 0.000000 0.500000 0.500000
O O9 0.216888 0.648458 0.559874
O O10 0.472516 0.786214 0.108363
O O11 0.331365 0.540428 0.795301
O O12 0.500000 0.500000 0.000000
O O13 0.943633 0.860037 0.827951
#
# Coordination Sequence:
#
# PCOD9080324 Si02
#       6
#     2   2   2   2   2   2
#     4  10  20  43  68  98 140 174 220 283 332 394
#     4  11  21  45  73  96 136 180 221 285 334 396
#     4  12  29  44  62 103 144 175 228 280 333 408
#     4  10  18  38  75 101 125 176 225 273 329 402
#     4  10  20  40  77 101 129 174 230 279 329 401
#     4  11  23  46  72  97 136 182 223 275 346 392
#
# _framework density 27.234701000000001
#
# number of rings (size 3 to 8) (size 9 to 14) (size 15 to 20)
#    0.000    1.333    5.000    2.500    2.333    4.000 
#    6.000    1.667    0.000    0.000    0.000    0.000 
#    0.000    0.000    0.000    0.000    0.000    0.000 
#
# Total GULP energy -67288.793572 kJ/mol
# GULP energy per Si atom -5607.399464 kJ/mol
# Density = 2.717271 g / cm^3
# Si number density = 27.234701 Si / 1000 Ang^3
#
#
#
# Elastic Constant Matrix: (Units=GPa)
#
#
# Indices 1 2 3 4 5 6 
#
# 1 144.4122 54.1736 58.8784 3.3834 30.1734 -21.5572
# 2 54.1736 110.6866 36.9739 2.8805 9.2363 -43.3452
# 3 58.8784 36.9739 153.9150 -19.9611 22.6164 -25.6567
# 4 3.3834 2.8805 -19.9611 39.1795 -15.3602 -4.5026
# 5 30.1734 9.2363 22.6164 -15.3602 58.4672 0.6428
# 6 -21.5572 -43.3452 -25.6567 -4.5026 0.6428 64.9040
#
#
#
# Elastic Compliance Matrix: (Units=1/GPa)
#
#
# Indices 1 2 3 4 5 6 
#
# 1 0.010646 -0.003880 -0.003057 -0.004122 -0.004776 -0.000503
# 2 -0.003880 0.014289 -0.000614 -0.000167 -0.000149 0.008001
# 3 -0.003057 -0.000614 0.008940 0.004946 -0.000511 0.002457
# 4 -0.004122 -0.000167 0.004946 0.032101 0.008645 0.002616
# 5 -0.004776 -0.000149 -0.000511 0.008645 0.022077 -0.001507
# 6 -0.000503 0.008001 0.002457 0.002616 -0.001507 0.021751
#
#
# Mechanical properties :
#
#
# Convention : Reuss Voigt Hill
#
# Bulk Modulus (GPa) = 53.27089 78.78506 66.02798
# Shear Modulus (GPa) = 38.11984 49.77602 43.94793
#
# Velocity S-wave (km/s) = 3.74529 4.27976 4.02141
# Velocity P-wave (km/s) = 6.18913 7.30841 6.77193
#
# Compressibility (1/GPa) = 0.01877198
#
# Stress axis : x y z
#
# Youngs Moduli (GPa) = 93.93163 69.98481 111.85597
#
# Poissons Ratio (x) = 0.27157 0.34193
# Poissons Ratio (y) = 0.36449 0.06870
# Poissons Ratio (z) = 0.28714 0.04299
#
# Static dielectric constant tensor:
#      x y z
#    x 2.240960 -0.053220 -0.066220 
#    y -0.053220 2.164990 0.002480 
#    z -0.066220 0.002480 2.255150 
# 
# From -- ./inp_files/379418.got.cif
#   From: 2010.05.17/outbox.cif.g08.bks.cpg/sg2_190_cif.got.tgz:379418.got - 2010.06.03 11:33:40.
