data_PCOD9080680
_publ_section_title
;
Structure prediction by ZEFSAII (Michael W. Deem and Ramdas Pophale) SiO2 
 PCOD9080680
Probable space group: P -1
;
_chemical_formula_sum "Si O2"
_cell_formula_units_Z 13
_cell_length_a 14.509270
_cell_length_b 12.145047
_cell_length_c 12.307107
_cell_angle_alpha 34.373106
_cell_angle_beta 57.046067
_cell_angle_gamma 31.047683
_cell_volume 523.028061
_symmetry_space_group_name_H-M "P -1"
_symmetry_group_IT_number 2
_symmetry_cell_setting 'triclinic'
loop_
_space_group_symop_operation_xyz
x,y,z
-x,-y,-z
loop_
_atom_site_type_symbol
_atom_site_label
_atom_site_fract_x
_atom_site_fract_y
_atom_site_fract_z
Si Si1 0.226044 0.554369 0.187090
Si Si2 0.365977 0.717852 0.661167
Si Si3 0.664049 0.592558 0.525090
Si Si4 0.887182 0.499923 0.298376
Si Si5 0.708151 0.579045 0.155712
Si Si6 0.500000 0.500000 0.000000
Si Si7 0.024675 0.705544 0.991231
O O1 0.326864 0.340908 0.411556
O O2 0.368714 0.497664 0.084056
O O3 0.160255 0.498808 0.184922
O O4 0.000000 0.000000 0.000000
O O5 0.463680 0.753951 0.505385
O O6 0.362055 0.530067 0.744461
O O7 0.501234 0.502856 0.860528
O O8 0.114875 0.133825 0.512702
O O9 0.698898 0.723610 0.318517
O O10 0.865973 0.135709 0.747185
O O11 0.878708 0.355611 0.325162
O O12 0.888027 0.714865 0.072700
O O13 0.818412 0.507779 0.037643
O O14 0.500000 0.000000 0.000000
#
# Coordination Sequence:
#
# PCOD9080680 Si02
#       7
#     2   2   2   2   2   1   2
#     4   9  18  38  68  97 132 174 225 275 345 403
#     4  11  23  44  73 103 136 185 229 289 344 411
#     4  10  23  43  70 105 133 184 226 286 355 406
#     4  12  26  44  69 104 144 179 235 282 340 420
#     4  12  26  46  71 100 141 192 231 283 344 408
#     4  10  18  40  72  98 134 174 224 280 346 398
#     4  11  23  46  68 100 143 182 230 290 342 406
#
# _framework density 24.855263000000001
#
# number of rings (size 3 to 8) (size 9 to 14) (size 15 to 20)
#    0.000    1.231    3.077    2.769    2.154    1.231 
#    0.000    4.615    0.000    0.000    0.000    0.000 
#    0.000    0.000    0.000    0.000    0.000    0.000 
#
# Total GULP energy -72515.781864 kJ/mol
# GULP energy per Si atom -5578.137066 kJ/mol
# Density = 2.479869 g / cm^3
# Si number density = 24.855263 Si / 1000 Ang^3
#
#
#
# Elastic Constant Matrix: (Units=GPa)
#
#
# Indices 1 2 3 4 5 6 
#
# 1 165.2226 52.9699 23.2662 14.9505 -3.8346 -15.2371
# 2 52.9699 154.1901 33.6189 29.8089 -22.5447 -15.6056
# 3 23.2662 33.6189 43.2627 -1.4555 -10.4020 -6.0254
# 4 14.9505 29.8089 -1.4555 32.4930 7.1907 -4.5917
# 5 -3.8346 -22.5447 -10.4020 7.1907 31.1758 11.7716
# 6 -15.2371 -15.6056 -6.0254 -4.5917 11.7716 52.3357
#
#
#
# Elastic Compliance Matrix: (Units=1/GPa)
#
#
# Indices 1 2 3 4 5 6 
#
# 1 0.007206 -0.001678 -0.002770 -0.001356 -0.001504 0.001498
# 2 -0.001678 0.012546 -0.007035 -0.013400 0.009979 -0.000977
# 3 -0.002770 -0.007035 0.031114 0.008658 0.002638 0.000844
# 4 -0.001356 -0.013400 0.008658 0.049389 -0.020451 0.005540
# 5 -0.001504 0.009979 0.002638 -0.020451 0.048422 -0.009844
# 6 0.001498 -0.000977 0.000844 0.005540 -0.009844 0.022050
#
#
# Mechanical properties :
#
#
# Convention : Reuss Voigt Hill
#
# Bulk Modulus (GPa) = 35.84115 64.70951 50.27533
# Shear Modulus (GPa) = 24.63132 40.05559 32.34345
#
# Velocity S-wave (km/s) = 3.15141 4.01877 3.61123
# Velocity P-wave (km/s) = 5.26243 6.90109 6.13670
#
# Compressibility (1/GPa) = 0.02790089
#
# Stress axis : x y z
#
# Youngs Moduli (GPa) = 138.76530 79.70455 32.13954
#
# Poissons Ratio (x) = 0.13372 0.08904
# Poissons Ratio (y) = 0.23281 0.22610
# Poissons Ratio (z) = 0.38443 0.56072
#
# Static dielectric constant tensor:
#      x y z
#    x 1.917310 -0.022050 0.066090 
#    y -0.022050 1.968000 -0.068990 
#    z 0.066090 -0.068990 2.123750 
# 
# From -- ./inp_files/173260.got.cif
#   From: 2010.05.17/outbox.cif.g08.bks.cpg/sg2_87_cif.got.tgz:173260.got - 2010.06.03 11:33:40.
