data_PCOD9080534
_publ_section_title
;
Structure prediction by ZEFSAII (Michael W. Deem and Ramdas Pophale) SiO2 
 PCOD9080534
Probable space group: P -1
;
_chemical_formula_sum "Si O2"
_cell_formula_units_Z 16
_cell_length_a 9.176295
_cell_length_b 17.064251
_cell_length_c 20.147480
_cell_angle_alpha 159.821728
_cell_angle_beta 59.571994
_cell_angle_gamma 128.837901
_cell_volume 807.033282
_symmetry_space_group_name_H-M "P -1"
_symmetry_group_IT_number 2
_symmetry_cell_setting 'triclinic'
loop_
_space_group_symop_operation_xyz
x,y,z
-x,-y,-z
loop_
_atom_site_type_symbol
_atom_site_label
_atom_site_fract_x
_atom_site_fract_y
_atom_site_fract_z
Si Si1 0.478198 0.548465 0.466861
Si Si2 0.372188 0.992341 0.430683
Si Si3 0.787990 0.343942 0.681008
Si Si4 0.704641 0.078131 0.763736
Si Si5 0.144488 0.281343 0.558936
Si Si6 0.081064 0.327283 0.311587
Si Si7 0.765465 0.720562 0.896849
Si Si8 0.300976 0.443195 0.795989
O O1 0.500000 0.500000 0.500000
O O2 0.646271 0.524214 0.369692
O O3 0.258953 0.356220 0.338976
O O4 0.539426 0.848608 0.667786
O O5 0.256911 0.724315 0.285404
O O6 0.361052 0.973654 0.339180
O O7 0.594938 0.135959 0.519372
O O8 0.284887 0.179811 0.621343
O O9 0.814718 0.620315 0.873032
O O10 0.971692 0.313923 0.596792
O O11 0.875917 0.005663 0.672832
O O12 0.751868 0.367091 0.001286
O O13 0.176933 0.353473 0.686085
O O14 0.176020 0.402419 0.275937
O O15 0.000000 0.500000 0.500000
O O16 0.899020 0.032695 0.112049
O O17 0.534758 0.615684 0.863301
#
# Coordination Sequence:
#
# PCOD9080534 Si02
#       8
#     2   2   2   2   2   2   2   2
#     4  10  21  39  55  85 120 152 192 234 295 337
#     4   9  20  40  65  82 118 152 195 238 297 342
#     4  10  20  40  61  88 118 154 186 250 292 341
#     4   9  20  38  61  85 113 157 193 240 284 353
#     4   9  21  38  58  82 122 152 189 241 292 344
#     4  11  22  38  61  85 114 160 197 239 283 345
#     4  10  22  38  59  87 115 152 205 232 288 344
#     4  10  18  40  60  82 115 156 192 240 286 349
#
# _framework density 19.825700999999999
#
# number of rings (size 3 to 8) (size 9 to 14) (size 15 to 20)
#    0.750    1.500    1.250    1.500    1.750    3.000 
#    0.000   11.875    0.000    0.000    0.000    0.000 
#    0.000    0.000    0.000    0.000    0.000    0.000 
#
# Total GULP energy -89154.222093 kJ/mol
# GULP energy per Si atom -5572.138881 kJ/mol
# Density = 1.978058 g / cm^3
# Si number density = 19.825701 Si / 1000 Ang^3
#
#
#
# Elastic Constant Matrix: (Units=GPa)
#
#
# Indices 1 2 3 4 5 6 
#
# 1 90.8423 25.3973 10.1173 -8.5955 -2.4286 7.9205
# 2 25.3973 55.7749 18.4535 -1.3611 -5.2187 -11.4586
# 3 10.1173 18.4535 70.9276 -19.7503 -15.1332 -0.4889
# 4 -8.5955 -1.3611 -19.7503 22.8305 3.1300 -5.3391
# 5 -2.4286 -5.2187 -15.1332 3.1300 15.2093 -1.6566
# 6 7.9205 -11.4586 -0.4889 -5.3391 -1.6566 41.0905
#
#
#
# Elastic Compliance Matrix: (Units=1/GPa)
#
#
# Indices 1 2 3 4 5 6 
#
# 1 0.013759 -0.007434 0.001161 0.004870 -0.000648 -0.004105
# 2 -0.007434 0.025147 -0.006221 -0.005292 0.003192 0.007813
# 3 0.001161 -0.006221 0.025094 0.019531 0.019180 0.001651
# 4 0.004870 -0.005292 0.019531 0.062830 0.006144 0.006229
# 5 -0.000648 0.003192 0.019180 0.006144 0.085157 0.005475
# 6 -0.004105 0.007813 0.001651 0.006229 0.005475 0.028356
#
#
# Mechanical properties :
#
#
# Convention : Reuss Voigt Hill
#
# Bulk Modulus (GPa) = 25.63307 36.16453 30.89880
# Shear Modulus (GPa) = 17.96399 26.73118 22.34759
#
# Velocity S-wave (km/s) = 3.01341 3.67592 3.36103
# Velocity P-wave (km/s) = 5.00647 6.02473 5.53905
#
# Compressibility (1/GPa) = 0.03901210
#
# Stress axis : x y z
#
# Youngs Moduli (GPa) = 72.68180 39.76582 39.85013
#
# Poissons Ratio (x) = 0.29563 -0.04628
# Poissons Ratio (y) = 0.54034 0.24790
# Poissons Ratio (z) = -0.08441 0.24738
#
# Static dielectric constant tensor:
#      x y z
#    x 1.679490 -0.000490 -0.016270 
#    y -0.000490 1.747810 0.027640 
#    z -0.016270 0.027640 1.702580 
# 
# From -- ./inp_files/591070.got.cif
#   From: 2010.05.17/outbox.cif.g08.bks.cpg/sg2_296_cif.got.tgz:591070.got - 2010.06.03 11:33:40.
