data_PCOD9080389
_publ_section_title
;
Structure prediction by ZEFSAII (Michael W. Deem and Ramdas Pophale) SiO2 
 PCOD9080389
Probable space group: P -1
;
_chemical_formula_sum "Si O2"
_cell_formula_units_Z 12
_cell_length_a 18.331875
_cell_length_b 7.033824
_cell_length_c 6.916272
_cell_angle_alpha 88.853388
_cell_angle_beta 131.342058
_cell_angle_gamma 124.652352
_cell_volume 450.340024
_symmetry_space_group_name_H-M "P -1"
_symmetry_group_IT_number 2
_symmetry_cell_setting 'triclinic'
loop_
_space_group_symop_operation_xyz
x,y,z
-x,-y,-z
loop_
_atom_site_type_symbol
_atom_site_label
_atom_site_fract_x
_atom_site_fract_y
_atom_site_fract_z
Si Si1 0.709181 0.187247 0.417118
Si Si2 0.228263 0.245961 0.856538
Si Si3 0.529108 0.601444 0.268357
Si Si4 0.964812 0.919988 0.158872
Si Si5 0.931880 0.321012 0.574671
Si Si6 0.483164 0.846684 0.668988
O O1 0.870118 0.377395 0.620151
O O2 0.659366 0.291736 0.458756
O O3 0.664050 0.938442 0.476164
O O4 0.610950 0.056916 0.050295
O O5 0.107586 0.188158 0.527065
O O6 0.204219 0.002127 0.730551
O O7 0.391267 0.526566 0.091376
O O8 0.169633 0.175757 0.972253
O O9 0.500000 0.500000 0.000000
O O10 0.471714 0.601689 0.618451
O O11 0.957321 0.681220 0.167977
O O12 0.000000 0.000000 0.000000
O O13 0.000000 0.500000 0.500000
O O14 0.500000 0.000000 0.500000
#
# Coordination Sequence:
#
# PCOD9080389 Si02
#       6
#     2   2   2   2   2   2
#     4  10  22  41  60  83 120 156 189 236 296 344
#     4   9  19  38  60  80 116 148 189 231 288 337
#     4  10  18  39  63  82 118 158 186 235 296 346
#     4   9  19  37  59  84 110 148 196 227 275 345
#     4  10  20  39  59  81 115 152 187 235 291 338
#     4  10  21  37  60  92 117 147 196 238 286 344
#
# _framework density 26.646529999999998
#
# number of rings (size 3 to 8) (size 9 to 14) (size 15 to 20)
#    1.000    1.333    3.333    0.000    0.000    6.000 
#    3.000    9.167    0.000    0.000    0.000    0.000 
#    0.000    0.000    0.000    0.000    0.000    0.000 
#
# Total GULP energy -67075.689776 kJ/mol
# GULP energy per Si atom -5589.640815 kJ/mol
# Density = 2.658588 g / cm^3
# Si number density = 26.646530 Si / 1000 Ang^3
#
#
#
# Elastic Constant Matrix: (Units=GPa)
#
#
# Indices 1 2 3 4 5 6 
#
# 1 192.1526 21.1024 21.2878 -3.3360 -6.6450 15.8363
# 2 21.1024 116.2010 18.9995 -39.9645 4.4902 -10.9401
# 3 21.2878 18.9995 97.1621 -19.1386 -5.9878 9.0407
# 4 -3.3360 -39.9645 -19.1386 44.4751 -1.7594 -7.1841
# 5 -6.6450 4.4902 -5.9878 -1.7594 38.1984 -1.7041
# 6 15.8363 -10.9401 9.0407 -7.1841 -1.7041 56.1909
#
#
#
# Elastic Compliance Matrix: (Units=1/GPa)
#
#
# Indices 1 2 3 4 5 6 
#
# 1 0.005667 -0.001713 -0.001034 -0.001845 0.000852 -0.001974
# 2 -0.001713 0.013947 -0.000315 0.013010 -0.001170 0.004877
# 3 -0.001034 -0.000315 0.011691 0.004580 0.001856 -0.001009
# 4 -0.001845 0.013010 0.004580 0.037190 0.000897 0.007098
# 5 0.000852 -0.001170 0.001856 0.000897 0.026804 0.000161
# 6 -0.001974 0.004877 -0.001009 0.007098 0.000161 0.020377
#
#
# Mechanical properties :
#
#
# Convention : Reuss Voigt Hill
#
# Bulk Modulus (GPa) = 39.71290 58.69945 49.20618
# Shear Modulus (GPa) = 38.40411 50.71460 44.55936
#
# Velocity S-wave (km/s) = 3.80049 4.36734 4.09374
# Velocity P-wave (km/s) = 5.84758 6.89263 6.39150
#
# Compressibility (1/GPa) = 0.02518073
#
# Stress axis : x y z
#
# Youngs Moduli (GPa) = 176.45902 71.69821 85.53824
#
# Poissons Ratio (x) = 0.12284 0.08842
# Poissons Ratio (y) = 0.30233 0.02696
# Poissons Ratio (z) = 0.18240 0.02260
#
# Static dielectric constant tensor:
#      x y z
#    x 2.034830 0.027010 -0.001170 
#    y 0.027010 2.252940 0.008370 
#    z -0.001170 0.008370 2.208700 
# 
# From -- ./inp_files/105458.got.cif
#   From: 2010.05.17/outbox.cif.g08.bks.cpg/sg2_53_cif.got.tgz:105458.got - 2010.06.03 11:33:40.
