data_PCOD9080317
_publ_section_title
;
Structure prediction by ZEFSAII (Michael W. Deem and Ramdas Pophale) SiO2 
 PCOD9080317
Probable space group: P -1
;
_chemical_formula_sum "Si O2"
_cell_formula_units_Z 14
_cell_length_a 8.989982
_cell_length_b 9.424057
_cell_length_c 7.421753
_cell_angle_alpha 106.651162
_cell_angle_beta 76.138723
_cell_angle_gamma 67.054993
_cell_volume 508.886994
_symmetry_space_group_name_H-M "P -1"
_symmetry_group_IT_number 2
_symmetry_cell_setting 'triclinic'
loop_
_space_group_symop_operation_xyz
x,y,z
-x,-y,-z
loop_
_atom_site_type_symbol
_atom_site_label
_atom_site_fract_x
_atom_site_fract_y
_atom_site_fract_z
Si Si1 0.715132 0.768868 0.905214
Si Si2 0.500000 0.500000 0.000000
Si Si3 0.896046 0.914041 0.636550
Si Si4 0.107636 0.765928 0.087060
Si Si5 0.000000 0.500000 0.000000
Si Si6 0.209372 0.686620 0.643718
Si Si7 0.532982 0.144562 0.688499
Si Si8 0.427054 0.307217 0.431530
O O1 0.799335 0.858991 0.795978
O O2 0.863666 0.605433 0.907498
O O3 0.608627 0.718302 0.773212
O O4 0.576328 0.888495 0.137951
O O5 0.691169 0.376114 0.986655
O O6 0.488892 0.671809 0.173507
O O7 0.091955 0.750163 0.521190
O O8 0.738503 0.007703 0.574867
O O9 0.934726 0.063136 0.740071
O O10 0.101776 0.794112 0.884593
O O11 0.991668 0.678453 0.129557
O O12 0.263520 0.491620 0.593630
O O13 0.390553 0.691011 0.595085
O O14 0.559844 0.820826 0.465125
#
# Coordination Sequence:
#
# PCOD9080317 Si02
#       8
#     2   1   2   2   1   2   2   2
#     4  12  26  48  74 114 143 202 245 313 365 448
#     4  10  18  38  72 100 136 180 250 276 360 430
#     4  11  26  45  76 109 157 184 249 308 387 420
#     4  11  22  43  73 109 140 192 242 311 359 449
#     4  12  24  42  76 110 140 188 256 288 372 432
#     4  11  23  44  70 114 144 201 239 308 367 444
#     4  11  24  46  76 109 145 201 243 308 367 449
#     4  11  26  45  78 104 156 195 256 295 367 446
#
# _framework density 27.511018
#
# number of rings (size 3 to 8) (size 9 to 14) (size 15 to 20)
#    0.000    0.857    4.286    2.571    2.000    1.714 
#    0.000    0.000    0.000    0.000    0.000    0.000 
#    0.000    0.000    0.000    0.000    0.000    0.000 
#
# Total GULP energy -77957.085878 kJ/mol
# GULP energy per Si atom -5568.363277 kJ/mol
# Density = 2.744840 g / cm^3
# Si number density = 27.511018 Si / 1000 Ang^3
#
#
#
# Elastic Constant Matrix: (Units=GPa)
#
#
# Indices 1 2 3 4 5 6 
#
# 1 145.6284 61.3449 31.7097 6.3188 5.0224 -36.5912
# 2 61.3449 148.3763 22.9492 11.5439 -3.7628 -49.3277
# 3 31.7097 22.9492 77.0538 -6.7574 15.1867 -18.7429
# 4 6.3188 11.5439 -6.7574 45.9343 -3.4232 2.2543
# 5 5.0224 -3.7628 15.1867 -3.4232 42.1997 1.1265
# 6 -36.5912 -49.3277 -18.7429 2.2543 1.1265 71.6741
#
#
#
# Elastic Compliance Matrix: (Units=1/GPa)
#
#
# Indices 1 2 3 4 5 6 
#
# 1 0.009118 -0.002557 -0.002410 -0.001124 -0.000599 0.002310
# 2 -0.002557 0.009958 -0.001080 -0.002479 0.001238 0.005324
# 3 -0.002410 -0.001080 0.016135 0.002458 -0.005477 0.002255
# 4 -0.001124 -0.002479 0.002458 0.023098 0.000966 -0.002379
# 5 -0.000599 0.001238 -0.005477 0.000966 0.025963 -0.001325
# 6 0.002310 0.005324 0.002255 -0.002379 -0.001325 0.019481
#
#
# Mechanical properties :
#
#
# Convention : Reuss Voigt Hill
#
# Bulk Modulus (GPa) = 43.25584 67.00735 55.13160
# Shear Modulus (GPa) = 40.46882 48.96525 44.71704
#
# Velocity S-wave (km/s) = 3.83953 4.22339 4.03603
# Velocity P-wave (km/s) = 5.95090 6.94206 6.46550
#
# Compressibility (1/GPa) = 0.02311827
#
# Stress axis : x y z
#
# Youngs Moduli (GPa) = 109.66776 100.42143 61.97876
#
# Poissons Ratio (x) = 0.25678 0.14934
# Poissons Ratio (y) = 0.28042 0.06693
# Poissons Ratio (z) = 0.26425 0.10844
#
# Static dielectric constant tensor:
#      x y z
#    x 2.107800 0.136120 -0.027670 
#    y 0.136120 2.211540 -0.090490 
#    z -0.027670 -0.090490 2.155280 
# 
# From -- ./inp_files/184487.got.cif
#   From: 2010.05.17/outbox.cif.g08.bks.cpg/sg2_93_cif.got.tgz:184487.got - 2010.06.03 11:33:40.
