data_PCOD9080569
_publ_section_title
;
Structure prediction by ZEFSAII (Michael W. Deem and Ramdas Pophale) SiO2 
 PCOD9080569
Probable space group: P -1
;
_chemical_formula_sum "Si O2"
_cell_formula_units_Z 16
_cell_length_a 13.655243
_cell_length_b 14.585484
_cell_length_c 10.255927
_cell_angle_alpha 120.977739
_cell_angle_beta 76.732538
_cell_angle_gamma 151.205148
_cell_volume 711.874397
_symmetry_space_group_name_H-M "P -1"
_symmetry_group_IT_number 2
_symmetry_cell_setting 'triclinic'
loop_
_space_group_symop_operation_xyz
x,y,z
-x,-y,-z
loop_
_atom_site_type_symbol
_atom_site_label
_atom_site_fract_x
_atom_site_fract_y
_atom_site_fract_z
Si Si1 0.529053 0.825976 0.842146
Si Si2 0.597875 0.840639 0.538260
Si Si3 0.691089 0.250504 0.542189
Si Si4 0.919647 0.059583 0.944196
Si Si5 0.172133 0.616927 0.690945
Si Si6 0.910059 0.906279 0.309899
Si Si7 0.057025 0.274564 0.533999
Si Si8 0.611902 0.567377 0.786490
O O1 0.604184 0.897667 0.719876
O O2 0.770112 0.024107 0.985732
O O3 0.363210 0.771727 0.859566
O O4 0.323557 0.535216 0.706237
O O5 0.412696 0.731039 0.427445
O O6 0.498951 0.624863 0.421480
O O7 0.849966 0.087897 0.567898
O O8 0.718276 0.238738 0.373890
O O9 0.952419 0.481373 0.693493
O O10 0.500000 0.000000 0.500000
O O11 0.741680 0.795708 0.857472
O O12 0.974970 0.081063 0.792893
O O13 0.176963 0.292285 0.101569
O O14 0.062352 0.389683 0.533219
O O15 0.620663 0.626078 0.197493
O O16 0.997172 0.102953 0.362124
O O17 0.000000 0.000000 0.500000
#
# Coordination Sequence:
#
# PCOD9080569 Si02
#       8
#     2   2   2   2   2   2   2   2
#     4   9  18  31  49  72  98 132 169 209 249 296
#     4  10  18  31  51  76 100 129 168 213 254 300
#     4  10  15  28  49  71 104 125 154 209 269 303
#     4  11  21  36  52  69 108 146 169 209 249 306
#     4   8  18  27  43  76  98 123 159 206 258 301
#     4  11  21  33  54  76 102 136 175 217 252 294
#     4   9  17  29  44  74 102 119 165 212 244 297
#     4  10  23  35  49  77 105 138 177 203 255 305
#
# _framework density 22.475874000000001
#
# number of rings (size 3 to 8) (size 9 to 14) (size 15 to 20)
#    0.750    1.500    1.250    3.375    0.000    1.500 
#    0.000    0.000    0.000    0.750    0.000    3.500 
#    0.000    0.000    0.000    0.000    0.000    0.000 
#
# Total GULP energy -89127.916948 kJ/mol
# GULP energy per Si atom -5570.494809 kJ/mol
# Density = 2.242472 g / cm^3
# Si number density = 22.475874 Si / 1000 Ang^3
#
#
#
# Elastic Constant Matrix: (Units=GPa)
#
#
# Indices 1 2 3 4 5 6 
#
# 1 106.0715 23.0456 24.1689 25.6396 38.5090 14.5075
# 2 23.0456 116.6070 24.6023 31.4763 8.3420 6.1742
# 3 24.1689 24.6023 40.1259 16.2081 21.3260 4.6654
# 4 25.6396 31.4763 16.2081 23.6306 3.6883 10.4417
# 5 38.5090 8.3420 21.3260 3.6883 43.1716 19.0687
# 6 14.5075 6.1742 4.6654 10.4417 19.0687 38.4287
#
#
#
# Elastic Compliance Matrix: (Units=1/GPa)
#
#
# Indices 1 2 3 4 5 6 
#
# 1 0.032408 0.008739 0.025749 -0.068362 -0.049019 0.026134
# 2 0.008739 0.016433 0.008610 -0.040099 -0.017321 0.012506
# 3 0.025749 0.008610 0.080106 -0.102148 -0.074966 0.044125
# 4 -0.068362 -0.040099 -0.102148 0.260261 0.138910 -0.094994
# 5 -0.049019 -0.017321 -0.074966 0.138910 0.126338 -0.070044
# 6 0.026134 0.012506 0.044125 -0.094994 -0.070044 0.069358
#
#
# Mechanical properties :
#
#
# Convention : Reuss Voigt Hill
#
# Bulk Modulus (GPa) = 4.64806 45.15979 24.90393
# Shear Modulus (GPa) = 8.76541 33.77868 21.27204
#
# Velocity S-wave (km/s) = 1.97696 3.88091 3.07976
# Velocity P-wave (km/s) = 2.69883 6.34178 4.87349
#
# Compressibility (1/GPa) = 0.21514343
#
# Stress axis : x y z
#
# Youngs Moduli (GPa) = 30.85626 60.85205 12.48341
#
# Poissons Ratio (x) = -0.53176 -0.32144
# Poissons Ratio (y) = -0.26964 -0.10748
# Poissons Ratio (z) = -0.79453 -0.52393
#
# Static dielectric constant tensor:
#      x y z
#    x 1.908800 0.004620 0.035620 
#    y 0.004620 1.812700 -0.001170 
#    z 0.035620 -0.001170 1.878750 
# 
# From -- ./inp_files/453939.got.cif
#   From: 2010.05.17/outbox.cif.g08.bks.cpg/sg2_227_cif.got.tgz:453939.got - 2010.06.03 11:33:40.
