data_PCOD9080250
_publ_section_title
;
Structure prediction by ZEFSAII (Michael W. Deem and Ramdas Pophale) SiO2 
 PCOD9080250
Probable space group: P -1
;
_chemical_formula_sum "Si O2"
_cell_formula_units_Z 16
_cell_length_a 14.138303
_cell_length_b 15.124222
_cell_length_c 12.089930
_cell_angle_alpha 35.768653
_cell_angle_beta 44.253472
_cell_angle_gamma 28.514918
_cell_volume 721.322696
_symmetry_space_group_name_H-M "P -1"
_symmetry_group_IT_number 2
_symmetry_cell_setting 'triclinic'
loop_
_space_group_symop_operation_xyz
x,y,z
-x,-y,-z
loop_
_atom_site_type_symbol
_atom_site_label
_atom_site_fract_x
_atom_site_fract_y
_atom_site_fract_z
Si Si1 0.382104 0.401563 0.591126
Si Si2 0.485501 0.394758 0.985533
Si Si3 0.540313 0.321214 0.760438
Si Si4 0.961044 0.699788 0.536147
Si Si5 0.061299 0.638974 0.093900
Si Si6 0.007569 0.060817 0.309268
Si Si7 0.109081 0.070240 0.850908
Si Si8 0.363482 0.821186 0.595588
O O1 0.417856 0.328836 0.762818
O O2 0.499450 0.466376 0.424943
O O3 0.500283 0.225888 0.570954
O O4 0.151599 0.599600 0.550362
O O5 0.499629 0.321552 0.921463
O O6 0.487988 0.577976 0.792818
O O7 0.276550 0.511342 0.087532
O O8 0.666897 0.162752 0.126320
O O9 0.770447 0.131090 0.727347
O O10 0.963595 0.518291 0.726064
O O11 0.985242 0.738404 0.351727
O O12 0.746204 0.944236 0.498757
O O13 0.914033 0.840683 0.098549
O O14 0.042477 0.725539 0.898589
O O15 0.837362 0.106948 0.342031
O O16 0.000000 0.000000 0.500000
O O17 0.000000 0.000000 0.000000
#
# Coordination Sequence:
#
# PCOD9080250 Si02
#       8
#     2   2   2   2   2   2   2   2
#     4  10  21  36  65  98 129 173 223 270 326 388
#     4  10  23  41  67 100 127 171 228 277 324 387
#     4  10  18  38  67  98 127 168 229 281 319 377
#     4  12  26  43  63  97 143 179 213 272 342 398
#     4  11  27  44  64 101 138 174 216 272 343 402
#     4  11  19  39  70  96 126 171 228 279 322 385
#     4  12  24  45  75  97 126 172 232 282 320 389
#     4  10  21  37  63  96 130 167 222 272 321 392
#
# _framework density 22.181473
#
# number of rings (size 3 to 8) (size 9 to 14) (size 15 to 20)
#    0.000    1.250    3.750    3.375    1.750    4.500 
#    0.000    3.125    0.000    0.000    0.000    0.000 
#    0.000    0.000    0.000    0.000    0.000    0.000 
#
# Total GULP energy -89168.576694 kJ/mol
# GULP energy per Si atom -5573.036043 kJ/mol
# Density = 2.213099 g / cm^3
# Si number density = 22.181473 Si / 1000 Ang^3
#
#
#
# Elastic Constant Matrix: (Units=GPa)
#
#
# Indices 1 2 3 4 5 6 
#
# 1 53.5320 20.9398 44.7399 -14.8790 7.6650 6.4954
# 2 20.9398 136.6217 19.9712 -12.0463 5.8194 -1.4231
# 3 44.7399 19.9712 133.7371 -17.6249 -1.1257 14.8495
# 4 -14.8790 -12.0463 -17.6249 25.0540 2.5308 9.0581
# 5 7.6650 5.8194 -1.1257 2.5308 24.4257 -6.4023
# 6 6.4954 -1.4231 14.8495 9.0581 -6.4023 23.9026
#
#
#
# Elastic Compliance Matrix: (Units=1/GPa)
#
#
# Indices 1 2 3 4 5 6 
#
# 1 0.038061 -0.001837 -0.006601 0.027129 -0.020414 -0.022100
# 2 -0.001837 0.007957 -0.000124 0.003040 -0.001793 -0.000582
# 3 -0.006601 -0.000124 0.011543 0.007108 -0.000238 -0.008142
# 4 0.027129 0.003040 0.007108 0.084443 -0.031286 -0.051988
# 5 -0.020414 -0.001793 -0.000238 -0.031286 0.059773 0.033455
# 6 -0.022100 -0.000582 -0.008142 -0.051988 0.033455 0.081528
#
#
# Mechanical properties :
#
#
# Convention : Reuss Voigt Hill
#
# Bulk Modulus (GPa) = 24.72950 55.02139 39.87544
# Shear Modulus (GPa) = 15.92820 30.55911 23.24365
#
# Velocity S-wave (km/s) = 2.68262 3.71575 3.24062
# Velocity P-wave (km/s) = 4.55721 6.57784 5.65845
#
# Compressibility (1/GPa) = 0.04043754
#
# Stress axis : x y z
#
# Youngs Moduli (GPa) = 26.27370 125.66860 86.63293
#
# Poissons Ratio (x) = 0.23088 0.57187
# Poissons Ratio (y) = 0.04827 0.01070
# Poissons Ratio (z) = 0.17344 0.01552
#
# Static dielectric constant tensor:
#      x y z
#    x 1.852790 0.035180 0.085450 
#    y 0.035180 1.840930 0.004400 
#    z 0.085450 0.004400 1.879920 
# 
# From -- ./inp_files/455447.got.cif
#   From: 2010.05.17/outbox.cif.g08.bks.cpg/sg2_228_cif.got.tgz:455447.got - 2010.06.03 11:33:40.
