data_PCOD9080511
_publ_section_title
;
Structure prediction by ZEFSAII (Michael W. Deem and Ramdas Pophale) SiO2 
 PCOD9080511
Probable space group: P -1
;
_chemical_formula_sum "Si O2"
_cell_formula_units_Z 16
_cell_length_a 11.622113
_cell_length_b 10.531014
_cell_length_c 19.575447
_cell_angle_alpha 145.748226
_cell_angle_beta 27.760022
_cell_angle_gamma 135.683226
_cell_volume 626.917021
_symmetry_space_group_name_H-M "P -1"
_symmetry_group_IT_number 2
_symmetry_cell_setting 'triclinic'
loop_
_space_group_symop_operation_xyz
x,y,z
-x,-y,-z
loop_
_atom_site_type_symbol
_atom_site_label
_atom_site_fract_x
_atom_site_fract_y
_atom_site_fract_z
Si Si1 0.512561 0.766561 0.121043
Si Si2 0.926953 0.890298 0.691610
Si Si3 0.542518 0.250920 0.617916
Si Si4 0.714140 0.946849 0.218387
Si Si5 0.127309 0.393272 0.818907
Si Si6 0.312607 0.341111 0.561814
Si Si7 0.990514 0.295037 0.577432
Si Si8 0.181559 0.187147 0.139930
O O1 0.262007 0.818241 0.318278
O O2 0.734432 0.846727 0.087470
O O3 0.500000 0.500000 0.000000
O O4 0.577037 0.861095 0.055238
O O5 0.173383 0.730861 0.509996
O O6 0.879526 0.825601 0.609898
O O7 0.758739 0.852093 0.828948
O O8 0.018017 0.144986 0.760167
O O9 0.413402 0.407939 0.699455
O O10 0.500000 0.000000 0.500000
O O11 0.390826 0.251115 0.767888
O O12 0.494015 0.146208 0.415838
O O13 0.956869 0.035300 0.166107
O O14 0.139328 0.464133 0.765541
O O15 0.000000 0.500000 0.000000
O O16 0.500000 0.500000 0.500000
O O17 0.147141 0.281401 0.558001
O O18 0.918260 0.555167 0.709567
#
# Coordination Sequence:
#
# PCOD9080511 Si02
#       8
#     2   2   2   2   2   2   2   2
#     4  10  24  40  59 101 137 169 211 276 348 385
#     4  11  21  43  70  97 128 181 232 272 326 398
#     4  10  18  39  70  92 125 169 230 265 324 387
#     4  12  20  42  72  96 127 183 230 267 321 411
#     4  11  24  41  66 101 137 175 219 277 339 394
#     4  12  25  43  66  99 135 177 226 272 336 405
#     4  11  24  43  67  98 138 174 217 281 339 398
#     4  11  22  40  70 103 128 170 231 280 322 399
#
# _framework density 25.521719999999998
#
# number of rings (size 3 to 8) (size 9 to 14) (size 15 to 20)
#    0.000    1.000    7.500    0.750    0.000    5.000 
#    0.000    0.000    0.000    2.250    0.000    0.000 
#    0.000    0.000    0.000    0.000    0.000    0.000 
#
# Total GULP energy -89396.457802 kJ/mol
# GULP energy per Si atom -5587.278613 kJ/mol
# Density = 2.546363 g / cm^3
# Si number density = 25.521720 Si / 1000 Ang^3
#
#
#
# Elastic Constant Matrix: (Units=GPa)
#
#
# Indices 1 2 3 4 5 6 
#
# 1 142.9102 29.2182 66.6642 -15.5661 36.0852 -12.4778
# 2 29.2182 99.8575 41.2204 -31.1198 21.7328 -13.5743
# 3 66.6642 41.2204 97.4216 -11.3792 54.9224 -14.2204
# 4 -15.5661 -31.1198 -11.3792 37.6135 -19.0937 16.3069
# 5 36.0852 21.7328 54.9224 -19.0937 53.5385 -9.7400
# 6 -12.4778 -13.5743 -14.2204 16.3069 -9.7400 36.6745
#
#
#
# Elastic Compliance Matrix: (Units=1/GPa)
#
#
# Indices 1 2 3 4 5 6 
#
# 1 0.010679 0.001394 -0.009377 0.004784 0.003434 -0.000701
# 2 0.001394 0.017999 -0.013379 0.018719 0.011553 -0.003306
# 3 -0.009377 -0.013379 0.043617 -0.026684 -0.040723 0.009819
# 4 0.004784 0.018719 -0.026684 0.062650 0.035201 -0.020299
# 5 0.003434 0.011553 -0.040723 0.035201 0.064384 -0.008898
# 6 -0.000701 -0.003306 0.009819 -0.020299 -0.008898 0.036274
#
#
# Mechanical properties :
#
#
# Convention : Reuss Voigt Hill
#
# Bulk Modulus (GPa) = 33.81751 68.26609 51.04180
# Shear Modulus (GPa) = 17.35000 39.10442 28.22721
#
# Velocity S-wave (km/s) = 2.61015 3.91858 3.32928
# Velocity P-wave (km/s) = 4.72896 6.87605 5.90098
#
# Compressibility (1/GPa) = 0.02957048
#
# Stress axis : x y z
#
# Youngs Moduli (GPa) = 93.63918 55.55908 22.92698
#
# Poissons Ratio (x) = -0.07745 0.21499
# Poissons Ratio (y) = -0.13054 0.30674
# Poissons Ratio (z) = 0.87808 0.74332
#
# Static dielectric constant tensor:
#      x y z
#    x 1.976690 -0.083140 0.058190 
#    y -0.083140 1.943930 0.075230 
#    z 0.058190 0.075230 2.115980 
# 
# From -- ./inp_files/597750.got.cif
#   From: 2010.05.17/outbox.cif.g08.bks.cpg/sg2_299_cif.got.tgz:597750.got - 2010.06.03 11:33:40.
