data_PCOD9080060
_publ_section_title
;
Structure prediction by ZEFSAII (Michael W. Deem and Ramdas Pophale) SiO2 
 PCOD9080060
Probable space group: P -1
;
_chemical_formula_sum "Si O2"
_cell_formula_units_Z 16
_cell_length_a 18.075741
_cell_length_b 9.914758
_cell_length_c 7.105690
_cell_angle_alpha 83.857353
_cell_angle_beta 114.415207
_cell_angle_gamma 145.058922
_cell_volume 594.900924
_symmetry_space_group_name_H-M "P -1"
_symmetry_group_IT_number 2
_symmetry_cell_setting 'triclinic'
loop_
_space_group_symop_operation_xyz
x,y,z
-x,-y,-z
loop_
_atom_site_type_symbol
_atom_site_label
_atom_site_fract_x
_atom_site_fract_y
_atom_site_fract_z
Si Si1 0.037548 0.867306 0.540824
Si Si2 0.136371 0.044001 0.220819
Si Si3 0.133108 0.501133 0.111806
Si Si4 0.350083 0.593952 0.220229
Si Si5 0.076235 0.657160 0.816309
Si Si6 0.270980 0.436954 0.736356
Si Si7 0.588279 0.734825 0.345118
Si Si8 0.582514 0.770401 0.883432
O O1 0.061963 0.742485 0.617456
O O2 0.868054 0.668422 0.473591
O O3 0.031344 0.917172 0.314834
O O4 0.188344 0.171093 0.725549
O O5 0.228082 0.305729 0.208157
O O6 0.259864 0.112196 0.423471
O O7 0.014687 0.812951 0.977007
O O8 0.296775 0.657372 0.250599
O O9 0.085307 0.541638 0.212205
O O10 0.099814 0.529857 0.872912
O O11 0.519628 0.764178 0.382322
O O12 0.326891 0.575562 0.973369
O O13 0.246433 0.938967 0.043985
O O14 0.421790 0.630099 0.731310
O O15 0.461564 0.431026 0.239564
O O16 0.603806 0.789147 0.130998
#
# Coordination Sequence:
#
# PCOD9080060 Si02
#       8
#     2   2   2   2   2   2   2   2
#     4  11  21  36  63  95 119 152 199 248 295 353
#     4  12  21  37  63  96 120 148 198 256 299 342
#     4  11  26  42  59  85 120 167 200 242 298 353
#     4  11  23  38  59  90 127 148 197 252 302 347
#     4  11  24  44  61  79 122 169 204 233 294 369
#     4  10  21  36  61  96 122 151 193 247 308 345
#     4  10  20  36  61  96 118 150 191 251 308 345
#     4  10  18  38  62  87 123 156 195 237 295 365
#
# _framework density 26.895237000000002
#
# number of rings (size 3 to 8) (size 9 to 14) (size 15 to 20)
#    0.000    1.250    3.750    3.750    3.500    0.500 
#    0.000    3.750    0.000    3.750    0.000    0.000 
#    0.000    0.000    0.000    0.000    0.000    0.000 
#
# Total GULP energy -89419.409986 kJ/mol
# GULP energy per Si atom -5588.713124 kJ/mol
# Density = 2.683402 g / cm^3
# Si number density = 26.895237 Si / 1000 Ang^3
#
#
#
# Elastic Constant Matrix: (Units=GPa)
#
#
# Indices 1 2 3 4 5 6 
#
# 1 161.3040 13.1959 30.5100 -5.7516 48.3559 24.7227
# 2 13.1959 65.0860 9.6142 -9.5886 5.6678 13.2200
# 3 30.5100 9.6142 96.2572 -3.1109 30.7718 10.6905
# 4 -5.7516 -9.5886 -3.1109 33.1048 3.7715 12.5592
# 5 48.3559 5.6678 30.7718 3.7715 53.7213 -5.8045
# 6 24.7227 13.2200 10.6905 12.5592 -5.8045 32.6019
#
#
#
# Elastic Compliance Matrix: (Units=1/GPa)
#
#
# Indices 1 2 3 4 5 6 
#
# 1 0.016355 0.006160 0.005038 0.018109 -0.022503 -0.027535
# 2 0.006160 0.022655 0.003655 0.019018 -0.014053 -0.024885
# 3 0.005038 0.003655 0.016380 0.012462 -0.017181 -0.018534
# 4 0.018109 0.019018 0.012462 0.065938 -0.036275 -0.057390
# 5 -0.022503 -0.014053 -0.017181 -0.036275 0.058443 0.052777
# 6 -0.027535 -0.024885 -0.018534 -0.057390 0.052777 0.099226
#
#
# Mechanical properties :
#
#
# Convention : Reuss Voigt Hill
#
# Bulk Modulus (GPa) = 11.75117 47.69859 29.72488
# Shear Modulus (GPa) = 18.00790 41.84076 29.92433
#
# Velocity S-wave (km/s) = 2.59039 3.94851 3.33922
# Velocity P-wave (km/s) = 3.65042 6.20976 5.09346
#
# Compressibility (1/GPa) = 0.08509788
#
# Stress axis : x y z
#
# Youngs Moduli (GPa) = 61.14523 44.13968 61.04865
#
# Poissons Ratio (x) = -0.27191 -0.30757
# Poissons Ratio (y) = -0.37667 -0.22316
# Poissons Ratio (z) = -0.30806 -0.16135
#
# Static dielectric constant tensor:
#      x y z
#    x 2.192230 -0.006960 -0.054050 
#    y -0.006960 2.114030 -0.040050 
#    z -0.054050 -0.040050 2.146980 
# 
# From -- ./inp_files/328916.got.cif
#   From: 2010.05.17/outbox.cif.g08.bks.cpg/sg2_165_cif.got.tgz:328916.got - 2010.06.03 11:33:40.
