data_PCOD9080777
_publ_section_title
;
Structure prediction by ZEFSAII (Michael W. Deem and Ramdas Pophale) SiO2 
 PCOD9080777
Probable space group: P -1
;
_chemical_formula_sum "Si O2"
_cell_formula_units_Z 12
_cell_length_a 12.068727
_cell_length_b 6.500530
_cell_length_c 9.533293
_cell_angle_alpha 47.009859
_cell_angle_beta 77.436267
_cell_angle_gamma 107.506688
_cell_volume 415.079859
_symmetry_space_group_name_H-M "P -1"
_symmetry_group_IT_number 2
_symmetry_cell_setting 'triclinic'
loop_
_space_group_symop_operation_xyz
x,y,z
-x,-y,-z
loop_
_atom_site_type_symbol
_atom_site_label
_atom_site_fract_x
_atom_site_fract_y
_atom_site_fract_z
Si Si1 0.534910 0.298614 0.967960
Si Si2 0.707980 0.206881 0.524339
Si Si3 0.034910 0.304354 0.962220
Si Si4 0.061255 0.285495 0.554566
Si Si5 0.438745 0.482865 0.677075
Si Si6 0.792021 0.328483 0.940297
O O1 0.553260 0.584791 0.719837
O O2 0.663842 0.353449 0.997489
O O3 0.500000 0.000000 0.000000
O O4 0.396006 0.133141 0.184373
O O5 0.836159 0.323886 0.325175
O O6 0.797567 0.521528 0.474350
O O7 0.613909 0.283919 0.428567
O O8 0.896007 0.293900 0.023614
O O9 0.000000 0.000000 0.000000
O O10 0.053261 0.130987 0.173641
O O11 0.113909 0.368873 0.343615
O O12 0.000000 0.500000 0.500000
O O13 0.500000 0.500000 0.500000
O O14 0.297566 0.065363 0.930516
#
# Coordination Sequence:
#
# PCOD9080777 Si02
#       6
#     2   2   2   2   2   2
#     4  10  19  22  31  35  42  48  53  60  66  72
#     4  11  17  24  29  37  41  47  54  61  65  72
#     4  10  19  22  31  35  42  48  53  60  66  72
#     4  11  16  23  29  36  42  46  54  59  67  71
#     4  11  16  23  29  36  42  46  54  59  67  71
#     4  11  17  24  29  37  41  47  54  61  65  72
#
# _framework density 28.910101999999998
#
# number of rings (size 3 to 8) (size 9 to 14) (size 15 to 20)
#    0.000    1.333   13.333    0.000    0.000    0.000 
#    0.000    0.000    0.000    0.000    0.000    0.000 
#    0.000    0.000    0.000    0.000    0.000    0.000 
#
# Total GULP energy -67114.738242 kJ/mol
# GULP energy per Si atom -5592.894853 kJ/mol
# Density = 2.884430 g / cm^3
# Si number density = 28.910102 Si / 1000 Ang^3
#
#
#
# Elastic Constant Matrix: (Units=GPa)
#
#
# Indices 1 2 3 4 5 6 
#
# 1 206.3400 21.0719 47.0764 0.5035 25.0869 10.8553
# 2 21.0719 59.6388 22.1978 18.0761 4.1901 8.9243
# 3 47.0764 22.1978 220.8519 10.1773 10.6556 2.3185
# 4 0.5035 18.0761 10.1773 63.4079 -1.0846 12.8923
# 5 25.0869 4.1901 10.6556 -1.0846 51.8111 -2.2505
# 6 10.8553 8.9243 2.3185 12.8923 -2.2505 59.0827
#
#
#
# Elastic Compliance Matrix: (Units=1/GPa)
#
#
# Indices 1 2 3 4 5 6 
#
# 1 0.005558 -0.001507 -0.000939 0.000699 -0.002405 -0.001001
# 2 -0.001507 0.019628 -0.001366 -0.005060 -0.000750 -0.001559
# 3 -0.000939 -0.001366 0.004905 -0.000453 -0.000441 0.000268
# 4 0.000699 -0.005060 -0.000453 0.017948 0.000399 -0.003247
# 5 -0.002405 -0.000750 -0.000441 0.000399 0.020681 0.001273
# 6 -0.001001 -0.001559 0.000268 -0.003247 0.001273 0.018091
#
#
# Mechanical properties :
#
#
# Convention : Reuss Voigt Hill
#
# Bulk Modulus (GPa) = 44.51007 74.16920 59.33963
# Shear Modulus (GPa) = 49.05668 61.29266 55.17467
#
# Velocity S-wave (km/s) = 4.12378 4.60946 4.37337
# Velocity P-wave (km/s) = 6.17280 7.35121 6.78763
#
# Compressibility (1/GPa) = 0.02246683
#
# Stress axis : x y z
#
# Youngs Moduli (GPa) = 179.92625 50.94709 203.88786
#
# Poissons Ratio (x) = 0.07679 0.19142
# Poissons Ratio (y) = 0.27120 0.27847
# Poissons Ratio (z) = 0.16892 0.06958
#
# Static dielectric constant tensor:
#      x y z
#    x 2.299650 0.109780 -0.001370 
#    y 0.109780 2.626200 -0.152270 
#    z -0.001370 -0.152270 2.358480 
# 
# From -- ./inp_files/267836.got.cif
#   From: 2010.05.17/outbox.cif.g08.bks.cpg/sg2_134_cif.got.tgz:267836.got - 2010.06.03 11:33:40.
