data_PCOD9080694
_publ_section_title
;
Structure prediction by ZEFSAII (Michael W. Deem and Ramdas Pophale) SiO2 
 PCOD9080694
Probable space group: P -1
;
_chemical_formula_sum "Si O2"
_cell_formula_units_Z 16
_cell_length_a 14.338734
_cell_length_b 18.614204
_cell_length_c 11.141253
_cell_angle_alpha 27.414001
_cell_angle_beta 30.025822
_cell_angle_gamma 30.603812
_cell_volume 627.923910
_symmetry_space_group_name_H-M "P -1"
_symmetry_group_IT_number 2
_symmetry_cell_setting 'triclinic'
loop_
_space_group_symop_operation_xyz
x,y,z
-x,-y,-z
loop_
_atom_site_type_symbol
_atom_site_label
_atom_site_fract_x
_atom_site_fract_y
_atom_site_fract_z
Si Si1 0.289995 0.159229 0.400055
Si Si2 0.740873 0.548356 0.148722
Si Si3 0.001732 0.644326 0.190851
Si Si4 0.658481 0.055978 0.555783
Si Si5 0.932515 0.940490 0.998682
Si Si6 0.858291 0.714503 0.979399
Si Si7 0.531431 0.424801 0.209276
Si Si8 0.396691 0.708704 0.114702
O O1 0.170002 0.335062 0.202965
O O2 0.410237 0.032834 0.345085
O O3 0.136000 0.115029 0.718121
O O4 0.197135 0.859509 0.157386
O O5 0.738603 0.622372 0.173433
O O6 0.527352 0.601644 0.239730
O O7 0.911415 0.361772 0.218534
O O8 0.896715 0.823650 0.110076
O O9 0.000000 0.500000 0.500000
O O10 0.895873 0.664624 0.150403
O O11 0.239281 0.605912 0.959744
O O12 0.749486 0.914020 0.769007
O O13 0.524177 0.239513 0.487577
O O14 0.836421 0.089675 0.236948
O O15 0.542083 0.802575 0.766209
O O16 0.500000 0.500000 0.000000
O O17 0.381864 0.579203 0.226710
#
# Coordination Sequence:
#
# PCOD9080694 Si02
#       8
#     2   2   2   2   2   2   2   2
#     4   9  18  37  62  88 119 164 213 243 301 365
#     4   8  18  34  67  86 112 166 213 247 296 367
#     4  11  23  41  66  94 120 163 210 262 308 366
#     4  10  23  37  64  93 124 166 205 257 314 360
#     4  11  21  33  59  96 129 156 205 260 307 363
#     4  10  18  41  64  89 122 161 213 253 308 375
#     4  11  23  40  61  93 132 166 202 252 317 369
#     4  10  20  39  61  91 122 169 210 248 303 369
#
# _framework density 25.480793999999999
#
# number of rings (size 3 to 8) (size 9 to 14) (size 15 to 20)
#    0.750    1.250    1.250    3.000    0.000    4.000 
#    0.000    1.250    2.750    0.000    0.000    0.000 
#    0.000    0.000    0.000    0.000    0.000    0.000 
#
# Total GULP energy -89452.812703 kJ/mol
# GULP energy per Si atom -5590.800794 kJ/mol
# Density = 2.542280 g / cm^3
# Si number density = 25.480794 Si / 1000 Ang^3
#
#
#
# Elastic Constant Matrix: (Units=GPa)
#
#
# Indices 1 2 3 4 5 6 
#
# 1 135.6489 42.9828 28.7796 -29.5806 31.1290 37.4890
# 2 42.9828 145.3437 27.0128 -39.4676 -7.2395 29.4227
# 3 28.7796 27.0128 125.6314 -19.2991 24.9251 12.2843
# 4 -29.5806 -39.4676 -19.2991 45.2914 -3.3392 -14.0637
# 5 31.1290 -7.2395 24.9251 -3.3392 35.5826 -9.0334
# 6 37.4890 29.4227 12.2843 -14.0637 -9.0334 47.0271
#
#
#
# Elastic Compliance Matrix: (Units=1/GPa)
#
#
# Indices 1 2 3 4 5 6 
#
# 1 0.018279 -0.002578 0.003138 0.004116 -0.022616 -0.016891
# 2 -0.002578 0.010229 -0.001685 0.006718 0.005957 -0.000751
# 3 0.003138 -0.001685 0.010948 0.002544 -0.012004 -0.005852
# 4 0.004116 0.006718 0.002544 0.032062 -0.000675 0.001310
# 5 -0.022616 0.005957 -0.012004 -0.000675 0.064990 0.029719
# 6 -0.016891 -0.000751 -0.005852 0.001310 0.029719 0.042829
#
#
# Mechanical properties :
#
#
# Convention : Reuss Voigt Hill
#
# Bulk Modulus (GPa) = 26.87845 67.13049 47.00447
# Shear Modulus (GPa) = 25.77459 46.10348 35.93903
#
# Velocity S-wave (km/s) = 3.18391 4.25825 3.75965
# Velocity P-wave (km/s) = 4.90793 7.11194 6.11013
#
# Compressibility (1/GPa) = 0.03720452
#
# Stress axis : x y z
#
# Youngs Moduli (GPa) = 54.70796 97.76360 91.34258
#
# Poissons Ratio (x) = 0.25205 -0.28662
# Poissons Ratio (y) = 0.14105 0.15393
# Poissons Ratio (z) = -0.17167 0.16475
#
# Static dielectric constant tensor:
#      x y z
#    x 2.036160 0.003320 -0.053730 
#    y 0.003320 2.018740 0.001150 
#    z -0.053730 0.001150 2.112450 
# 
# From -- ./inp_files/457230.got.cif
#   From: 2010.05.17/outbox.cif.g08.bks.cpg/sg2_229_cif.got.tgz:457230.got - 2010.06.03 11:33:40.
