data_PCOD9080817
_publ_section_title
;
Structure prediction by ZEFSAII (Michael W. Deem and Ramdas Pophale) SiO2 
 PCOD9080817
Probable space group: P -1
;
_chemical_formula_sum "Si O2"
_cell_formula_units_Z 11
_cell_length_a 12.302878
_cell_length_b 12.312680
_cell_length_c 18.371585
_cell_angle_alpha 27.977416
_cell_angle_beta 162.492256
_cell_angle_gamma 145.228748
_cell_volume 388.470631
_symmetry_space_group_name_H-M "P -1"
_symmetry_group_IT_number 2
_symmetry_cell_setting 'triclinic'
loop_
_space_group_symop_operation_xyz
x,y,z
-x,-y,-z
loop_
_atom_site_type_symbol
_atom_site_label
_atom_site_fract_x
_atom_site_fract_y
_atom_site_fract_z
Si Si1 0.421827 0.464484 0.765433
Si Si2 0.832200 0.250152 0.928150
Si Si3 0.423634 0.719084 0.875449
Si Si4 0.299257 0.214683 0.479097
Si Si5 0.210676 0.881612 0.290941
Si Si6 0.500000 0.000000 0.000000
O O1 0.459018 0.704473 0.606866
O O2 0.461214 0.260985 0.852205
O O3 0.000000 0.500000 0.500000
O O4 0.655222 0.367749 0.042895
O O5 0.461206 0.249432 0.642288
O O6 0.854742 0.520548 0.800956
O O7 0.777760 0.082001 0.060617
O O8 0.126596 0.132859 0.125760
O O9 0.150444 0.956787 0.536680
O O10 0.500000 0.500000 0.000000
O O11 0.819525 0.796396 0.089140
O O12 0.607236 0.146708 0.653907
#
# Coordination Sequence:
#
# PCOD9080817 Si02
#       6
#     2   2   2   2   2   1
#     4  10  19  33  54  81 104 142 184 217 261 317
#     4  10  19  28  54  84 105 133 182 233 260 299
#     4  10  20  35  54  81 114 143 174 219 277 324
#     4  10  19  34  54  81 108 138 182 224 264 312
#     4  10  19  36  58  81 101 141 188 223 259 313
#     4  12  16  30  54  84 110 130 182 234 260 304
#
# _framework density 28.316167
#
# number of rings (size 3 to 8) (size 9 to 14) (size 15 to 20)
#    0.000    1.818    7.273    2.182    0.000    0.000 
#    0.000    0.909    0.000   40.364    0.000    0.000 
#    0.000    0.000    0.000    0.000    0.000    0.000 
#
# Total GULP energy -61329.734313 kJ/mol
# GULP energy per Si atom -5575.430392 kJ/mol
# Density = 2.825172 g / cm^3
# Si number density = 28.316167 Si / 1000 Ang^3
#
#
#
# Elastic Constant Matrix: (Units=GPa)
#
#
# Indices 1 2 3 4 5 6 
#
# 1 129.9349 12.9730 9.6684 -20.2119 -7.0319 12.8191
# 2 12.9730 120.9575 31.0193 -50.3154 6.7058 -9.9524
# 3 9.6684 31.0193 183.7809 -46.2424 -5.0488 -10.7465
# 4 -20.2119 -50.3154 -46.2424 61.5071 -3.9229 4.5794
# 5 -7.0319 6.7058 -5.0488 -3.9229 57.5367 -22.5707
# 6 12.8191 -9.9524 -10.7465 4.5794 -22.5707 49.0552
#
#
#
# Elastic Compliance Matrix: (Units=1/GPa)
#
#
# Indices 1 2 3 4 5 6 
#
# 1 0.008413 0.000204 0.000231 0.003296 0.000369 -0.002244
# 2 0.000204 0.012727 0.000670 0.010858 -0.000009 0.001658
# 3 0.000231 0.000670 0.006929 0.005804 0.001667 0.001819
# 4 0.003296 0.010858 0.005804 0.030665 0.002001 0.000671
# 5 0.000369 -0.000009 0.001667 0.002001 0.021648 0.010041
# 6 -0.002244 0.001658 0.001819 0.000671 0.010041 0.026264
#
#
# Mechanical properties :
#
#
# Convention : Reuss Voigt Hill
#
# Bulk Modulus (GPa) = 33.02549 60.22165 46.62357
# Shear Modulus (GPa) = 43.65775 59.02064 51.33919
#
# Velocity S-wave (km/s) = 3.93083 4.57041 4.26264
# Velocity P-wave (km/s) = 5.68246 7.01180 6.38184
#
# Compressibility (1/GPa) = 0.03027964
#
# Stress axis : x y z
#
# Youngs Moduli (GPa) = 118.86856 78.57103 144.33037
#
# Poissons Ratio (x) = -0.01606 -0.03337
# Poissons Ratio (y) = -0.02430 -0.09669
# Poissons Ratio (z) = -0.02748 -0.05263
#
# Static dielectric constant tensor:
#      x y z
#    x 2.292710 -0.092000 -0.135480 
#    y -0.092000 2.361420 0.334800 
#    z -0.135480 0.334800 2.632080 
# 
# From -- ./inp_files/251094.got.cif
#   From: 2010.05.17/outbox.cif.g08.bks.cpg/sg2_126_cif.got.tgz:251094.got - 2010.06.03 11:33:40.
