data_PCOD9080844
_publ_section_title
;
Structure prediction by ZEFSAII (Michael W. Deem and Ramdas Pophale) SiO2 
 PCOD9080844
Probable space group: P -1
;
_chemical_formula_sum "Si O2"
_cell_formula_units_Z 16
_cell_length_a 14.657878
_cell_length_b 12.158961
_cell_length_c 20.467493
_cell_angle_alpha 152.841462
_cell_angle_beta 143.052693
_cell_angle_gamma 29.523753
_cell_volume 815.441522
_symmetry_space_group_name_H-M "P -1"
_symmetry_group_IT_number 2
_symmetry_cell_setting 'triclinic'
loop_
_space_group_symop_operation_xyz
x,y,z
-x,-y,-z
loop_
_atom_site_type_symbol
_atom_site_label
_atom_site_fract_x
_atom_site_fract_y
_atom_site_fract_z
Si Si1 0.500613 0.081079 0.967516
Si Si2 0.879089 0.489498 0.847508
Si Si3 0.164721 0.634024 0.104344
Si Si4 0.563108 0.676738 0.169741
Si Si5 0.627653 0.036224 0.299037
Si Si6 0.840837 0.804201 0.792758
Si Si7 0.899301 0.118972 0.109483
Si Si8 0.786948 0.383897 0.601025
O O1 0.716294 0.846702 0.946426
O O2 0.399386 0.019044 0.820414
O O3 0.500000 0.000000 0.000000
O O4 0.370431 0.438338 0.086742
O O5 0.836148 0.349676 0.809272
O O6 0.872019 0.352722 0.704189
O O7 0.072355 0.452421 0.946278
O O8 0.025167 0.936008 0.146245
O O9 0.707301 0.439799 0.179606
O O10 0.658162 0.776758 0.226018
O O11 0.368362 0.969389 0.234698
O O12 0.500000 0.500000 0.000000
O O13 0.772168 0.120859 0.433587
O O14 0.426529 0.323895 0.358664
O O15 0.875820 0.490971 0.658260
O O16 0.979633 0.816895 0.832775
O O17 0.857806 0.921397 0.935693
#
# Coordination Sequence:
#
# PCOD9080844 Si02
#       8
#     2   2   2   2   2   2   2   2
#     4   9  19  32  48  74 102 125 160 205 250 292
#     4   9  18  33  49  71 101 132 164 208 245 289
#     4  10  19  30  50  73  99 133 169 201 247 294
#     4   9  19  31  46  72  99 127 160 202 250 286
#     4   9  18  30  54  77  97 131 167 202 248 302
#     4   9  18  30  46  71 101 128 157 209 247 290
#     4  10  19  29  47  72 101 128 167 202 242 297
#     4   9  16  33  52  75 101 130 166 205 252 291
#
# _framework density 19.621271
#
# number of rings (size 3 to 8) (size 9 to 14) (size 15 to 20)
#    0.000    2.750    1.250    0.000    7.000    0.000 
#    0.000    2.500    0.000    0.750    3.250    4.375 
#    0.000    0.000    0.000    0.000    0.000    0.000 
#
# Total GULP energy -89121.733321 kJ/mol
# GULP energy per Si atom -5570.108333 kJ/mol
# Density = 1.957661 g / cm^3
# Si number density = 19.621271 Si / 1000 Ang^3
#
#
#
# Elastic Constant Matrix: (Units=GPa)
#
#
# Indices 1 2 3 4 5 6 
#
# 1 60.4994 23.4105 20.7436 6.6408 9.7199 -0.5142
# 2 23.4105 123.4460 11.0399 18.4394 -4.8259 10.8344
# 3 20.7436 11.0399 47.3687 4.2567 20.7839 9.8004
# 4 6.6408 18.4394 4.2567 20.9559 -0.2919 -0.0770
# 5 9.7199 -4.8259 20.7839 -0.2919 25.6467 2.9161
# 6 -0.5142 10.8344 9.8004 -0.0770 2.9161 29.2869
#
#
#
# Elastic Compliance Matrix: (Units=1/GPa)
#
#
# Indices 1 2 3 4 5 6 
#
# 1 0.021388 -0.003544 -0.008119 -0.002031 -0.002748 0.004672
# 2 -0.003544 0.010633 -0.001587 -0.007856 0.004994 -0.003983
# 3 -0.008119 -0.001587 0.040108 -0.004614 -0.028625 -0.010139
# 4 -0.002031 -0.007856 -0.004614 0.056272 0.003188 0.004245
# 5 -0.002748 0.004994 -0.028625 0.003188 0.064057 0.001313
# 6 0.004672 -0.003983 -0.010139 0.004245 0.001313 0.038973
#
#
# Mechanical properties :
#
#
# Convention : Reuss Voigt Hill
#
# Bulk Modulus (GPa) = 21.91569 37.96690 29.94129
# Shear Modulus (GPa) = 18.30549 26.91924 22.61237
#
# Velocity S-wave (km/s) = 3.05772 3.70799 3.39845
# Velocity P-wave (km/s) = 4.86414 6.14200 5.54003
#
# Compressibility (1/GPa) = 0.04562942
#
# Stress axis : x y z
#
# Youngs Moduli (GPa) = 46.75449 94.04751 24.93254
#
# Poissons Ratio (x) = 0.33331 0.20242
# Poissons Ratio (y) = 0.16570 0.03958
# Poissons Ratio (z) = 0.37958 0.14928
#
# Static dielectric constant tensor:
#      x y z
#    x 1.743730 -0.040440 -0.003380 
#    y -0.040440 1.780930 0.036880 
#    z -0.003380 0.036880 1.673440 
# 
# From -- ./inp_files/277130.got.cif
#   From: 2010.05.17/outbox.cif.g08.bks.cpg/sg2_139_cif.got.tgz:277130.got - 2010.06.03 11:33:40.
