data_PCOD9080985
_publ_section_title
;
Structure prediction by ZEFSAII (Michael W. Deem and Ramdas Pophale) SiO2 
 PCOD9080985
Probable space group: P -1
;
_chemical_formula_sum "Si O2"
_cell_formula_units_Z 12
_cell_length_a 13.911329
_cell_length_b 11.893893
_cell_length_c 15.959474
_cell_angle_alpha 129.444287
_cell_angle_beta 18.715640
_cell_angle_gamma 122.598567
_cell_volume 632.838895
_symmetry_space_group_name_H-M "P -1"
_symmetry_group_IT_number 2
_symmetry_cell_setting 'triclinic'
loop_
_space_group_symop_operation_xyz
x,y,z
-x,-y,-z
loop_
_atom_site_type_symbol
_atom_site_label
_atom_site_fract_x
_atom_site_fract_y
_atom_site_fract_z
Si Si1 0.263360 0.898597 0.296296
Si Si2 0.300037 0.173019 0.230485
Si Si3 0.291959 0.380676 0.497057
Si Si4 0.213831 0.453167 0.883462
Si Si5 0.359507 0.899939 0.822354
Si Si6 0.334736 0.101615 0.608868
O O1 0.049457 0.832160 0.503590
O O2 0.461093 0.998119 0.225369
O O3 0.503799 0.780786 0.984478
O O4 0.000000 0.000000 0.500000
O O5 0.280985 0.275338 0.376347
O O6 0.500000 0.000000 0.000000
O O7 0.468707 0.503181 0.379404
O O8 0.498971 0.270185 0.342669
O O9 0.968145 0.452774 0.843762
O O10 0.260238 0.277368 0.777416
O O11 0.000000 0.500000 0.000000
O O12 0.449703 0.915864 0.659365
O O13 0.993557 0.935940 0.156888
O O14 0.500000 0.000000 0.500000
#
# Coordination Sequence:
#
# PCOD9080985 Si02
#       6
#     2   2   2   2   2   2
#     4  10  19  30  53  89 125 145 182 243 308 348
#     4  10  19  30  50  85 132 142 179 230 309 363
#     4  12  21  34  58  93 122 151 184 245 314 349
#     4  12  23  37  59  86 119 154 200 252 301 343
#     4  12  21  37  63  88 123 154 199 247 299 346
#     4  12  27  43  59  84 121 168 209 239 284 358
#
# _framework density 18.962171999999999
#
# number of rings (size 3 to 8) (size 9 to 14) (size 15 to 20)
#    0.000    0.667    6.667    4.000    4.667    0.000 
#    0.000    0.000    0.000    0.000    0.000   23.333 
#    0.000    0.000    0.000    0.000    0.000    0.000 
#
# Total GULP energy -66970.999434 kJ/mol
# GULP energy per Si atom -5580.916620 kJ/mol
# Density = 1.891901 g / cm^3
# Si number density = 18.962172 Si / 1000 Ang^3
#
#
#
# Elastic Constant Matrix: (Units=GPa)
#
#
# Indices 1 2 3 4 5 6 
#
# 1 66.1815 39.0766 26.3558 10.4656 16.7375 0.1863
# 2 39.0766 89.3556 38.6840 -12.7887 -7.1766 2.3580
# 3 26.3558 38.6840 63.5845 -21.4334 21.8985 -14.3519
# 4 10.4656 -12.7887 -21.4334 44.1519 -4.6148 3.0025
# 5 16.7375 -7.1766 21.8985 -4.6148 41.9666 -1.4519
# 6 0.1863 2.3580 -14.3519 3.0025 -1.4519 27.3061
#
#
#
# Elastic Compliance Matrix: (Units=1/GPa)
#
#
# Indices 1 2 3 4 5 6 
#
# 1 0.032538 -0.016262 -0.003439 -0.015751 -0.015686 0.000273
# 2 -0.016262 0.029847 -0.019802 0.006044 0.022160 -0.012361
# 3 -0.003439 -0.019802 0.047849 0.014102 -0.024601 0.024024
# 4 -0.015751 0.006044 0.014102 0.035164 0.003939 0.003341
# 5 -0.015686 0.022160 -0.024601 0.003939 0.046705 -0.012686
# 6 0.000273 -0.012361 0.024024 0.003341 -0.012686 0.049272
#
#
# Mechanical properties :
#
#
# Convention : Reuss Voigt Hill
#
# Bulk Modulus (GPa) = 32.02332 47.48381 39.75357
# Shear Modulus (GPa) = 15.11530 30.35194 22.73362
#
# Velocity S-wave (km/s) = 2.82641 4.00516 3.46626
# Velocity P-wave (km/s) = 5.25130 6.81793 6.08524
#
# Compressibility (1/GPa) = 0.03122724
#
# Stress axis : x y z
#
# Youngs Moduli (GPa) = 30.73286 33.50450 20.89919
#
# Poissons Ratio (x) = 0.54485 0.07187
# Poissons Ratio (y) = 0.49978 0.41385
# Poissons Ratio (z) = 0.10569 0.66347
#
# Static dielectric constant tensor:
#      x y z
#    x 1.724920 -0.044830 0.047990 
#    y -0.044830 1.755860 -0.052060 
#    z 0.047990 -0.052060 1.669230 
# 
# From -- ./inp_files/61999.got.cif
#   From: 2010.05.17/outbox.cif.g08.bks.cpg/sg2_31_cif.got.tgz:61999.got - 2010.06.03 11:33:40.
