data_PCOD9080129
_publ_section_title
;
Structure prediction by ZEFSAII (Michael W. Deem and Ramdas Pophale) SiO2 
 PCOD9080129
Probable space group: P -1
;
_chemical_formula_sum "Si O2"
_cell_formula_units_Z 15
_cell_length_a 13.606848
_cell_length_b 9.551248
_cell_length_c 9.271295
_cell_angle_alpha 111.150184
_cell_angle_beta 34.088085
_cell_angle_gamma 112.753067
_cell_volume 620.848753
_symmetry_space_group_name_H-M "P -1"
_symmetry_group_IT_number 2
_symmetry_cell_setting 'triclinic'
loop_
_space_group_symop_operation_xyz
x,y,z
-x,-y,-z
loop_
_atom_site_type_symbol
_atom_site_label
_atom_site_fract_x
_atom_site_fract_y
_atom_site_fract_z
Si Si1 0.669121 0.764248 0.138807
Si Si2 0.532419 0.532621 0.641315
Si Si3 0.500000 0.000000 0.000000
Si Si4 0.981428 0.671887 0.556314
Si Si5 0.744012 0.253884 0.961590
Si Si6 0.773138 0.113377 0.159890
Si Si7 0.801654 0.801706 0.325978
Si Si8 0.295041 0.877429 0.420437
O O1 0.499227 0.628938 0.300138
O O2 0.754204 0.768389 0.201536
O O3 0.795903 0.710923 0.845067
O O4 0.674483 0.943874 0.178379
O O5 0.500000 0.500000 0.500000
O O6 0.716748 0.652389 0.463601
O O7 0.369385 0.621274 0.909158
O O8 0.663862 0.094735 0.928163
O O9 0.533330 0.140414 0.885062
O O10 0.052774 0.706610 0.320935
O O11 0.123138 0.776623 0.525271
O O12 0.000000 0.500000 0.500000
O O13 0.721352 0.231083 0.151086
O O14 0.988577 0.134201 0.896842
O O15 0.721826 0.137190 0.395070
O O16 0.702139 0.940369 0.552985
#
# Coordination Sequence:
#
# PCOD9080129 Si02
#       8
#     2   2   1   2   2   2   2   2
#     4  10  19  38  62  90 126 171 206 256 316 376
#     4  10  21  39  62  89 126 171 206 248 319 385
#     4  10  22  40  58  94 126 164 202 252 320 380
#     4  11  20  36  61  89 128 168 209 246 315 389
#     4  11  24  39  66  95 122 163 212 265 312 372
#     4  11  22  39  69  97 119 156 226 272 296 354
#     4  10  18  38  64  89 121 170 210 254 308 379
#     4  10  19  38  64  87 125 170 212 252 311 381
#
# _framework density 24.160474000000001
#
# number of rings (size 3 to 8) (size 9 to 14) (size 15 to 20)
#    0.000    1.600    5.333    0.800    0.000    1.067 
#    0.000    6.000    2.933    1.600    0.000    0.000 
#    0.000    0.000    0.000    0.000    0.000    0.000 
#
# Total GULP energy -83557.246650 kJ/mol
# GULP energy per Si atom -5570.483110 kJ/mol
# Density = 2.410548 g / cm^3
# Si number density = 24.160474 Si / 1000 Ang^3
#
#
#
# Elastic Constant Matrix: (Units=GPa)
#
#
# Indices 1 2 3 4 5 6 
#
# 1 45.6192 24.7879 16.4541 -14.8688 2.7366 3.9624
# 2 24.7879 127.4148 57.8514 -29.1612 -6.5942 5.8296
# 3 16.4541 57.8514 109.9206 -25.1800 6.1107 4.0506
# 4 -14.8688 -29.1612 -25.1800 47.9096 3.0432 -3.6758
# 5 2.7366 -6.5942 6.1107 3.0432 41.7956 -3.3823
# 6 3.9624 5.8296 4.0506 -3.6758 -3.3823 23.4744
#
#
#
# Elastic Compliance Matrix: (Units=1/GPa)
#
#
# Indices 1 2 3 4 5 6 
#
# 1 0.026342 -0.003628 -0.000463 0.005678 -0.002885 -0.002992
# 2 -0.003628 0.011714 -0.005018 0.003161 0.002543 -0.000569
# 3 -0.000463 -0.005018 0.012844 0.003684 -0.002968 -0.000743
# 4 0.005678 0.003161 0.003684 0.026752 -0.002239 0.001487
# 5 -0.002885 0.002543 -0.002968 -0.002239 0.025411 0.003678
# 6 -0.002992 -0.000569 -0.000743 0.001487 0.003678 0.044137
#
#
# Mechanical properties :
#
#
# Convention : Reuss Voigt Hill
#
# Bulk Modulus (GPa) = 30.59684 53.46016 42.02850
# Shear Modulus (GPa) = 28.35904 34.89331 31.62618
#
# Velocity S-wave (km/s) = 3.42976 3.80443 3.62194
# Velocity P-wave (km/s) = 5.32690 6.43998 5.90970
#
# Compressibility (1/GPa) = 0.03268312
#
# Stress axis : x y z
#
# Youngs Moduli (GPa) = 37.96195 85.36974 77.85700
#
# Poissons Ratio (x) = 0.30969 0.03602
# Poissons Ratio (y) = 0.13771 0.39070
# Poissons Ratio (z) = 0.01756 0.42840
#
# Static dielectric constant tensor:
#      x y z
#    x 1.999150 -0.031820 0.048350 
#    y -0.031820 1.863990 -0.122080 
#    z 0.048350 -0.122080 1.714800 
# 
# From -- ./inp_files/204789.got.cif
#   From: 2010.05.17/outbox.cif.g08.bks.cpg/sg2_103_cif.got.tgz:204789.got - 2010.06.03 11:33:40.
