data_PCOD9080858
_publ_section_title
;
Structure prediction by ZEFSAII (Michael W. Deem and Ramdas Pophale) SiO2 
 PCOD9080858
Probable space group: P -1
;
_chemical_formula_sum "Si O2"
_cell_formula_units_Z 16
_cell_length_a 9.563927
_cell_length_b 15.464062
_cell_length_c 14.450796
_cell_angle_alpha 35.046395
_cell_angle_beta 149.398313
_cell_angle_gamma 137.296650
_cell_volume 621.424089
_symmetry_space_group_name_H-M "P -1"
_symmetry_group_IT_number 2
_symmetry_cell_setting 'triclinic'
loop_
_space_group_symop_operation_xyz
x,y,z
-x,-y,-z
loop_
_atom_site_type_symbol
_atom_site_label
_atom_site_fract_x
_atom_site_fract_y
_atom_site_fract_z
Si Si1 0.350077 0.448660 0.554787
Si Si2 0.077013 0.875412 0.527269
Si Si3 0.277449 0.867386 0.196484
Si Si4 0.216477 0.214543 0.876295
Si Si5 0.871739 0.798307 0.674043
Si Si6 0.457874 0.468066 0.212680
Si Si7 0.199072 0.688282 0.604759
Si Si8 0.526723 0.175657 0.840690
O O1 0.500000 0.500000 0.500000
O O2 0.392114 0.540934 0.593302
O O3 0.528978 0.302799 0.807965
O O4 0.018677 0.437269 0.361461
O O5 0.279019 0.811465 0.622815
O O6 0.073680 0.827531 0.675116
O O7 0.776187 0.800139 0.392245
O O8 0.060649 0.055506 0.350434
O O9 0.564213 0.831879 0.437051
O O10 0.263352 0.800303 0.144369
O O11 0.001745 0.812009 0.141466
O O12 0.311904 0.050658 0.053779
O O13 0.443122 0.355136 0.906420
O O14 0.014516 0.248324 0.645951
O O15 0.833317 0.631515 0.842990
O O16 0.576938 0.378752 0.272455
O O17 0.500000 0.000000 0.000000
#
# Coordination Sequence:
#
# PCOD9080858 Si02
#       8
#     2   2   2   2   2   2   2   2
#     4  10  19  29  49  76 108 132 169 216 262 308
#     4   9  20  36  54  79 106 134 185 216 247 322
#     4  10  19  33  52  78 106 142 169 213 268 307
#     4  10  20  32  51  81 111 131 172 220 264 315
#     4  10  20  36  56  76 102 146 177 214 260 306
#     4  11  20  32  51  78 110 136 174 217 266 305
#     4  10  19  31  52  77 106 135 174 219 261 303
#     4  10  19  33  56  79 100 133 172 217 262 304
#
# _framework density 25.747311
#
# number of rings (size 3 to 8) (size 9 to 14) (size 15 to 20)
#    0.000    2.000    1.250    6.000    1.750    0.500 
#    0.000    0.000    0.000   15.750    0.000    0.000 
#    0.000    0.000    0.000    0.000    0.000    0.000 
#
# Total GULP energy -89160.781852 kJ/mol
# GULP energy per Si atom -5572.548866 kJ/mol
# Density = 2.568871 g / cm^3
# Si number density = 25.747311 Si / 1000 Ang^3
#
#
#
# Elastic Constant Matrix: (Units=GPa)
#
#
# Indices 1 2 3 4 5 6 
#
# 1 147.6451 38.9925 9.0350 -23.1246 8.1285 -22.2800
# 2 38.9925 120.2747 19.8242 -34.3873 5.3692 -0.2423
# 3 9.0350 19.8242 56.0286 -17.4114 8.6418 2.1099
# 4 -23.1246 -34.3873 -17.4114 35.9253 -1.0394 2.2348
# 5 8.1285 5.3692 8.6418 -1.0394 26.2841 -16.5188
# 6 -22.2800 -0.2423 2.1099 2.2348 -16.5188 54.3374
#
#
#
# Elastic Compliance Matrix: (Units=1/GPa)
#
#
# Indices 1 2 3 4 5 6 
#
# 1 0.008255 -0.001663 0.000307 0.003668 -0.000184 0.003159
# 2 -0.001663 0.011947 -0.000309 0.010254 -0.002561 -0.001817
# 3 0.000307 -0.000309 0.023005 0.011029 -0.009800 -0.004202
# 4 0.003668 0.010254 0.011029 0.045335 -0.006835 -0.002821
# 5 -0.000184 -0.002561 -0.009800 -0.006835 0.051844 0.016336
# 6 0.003159 -0.001817 -0.004202 -0.002821 0.016336 0.024936
#
#
# Mechanical properties :
#
#
# Convention : Reuss Voigt Hill
#
# Bulk Modulus (GPa) = 25.07813 51.07243 38.07528
# Shear Modulus (GPa) = 27.48094 40.38247 33.93171
#
# Velocity S-wave (km/s) = 3.27055 3.96462 3.63419
# Velocity P-wave (km/s) = 4.90135 6.39036 5.69473
#
# Compressibility (1/GPa) = 0.03987537
#
# Stress axis : x y z
#
# Youngs Moduli (GPa) = 121.14144 83.70441 43.46874
#
# Poissons Ratio (x) = 0.13924 -0.01333
# Poissons Ratio (y) = 0.20151 0.01343
# Poissons Ratio (z) = -0.03715 0.02586
#
# Static dielectric constant tensor:
#      x y z
#    x 2.075720 -0.009740 -0.076730 
#    y -0.009740 2.193770 -0.092000 
#    z -0.076730 -0.092000 2.152370 
# 
# From -- ./inp_files/208977.got.cif
#   From: 2010.05.17/outbox.cif.g08.bks.cpg/sg2_105_cif.got.tgz:208977.got - 2010.06.03 11:33:40.
