data_PCOD9080111
_publ_section_title
;
Structure prediction by ZEFSAII (Michael W. Deem and Ramdas Pophale) SiO2 
 PCOD9080111
Probable space group: P -1
;
_chemical_formula_sum "Si O2"
_cell_formula_units_Z 15
_cell_length_a 14.162201
_cell_length_b 8.763512
_cell_length_c 7.509864
_cell_angle_alpha 129.628376
_cell_angle_beta 105.152543
_cell_angle_gamma 103.042358
_cell_volume 588.528353
_symmetry_space_group_name_H-M "P -1"
_symmetry_group_IT_number 2
_symmetry_cell_setting 'triclinic'
loop_
_space_group_symop_operation_xyz
x,y,z
-x,-y,-z
loop_
_atom_site_type_symbol
_atom_site_label
_atom_site_fract_x
_atom_site_fract_y
_atom_site_fract_z
Si Si1 0.500000 0.000000 0.000000
Si Si2 0.836170 0.731840 0.861463
Si Si3 0.079725 0.047869 0.289415
Si Si4 0.692694 0.939178 0.987732
Si Si5 0.711560 0.910446 0.395364
Si Si6 0.529464 0.230306 0.798283
Si Si7 0.769383 0.411022 0.910594
Si Si8 0.098384 0.645063 0.797899
O O1 0.566596 0.884787 0.853399
O O2 0.471882 0.832420 0.041541
O O3 0.945138 0.949270 0.181613
O O4 0.726888 0.758584 0.809583
O O5 0.800936 0.514573 0.805782
O O6 0.875927 0.757704 0.697610
O O7 0.182509 0.121225 0.531761
O O8 0.069489 0.815711 0.019685
O O9 0.712635 0.957680 0.222455
O O10 0.783686 0.183431 0.122139
O O11 0.738125 0.146787 0.681436
O O12 0.578796 0.735718 0.258686
O O13 0.658621 0.412787 0.928665
O O14 0.500000 0.000000 0.500000
O O15 0.877950 0.512332 0.172937
O O16 0.000000 0.500000 0.500000
#
# Coordination Sequence:
#
# PCOD9080111 Si02
#       8
#     1   2   2   2   2   2   2   2
#     4  10  18  38  64  82 116 156 200 242 290 362
#     4  10  22  38  57  82 124 157 186 248 306 343
#     4   9  21  41  56  80 123 162 190 237 303 358
#     4  10  21  38  60  87 112 158 196 238 303 353
#     4   9  20  36  64  82 111 155 205 233 288 362
#     4   9  18  35  62  87 111 153 201 244 293 348
#     4  10  20  38  59  86 120 149 198 253 287 345
#     4  10  21  35  60  87 115 155 205 238 282 359
#
# _framework density 25.487304999999999
#
# number of rings (size 3 to 8) (size 9 to 14) (size 15 to 20)
#    0.000    2.400    1.333    0.000    5.600    1.600 
#    4.800    3.333    0.000    0.000    0.000    0.000 
#    0.000    0.000    0.000    0.000    0.000    0.000 
#
# Total GULP energy -83537.650835 kJ/mol
# GULP energy per Si atom -5569.176722 kJ/mol
# Density = 2.542929 g / cm^3
# Si number density = 25.487305 Si / 1000 Ang^3
#
#
#
# Elastic Constant Matrix: (Units=GPa)
#
#
# Indices 1 2 3 4 5 6 
#
# 1 112.1092 16.2219 -14.7784 2.9181 -1.7724 -13.2544
# 2 16.2219 111.6517 -4.9347 -5.5386 13.7798 -6.6537
# 3 -14.7784 -4.9347 41.4609 12.6380 -3.3006 4.0326
# 4 2.9181 -5.5386 12.6380 21.7332 3.3647 4.5584
# 5 -1.7724 13.7798 -3.3006 3.3647 16.3115 -6.2933
# 6 -13.2544 -6.6537 4.0326 4.5584 -6.2933 46.3353
#
#
#
# Elastic Compliance Matrix: (Units=1/GPa)
#
#
# Indices 1 2 3 4 5 6 
#
# 1 0.010865 -0.002380 0.006130 -0.007641 0.007555 0.004010
# 2 -0.002380 0.010902 -0.002364 0.006530 -0.011736 -0.001146
# 3 0.006130 -0.002364 0.034480 -0.024556 0.015856 0.002983
# 4 -0.007641 0.006530 -0.024556 0.069646 -0.029530 -0.009973
# 5 0.007555 -0.011736 0.015856 -0.029530 0.086655 0.013770
# 6 0.004010 -0.001146 0.002983 -0.009973 0.013770 0.025156
#
#
# Mechanical properties :
#
#
# Convention : Reuss Voigt Hill
#
# Bulk Modulus (GPa) = 16.94406 28.69328 22.81867
# Shear Modulus (GPa) = 19.63833 34.79020 27.21427
#
# Velocity S-wave (km/s) = 2.77883 3.69860 3.27120
# Velocity P-wave (km/s) = 4.11805 5.43340 4.82080
#
# Compressibility (1/GPa) = 0.05901773
#
# Stress axis : x y z
#
# Youngs Moduli (GPa) = 92.04071 91.72818 29.00241
#
# Poissons Ratio (x) = 0.21832 -0.17778
# Poissons Ratio (y) = 0.21906 0.06856
# Poissons Ratio (z) = -0.56418 0.21685
#
# Static dielectric constant tensor:
#      x y z
#    x 2.066250 -0.020510 0.015460 
#    y -0.020510 1.971970 -0.006630 
#    z 0.015460 -0.006630 2.129760 
# 
# From -- ./inp_files/299667.got.cif
#   From: 2010.05.17/outbox.cif.g08.bks.cpg/sg2_150_cif.got.tgz:299667.got - 2010.06.03 11:33:40.
