data_PCOD9080867
_publ_section_title
;
Structure prediction by ZEFSAII (Michael W. Deem and Ramdas Pophale) SiO2 
 PCOD9080867
Probable space group: P -1
;
_chemical_formula_sum "Si O2"
_cell_formula_units_Z 14
_cell_length_a 13.709139
_cell_length_b 5.203660
_cell_length_c 9.742320
_cell_angle_alpha 111.792200
_cell_angle_beta 85.130993
_cell_angle_gamma 88.149122
_cell_volume 641.468008
_symmetry_space_group_name_H-M "P -1"
_symmetry_group_IT_number 2
_symmetry_cell_setting 'triclinic'
loop_
_space_group_symop_operation_xyz
x,y,z
-x,-y,-z
loop_
_atom_site_type_symbol
_atom_site_label
_atom_site_fract_x
_atom_site_fract_y
_atom_site_fract_z
Si Si1 0.608269 0.954802 0.410622
Si Si2 0.513235 0.336273 0.823440
Si Si3 0.587062 0.861066 0.867911
Si Si4 0.793348 0.729196 0.808368
Si Si5 0.929174 0.243938 0.427973
Si Si6 0.906798 0.178006 0.732806
Si Si7 0.272813 0.508543 0.522629
O O1 0.583158 0.796009 0.242432
O O2 0.679122 0.748122 0.449859
O O3 0.500000 0.000000 0.500000
O O4 0.656212 0.241398 0.437372
O O5 0.548148 0.571651 0.765300
O O6 0.594337 0.086042 0.791470
O O7 0.500000 0.500000 0.000000
O O8 0.691997 0.802715 0.915287
O O9 0.500000 0.000000 0.000000
O O10 0.873127 0.503371 0.818242
O O11 0.752257 0.590200 0.647446
O O12 0.839909 0.002615 0.802798
O O13 0.895413 0.136392 0.560457
O O14 0.833774 0.372082 0.386965
O O15 0.000000 0.500000 0.500000
O O16 0.986120 0.983445 0.294631
#
# Coordination Sequence:
#
# PCOD9080867 Si02
#       7
#     2   2   2   2   2   2   2
#     4  12  23  36  52  81 117 153 183 231 284 340
#     4  10  21  38  56  74 107 151 192 235 273 329
#     4  10  20  35  56  77 105 144 186 243 278 319
#     4  11  19  32  49  80 113 150 186 226 284 345
#     4  10  19  34  51  76 115 153 197 227 276 344
#     4  10  19  29  50  73 110 153 183 231 276 337
#     4  11  22  32  54  78 113 158 184 221 288 343
#
# _framework density 21.824939000000001
#
# number of rings (size 3 to 8) (size 9 to 14) (size 15 to 20)
#    0.000    1.429    2.857    5.571    2.000    0.000 
#    0.000    0.000    0.000    0.000    0.000    0.000 
#    0.000   91.429    0.000    0.000    0.000    0.000 
#
# Total GULP energy -78049.040714 kJ/mol
# GULP energy per Si atom -5574.931480 kJ/mol
# Density = 2.177526 g / cm^3
# Si number density = 21.824939 Si / 1000 Ang^3
#
#
#
# Elastic Constant Matrix: (Units=GPa)
#
#
# Indices 1 2 3 4 5 6 
#
# 1 104.8609 17.0334 4.4195 -5.9988 -26.2134 -27.9266
# 2 17.0334 138.6463 2.8711 20.7401 -10.0565 -9.0132
# 3 4.4195 2.8711 42.1505 -0.2552 -1.0811 -2.7904
# 4 -5.9988 20.7401 -0.2552 9.6405 1.2850 3.0898
# 5 -26.2134 -10.0565 -1.0811 1.2850 24.7912 8.8145
# 6 -27.9266 -9.0132 -2.7904 3.0898 8.8145 46.7616
#
#
#
# Elastic Compliance Matrix: (Units=1/GPa)
#
#
# Indices 1 2 3 4 5 6 
#
# 1 0.015138 -0.002161 -0.000688 0.010606 0.012592 0.005509
# 2 -0.002161 0.012176 -0.000540 -0.028732 0.003303 0.002300
# 3 -0.000688 -0.000540 0.023892 0.001118 -0.000279 0.000889
# 4 0.010606 -0.028732 0.001118 0.176067 -0.006098 -0.009622
# 5 0.012592 0.003303 -0.000279 -0.006098 0.056011 -0.002015
# 6 0.005509 0.002300 0.000889 -0.009622 -0.002015 0.026187
#
#
# Mechanical properties :
#
#
# Convention : Reuss Voigt Hill
#
# Bulk Modulus (GPa) = 22.50788 37.14509 29.82648
# Shear Modulus (GPa) = 15.10311 33.66088 24.38200
#
# Velocity S-wave (km/s) = 2.63347 3.93149 3.34602
# Velocity P-wave (km/s) = 4.42517 6.13721 5.35012
#
# Compressibility (1/GPa) = 0.04442889
#
# Stress axis : x y z
#
# Youngs Moduli (GPa) = 66.05936 82.12700 41.85517
#
# Poissons Ratio (x) = 0.17744 0.02880
# Poissons Ratio (y) = 0.14273 0.02259
# Poissons Ratio (z) = 0.04546 0.04433
#
# Static dielectric constant tensor:
#      x y z
#    x 1.935350 0.020730 -0.114240 
#    y 0.020730 1.980170 -0.083580 
#    z -0.114240 -0.083580 1.943460 
# 
# From -- ./inp_files/108419.got.cif
#   From: 2010.05.17/outbox.cif.g08.bks.cpg/sg2_55_cif.got.tgz:108419.got - 2010.06.03 11:33:40.
