data_PCOD9080047
_publ_section_title
;
Structure prediction by ZEFSAII (Michael W. Deem and Ramdas Pophale) SiO2 
 PCOD9080047
Probable space group: P -1
;
_chemical_formula_sum "Si O2"
_cell_formula_units_Z 11
_cell_length_a 11.537617
_cell_length_b 8.099928
_cell_length_c 14.633692
_cell_angle_alpha 137.121457
_cell_angle_beta 152.168595
_cell_angle_gamma 40.619579
_cell_volume 407.060706
_symmetry_space_group_name_H-M "P -1"
_symmetry_group_IT_number 2
_symmetry_cell_setting 'triclinic'
loop_
_space_group_symop_operation_xyz
x,y,z
-x,-y,-z
loop_
_atom_site_type_symbol
_atom_site_label
_atom_site_fract_x
_atom_site_fract_y
_atom_site_fract_z
Si Si1 0.984086 0.856107 0.155345
Si Si2 0.500000 0.500000 0.500000
Si Si3 0.038774 0.268973 0.108335
Si Si4 0.195018 0.556463 0.794367
Si Si5 0.433080 0.784456 0.747984
Si Si6 0.917040 0.896516 0.522392
O O1 0.948196 0.151934 0.224717
O O2 0.151600 0.830924 0.356962
O O3 0.076975 0.693379 0.061251
O O4 0.700059 0.839355 0.975963
O O5 0.323439 0.290264 0.297481
O O6 0.472663 0.546955 0.612175
O O7 0.918090 0.448464 0.183849
O O8 0.000000 0.000000 0.000000
O O9 0.176255 0.343360 0.623281
O O10 0.500000 0.500000 0.000000
O O11 0.235765 0.782462 0.691121
O O12 0.235823 0.016906 0.644244
#
# Coordination Sequence:
#
# PCOD9080047 Si02
#       6
#     2   1   2   2   2   2
#     4  10  21  38  60  86 117 156 198 246 295 362
#     4  10  18  38  62  84 114 166 194 240 308 354
#     4   9  20  37  61  84 121 160 197 244 303 357
#     4  11  20  38  61  86 121 157 197 247 302 354
#     4  10  21  37  60  84 122 152 196 249 300 355
#     4  11  21  37  60  88 118 154 200 244 300 356
#
# _framework density 27.022995999999999
#
# number of rings (size 3 to 8) (size 9 to 14) (size 15 to 20)
#    0.000    1.818    3.636    1.091    0.000    0.000 
#    0.000    6.364    0.000    0.000    0.000    0.000 
#    0.000    0.000    0.000    0.000    0.000    0.000 
#
# Total GULP energy -61262.288355 kJ/mol
# GULP energy per Si atom -5569.298941 kJ/mol
# Density = 2.696149 g / cm^3
# Si number density = 27.022996 Si / 1000 Ang^3
#
#
#
# Elastic Constant Matrix: (Units=GPa)
#
#
# Indices 1 2 3 4 5 6 
#
# 1 122.0549 5.7770 59.0210 -5.5774 11.9763 -22.8412
# 2 5.7770 57.7192 41.8751 28.8361 3.8371 2.8301
# 3 59.0210 41.8751 236.9178 18.0274 -14.8733 3.9858
# 4 -5.5774 28.8361 18.0274 49.1476 -0.7016 -20.6487
# 5 11.9763 3.8371 -14.8733 -0.7016 45.4067 9.1999
# 6 -22.8412 2.8301 3.9858 -20.6487 9.1999 48.0776
#
#
#
# Elastic Compliance Matrix: (Units=1/GPa)
#
#
# Indices 1 2 3 4 5 6 
#
# 1 0.014319 -0.004017 -0.004411 0.011232 -0.007476 0.013660
# 2 -0.004017 0.032635 -0.002665 -0.024570 -0.000085 -0.014145
# 3 -0.004411 -0.002665 0.006386 -0.003179 0.004378 -0.004671
# 4 0.011232 -0.024570 -0.003179 0.049587 -0.007183 0.029718
# 5 -0.007476 -0.000085 0.004378 -0.007183 0.027821 -0.012318
# 6 0.013660 -0.014145 -0.004671 0.029718 -0.012318 0.043630
#
#
# Mechanical properties :
#
#
# Convention : Reuss Voigt Hill
#
# Bulk Modulus (GPa) = 32.09902 70.00423 51.05162
# Shear Modulus (GPa) = 24.16042 49.19429 36.67736
#
# Velocity S-wave (km/s) = 2.99334 4.27131 3.68810
# Velocity P-wave (km/s) = 4.88375 7.09134 6.08844
#
# Compressibility (1/GPa) = 0.03115360
#
# Stress axis : x y z
#
# Youngs Moduli (GPa) = 69.83584 30.64161 156.58853
#
# Poissons Ratio (x) = 0.12310 0.69071
# Poissons Ratio (y) = 0.28056 0.41735
# Poissons Ratio (z) = 0.30805 0.08167
#
# Static dielectric constant tensor:
#      x y z
#    x 2.616110 -0.074860 -0.231950 
#    y -0.074860 2.175990 0.075200 
#    z -0.231950 0.075200 2.167080 
# 
# From -- ./inp_files/17071.got.cif
#   From: 2010.05.17/outbox.cif.g08.bks.cpg/sg2_9_cif.got.tgz:17071.got - 2010.06.03 11:33:40.
