data_PCOD9080520
_publ_section_title
;
Structure prediction by ZEFSAII (Michael W. Deem and Ramdas Pophale) SiO2 
 PCOD9080520
Probable space group: P -1
;
_chemical_formula_sum "Si O2"
_cell_formula_units_Z 14
_cell_length_a 14.996506
_cell_length_b 19.442413
_cell_length_c 9.680911
_cell_angle_alpha 34.073904
_cell_angle_beta 134.309289
_cell_angle_gamma 157.670922
_cell_volume 569.647444
_symmetry_space_group_name_H-M "P -1"
_symmetry_group_IT_number 2
_symmetry_cell_setting 'triclinic'
loop_
_space_group_symop_operation_xyz
x,y,z
-x,-y,-z
loop_
_atom_site_type_symbol
_atom_site_label
_atom_site_fract_x
_atom_site_fract_y
_atom_site_fract_z
Si Si1 0.622963 0.860466 0.027807
Si Si2 0.676373 0.494739 0.345412
Si Si3 0.908076 0.656457 0.633793
Si Si4 0.650084 0.005208 0.106974
Si Si5 0.871302 0.511478 0.282308
Si Si6 0.954679 0.959215 0.854659
Si Si7 0.378503 0.997451 0.470050
O O1 0.338068 0.583688 0.149183
O O2 0.615968 0.952102 0.993025
O O3 0.721354 0.994546 0.766793
O O4 0.808906 0.906751 0.184214
O O5 0.781598 0.565825 0.495650
O O6 0.444054 0.202804 0.582524
O O7 0.846751 0.582783 0.264215
O O8 0.705224 0.664832 0.061760
O O9 0.035065 0.891372 0.427034
O O10 0.138184 0.758839 0.696714
O O11 0.500000 0.000000 0.000000
O O12 0.942237 0.279059 0.980499
O O13 0.599136 0.245439 0.380735
O O14 0.000000 0.500000 0.500000
O O15 0.000000 0.000000 0.000000
O O16 0.500000 0.000000 0.500000
#
# Coordination Sequence:
#
# PCOD9080520 Si02
#       7
#     2   2   2   2   2   2   2
#     4  11  22  41  66  99 129 163 217 265 318 380
#     4  10  20  37  63  91 120 164 211 257 307 379
#     4  10  22  41  67  98 124 167 214 266 320 373
#     4  11  22  36  65  93 125 169 211 255 316 386
#     4  12  23  41  62  84 130 171 212 258 316 382
#     4  10  18  39  72  92 127 165 215 265 315 379
#     4  12  26  40  62  94 135 168 210 268 324 376
#
# _framework density 24.576604
#
# number of rings (size 3 to 8) (size 9 to 14) (size 15 to 20)
#    0.000    1.143    5.714    2.143    2.000    1.714 
#    0.000    0.714    0.000    1.714    0.000    0.000 
#    0.000    0.000    0.000    0.000    0.000    0.000 
#
# Total GULP energy -78159.015392 kJ/mol
# GULP energy per Si atom -5582.786814 kJ/mol
# Density = 2.452067 g / cm^3
# Si number density = 24.576604 Si / 1000 Ang^3
#
#
#
# Elastic Constant Matrix: (Units=GPa)
#
#
# Indices 1 2 3 4 5 6 
#
# 1 105.1745 16.1628 21.7230 -2.3976 11.2239 1.7209
# 2 16.1628 95.1240 23.2300 -26.3621 -1.1651 -3.2405
# 3 21.7230 23.2300 93.0515 -48.8534 2.8911 5.4826
# 4 -2.3976 -26.3621 -48.8534 39.6601 7.4710 -8.6263
# 5 11.2239 -1.1651 2.8911 7.4710 40.0725 -11.6077
# 6 1.7209 -3.2405 5.4826 -8.6263 -11.6077 39.8139
#
#
#
# Elastic Compliance Matrix: (Units=1/GPa)
#
#
# Indices 1 2 3 4 5 6 
#
# 1 0.011472 -0.003240 -0.007298 -0.010712 -0.001512 -0.002517
# 2 -0.003240 0.014935 0.007330 0.019990 -0.001703 0.004181
# 3 -0.007298 0.007330 0.041135 0.058069 -0.010124 0.004877
# 4 -0.010712 0.019990 0.058069 0.115829 -0.018179 0.013890
# 5 -0.001512 -0.001703 -0.010124 -0.018179 0.031337 0.006518
# 6 -0.002517 0.004181 0.004877 0.013890 0.006518 0.029804
#
#
# Mechanical properties :
#
#
# Convention : Reuss Voigt Hill
#
# Bulk Modulus (GPa) = 16.36014 46.17573 31.26793
# Shear Modulus (GPa) = 18.42959 39.39158 28.91058
#
# Velocity S-wave (km/s) = 2.74137 4.00785 3.43351
# Velocity P-wave (km/s) = 4.08551 6.34401 5.33563
#
# Compressibility (1/GPa) = 0.06112418
#
# Stress axis : x y z
#
# Youngs Moduli (GPa) = 87.17122 66.95847 24.31027
#
# Poissons Ratio (x) = 0.21694 0.17742
# Poissons Ratio (y) = 0.28243 -0.17819
# Poissons Ratio (z) = 0.63619 -0.49078
#
# Static dielectric constant tensor:
#      x y z
#    x 1.948920 0.008950 0.015860 
#    y 0.008950 2.030240 -0.006650 
#    z 0.015860 -0.006650 2.052270 
# 
# From -- ./inp_files/257309.got.cif
#   From: 2010.05.17/outbox.cif.g08.bks.cpg/sg2_129_cif.got.tgz:257309.got - 2010.06.03 11:33:40.
