data_PCOD9080953
_publ_section_title
;
Structure prediction by ZEFSAII (Michael W. Deem and Ramdas Pophale) SiO2 
 PCOD9080953
Probable space group: P -1
;
_chemical_formula_sum "Si O2"
_cell_formula_units_Z 14
_cell_length_a 13.914476
_cell_length_b 11.875951
_cell_length_c 14.212816
_cell_angle_alpha 65.434702
_cell_angle_beta 21.693191
_cell_angle_gamma 64.476766
_cell_volume 782.587240
_symmetry_space_group_name_H-M "P -1"
_symmetry_group_IT_number 2
_symmetry_cell_setting 'triclinic'
loop_
_space_group_symop_operation_xyz
x,y,z
-x,-y,-z
loop_
_atom_site_type_symbol
_atom_site_label
_atom_site_fract_x
_atom_site_fract_y
_atom_site_fract_z
Si Si1 0.691039 0.338715 0.472017
Si Si2 0.090981 0.914219 0.093654
Si Si3 0.121464 0.794017 0.834598
Si Si4 0.457523 0.138026 0.446461
Si Si5 0.639953 0.126665 0.732167
Si Si6 0.154971 0.972682 0.227901
Si Si7 0.823689 0.579668 0.210570
O O1 0.872372 0.249163 0.265086
O O2 0.633074 0.259847 0.642362
O O3 0.784762 0.473160 0.358929
O O4 0.436563 0.372877 0.626943
O O5 0.133312 0.911473 0.167605
O O6 0.845632 0.843350 0.312994
O O7 0.351723 0.865347 0.816072
O O8 0.010448 0.062373 0.089648
O O9 0.409492 0.783145 0.623419
O O10 0.964572 0.698192 0.065664
O O11 0.500000 0.000000 0.500000
O O12 0.728084 0.119749 0.763051
O O13 0.868798 0.036341 0.500487
O O14 0.363216 0.072827 0.995399
O O15 0.000000 0.500000 0.000000
#
# Coordination Sequence:
#
# PCOD9080953 Si02
#       7
#     2   2   2   2   2   2   2
#     4  10  19  32  51  72 104 134 166 208 254 304
#     4  11  20  33  49  73 106 137 167 204 245 296
#     4  10  19  30  49  69 103 137 161 208 247 298
#     4  10  22  31  47  75 100 137 175 196 246 306
#     4  10  20  33  52  76 101 136 170 203 254 302
#     4  10  20  33  51  76 102 136 172 202 249 304
#     4   9  20  32  47  74  99 131 173 202 258 305
#
# _framework density 17.889379999999999
#
# number of rings (size 3 to 8) (size 9 to 14) (size 15 to 20)
#    0.000    2.000    1.429    3.429   10.000    0.000 
#    0.000    0.000    0.000    0.000    0.000    2.000 
#    0.000    0.000    0.000    0.000    0.000    0.000 
#
# Total GULP energy -78052.678868 kJ/mol
# GULP energy per Si atom -5575.191348 kJ/mol
# Density = 1.784866 g / cm^3
# Si number density = 17.889380 Si / 1000 Ang^3
#
#
#
# Elastic Constant Matrix: (Units=GPa)
#
#
# Indices 1 2 3 4 5 6 
#
# 1 104.4864 28.4773 29.7604 -19.2790 14.6265 -0.7798
# 2 28.4773 64.1289 27.3678 -26.2769 1.8264 -12.6698
# 3 29.7604 27.3678 94.0217 -14.3140 4.3061 4.6191
# 4 -19.2790 -26.2769 -14.3140 40.3081 1.6107 5.6380
# 5 14.6265 1.8264 4.3061 1.6107 28.8999 -8.7685
# 6 -0.7798 -12.6698 4.6191 5.6380 -8.7685 21.0172
#
#
#
# Elastic Compliance Matrix: (Units=1/GPa)
#
#
# Indices 1 2 3 4 5 6 
#
# 1 0.013097 -0.004587 -0.001507 0.003977 -0.008302 -0.006479
# 2 -0.004587 0.028237 -0.006211 0.011270 0.006234 0.017795
# 3 -0.001507 -0.006211 0.013740 0.001475 -0.003622 -0.008727
# 4 0.003977 0.011270 0.001475 0.035650 -0.006670 -0.005729
# 5 -0.008302 0.006234 -0.003622 -0.006670 0.047117 0.025693
# 6 -0.006479 0.017795 -0.008727 -0.005729 0.025693 0.072241
#
#
# Mechanical properties :
#
#
# Convention : Reuss Voigt Hill
#
# Bulk Modulus (GPa) = 32.82473 48.20531 40.51502
# Shear Modulus (GPa) = 20.42093 29.84713 25.13403
#
# Velocity S-wave (km/s) = 3.38229 4.08907 3.75236
# Velocity P-wave (km/s) = 5.80015 7.02131 6.43974
#
# Compressibility (1/GPa) = 0.03046483
#
# Stress axis : x y z
#
# Youngs Moduli (GPa) = 76.35047 35.41406 72.78098
#
# Poissons Ratio (x) = 0.16245 0.10965
# Poissons Ratio (y) = 0.35023 0.45206
# Poissons Ratio (z) = 0.11502 0.21997
#
# Static dielectric constant tensor:
#      x y z
#    x 1.614210 0.021210 0.003590 
#    y 0.021210 1.645440 0.012930 
#    z 0.003590 0.012930 1.696750 
# 
# From -- ./inp_files/63829.got.cif
#   From: 2010.05.17/outbox.cif.g08.bks.cpg/sg2_32_cif.got.tgz:63829.got - 2010.06.03 11:33:40.
