data_PCOD9080964
_publ_section_title
;
Structure prediction by ZEFSAII (Michael W. Deem and Ramdas Pophale) SiO2 
 PCOD9080964
Probable space group: P -1
;
_chemical_formula_sum "Si O2"
_cell_formula_units_Z 16
_cell_length_a 9.126253
_cell_length_b 13.884252
_cell_length_c 6.494785
_cell_angle_alpha 100.867588
_cell_angle_beta 71.989527
_cell_angle_gamma 131.334819
_cell_volume 587.511512
_symmetry_space_group_name_H-M "P -1"
_symmetry_group_IT_number 2
_symmetry_cell_setting 'triclinic'
loop_
_space_group_symop_operation_xyz
x,y,z
-x,-y,-z
loop_
_atom_site_type_symbol
_atom_site_label
_atom_site_fract_x
_atom_site_fract_y
_atom_site_fract_z
Si Si1 0.172245 0.180668 0.823385
Si Si2 0.864172 0.894780 0.711555
Si Si3 0.609657 0.339205 0.756106
Si Si4 0.046518 0.490615 0.734054
Si Si5 0.419486 0.731033 0.806178
Si Si6 0.827246 0.174549 0.081747
Si Si7 0.460320 0.919280 0.285963
Si Si8 0.965256 0.240362 0.524285
O O1 0.407285 0.302360 0.731090
O O2 0.164262 0.136535 0.043366
O O3 0.055800 0.047409 0.690631
O O4 0.031161 0.218544 0.909118
O O5 0.650173 0.846444 0.704057
O O6 0.899147 0.800333 0.565347
O O7 0.569984 0.206019 0.695195
O O8 0.851746 0.457831 0.690750
O O9 0.580231 0.336610 0.018694
O O10 0.275909 0.621586 0.657293
O O11 0.042370 0.373490 0.639603
O O12 0.000000 0.500000 0.000000
O O13 0.300594 0.783528 0.917637
O O14 0.898036 0.229179 0.309336
O O15 0.660150 0.019383 0.107887
O O16 0.239689 0.868139 0.305248
O O17 0.500000 0.000000 0.500000
#
# Coordination Sequence:
#
# PCOD9080964 Si02
#       8
#     2   2   2   2   2   2   2   2
#     4   9  16  29  49  75 102 128 164 201 243 297
#     4   9  17  30  50  75 101 129 162 204 247 293
#     4   9  17  32  53  71  94 131 170 206 240 288
#     4   9  19  35  54  72  96 133 174 206 238 288
#     4  10  20  32  48  75 106 132 161 202 251 294
#     4  10  19  30  49  78 105 130 159 202 255 298
#     4   9  16  28  48  70  94 125 165 202 240 290
#     4   9  18  33  53  72  94 132 174 204 237 291
#
# _framework density 27.233509000000002
#
# number of rings (size 3 to 8) (size 9 to 14) (size 15 to 20)
#    0.000    2.750    0.000    3.750    0.000    3.000 
#    0.000    1.250    0.000   13.500    0.000    0.000 
#    0.000    0.000    0.000    0.000    0.000    0.000 
#
# Total GULP energy -89483.012965 kJ/mol
# GULP energy per Si atom -5592.688310 kJ/mol
# Density = 2.717152 g / cm^3
# Si number density = 27.233509 Si / 1000 Ang^3
#
#
#
# Elastic Constant Matrix: (Units=GPa)
#
#
# Indices 1 2 3 4 5 6 
#
# 1 215.2428 78.0743 52.4875 8.8023 -22.7410 53.7798
# 2 78.0743 176.1458 49.9661 9.5328 -24.1419 42.0459
# 3 52.4875 49.9661 116.4224 31.0751 -29.0277 24.1541
# 4 8.8023 9.5328 31.0751 59.2487 10.7571 -0.3775
# 5 -22.7410 -24.1419 -29.0277 10.7571 53.9135 -8.5327
# 6 53.7798 42.0459 24.1541 -0.3775 -8.5327 58.1610
#
#
#
# Elastic Compliance Matrix: (Units=1/GPa)
#
#
# Indices 1 2 3 4 5 6 
#
# 1 0.006685 -0.001405 -0.001133 -0.000371 0.000933 -0.004561
# 2 -0.001405 0.007804 -0.001376 -0.000663 0.001737 -0.003521
# 3 -0.001133 -0.001376 0.014657 -0.008785 0.008089 -0.002915
# 4 -0.000371 -0.000663 -0.008785 0.023362 -0.009330 0.003254
# 5 0.000933 0.001737 0.008089 -0.009330 0.025655 -0.001774
# 6 -0.004561 -0.003521 -0.002915 0.003254 -0.001774 0.024928
#
#
# Mechanical properties :
#
#
# Convention : Reuss Voigt Hill
#
# Bulk Modulus (GPa) = 46.90511 96.54075 71.72293
# Shear Modulus (GPa) = 42.36355 56.08352 49.22353
#
# Velocity S-wave (km/s) = 3.94835 4.54294 4.25604
# Velocity P-wave (km/s) = 6.16819 7.94002 7.10952
#
# Compressibility (1/GPa) = 0.02131964
#
# Stress axis : x y z
#
# Youngs Moduli (GPa) = 149.58516 128.13175 68.22611
#
# Poissons Ratio (x) = 0.18004 0.07729
# Poissons Ratio (y) = 0.21018 0.09385
# Poissons Ratio (z) = 0.16947 0.17625
#
# Static dielectric constant tensor:
#      x y z
#    x 2.151910 0.056040 0.184060 
#    y 0.056040 2.102150 -0.065470 
#    z 0.184060 -0.065470 2.482710 
# 
# From -- ./inp_files/199409.got.cif
#   From: 2010.05.17/outbox.cif.g08.bks.cpg/sg2_100_cif.got.tgz:199409.got - 2010.06.03 11:33:40.
