data_PCOD9080882
_publ_section_title
;
Structure prediction by ZEFSAII (Michael W. Deem and Ramdas Pophale) SiO2 
 PCOD9080882
Probable space group: P -1
;
_chemical_formula_sum "Si O2"
_cell_formula_units_Z 12
_cell_length_a 12.688504
_cell_length_b 11.756914
_cell_length_c 10.943785
_cell_angle_alpha 144.197790
_cell_angle_beta 38.929405
_cell_angle_gamma 113.676040
_cell_volume 468.954453
_symmetry_space_group_name_H-M "P -1"
_symmetry_group_IT_number 2
_symmetry_cell_setting 'triclinic'
loop_
_space_group_symop_operation_xyz
x,y,z
-x,-y,-z
loop_
_atom_site_type_symbol
_atom_site_label
_atom_site_fract_x
_atom_site_fract_y
_atom_site_fract_z
Si Si1 0.769997 0.688979 0.034163
Si Si2 0.632505 0.526323 0.805702
Si Si3 0.226376 0.842125 0.968691
Si Si4 0.713144 0.069057 0.249619
Si Si5 0.468147 0.709521 0.859912
Si Si6 0.919265 0.472821 0.174599
O O1 0.541820 0.801383 0.401682
O O2 0.786298 0.895378 0.149073
O O3 0.766202 0.576491 0.810625
O O4 0.949280 0.534866 0.838797
O O5 0.763297 0.259935 0.392352
O O6 0.482073 0.722294 0.004851
O O7 0.500000 0.500000 0.000000
O O8 0.193184 0.025666 0.053414
O O9 0.265648 0.886013 0.109200
O O10 0.451435 0.572280 0.486455
O O11 0.065839 0.775072 0.055684
O O12 0.666617 0.689689 0.611785
O O13 0.000000 0.500000 0.000000
#
# Coordination Sequence:
#
# PCOD9080882 Si02
#       6
#     2   2   2   2   2   2
#     4  10  20  31  55  81 102 133 177 209 260 302
#     4   9  18  32  54  76 102 141 166 210 260 303
#     4   8  16  31  52  69 104 139 167 211 256 297
#     4   9  18  36  51  77 105 138 171 212 250 315
#     4   8  16  31  49  75 101 135 176 203 255 310
#     4  10  19  29  52  80 103 135 176 216 252 301
#
# _framework density 25.588840999999999
#
# number of rings (size 3 to 8) (size 9 to 14) (size 15 to 20)
#    1.000    2.000    0.000    1.000    4.667    1.333 
#    0.000    0.833    0.000    1.000    0.000    0.000 
#    0.000    0.000    0.000    0.000    0.000    0.000 
#
# Total GULP energy -66940.881708 kJ/mol
# GULP energy per Si atom -5578.406809 kJ/mol
# Density = 2.553060 g / cm^3
# Si number density = 25.588841 Si / 1000 Ang^3
#
#
#
# Elastic Constant Matrix: (Units=GPa)
#
#
# Indices 1 2 3 4 5 6 
#
# 1 210.5281 66.3352 36.7441 -14.9341 11.6512 -33.9977
# 2 66.3352 163.5600 23.5143 -31.9062 6.8169 -32.0419
# 3 36.7441 23.5143 37.6946 -8.2000 0.4182 -0.9055
# 4 -14.9341 -31.9062 -8.2000 26.0945 3.9696 3.4302
# 5 11.6512 6.8169 0.4182 3.9696 16.1959 -10.3614
# 6 -33.9977 -32.0419 -0.9055 3.4302 -10.3614 47.3308
#
#
#
# Elastic Compliance Matrix: (Units=1/GPa)
#
#
# Indices 1 2 3 4 5 6 
#
# 1 0.006823 -0.001003 -0.005753 0.000741 -0.002236 0.003568
# 2 -0.001003 0.010033 -0.002812 0.010688 -0.003133 0.004558
# 3 -0.005753 -0.002812 0.034862 0.005083 -0.000575 -0.005863
# 4 0.000741 0.010688 0.005083 0.056401 -0.019269 -0.000441
# 5 -0.002236 -0.003133 -0.000575 -0.019269 0.078971 0.014946
# 6 0.003568 0.004558 -0.005863 -0.000441 0.014946 0.029968
#
#
# Mechanical properties :
#
#
# Convention : Reuss Voigt Hill
#
# Bulk Modulus (GPa) = 30.69159 73.88556 52.28857
# Shear Modulus (GPa) = 20.23837 36.93684 28.58761
#
# Velocity S-wave (km/s) = 2.81536 3.80343 3.34607
# Velocity P-wave (km/s) = 4.75273 6.94442 5.95035
#
# Compressibility (1/GPa) = 0.03258222
#
# Stress axis : x y z
#
# Youngs Moduli (GPa) = 146.56860 99.66752 28.68420
#
# Poissons Ratio (x) = 0.09998 0.16502
# Poissons Ratio (y) = 0.14703 0.08066
# Poissons Ratio (z) = 0.84323 0.28025
#
# Static dielectric constant tensor:
#      x y z
#    x 2.097670 -0.021250 0.055880 
#    y -0.021250 2.034310 -0.000090 
#    z 0.055880 -0.000090 2.351510 
# 
# From -- ./inp_files/165634.got.cif
#   From: 2010.05.17/outbox.cif.g08.bks.cpg/sg2_83_cif.got.tgz:165634.got - 2010.06.03 11:33:40.
