data_PCOD9080646
_publ_section_title
;
Structure prediction by ZEFSAII (Michael W. Deem and Ramdas Pophale) SiO2 
 PCOD9080646
Probable space group: P -1
;
_chemical_formula_sum "Si O2"
_cell_formula_units_Z 13
_cell_length_a 8.398902
_cell_length_b 7.715216
_cell_length_c 18.408687
_cell_angle_alpha 46.550447
_cell_angle_beta 40.163846
_cell_angle_gamma 39.625206
_cell_volume 476.224094
_symmetry_space_group_name_H-M "P -1"
_symmetry_group_IT_number 2
_symmetry_cell_setting 'triclinic'
loop_
_space_group_symop_operation_xyz
x,y,z
-x,-y,-z
loop_
_atom_site_type_symbol
_atom_site_label
_atom_site_fract_x
_atom_site_fract_y
_atom_site_fract_z
Si Si1 0.572176 0.837834 0.690294
Si Si2 0.931517 0.079306 0.883751
Si Si3 0.292618 0.769625 0.227947
Si Si4 0.500000 0.500000 0.500000
Si Si5 0.926089 0.586761 0.083683
Si Si6 0.928097 0.626095 0.759398
Si Si7 0.982329 0.255046 0.535327
O O1 0.699072 0.516909 0.715853
O O2 0.682297 0.853114 0.726753
O O3 0.710400 0.956673 0.551482
O O4 0.235520 0.971348 0.768079
O O5 0.728940 0.106335 0.879918
O O6 0.859136 0.375132 0.852350
O O7 0.957141 0.856248 0.996670
O O8 0.595666 0.682967 0.182119
O O9 0.067375 0.898276 0.336162
O O10 0.233549 0.529922 0.640443
O O11 0.739071 0.384703 0.519983
O O12 0.091374 0.346143 0.154879
O O13 0.000000 0.500000 0.000000
O O14 0.000000 0.500000 0.500000
#
# Coordination Sequence:
#
# PCOD9080646 Si02
#       7
#     2   2   2   1   2   2   2
#     4   9  20  40  62  96 121 166 214 258 325 381
#     4  11  23  41  62  92 132 167 211 262 318 391
#     4  10  20  40  62  91 128 168 211 261 322 374
#     4  10  18  40  68  90 126 168 210 264 330 380
#     4  12  23  42  65  92 129 172 214 261 316 388
#     4  10  23  42  67  90 127 170 210 269 321 376
#     4   9  18  35  66  91 126 167 211 266 322 379
#
# _framework density 27.298072999999999
#
# number of rings (size 3 to 8) (size 9 to 14) (size 15 to 20)
#    0.000    1.846    3.077    1.846    0.000    1.231 
#    5.538    4.615    0.000    0.000    0.000    0.000 
#    0.000    0.000    0.000    0.000    0.000    0.000 
#
# Total GULP energy -72498.899430 kJ/mol
# GULP energy per Si atom -5576.838418 kJ/mol
# Density = 2.723594 g / cm^3
# Si number density = 27.298073 Si / 1000 Ang^3
#
#
#
# Elastic Constant Matrix: (Units=GPa)
#
#
# Indices 1 2 3 4 5 6 
#
# 1 283.2676 -78.1296 5.4235 -77.1193 72.3655 -38.4373
# 2 -78.1296 64.4565 37.4879 17.5498 -19.0641 32.5835
# 3 5.4235 37.4879 152.6517 -12.6532 14.6296 25.1088
# 4 -77.1193 17.5498 -12.6532 81.6953 -27.9918 18.6929
# 5 72.3655 -19.0641 14.6296 -27.9918 72.1114 -17.0160
# 6 -38.4373 32.5835 25.1088 18.6929 -17.0160 51.8897
#
#
#
# Elastic Compliance Matrix: (Units=1/GPa)
#
#
# Indices 1 2 3 4 5 6 
#
# 1 0.008126 0.009307 -0.001458 0.004506 -0.004145 -0.002102
# 2 0.009307 0.037053 -0.006807 0.002895 -0.000403 -0.014254
# 3 -0.001458 -0.006807 0.008973 0.001247 -0.002222 -0.002325
# 4 0.004506 0.002895 0.001247 0.017786 0.001733 -0.004922
# 5 -0.004145 -0.000403 -0.002222 0.001733 0.020036 0.004204
# 6 -0.002102 -0.014254 -0.002325 -0.004922 0.004204 0.030942
#
#
# Mechanical properties :
#
#
# Convention : Reuss Voigt Hill
#
# Bulk Modulus (GPa) = 17.78223 47.77102 32.77663
# Shear Modulus (GPa) = 35.82319 76.84555 56.33437
#
# Velocity S-wave (km/s) = 3.62649 5.31146 4.54770
# Velocity P-wave (km/s) = 4.90546 7.42653 6.29352
#
# Compressibility (1/GPa) = 0.05623592
#
# Stress axis : x y z
#
# Youngs Moduli (GPa) = 123.06846 26.98872 111.44578
#
# Poissons Ratio (x) = -0.25118 0.16246
# Poissons Ratio (y) = -1.14540 0.75859
# Poissons Ratio (z) = 0.17940 0.18371
#
# Static dielectric constant tensor:
#      x y z
#    x 2.083150 -0.272130 -0.038320 
#    y -0.272130 0.403840 -0.008460 
#    z -0.038320 -0.008460 2.172670 
# 
# From -- ./inp_files/24953.got.cif
#   From: 2010.05.17/outbox.cif.g08.bks.cpg/sg2_13_cif.got.tgz:24953.got - 2010.06.03 11:33:40.
