data_PCOD9080407
_publ_section_title
;
Structure prediction by ZEFSAII (Michael W. Deem and Ramdas Pophale) SiO2 
 PCOD9080407
Probable space group: P -1
;
_chemical_formula_sum "Si O2"
_cell_formula_units_Z 14
_cell_length_a 17.778278
_cell_length_b 6.170288
_cell_length_c 8.103106
_cell_angle_alpha 56.882400
_cell_angle_beta 103.782742
_cell_angle_gamma 123.524614
_cell_volume 618.068786
_symmetry_space_group_name_H-M "P -1"
_symmetry_group_IT_number 2
_symmetry_cell_setting 'triclinic'
loop_
_space_group_symop_operation_xyz
x,y,z
-x,-y,-z
loop_
_atom_site_type_symbol
_atom_site_label
_atom_site_fract_x
_atom_site_fract_y
_atom_site_fract_z
Si Si1 0.305731 0.330176 0.598010
Si Si2 0.203062 0.129049 0.110217
Si Si3 0.340051 0.935757 0.196495
Si Si4 0.113861 0.875426 0.826089
Si Si5 0.664450 0.171328 0.149512
Si Si6 0.533563 0.235251 0.268379
Si Si7 0.055683 0.200829 0.101455
O O1 0.326655 0.618070 0.382127
O O2 0.200361 0.146736 0.669511
O O3 0.378911 0.475814 0.726108
O O4 0.321282 0.069699 0.642090
O O5 0.134759 0.130304 0.209603
O O6 0.270950 0.009084 0.221516
O O7 0.141930 0.928020 0.010876
O O8 0.261628 0.476358 0.935488
O O9 0.441136 0.211656 0.174697
O O10 0.327611 0.891337 0.012043
O O11 0.098823 0.547142 0.919879
O O12 0.018274 0.859232 0.772660
O O13 0.570386 0.129792 0.178826
O O14 0.500000 0.000000 0.500000
O O15 0.000000 0.000000 0.000000
#
# Coordination Sequence:
#
# PCOD9080407 Si02
#       7
#     2   2   2   2   2   2   2
#     4  11  23  42  64  93 128 169 215 262 310 376
#     4  11  20  39  63  93 126 166 209 259 318 375
#     4  11  25  39  62  95 130 167 214 266 311 372
#     4  10  18  39  63  94 124 166 210 257 312 379
#     4  12  22  41  65  88 128 170 216 259 315 370
#     4  10  24  42  62  91 128 171 215 261 313 373
#     4   9  19  33  67  95 122 162 209 256 319 378
#
# _framework density 22.651202000000001
#
# number of rings (size 3 to 8) (size 9 to 14) (size 15 to 20)
#    0.000    1.429    4.286    0.429    0.000    8.000 
#    0.000    0.714    0.000   12.000    0.000    0.000 
#    0.000    0.000    0.000    0.000    0.000    0.000 
#
# Total GULP energy -78091.511577 kJ/mol
# GULP energy per Si atom -5577.965113 kJ/mol
# Density = 2.259965 g / cm^3
# Si number density = 22.651202 Si / 1000 Ang^3
#
#
#
# Elastic Constant Matrix: (Units=GPa)
#
#
# Indices 1 2 3 4 5 6 
#
# 1 156.2095 14.8707 16.5942 -1.3367 13.0294 7.7209
# 2 14.8707 118.5222 45.8939 -25.5428 3.9160 5.4187
# 3 16.5942 45.8939 47.9676 -20.5443 9.9796 1.5175
# 4 -1.3367 -25.5428 -20.5443 29.8026 -3.9975 -4.8345
# 5 13.0294 3.9160 9.9796 -3.9975 25.3548 -16.4250
# 6 7.7209 5.4187 1.5175 -4.8345 -16.4250 29.1737
#
#
#
# Elastic Compliance Matrix: (Units=1/GPa)
#
#
# Indices 1 2 3 4 5 6 
#
# 1 0.007650 -0.000426 -0.001792 -0.003532 -0.008337 -0.007131
# 2 -0.000426 0.014000 -0.012408 0.004263 0.004528 0.001414
# 3 -0.001792 -0.012408 0.043763 0.016545 -0.015234 -0.005333
# 4 -0.003532 0.004263 0.016545 0.052638 0.012797 0.015210
# 5 -0.008337 0.004528 -0.015234 0.012797 0.084703 0.051966
# 6 -0.007131 0.001414 -0.005333 0.015210 0.051966 0.067957
#
#
# Mechanical properties :
#
#
# Convention : Reuss Voigt Hill
#
# Bulk Modulus (GPa) = 27.65387 53.04632 40.35010
# Shear Modulus (GPa) = 16.02474 33.22225 24.62350
#
# Velocity S-wave (km/s) = 2.66269 3.83389 3.30066
# Velocity P-wave (km/s) = 4.65707 6.56261 5.69018
#
# Compressibility (1/GPa) = 0.03616130
#
# Stress axis : x y z
#
# Youngs Moduli (GPa) = 130.71601 71.42950 22.85011
#
# Poissons Ratio (x) = 0.03041 0.04095
# Poissons Ratio (y) = 0.05564 0.28353
# Poissons Ratio (z) = 0.23423 0.88633
#
# Static dielectric constant tensor:
#      x y z
#    x 1.929230 0.005670 0.023670 
#    y 0.005670 1.852890 0.004220 
#    z 0.023670 0.004220 1.856550 
# 
# From -- ./inp_files/323325.got.cif
#   From: 2010.05.17/outbox.cif.g08.bks.cpg/sg2_162_cif.got.tgz:323325.got - 2010.06.03 11:33:40.
