data_PCOD9080180
_publ_section_title
;
Structure prediction by ZEFSAII (Michael W. Deem and Ramdas Pophale) SiO2 
 PCOD9080180
Probable space group: P -1
;
_chemical_formula_sum "Si O2"
_cell_formula_units_Z 16
_cell_length_a 8.508821
_cell_length_b 11.533192
_cell_length_c 10.598568
_cell_angle_alpha 99.589564
_cell_angle_beta 107.055248
_cell_angle_gamma 55.045590
_cell_volume 814.966405
_symmetry_space_group_name_H-M "P -1"
_symmetry_group_IT_number 2
_symmetry_cell_setting 'triclinic'
loop_
_space_group_symop_operation_xyz
x,y,z
-x,-y,-z
loop_
_atom_site_type_symbol
_atom_site_label
_atom_site_fract_x
_atom_site_fract_y
_atom_site_fract_z
Si Si1 0.679245 0.017444 0.585655
Si Si2 0.450296 0.646370 0.954828
Si Si3 0.710571 0.144232 0.373131
Si Si4 0.687619 0.649741 0.773178
Si Si5 0.497150 0.947528 0.852368
Si Si6 0.080371 0.758798 0.722289
Si Si7 0.539551 0.787656 0.227945
Si Si8 0.056331 0.491691 0.657709
O O1 0.766915 0.041169 0.484045
O O2 0.600363 0.159454 0.673783
O O3 0.500000 0.000000 0.500000
O O4 0.849675 0.884009 0.681161
O O5 0.599459 0.612696 0.865179
O O6 0.226190 0.740941 0.866180
O O7 0.500000 0.500000 0.000000
O O8 0.478828 0.733231 0.084670
O O9 0.484321 0.278313 0.360356
O O10 0.833163 0.207956 0.373537
O O11 0.681775 0.069166 0.230909
O O12 0.886236 0.534596 0.729556
O O13 0.685033 0.786902 0.845455
O O14 0.476792 0.068365 0.782259
O O15 0.500000 0.000000 0.000000
O O16 0.106052 0.609486 0.701622
O O17 0.757444 0.662742 0.295122
O O18 0.000000 0.500000 0.500000
#
# Coordination Sequence:
#
# PCOD9080180 Si02
#       8
#     2   2   2   2   2   2   2   2
#     4  12  22  41  67  98 130 167 220 274 333 388
#     4  11  23  47  63  95 135 173 216 274 332 378
#     4   9  20  39  67  92 133 160 215 275 335 373
#     4   9  21  41  68  88 129 172 214 266 324 384
#     4  10  18  38  65  92 121 167 217 268 316 386
#     4  11  23  43  68  90 132 172 214 277 331 387
#     4  12  23  39  67  92 135 171 219 276 313 398
#     4  12  25  41  64  97 129 177 224 260 328 404
#
# _framework density 19.632709999999999
#
# number of rings (size 3 to 8) (size 9 to 14) (size 15 to 20)
#    0.750    0.500    3.750    3.375    0.000    1.000 
#    2.250    3.125    0.000    0.000    0.000    0.000 
#    0.000    0.000    0.000    0.000    0.000    0.000 
#
# Total GULP energy -89096.956044 kJ/mol
# GULP energy per Si atom -5568.559753 kJ/mol
# Density = 1.958803 g / cm^3
# Si number density = 19.632710 Si / 1000 Ang^3
#
#
#
# Elastic Constant Matrix: (Units=GPa)
#
#
# Indices 1 2 3 4 5 6 
#
# 1 70.0634 27.7221 26.6935 -5.6899 -3.1098 8.8318
# 2 27.7221 97.2523 29.5364 -14.2341 -4.5139 -3.1883
# 3 26.6935 29.5364 110.9709 -6.7962 -3.9508 -12.4603
# 4 -5.6899 -14.2341 -6.7962 35.9337 -0.4682 -3.9265
# 5 -3.1098 -4.5139 -3.9508 -0.4682 21.0106 -9.5057
# 6 8.8318 -3.1883 -12.4603 -3.9265 -9.5057 32.9476
#
#
#
# Elastic Compliance Matrix: (Units=1/GPa)
#
#
# Indices 1 2 3 4 5 6 
#
# 1 0.018473 -0.004420 -0.004264 -0.000517 -0.002554 -0.007791
# 2 -0.004420 0.012967 -0.001608 0.004546 0.003455 0.003370
# 3 -0.004264 -0.001608 0.011478 0.001653 0.004276 0.006759
# 4 -0.000517 0.004546 0.001653 0.030600 0.004701 0.006206
# 5 -0.002554 0.003455 0.004276 0.004701 0.057867 0.019892
# 6 -0.007791 0.003370 0.006759 0.006206 0.019892 0.041800
#
#
# Mechanical properties :
#
#
# Convention : Reuss Voigt Hill
#
# Bulk Modulus (GPa) = 44.77898 49.57673 47.17785
# Shear Modulus (GPa) = 24.84895 30.93401 27.89148
#
# Velocity S-wave (km/s) = 3.56151 3.97373 3.77326
# Velocity P-wave (km/s) = 6.30638 6.80889 6.56245
#
# Compressibility (1/GPa) = 0.02233191
#
# Stress axis : x y z
#
# Youngs Moduli (GPa) = 54.13239 77.11766 87.12614
#
# Poissons Ratio (x) = 0.34088 0.37155
# Poissons Ratio (y) = 0.23928 0.14013
# Poissons Ratio (z) = 0.23085 0.12403
#
# Static dielectric constant tensor:
#      x y z
#    x 1.755430 -0.012350 -0.029860 
#    y -0.012350 1.687710 -0.015520 
#    z -0.029860 -0.015520 1.747250 
# 
# From -- ./inp_files/387850.got.cif
#   From: 2010.05.17/outbox.cif.g08.bks.cpg/sg2_194_cif.got.tgz:387850.got - 2010.06.03 11:33:40.
