data_PCOD9080149
_publ_section_title
;
Structure prediction by ZEFSAII (Michael W. Deem and Ramdas Pophale) SiO2 
 PCOD9080149
Probable space group: P -1
;
_chemical_formula_sum "Si O2"
_cell_formula_units_Z 14
_cell_length_a 22.117761
_cell_length_b 4.904950
_cell_length_c 5.737664
_cell_angle_alpha 81.393964
_cell_angle_beta 62.872364
_cell_angle_gamma 88.971119
_cell_volume 546.852055
_symmetry_space_group_name_H-M "P -1"
_symmetry_group_IT_number 2
_symmetry_cell_setting 'triclinic'
loop_
_space_group_symop_operation_xyz
x,y,z
-x,-y,-z
loop_
_atom_site_type_symbol
_atom_site_label
_atom_site_fract_x
_atom_site_fract_y
_atom_site_fract_z
Si Si1 0.633320 0.970473 0.704715
Si Si2 0.063727 0.307603 0.426354
Si Si3 0.543824 0.245062 0.509506
Si Si4 0.737373 0.828531 0.850450
Si Si5 0.674470 0.490489 0.368459
Si Si6 0.819415 0.394345 0.566545
Si Si7 0.935230 0.686946 0.077927
O O1 0.659642 0.900406 0.920798
O O2 0.733597 0.670692 0.120138
O O3 0.565726 0.128685 0.742405
O O4 0.635083 0.699823 0.575522
O O5 0.130739 0.507021 0.321456
O O6 0.062183 0.147757 0.699658
O O7 0.000000 0.500000 0.500000
O O8 0.067050 0.165176 0.187059
O O9 0.500000 0.500000 0.500000
O O10 0.620137 0.358182 0.289633
O O11 0.500000 0.000000 0.500000
O O12 0.759463 0.606278 0.651518
O O13 0.691766 0.204528 0.493872
O O14 0.789499 0.089231 0.706461
O O15 0.868675 0.476055 0.253908
O O16 0.000000 0.500000 0.000000
#
# Coordination Sequence:
#
# PCOD9080149 Si02
#       7
#     2   2   2   2   2   2   2
#     4  10  22  39  64  89 130 173 204 282 328 383
#     4   8  16  36  64  91 133 170 225 289 353 402
#     4  10  18  38  64  93 126 167 222 262 336 397
#     4  12  24  44  60  99 130 171 232 260 348 411
#     4  10  22  39  64  89 130 173 204 282 328 383
#     4  10  24  36  66  92 128 178 224 286 336 438
#     4   8  16  36  64  91 133 170 225 289 353 402
#
# _framework density 25.601078000000001
#
# number of rings (size 3 to 8) (size 9 to 14) (size 15 to 20)
#    1.714    0.571    1.429    1.714    0.000    3.429 
#    0.000    2.857    0.000    0.000    0.000    0.000 
#    0.000    0.000    0.000    0.000    0.000    0.000 
#
# Total GULP energy -77952.215254 kJ/mol
# GULP energy per Si atom -5568.015375 kJ/mol
# Density = 2.554281 g / cm^3
# Si number density = 25.601078 Si / 1000 Ang^3
#
#
#
# Elastic Constant Matrix: (Units=GPa)
#
#
# Indices 1 2 3 4 5 6 
#
# 1 96.3261 25.0036 20.8915 -9.2005 14.0241 7.9836
# 2 25.0036 139.1442 19.8828 -14.0622 -3.9076 26.4694
# 3 20.8915 19.8828 114.2850 3.3334 23.2522 11.3088
# 4 -9.2005 -14.0622 3.3334 21.8159 4.6905 -0.2628
# 5 14.0241 -3.9076 23.2522 4.6905 34.1188 -4.5159
# 6 7.9836 26.4694 11.3088 -0.2628 -4.5159 46.0422
#
#
#
# Elastic Compliance Matrix: (Units=1/GPa)
#
#
# Indices 1 2 3 4 5 6 
#
# 1 0.012438 -0.001375 -0.000880 0.005694 -0.005674 -0.001674
# 2 -0.001375 0.009019 -0.001258 0.005123 0.001156 -0.004495
# 3 -0.000880 -0.001258 0.010921 -0.001294 -0.007383 -0.002538
# 4 0.005694 0.005123 -0.001294 0.053579 -0.008790 -0.004171
# 5 -0.005674 0.001156 -0.007383 -0.008790 0.038793 0.005888
# 6 -0.001674 -0.004495 -0.002538 -0.004171 0.005888 0.025771
#
#
# Mechanical properties :
#
#
# Convention : Reuss Voigt Hill
#
# Bulk Modulus (GPa) = 39.44444 53.47902 46.46173
# Shear Modulus (GPa) = 30.12120 39.32721 34.72421
#
# Velocity S-wave (km/s) = 3.43382 3.92363 3.68687
# Velocity P-wave (km/s) = 5.58232 6.43904 6.02592
#
# Compressibility (1/GPa) = 0.02535211
#
# Stress axis : x y z
#
# Youngs Moduli (GPa) = 80.39967 110.87941 91.56853
#
# Poissons Ratio (x) = 0.15242 0.08062
# Poissons Ratio (y) = 0.11052 0.11515
# Poissons Ratio (z) = 0.07079 0.13943
#
# Static dielectric constant tensor:
#      x y z
#    x 2.112290 -0.039170 0.013810 
#    y -0.039170 1.976630 0.034460 
#    z 0.013810 0.034460 2.110430 
# 
# From -- ./inp_files/121435.got.cif
#   From: 2010.05.17/outbox.cif.g08.bks.cpg/sg2_61_cif.got.tgz:121435.got - 2010.06.03 11:33:40.
