data_PCOD9080375
_publ_section_title
;
Structure prediction by ZEFSAII (Michael W. Deem and Ramdas Pophale) SiO2 
 PCOD9080375
Probable space group: P -1
;
_chemical_formula_sum "Si O2"
_cell_formula_units_Z 16
_cell_length_a 9.413324
_cell_length_b 14.259183
_cell_length_c 19.193718
_cell_angle_alpha 20.008808
_cell_angle_beta 47.756500
_cell_angle_gamma 48.034493
_cell_volume 645.592221
_symmetry_space_group_name_H-M "P -1"
_symmetry_group_IT_number 2
_symmetry_cell_setting 'triclinic'
loop_
_space_group_symop_operation_xyz
x,y,z
-x,-y,-z
loop_
_atom_site_type_symbol
_atom_site_label
_atom_site_fract_x
_atom_site_fract_y
_atom_site_fract_z
Si Si1 0.045521 0.188367 0.175936
Si Si2 0.832433 0.163373 0.488183
Si Si3 0.596830 0.955378 0.144397
Si Si4 0.389959 0.255145 0.554887
Si Si5 0.594061 0.519302 0.803893
Si Si6 0.754337 0.243791 0.673186
Si Si7 0.339908 0.933626 0.672902
Si Si8 0.047444 0.404162 0.754938
O O1 0.835603 0.095550 0.300331
O O2 0.170703 0.025534 0.309683
O O3 0.144557 0.073932 0.150100
O O4 0.000000 0.500000 0.000000
O O5 0.619326 0.223833 0.483583
O O6 0.901993 0.439833 0.301100
O O7 0.000000 0.000000 0.500000
O O8 0.607015 0.843194 0.297829
O O9 0.461625 0.780712 0.266533
O O10 0.814581 0.888106 0.089979
O O11 0.517451 0.278025 0.954330
O O12 0.279088 0.571249 0.375071
O O13 0.287904 0.040865 0.692720
O O14 0.479290 0.641778 0.824785
O O15 0.819086 0.413554 0.817915
O O16 0.575722 0.795856 0.570923
O O17 0.877351 0.414406 0.460550
#
# Coordination Sequence:
#
# PCOD9080375 Si02
#       8
#     2   2   2   2   2   2   2   2
#     4  11  23  44  65  89 124 167 207 247 308 373
#     4  11  21  39  66  89 122 160 208 250 302 368
#     4  11  20  39  67  92 118 160 214 258 294 361
#     4  11  22  40  65  94 118 161 212 257 299 359
#     4  11  23  40  60  88 128 167 196 248 318 367
#     4  10  19  40  67  86 122 165 209 248 302 365
#     4  11  25  41  59  89 134 164 194 250 322 367
#     4  10  18  39  62  88 120 161 208 245 308 361
#
# _framework density 24.783445
#
# number of rings (size 3 to 8) (size 9 to 14) (size 15 to 20)
#    0.000    1.250    6.250    2.625    1.750    1.000 
#    2.250    1.875    0.000    0.000    0.000    0.000 
#    0.000    0.000    0.000    0.000    0.000    0.000 
#
# Total GULP energy -89329.046318 kJ/mol
# GULP energy per Si atom -5583.065395 kJ/mol
# Density = 2.472704 g / cm^3
# Si number density = 24.783445 Si / 1000 Ang^3
#
#
#
# Elastic Constant Matrix: (Units=GPa)
#
#
# Indices 1 2 3 4 5 6 
#
# 1 76.4182 24.5151 24.7412 -6.9795 -22.1886 1.1654
# 2 24.5151 164.4629 35.1231 -54.4696 -9.7068 -6.2050
# 3 24.7412 35.1231 74.7830 -41.0284 -14.6038 4.7952
# 4 -6.9795 -54.4696 -41.0284 49.3449 7.3389 -8.2321
# 5 -22.1886 -9.7068 -14.6038 7.3389 28.4892 -9.5162
# 6 1.1654 -6.2050 4.7952 -8.2321 -9.5162 29.7580
#
#
#
# Elastic Compliance Matrix: (Units=1/GPa)
#
#
# Indices 1 2 3 4 5 6 
#
# 1 0.019467 -0.003414 -0.007114 -0.008629 0.013063 0.001462
# 2 -0.003414 0.011743 0.005286 0.017805 0.001890 0.007260
# 3 -0.007114 0.005286 0.030941 0.030750 0.006535 0.006991
# 4 -0.008629 0.017805 0.030750 0.066795 0.004223 0.018924
# 5 0.013063 0.001890 0.006535 0.004223 0.053943 0.017248
# 6 0.001462 0.007260 0.006991 0.018924 0.017248 0.044685
#
#
# Mechanical properties :
#
#
# Convention : Reuss Voigt Hill
#
# Bulk Modulus (GPa) = 19.35479 53.82476 36.58978
# Shear Modulus (GPa) = 19.58636 36.93740 28.26188
#
# Velocity S-wave (km/s) = 2.81428 3.86477 3.38057
# Velocity P-wave (km/s) = 4.28797 6.45604 5.48029
#
# Compressibility (1/GPa) = 0.05166680
#
# Stress axis : x y z
#
# Youngs Moduli (GPa) = 51.36912 85.15883 32.31955
#
# Poissons Ratio (x) = 0.29076 0.22992
# Poissons Ratio (y) = 0.17539 -0.17085
# Poissons Ratio (z) = 0.36544 -0.45017
#
# Static dielectric constant tensor:
#      x y z
#    x 1.952940 0.062360 0.036510 
#    y 0.062360 2.191140 -0.014930 
#    z 0.036510 -0.014930 2.063730 
# 
# From -- ./inp_files/590382.got.cif
#   From: 2010.05.17/outbox.cif.g08.bks.cpg/sg2_296_cif.got.tgz:590382.got - 2010.06.03 11:33:40.
