data_PCOD9080108
_publ_section_title
;
Structure prediction by ZEFSAII (Michael W. Deem and Ramdas Pophale) SiO2 
 PCOD9080108
Probable space group: P -1
;
_chemical_formula_sum "Si O2"
_cell_formula_units_Z 15
_cell_length_a 13.268502
_cell_length_b 12.019837
_cell_length_c 9.050069
_cell_angle_alpha 38.747452
_cell_angle_beta 47.767075
_cell_angle_gamma 59.990373
_cell_volume 667.974982
_symmetry_space_group_name_H-M "P -1"
_symmetry_group_IT_number 2
_symmetry_cell_setting 'triclinic'
loop_
_space_group_symop_operation_xyz
x,y,z
-x,-y,-z
loop_
_atom_site_type_symbol
_atom_site_label
_atom_site_fract_x
_atom_site_fract_y
_atom_site_fract_z
Si Si1 0.790328 0.235749 0.306419
Si Si2 0.977823 0.927401 0.931463
Si Si3 0.261756 0.963848 0.130611
Si Si4 0.633570 0.357052 0.797573
Si Si5 0.146324 0.424611 0.460633
Si Si6 0.655099 0.559179 0.006732
Si Si7 0.714900 0.654178 0.176816
Si Si8 0.000000 0.500000 0.000000
O O1 0.744686 0.124196 0.610040
O O2 0.673381 0.347780 0.231049
O O3 0.893708 0.391144 0.107336
O O4 0.877800 0.119561 0.231000
O O5 0.890437 0.044353 0.784831
O O6 0.882573 0.748322 0.233295
O O7 0.000000 0.000000 0.000000
O O8 0.349061 0.843567 0.063170
O O9 0.314762 0.165142 0.897167
O O10 0.755840 0.427541 0.709692
O O11 0.487633 0.392362 0.971304
O O12 0.652727 0.484266 0.503086
O O13 0.000000 0.500000 0.500000
O O14 0.219819 0.375937 0.287234
O O15 0.660656 0.650175 0.067582
O O16 0.876988 0.632424 0.029315
#
# Coordination Sequence:
#
# PCOD9080108 Si02
#       8
#     2   2   2   2   2   2   2   1
#     4  11  23  41  71 102 142 182 234 296 355 409
#     4  12  26  43  67 109 143 181 240 299 351 415
#     4  12  25  42  71 106 139 187 231 299 349 419
#     4  12  25  49  71 104 147 186 233 290 358 422
#     4  12  25  48  74 100 142 189 239 288 350 419
#     4  11  26  46  72 104 141 191 233 287 356 429
#     4  11  24  42  71 101 143 179 237 284 354 413
#     4  10  18  38  64 100 134 172 228 284 344 394
#
# _framework density 22.455933000000002
#
# number of rings (size 3 to 8) (size 9 to 14) (size 15 to 20)
#    0.000    0.533    6.667    2.000    3.733    1.600 
#    0.000    0.667    0.000    0.000    0.000    0.000 
#    0.000    0.000    0.000    0.000    0.000    0.000 
#
# Total GULP energy -83670.769542 kJ/mol
# GULP energy per Si atom -5578.051303 kJ/mol
# Density = 2.240482 g / cm^3
# Si number density = 22.455933 Si / 1000 Ang^3
#
#
#
# Elastic Constant Matrix: (Units=GPa)
#
#
# Indices 1 2 3 4 5 6 
#
# 1 65.3497 40.1900 14.7907 8.7982 -10.8215 -11.4860
# 2 40.1900 128.6751 6.4538 -12.5410 -8.4991 -11.2142
# 3 14.7907 6.4538 24.2864 0.7329 4.0697 -9.4447
# 4 8.7982 -12.5410 0.7329 21.8039 -1.7028 -1.0636
# 5 -10.8215 -8.4991 4.0697 -1.7028 23.2593 8.5065
# 6 -11.4860 -11.2142 -9.4447 -1.0636 8.5065 47.1291
#
#
#
# Elastic Compliance Matrix: (Units=1/GPa)
#
#
# Indices 1 2 3 4 5 6 
#
# 1 0.028411 -0.008771 -0.017022 -0.015031 0.012306 -0.001134
# 2 -0.008771 0.011483 0.002519 0.010119 -0.000076 0.001342
# 3 -0.017022 0.002519 0.059083 0.005256 -0.021443 0.012280
# 4 -0.015031 0.010119 0.005256 0.057596 -0.000429 0.001175
# 5 0.012306 -0.000076 -0.021443 -0.000429 0.056635 -0.011548
# 6 -0.001134 0.001342 0.012280 0.001175 -0.011548 0.025833
#
#
# Mechanical properties :
#
#
# Convention : Reuss Voigt Hill
#
# Bulk Modulus (GPa) = 19.07323 37.90892 28.49107
# Shear Modulus (GPa) = 16.49816 28.89692 22.69754
#
# Velocity S-wave (km/s) = 2.71346 3.59113 3.18269
# Velocity P-wave (km/s) = 4.28126 5.84064 5.12066
#
# Compressibility (1/GPa) = 0.05242951
#
# Stress axis : x y z
#
# Youngs Moduli (GPa) = 35.19737 87.08656 16.92547
#
# Poissons Ratio (x) = 0.76385 0.28810
# Poissons Ratio (y) = 0.30872 -0.04264
# Poissons Ratio (z) = 0.59912 -0.21940
#
# Static dielectric constant tensor:
#      x y z
#    x 1.881950 -0.015450 0.028020 
#    y -0.015450 1.848150 -0.007160 
#    z 0.028020 -0.007160 1.844790 
# 
# From -- ./inp_files/258442.got.cif
#   From: 2010.05.17/outbox.cif.g08.bks.cpg/sg2_130_cif.got.tgz:258442.got - 2010.06.03 11:33:40.
