data_PCOD9080126
_publ_section_title
;
Structure prediction by ZEFSAII (Michael W. Deem and Ramdas Pophale) SiO2 
 PCOD9080126
Probable space group: P -1
;
_chemical_formula_sum "Si O2"
_cell_formula_units_Z 16
_cell_length_a 19.269391
_cell_length_b 12.242060
_cell_length_c 8.827959
_cell_angle_alpha 53.997151
_cell_angle_beta 26.702805
_cell_angle_gamma 44.791596
_cell_volume 652.248469
_symmetry_space_group_name_H-M "P -1"
_symmetry_group_IT_number 2
_symmetry_cell_setting 'triclinic'
loop_
_space_group_symop_operation_xyz
x,y,z
-x,-y,-z
loop_
_atom_site_type_symbol
_atom_site_label
_atom_site_fract_x
_atom_site_fract_y
_atom_site_fract_z
Si Si1 0.961915 0.780554 0.516590
Si Si2 0.147839 0.340078 0.419646
Si Si3 0.008040 0.170359 0.023645
Si Si4 0.392500 0.270891 0.509173
Si Si5 0.714400 0.517728 0.752877
Si Si6 0.769820 0.959792 0.005391
Si Si7 0.506793 0.599696 0.548612
Si Si8 0.214207 0.838785 0.757330
O O1 0.080199 0.628847 0.516448
O O2 0.815595 0.776843 0.695423
O O3 0.110166 0.776960 0.117909
O O4 0.871381 0.933642 0.670483
O O5 0.058115 0.296791 0.767631
O O6 0.295523 0.368242 0.184497
O O7 0.000000 0.500000 0.500000
O O8 0.085485 0.105208 0.089323
O O9 0.122882 0.022361 0.808800
O O10 0.808585 0.214789 0.322080
O O11 0.336523 0.384009 0.381003
O O12 0.302180 0.163150 0.766094
O O13 0.346879 0.382913 0.654300
O O14 0.605501 0.136164 0.203178
O O15 0.590221 0.445865 0.094328
O O16 0.500000 0.500000 0.500000
O O17 0.400698 0.766942 0.535832
#
# Coordination Sequence:
#
# PCOD9080126 Si02
#       8
#     2   2   2   2   2   2   2   2
#     4   9  21  38  63  94 119 159 210 258 307 356
#     4   9  18  37  61  88 123 154 201 259 309 352
#     4  10  18  38  64  88 120 160 203 258 312 346
#     4  11  24  43  59  91 135 164 200 250 318 377
#     4  10  21  42  62  87 125 166 201 263 305 362
#     4  11  23  40  65  93 125 165 202 261 306 373
#     4  11  24  42  63  90 124 169 207 251 309 378
#     4   9  20  40  63  90 123 154 210 263 300 361
#
# _framework density 24.530526999999999
#
# number of rings (size 3 to 8) (size 9 to 14) (size 15 to 20)
#    0.000    2.000    2.500    1.125    1.750    2.000 
#    6.750    0.625    0.000    0.000    0.000    0.000 
#    0.000    0.000    0.000    0.000    0.000    0.000 
#
# Total GULP energy -89217.149923 kJ/mol
# GULP energy per Si atom -5576.071870 kJ/mol
# Density = 2.447469 g / cm^3
# Si number density = 24.530527 Si / 1000 Ang^3
#
#
#
# Elastic Constant Matrix: (Units=GPa)
#
#
# Indices 1 2 3 4 5 6 
#
# 1 182.5771 39.9459 29.6999 -1.7786 -11.9682 -2.6828
# 2 39.9459 93.5357 11.8451 -14.7483 -0.8865 -7.3162
# 3 29.6999 11.8451 42.8277 -6.5932 -3.3895 3.4320
# 4 -1.7786 -14.7483 -6.5932 29.8046 10.8599 0.4022
# 5 -11.9682 -0.8865 -3.3895 10.8599 19.6762 -2.5286
# 6 -2.6828 -7.3162 3.4320 0.4022 -2.5286 48.7471
#
#
#
# Elastic Compliance Matrix: (Units=1/GPa)
#
#
# Indices 1 2 3 4 5 6 
#
# 1 0.007222 -0.003095 -0.004383 -0.004230 0.005908 0.000583
# 2 -0.003095 0.013519 -0.000884 0.008431 -0.005880 0.001546
# 3 -0.004383 -0.000884 0.027632 0.006024 -0.001586 -0.002451
# 4 -0.004230 0.008431 0.006024 0.049196 -0.028472 -0.001274
# 5 0.005908 -0.005880 -0.001586 -0.028472 0.070033 0.003422
# 6 0.000583 0.001546 -0.002451 -0.001274 0.003422 0.021139
#
#
# Mechanical properties :
#
#
# Convention : Reuss Voigt Hill
#
# Bulk Modulus (GPa) = 31.59623 53.54693 42.57158
# Shear Modulus (GPa) = 23.14677 35.47554 29.31116
#
# Velocity S-wave (km/s) = 3.07512 3.80699 3.46046
# Velocity P-wave (km/s) = 5.05142 6.41875 5.77569
#
# Compressibility (1/GPa) = 0.03164935
#
# Stress axis : x y z
#
# Youngs Moduli (GPa) = 138.47022 73.96814 36.19052
#
# Poissons Ratio (x) = 0.22890 0.15861
# Poissons Ratio (y) = 0.42851 0.03201
# Poissons Ratio (z) = 0.60686 0.06542
#
# Static dielectric constant tensor:
#      x y z
#    x 2.010060 0.009680 -0.039840 
#    y 0.009680 2.046060 0.085940 
#    z -0.039840 0.085940 2.085840 
# 
# From -- ./inp_files/333003.got.cif
#   From: 2010.05.17/outbox.cif.g08.bks.cpg/sg2_167_cif.got.tgz:333003.got - 2010.06.03 11:33:40.
