data_PCOD9080438
_publ_section_title
;
Structure prediction by ZEFSAII (Michael W. Deem and Ramdas Pophale) SiO2 
 PCOD9080438
Probable space group: P -1
;
_chemical_formula_sum "Si O2"
_cell_formula_units_Z 15
_cell_length_a 16.397711
_cell_length_b 6.220479
_cell_length_c 7.207158
_cell_angle_alpha 114.943740
_cell_angle_beta 66.662030
_cell_angle_gamma 104.304996
_cell_volume 609.200243
_symmetry_space_group_name_H-M "P -1"
_symmetry_group_IT_number 2
_symmetry_cell_setting 'triclinic'
loop_
_space_group_symop_operation_xyz
x,y,z
-x,-y,-z
loop_
_atom_site_type_symbol
_atom_site_label
_atom_site_fract_x
_atom_site_fract_y
_atom_site_fract_z
Si Si1 0.000000 0.500000 0.000000
Si Si2 0.189837 0.328597 0.768403
Si Si3 0.370228 0.052226 0.020695
Si Si4 0.785811 0.630227 0.820546
Si Si5 0.084935 0.970840 0.286125
Si Si6 0.247452 0.894447 0.388525
Si Si7 0.368527 0.548997 0.625765
Si Si8 0.483240 0.258217 0.688961
O O1 0.061675 0.754697 0.086345
O O2 0.909243 0.628930 0.180724
O O3 0.268693 0.460725 0.627000
O O4 0.215768 0.057767 0.640684
O O5 0.206927 0.427937 0.992585
O O6 0.455891 0.211876 0.912352
O O7 0.370783 0.799668 0.823373
O O8 0.288936 0.192552 0.076050
O O9 0.341376 0.989793 0.237950
O O10 0.758081 0.380359 0.659623
O O11 0.880860 0.773280 0.738980
O O12 0.167676 0.916358 0.320608
O O13 0.000000 0.000000 0.500000
O O14 0.406723 0.366909 0.673270
O O15 0.429953 0.575885 0.397256
O O16 0.500000 0.000000 0.500000
#
# Coordination Sequence:
#
# PCOD9080438 Si02
#       8
#     1   2   2   2   2   2   2   2
#     4  12  24  44  68  92 132 170 224 272 318 388
#     4  12  23  42  65  95 129 177 219 269 328 382
#     4  10  18  39  65  94 131 173 212 264 327 383
#     4  11  23  42  65  90 130 174 213 266 325 386
#     4  11  24  44  63  90 125 167 218 272 324 378
#     4  11  23  41  63  93 132 171 217 274 321 385
#     4  10  19  38  65  97 136 167 219 269 322 394
#     4   9  18  33  68 103 126 173 214 263 331 390
#
# _framework density 24.622444999999999
#
# number of rings (size 3 to 8) (size 9 to 14) (size 15 to 20)
#    0.000    1.333    5.333    0.800    0.000    2.133 
#    4.800    0.667    0.000   11.200    0.000    0.000 
#    0.000    0.000    0.000    0.000    0.000    0.000 
#
# Total GULP energy -83560.522725 kJ/mol
# GULP energy per Si atom -5570.701515 kJ/mol
# Density = 2.456640 g / cm^3
# Si number density = 24.622445 Si / 1000 Ang^3
#
#
#
# Elastic Constant Matrix: (Units=GPa)
#
#
# Indices 1 2 3 4 5 6 
#
# 1 82.4392 27.9797 13.5841 -10.4343 -30.7566 3.6573
# 2 27.9797 122.2487 47.2477 4.8500 -16.4853 -3.7442
# 3 13.5841 47.2477 116.0826 20.3896 -27.5679 -10.0246
# 4 -10.4343 4.8500 20.3896 42.1293 8.9711 -12.7030
# 5 -30.7566 -16.4853 -27.5679 8.9711 39.7474 -3.2371
# 6 3.6573 -3.7442 -10.0246 -12.7030 -3.2371 18.3104
#
#
#
# Elastic Compliance Matrix: (Units=1/GPa)
#
#
# Indices 1 2 3 4 5 6 
#
# 1 0.018255 -0.003223 0.002476 0.000647 0.014364 0.000039
# 2 -0.003223 0.010365 -0.004125 0.000421 -0.001102 0.000602
# 3 0.002476 -0.004125 0.014543 -0.007476 0.012273 0.003607
# 4 0.000647 0.000421 -0.007476 0.035373 -0.010991 0.018461
# 5 0.014364 -0.001102 0.012273 -0.010991 0.047163 0.004338
# 6 0.000039 0.000602 0.003607 0.018461 0.004338 0.070278
#
#
# Mechanical properties :
#
#
# Convention : Reuss Voigt Hill
#
# Bulk Modulus (GPa) = 29.92227 55.37708 42.64968
# Shear Modulus (GPa) = 23.05617 35.50135 29.27876
#
# Velocity S-wave (km/s) = 3.06337 3.80126 3.45209
# Velocity P-wave (km/s) = 4.96901 6.46571 5.76613
#
# Compressibility (1/GPa) = 0.03341992
#
# Stress axis : x y z
#
# Youngs Moduli (GPa) = 54.77982 96.47680 68.76004
#
# Poissons Ratio (x) = 0.31092 -0.17028
# Poissons Ratio (y) = 0.17654 0.28367
# Poissons Ratio (z) = -0.13566 0.39801
#
# Static dielectric constant tensor:
#      x y z
#    x 1.929090 0.009600 -0.007400 
#    y 0.009600 2.117510 -0.072730 
#    z -0.007400 -0.072730 1.974260 
# 
# From -- ./inp_files/322995.got.cif
#   From: 2010.05.17/outbox.cif.g08.bks.cpg/sg2_162_cif.got.tgz:322995.got - 2010.06.03 11:33:40.
