data_PCOD9080221
_publ_section_title
;
Structure prediction by ZEFSAII (Michael W. Deem and Ramdas Pophale) SiO2 
 PCOD9080221
Probable space group: P -1
;
_chemical_formula_sum "Si O2"
_cell_formula_units_Z 14
_cell_length_a 15.212243
_cell_length_b 9.435127
_cell_length_c 8.281915
_cell_angle_alpha 72.565963
_cell_angle_beta 126.673701
_cell_angle_gamma 145.767731
_cell_volume 484.119465
_symmetry_space_group_name_H-M "P -1"
_symmetry_group_IT_number 2
_symmetry_cell_setting 'triclinic'
loop_
_space_group_symop_operation_xyz
x,y,z
-x,-y,-z
loop_
_atom_site_type_symbol
_atom_site_label
_atom_site_fract_x
_atom_site_fract_y
_atom_site_fract_z
Si Si1 0.336537 0.823105 0.736995
Si Si2 0.066192 0.348817 0.828408
Si Si3 0.494198 0.697661 0.324730
Si Si4 0.660018 0.678603 0.262868
Si Si5 0.000000 0.500000 0.000000
Si Si6 0.000000 0.000000 0.000000
Si Si7 0.649388 0.349559 0.482917
Si Si8 0.914618 0.136789 0.145785
O O1 0.144407 0.508651 0.694576
O O2 0.418152 0.848094 0.652294
O O3 0.326195 0.985542 0.645530
O O4 0.500000 0.000000 0.000000
O O5 0.029283 0.440871 0.876959
O O6 0.259858 0.467833 0.076204
O O7 0.906123 0.030791 0.771045
O O8 0.544819 0.605618 0.320001
O O9 0.468276 0.715529 0.474205
O O10 0.722545 0.580999 0.390002
O O11 0.835505 0.985875 0.278778
O O12 0.500000 0.500000 0.000000
O O13 0.199470 0.851092 0.051064
O O14 0.941351 0.032926 0.087717
O O15 0.862167 0.518578 0.729279
#
# Coordination Sequence:
#
# PCOD9080221 Si02
#       8
#     2   2   2   2   1   1   2   2
#     4  10  22  41  70  95 138 181 227 281 354 408
#     4  10  20  39  67  96 134 186 224 276 344 416
#     4  11  22  44  65 101 140 179 233 283 350 406
#     4  12  26  44  71 107 143 187 229 285 356 420
#     4  10  20  40  68  96 138 176 234 280 346 410
#     4  10  18  38  66  94 140 178 226 276 344 400
#     4  12  24  45  72 102 141 181 240 288 343 412
#     4  11  24  44  72 102 141 181 236 286 345 409
#
# _framework density 28.918479000000001
#
# number of rings (size 3 to 8) (size 9 to 14) (size 15 to 20)
#    0.000    1.143    2.857    5.571    0.000    1.143 
#    2.571    4.286    0.000    0.000    0.000    0.000 
#    0.000    0.000    0.000    0.000    0.000    0.000 
#
# Total GULP energy -77982.063446 kJ/mol
# GULP energy per Si atom -5570.147389 kJ/mol
# Density = 2.885266 g / cm^3
# Si number density = 28.918479 Si / 1000 Ang^3
#
#
#
# Elastic Constant Matrix: (Units=GPa)
#
#
# Indices 1 2 3 4 5 6 
#
# 1 228.4037 47.6040 36.6503 11.9717 -17.7131 -47.6261
# 2 47.6040 80.8934 6.1706 -27.3791 -3.9618 -16.8417
# 3 36.6503 6.1706 93.1588 21.1627 -19.2246 -0.2156
# 4 11.9717 -27.3791 21.1627 46.1086 -7.3873 0.0903
# 5 -17.7131 -3.9618 -19.2246 -7.3873 35.4723 4.4594
# 6 -47.6261 -16.8417 -0.2156 0.0903 4.4594 56.7605
#
#
#
# Elastic Compliance Matrix: (Units=1/GPa)
#
#
# Indices 1 2 3 4 5 6 
#
# 1 0.006544 -0.003919 -0.001386 -0.003260 0.000864 0.004260
# 2 -0.003919 0.020495 -0.002840 0.014731 0.001529 0.002638
# 3 -0.001386 -0.002840 0.014181 -0.006945 0.005528 -0.002375
# 4 -0.003260 0.014731 -0.006945 0.035008 0.003382 0.001288
# 5 0.000864 0.001529 0.005528 0.003382 0.032666 -0.001372
# 6 0.004260 0.002638 -0.002375 0.001288 -0.001372 0.022072
#
#
# Mechanical properties :
#
#
# Convention : Reuss Voigt Hill
#
# Bulk Modulus (GPa) = 40.11556 64.81177 52.46366
# Shear Modulus (GPa) = 32.14063 48.47033 40.30548
#
# Velocity S-wave (km/s) = 3.33742 4.09846 3.73736
# Velocity P-wave (km/s) = 5.36220 6.69754 6.06672
#
# Compressibility (1/GPa) = 0.02492798
#
# Stress axis : x y z
#
# Youngs Moduli (GPa) = 152.82207 48.79256 70.51765
#
# Poissons Ratio (x) = 0.19123 0.09774
# Poissons Ratio (y) = 0.59894 0.20030
# Poissons Ratio (z) = 0.21181 0.13859
#
# Static dielectric constant tensor:
#      x y z
#    x 1.639040 0.481420 -0.568230 
#    y 0.481420 1.379290 0.406690 
#    z -0.568230 0.406690 1.265310 
# 
# From -- ./inp_files/158636.got.cif
#   From: 2010.05.17/outbox.cif.g08.bks.cpg/sg2_80_cif.got.tgz:158636.got - 2010.06.03 11:33:40.
