data_PCOD9080930
_publ_section_title
;
Structure prediction by ZEFSAII (Michael W. Deem and Ramdas Pophale) SiO2 
 PCOD9080930
Probable space group: P -1
;
_chemical_formula_sum "Si O2"
_cell_formula_units_Z 16
_cell_length_a 13.535791
_cell_length_b 10.759488
_cell_length_c 13.710480
_cell_angle_alpha 82.596642
_cell_angle_beta 45.737534
_cell_angle_gamma 118.709511
_cell_volume 845.063332
_symmetry_space_group_name_H-M "P -1"
_symmetry_group_IT_number 2
_symmetry_cell_setting 'triclinic'
loop_
_space_group_symop_operation_xyz
x,y,z
-x,-y,-z
loop_
_atom_site_type_symbol
_atom_site_label
_atom_site_fract_x
_atom_site_fract_y
_atom_site_fract_z
Si Si1 0.372140 0.329717 0.738623
Si Si2 0.929555 0.665196 0.799508
Si Si3 0.107365 0.606374 0.021537
Si Si4 0.682189 0.454080 0.347486
Si Si5 0.652419 0.520807 0.823891
Si Si6 0.230950 0.234973 0.459021
Si Si7 0.202281 0.151429 0.069885
Si Si8 0.568505 0.877982 0.621567
O O1 0.498673 0.334942 0.572751
O O2 0.264976 0.369561 0.750718
O O3 0.578992 0.546476 0.635425
O O4 0.210316 0.143199 0.948185
O O5 0.876339 0.510360 0.919197
O O6 0.821080 0.572455 0.776020
O O7 0.829436 0.721201 0.907285
O O8 0.203589 0.881380 0.586955
O O9 0.924560 0.567753 0.198055
O O10 0.377730 0.833431 0.800277
O O11 0.000000 0.500000 0.000000
O O12 0.553107 0.278077 0.371295
O O13 0.794946 0.711047 0.630484
O O14 0.500000 0.500000 0.000000
O O15 0.454002 0.299768 0.925193
O O16 0.336397 0.172218 0.376633
O O17 0.004633 0.056681 0.701653
#
# Coordination Sequence:
#
# PCOD9080930 Si02
#       8
#     2   2   2   2   2   2   2   2
#     4   9  17  34  49  69  97 122 159 201 233 273
#     4  10  19  30  47  73  98 123 155 188 233 287
#     4  10  19  32  47  67  96 129 156 190 235 278
#     4   9  18  32  51  68  94 129 160 196 235 275
#     4   9  17  28  47  73 100 124 151 193 238 283
#     4   9  17  30  49  73  97 124 157 193 238 281
#     4   9  17  30  50  73  98 125 153 195 241 280
#     4   9  18  31  47  70  99 125 153 192 233 281
#
# _framework density 18.933492000000001
#
# number of rings (size 3 to 8) (size 9 to 14) (size 15 to 20)
#    0.000    2.750    0.000    3.750    0.000    7.500 
#    0.000   15.000    0.000    3.000    0.000    5.250 
#    0.000    0.000    0.000    0.000    0.000    0.000 
#
# Total GULP energy -89128.528803 kJ/mol
# GULP energy per Si atom -5570.533050 kJ/mol
# Density = 1.889040 g / cm^3
# Si number density = 18.933492 Si / 1000 Ang^3
#
#
#
# Elastic Constant Matrix: (Units=GPa)
#
#
# Indices 1 2 3 4 5 6 
#
# 1 32.8984 3.9846 49.1119 34.6059 18.8291 21.2605
# 2 3.9846 10.0235 16.4374 0.6515 -1.9603 -2.3332
# 3 49.1119 16.4374 131.1748 4.5374 3.1477 -0.6403
# 4 34.6059 0.6515 4.5374 -8.2982 -1.3648 -15.8489
# 5 18.8291 -1.9603 3.1477 -1.3648 37.6403 -1.5922
# 6 21.2605 -2.3332 -0.6403 -15.8489 -1.5922 -2.2768
#
#
#
# Elastic Compliance Matrix: (Units=1/GPa)
#
#
# Indices 1 2 3 4 5 6 
#
# 1 0.013136 0.007863 -0.006195 0.014250 -0.004275 0.020138
# 2 0.007863 0.135999 -0.019565 -0.012560 0.005315 0.023277
# 3 -0.006195 -0.019565 0.012508 -0.004797 0.000510 -0.008283
# 4 0.014250 -0.012560 -0.004797 0.028939 -0.008375 -0.048302
# 5 -0.004275 0.005315 0.000510 -0.008375 0.028339 -0.007025
# 6 0.020138 0.023277 -0.008283 -0.048302 -0.007025 0.068452
#
#
# Mechanical properties :
#
#
# Convention : Reuss Voigt Hill
#
# Bulk Modulus (GPa) = 7.94612 34.79603 21.37108
# Shear Modulus (GPa) = 13.69426 12.38391 13.03909
#
# Velocity S-wave (km/s) = 2.69231 2.56026 2.62712
# Velocity P-wave (km/s) = 3.72433 5.21132 4.52927
#
# Compressibility (1/GPa) = 0.12584753
#
# Stress axis : x y z
#
# Youngs Moduli (GPa) = 76.12877 7.35300 79.94920
#
# Poissons Ratio (x) = -0.05782 0.49531
# Poissons Ratio (y) = -0.59862 1.56423
# Poissons Ratio (z) = 0.47165 0.14386
#
# Static dielectric constant tensor:
#      x y z
#    x 1.703250 0.017570 0.010450 
#    y 0.017570 1.672980 0.006000 
#    z 0.010450 0.006000 1.707200 
# 
# From -- ./inp_files/451359.got.cif
#   From: 2010.05.17/outbox.cif.g08.bks.cpg/sg2_226_cif.got.tgz:451359.got - 2010.06.03 11:33:40.
