data_PCOD9080478
_publ_section_title
;
Structure prediction by ZEFSAII (Michael W. Deem and Ramdas Pophale) SiO2 
 PCOD9080478
Probable space group: P -1
;
_chemical_formula_sum "Si O2"
_cell_formula_units_Z 16
_cell_length_a 13.194656
_cell_length_b 14.991672
_cell_length_c 8.734428
_cell_angle_alpha 148.572089
_cell_angle_beta 126.354701
_cell_angle_gamma 51.026184
_cell_volume 693.650369
_symmetry_space_group_name_H-M "P -1"
_symmetry_group_IT_number 2
_symmetry_cell_setting 'triclinic'
loop_
_space_group_symop_operation_xyz
x,y,z
-x,-y,-z
loop_
_atom_site_type_symbol
_atom_site_label
_atom_site_fract_x
_atom_site_fract_y
_atom_site_fract_z
Si Si1 0.246181 0.663445 0.237558
Si Si2 0.739373 0.979584 0.323870
Si Si3 0.528732 0.500013 0.209130
Si Si4 0.486090 0.855495 0.393594
Si Si5 0.139418 0.374365 0.886312
Si Si6 0.187267 0.537699 0.665818
Si Si7 0.939701 0.847880 0.781711
Si Si8 0.268608 0.152833 0.192993
O O1 0.401782 0.642636 0.371900
O O2 0.184963 0.878036 0.462241
O O3 0.210847 0.526063 0.125419
O O4 0.221045 0.579426 0.929945
O O5 0.808005 0.783188 0.170769
O O6 0.640565 0.081469 0.517775
O O7 0.677035 0.936531 0.047882
O O8 0.677592 0.496707 0.360935
O O9 0.500000 0.500000 0.000000
O O10 0.519476 0.306038 0.956343
O O11 0.613282 0.814611 0.556124
O O12 0.500000 0.000000 0.500000
O O13 0.123246 0.256123 0.551695
O O14 0.000000 0.500000 0.000000
O O15 0.162540 0.346394 0.354443
O O16 0.066496 0.697078 0.737152
O O17 0.820004 0.940866 0.925838
O O18 0.000000 0.000000 0.000000
#
# Coordination Sequence:
#
# PCOD9080478 Si02
#       8
#     2   2   2   2   2   2   2   2
#     4  11  22  45  74  99 138 186 236 282 358 416
#     4  12  26  44  72 108 140 183 232 294 353 416
#     4  10  18  39  68 100 125 174 226 278 340 412
#     4  12  23  42  74 104 139 180 234 291 349 418
#     4  12  28  48  69 102 143 185 239 290 346 422
#     4  11  21  42  72  94 133 188 228 285 348 417
#     4  12  27  44  67 102 138 183 242 289 344 420
#     4  12  25  44  68 103 142 178 229 289 358 411
#
# _framework density 23.066376000000002
#
# number of rings (size 3 to 8) (size 9 to 14) (size 15 to 20)
#    0.000    0.500    6.250    3.750    5.250    0.500 
#    0.000    0.000    0.000    4.500    0.000    0.000 
#    0.000    0.000    0.000    0.000    0.000    0.000 
#
# Total GULP energy -89217.724689 kJ/mol
# GULP energy per Si atom -5576.107793 kJ/mol
# Density = 2.301388 g / cm^3
# Si number density = 23.066376 Si / 1000 Ang^3
#
#
#
# Elastic Constant Matrix: (Units=GPa)
#
#
# Indices 1 2 3 4 5 6 
#
# 1 92.7358 36.6781 12.6952 8.9721 19.3034 -1.4815
# 2 36.6781 88.3918 33.7151 28.6551 10.7801 4.0537
# 3 12.6952 33.7151 58.0379 16.5952 11.9676 19.4565
# 4 8.9721 28.6551 16.5952 44.5604 12.7799 8.9746
# 5 19.3034 10.7801 11.9676 12.7799 41.4294 9.1987
# 6 -1.4815 4.0537 19.4565 8.9746 9.1987 30.7857
#
#
#
# Elastic Compliance Matrix: (Units=1/GPa)
#
#
# Indices 1 2 3 4 5 6 
#
# 1 0.014327 -0.006097 0.000204 0.002277 -0.006433 0.002621
# 2 -0.006097 0.020322 -0.009965 -0.009891 0.002253 0.005539
# 3 0.000204 -0.009965 0.029006 -0.000566 -0.002106 -0.016216
# 4 0.002277 -0.009891 -0.000566 0.031613 -0.006878 -0.005391
# 5 -0.006433 0.002253 -0.002106 -0.006878 0.030710 -0.006446
# 6 0.002621 0.005539 -0.016216 -0.005391 -0.006446 0.045625
#
#
# Mechanical properties :
#
#
# Convention : Reuss Voigt Hill
#
# Bulk Modulus (GPa) = 31.30763 45.03806 38.17284
# Shear Modulus (GPa) = 23.36836 33.76024 28.56430
#
# Velocity S-wave (km/s) = 3.18636 3.82987 3.52284
# Velocity P-wave (km/s) = 5.20956 6.25500 5.75606
#
# Compressibility (1/GPa) = 0.03194110
#
# Stress axis : x y z
#
# Youngs Moduli (GPa) = 69.79695 49.20842 34.47532
#
# Poissons Ratio (x) = 0.30002 -0.00705
# Poissons Ratio (y) = 0.42554 0.34354
# Poissons Ratio (z) = -0.01427 0.49035
#
# Static dielectric constant tensor:
#      x y z
#    x 1.863230 -0.014040 -0.021770 
#    y -0.014040 1.895710 0.030900 
#    z -0.021770 0.030900 1.900920 
# 
# From -- ./inp_files/316208.got.cif
#   From: 2010.05.17/outbox.cif.g08.bks.cpg/sg2_159_cif.got.tgz:316208.got - 2010.06.03 11:33:40.
