data_PCOD9080726
_publ_section_title
;
Structure prediction by ZEFSAII (Michael W. Deem and Ramdas Pophale) SiO2 
 PCOD9080726
Probable space group: P -1
;
_chemical_formula_sum "Si O2"
_cell_formula_units_Z 15
_cell_length_a 9.046138
_cell_length_b 7.377971
_cell_length_c 9.390779
_cell_angle_alpha 91.479925
_cell_angle_beta 67.598854
_cell_angle_gamma 84.683818
_cell_volume 575.698094
_symmetry_space_group_name_H-M "P -1"
_symmetry_group_IT_number 2
_symmetry_cell_setting 'triclinic'
loop_
_space_group_symop_operation_xyz
x,y,z
-x,-y,-z
loop_
_atom_site_type_symbol
_atom_site_label
_atom_site_fract_x
_atom_site_fract_y
_atom_site_fract_z
Si Si1 0.957508 0.308494 0.946385
Si Si2 0.465994 0.368239 0.672606
Si Si3 0.240253 0.106567 0.667931
Si Si4 0.649210 0.213551 0.192060
Si Si5 0.175639 0.619518 0.505188
Si Si6 0.867846 0.567619 0.759289
Si Si7 0.000000 0.000000 0.500000
Si Si8 0.548055 0.708273 0.002689
O O1 0.859772 0.380842 0.843025
O O2 0.112055 0.181726 0.837624
O O3 0.836800 0.213719 0.085168
O O4 0.000000 0.500000 0.000000
O O5 0.264069 0.292166 0.112094
O O6 0.410068 0.578387 0.737077
O O7 0.343624 0.276248 0.615035
O O8 0.474283 0.261091 0.820176
O O9 0.355356 0.938518 0.689180
O O10 0.139286 0.050561 0.569774
O O11 0.641033 0.354566 0.540628
O O12 0.555620 0.178618 0.078335
O O13 0.179094 0.454418 0.387574
O O14 0.054792 0.600057 0.680422
O O15 0.085697 0.793198 0.461555
O O16 0.500000 0.500000 0.000000
#
# Coordination Sequence:
#
# PCOD9080726 Si02
#       8
#     2   2   2   2   2   2   1   2
#     4  12  22  44  76 110 154 193 255 329 387 461
#     4  11  23  50  77 115 159 201 260 325 384 465
#     4  12  28  47  74 114 156 209 260 323 391 460
#     4  11  23  43  79 119 150 199 257 326 394 462
#     4  11  25  45  77 104 151 212 255 308 385 471
#     4  11  21  43  77 110 144 206 253 302 398 464
#     4  12  30  52  68 102 166 208 260 326 376 470
#     4  10  18  41  78 111 155 195 245 326 387 454
#
# _framework density 26.055323999999999
#
# number of rings (size 3 to 8) (size 9 to 14) (size 15 to 20)
#    0.000    0.800    8.000    0.400    1.867    2.133 
#    2.400    2.667    0.000    0.000    0.000    0.000 
#    0.000    0.000    0.000    0.000    0.000    0.000 
#
# Total GULP energy -83734.644944 kJ/mol
# GULP energy per Si atom -5582.309663 kJ/mol
# Density = 2.599602 g / cm^3
# Si number density = 26.055324 Si / 1000 Ang^3
#
#
#
# Elastic Constant Matrix: (Units=GPa)
#
#
# Indices 1 2 3 4 5 6 
#
# 1 141.1040 36.4516 53.4325 -5.2342 -6.9247 12.2432
# 2 36.4516 93.3617 34.5740 1.9124 14.3905 -6.8817
# 3 53.4325 34.5740 127.7670 2.3834 21.4843 20.1295
# 4 -5.2342 1.9124 2.3834 27.7983 2.6160 13.4527
# 5 -6.9247 14.3905 21.4843 2.6160 66.3684 1.5425
# 6 12.2432 -6.8817 20.1295 13.4527 1.5425 36.1912
#
#
#
# Elastic Compliance Matrix: (Units=1/GPa)
#
#
# Indices 1 2 3 4 5 6 
#
# 1 0.009749 -0.003448 -0.003068 0.003933 0.002692 -0.003824
# 2 -0.003448 0.014220 -0.003083 -0.004740 -0.002431 0.007450
# 3 -0.003068 -0.003083 0.011500 0.002156 -0.003306 -0.006605
# 4 0.003933 -0.004740 0.002156 0.047020 -0.000628 -0.020882
# 5 0.002692 -0.002431 -0.003306 -0.000628 0.016971 -0.000024
# 6 -0.003824 0.007450 -0.006605 -0.020882 -0.000024 0.041778
#
#
# Mechanical properties :
#
#
# Convention : Reuss Voigt Hill
#
# Bulk Modulus (GPa) = 61.45087 67.90543 64.67815
# Shear Modulus (GPa) = 30.14624 41.92322 36.03473
#
# Velocity S-wave (km/s) = 3.40517 4.01560 3.72292
# Velocity P-wave (km/s) = 6.25270 6.90062 6.58464
#
# Compressibility (1/GPa) = 0.01627316
#
# Stress axis : x y z
#
# Youngs Moduli (GPa) = 102.57425 70.32524 86.95578
#
# Poissons Ratio (x) = 0.24246 0.26675
# Poissons Ratio (y) = 0.35364 0.26804
# Poissons Ratio (z) = 0.31466 0.21678
#
# Static dielectric constant tensor:
#      x y z
#    x 2.033470 -0.002120 0.081340 
#    y -0.002120 2.024900 -0.008010 
#    z 0.081340 -0.008010 2.065350 
# 
# From -- ./inp_files/234733.got.cif
#   From: 2010.05.17/outbox.cif.g08.bks.cpg/sg2_118_cif.got.tgz:234733.got - 2010.06.03 11:33:40.
