data_PCOD9080131
_publ_section_title
;
Structure prediction by ZEFSAII (Michael W. Deem and Ramdas Pophale) SiO2 
 PCOD9080131
Probable space group: P -1
;
_chemical_formula_sum "Si O2"
_cell_formula_units_Z 14
_cell_length_a 10.703075
_cell_length_b 10.105748
_cell_length_c 9.793880
_cell_angle_alpha 59.449392
_cell_angle_beta 82.504055
_cell_angle_gamma 126.253557
_cell_volume 576.805533
_symmetry_space_group_name_H-M "P -1"
_symmetry_group_IT_number 2
_symmetry_cell_setting 'triclinic'
loop_
_space_group_symop_operation_xyz
x,y,z
-x,-y,-z
loop_
_atom_site_type_symbol
_atom_site_label
_atom_site_fract_x
_atom_site_fract_y
_atom_site_fract_z
Si Si1 0.271674 0.815422 0.087865
Si Si2 0.934017 0.676408 0.568209
Si Si3 0.562971 0.503126 0.759757
Si Si4 0.718183 0.278281 0.176110
Si Si5 0.811347 0.916580 0.120336
Si Si6 0.942561 0.196112 0.215237
Si Si7 0.627880 0.844809 0.768183
O O1 0.127008 0.559034 0.316129
O O2 0.254593 0.743355 0.973117
O O3 0.500000 0.000000 0.000000
O O4 0.211958 0.936937 0.024173
O O5 0.737125 0.584246 0.608970
O O6 0.963203 0.762109 0.677111
O O7 0.147400 0.908182 0.353626
O O8 0.381026 0.354149 0.761510
O O9 0.626090 0.715639 0.717722
O O10 0.487892 0.326298 0.991720
O O11 0.797931 0.200455 0.276351
O O12 0.497166 0.131300 0.288203
O O13 0.874944 0.562628 0.026592
O O14 0.834648 0.976619 0.246447
O O15 0.000000 0.000000 0.000000
#
# Coordination Sequence:
#
# PCOD9080131 Si02
#       7
#     2   2   2   2   2   2   2
#     4  10  18  38  64  89 127 163 206 259 310 360
#     4  11  22  40  66  91 122 165 211 264 303 368
#     4  11  23  41  62  89 129 164 206 262 310 370
#     4   9  17  35  59  86 119 162 202 252 307 367
#     4  11  22  37  67  93 124 173 204 249 326 374
#     4   9  19  36  62  88 121 160 203 254 313 363
#     4  11  22  38  67  92 119 165 219 251 310 374
#
# _framework density 24.271612000000001
#
# number of rings (size 3 to 8) (size 9 to 14) (size 15 to 20)
#    0.000    1.714    4.286    2.143    2.000    0.571 
#    0.000    3.571    3.143    0.000    0.000    0.000 
#    0.000    0.000    0.000    0.000    0.000    0.000 
#
# Total GULP energy -78253.024406 kJ/mol
# GULP energy per Si atom -5589.501743 kJ/mol
# Density = 2.421637 g / cm^3
# Si number density = 24.271612 Si / 1000 Ang^3
#
#
#
# Elastic Constant Matrix: (Units=GPa)
#
#
# Indices 1 2 3 4 5 6 
#
# 1 122.8036 -4.9580 40.2303 -13.6421 -27.3966 2.0043
# 2 -4.9580 87.2956 16.9897 -20.9603 11.4376 10.5269
# 3 40.2303 16.9897 111.0492 -30.0973 -24.7096 -0.7663
# 4 -13.6421 -20.9603 -30.0973 34.3279 6.2703 -4.9986
# 5 -27.3966 11.4376 -24.7096 6.2703 29.3219 -14.0693
# 6 2.0043 10.5269 -0.7663 -4.9986 -14.0693 40.9329
#
#
#
# Elastic Compliance Matrix: (Units=1/GPa)
#
#
# Indices 1 2 3 4 5 6 
#
# 1 0.011046 -0.000723 -0.000923 0.001622 0.011250 0.003693
# 2 -0.000723 0.017744 -0.004000 0.008838 -0.017421 -0.009512
# 3 -0.000923 -0.004000 0.016227 0.009641 0.016210 0.008127
# 4 0.001622 0.008838 0.009641 0.044373 -0.002082 0.002532
# 5 0.011250 -0.017421 0.016210 -0.002082 0.080742 0.031731
# 6 0.003693 -0.009512 0.008127 0.002532 0.031731 0.038063
#
#
# Mechanical properties :
#
#
# Convention : Reuss Voigt Hill
#
# Bulk Modulus (GPa) = 29.64995 47.29692 38.47344
# Shear Modulus (GPa) = 21.67055 38.84232 30.25643
#
# Velocity S-wave (km/s) = 2.99128 4.00474 3.53452
# Velocity P-wave (km/s) = 4.91658 6.39631 5.70462
#
# Compressibility (1/GPa) = 0.03372686
#
# Stress axis : x y z
#
# Youngs Moduli (GPa) = 90.53157 56.35658 61.62483
#
# Poissons Ratio (x) = 0.04074 0.05686
# Poissons Ratio (y) = 0.06544 0.24648
# Poissons Ratio (z) = 0.08353 0.22541
#
# Static dielectric constant tensor:
#      x y z
#    x 1.996250 0.030400 0.062440 
#    y 0.030400 1.908030 -0.023920 
#    z 0.062440 -0.023920 2.061280 
# 
# From -- ./inp_files/330789.got.cif
#   From: 2010.05.17/outbox.cif.g08.bks.cpg/sg2_166_cif.got.tgz:330789.got - 2010.06.03 11:33:40.
