data_PCOD9080280
_publ_section_title
;
Structure prediction by ZEFSAII (Michael W. Deem and Ramdas Pophale) SiO2 
 PCOD9080280
Probable space group: P -1
;
_chemical_formula_sum "Si O2"
_cell_formula_units_Z 14
_cell_length_a 20.781627
_cell_length_b 9.235559
_cell_length_c 8.800806
_cell_angle_alpha 82.418853
_cell_angle_beta 124.812542
_cell_angle_gamma 144.376917
_cell_volume 581.149168
_symmetry_space_group_name_H-M "P -1"
_symmetry_group_IT_number 2
_symmetry_cell_setting 'triclinic'
loop_
_space_group_symop_operation_xyz
x,y,z
-x,-y,-z
loop_
_atom_site_type_symbol
_atom_site_label
_atom_site_fract_x
_atom_site_fract_y
_atom_site_fract_z
Si Si1 0.646380 0.546051 0.476040
Si Si2 0.359878 0.254484 0.987088
Si Si3 0.879320 0.391684 0.737521
Si Si4 0.135610 0.321148 0.428046
Si Si5 0.076175 0.766765 0.416309
Si Si6 0.558675 0.347704 0.727625
Si Si7 0.198019 0.469232 0.838079
O O1 0.443338 0.262055 0.194570
O O2 0.711505 0.511261 0.481783
O O3 0.648389 0.530514 0.660568
O O4 0.793389 0.914927 0.563185
O O5 0.375150 0.422481 0.090026
O O6 0.500000 0.500000 0.000000
O O7 0.168020 0.924594 0.684609
O O8 0.927231 0.642889 0.754394
O O9 0.912439 0.371059 0.623616
O O10 0.661991 0.014287 0.533642
O O11 0.000000 0.500000 0.000000
O O12 0.212111 0.498831 0.671104
O O13 0.965034 0.923567 0.286665
O O14 0.877906 0.508827 0.198516
O O15 0.620653 0.293651 0.876829
#
# Coordination Sequence:
#
# PCOD9080280 Si02
#       7
#     2   2   2   2   2   2   2
#     4  10  22  39  73 105 134 184 234 282 330 413
#     4  10  18  38  69 100 130 175 241 277 320 405
#     4  12  29  45  67 104 151 176 220 295 363 402
#     4  10  24  46  69 101 145 182 223 292 346 408
#     4  10  23  45  71 104 138 183 232 289 341 405
#     4  12  24  41  74 106 134 184 235 282 342 409
#     4  10  23  45  75  98 130 187 248 271 331 419
#
# _framework density 24.090201
#
# number of rings (size 3 to 8) (size 9 to 14) (size 15 to 20)
#    0.000    1.429    2.857    3.857    4.000    4.000 
#    0.000    0.000    0.000    0.000    0.000    0.000 
#    0.000    0.000    0.000    0.000    0.000    0.000 
#
# Total GULP energy -78443.949830 kJ/mol
# GULP energy per Si atom -5603.139274 kJ/mol
# Density = 2.403537 g / cm^3
# Si number density = 24.090201 Si / 1000 Ang^3
#
#
#
# Elastic Constant Matrix: (Units=GPa)
#
#
# Indices 1 2 3 4 5 6 
#
# 1 144.0710 44.1568 29.9118 -2.4877 26.7741 12.4178
# 2 44.1568 79.2435 20.7124 -12.9996 -4.9647 13.3946
# 3 29.9118 20.7124 119.0911 -15.6712 28.5498 10.6550
# 4 -2.4877 -12.9996 -15.6712 33.3480 -4.1712 0.6710
# 5 26.7741 -4.9647 28.5498 -4.1712 45.2209 -14.6445
# 6 12.4178 13.3946 10.6550 0.6710 -14.6445 40.7927
#
#
#
# Elastic Compliance Matrix: (Units=1/GPa)
#
#
# Indices 1 2 3 4 5 6 
#
# 1 0.010860 -0.006432 0.000732 -0.002427 -0.009344 -0.004700
# 2 -0.006432 0.018566 -0.002556 0.006550 0.007814 -0.000773
# 3 0.000732 -0.002556 0.012090 0.003611 -0.010021 -0.006198
# 4 -0.002427 0.006550 0.003611 0.034395 0.002380 -0.002066
# 5 -0.009344 0.007814 -0.010021 0.002380 0.040708 0.017471
# 6 -0.004700 -0.000773 -0.006198 -0.002066 0.017471 0.034124
#
#
# Mechanical properties :
#
#
# Convention : Reuss Voigt Hill
#
# Bulk Modulus (GPa) = 39.99268 59.10752 49.55010
# Shear Modulus (GPa) = 28.47548 40.38061 34.42805
#
# Velocity S-wave (km/s) = 3.44180 4.09861 3.78449
# Velocity P-wave (km/s) = 5.69491 6.85473 6.30156
#
# Compressibility (1/GPa) = 0.02500458
#
# Stress axis : x y z
#
# Youngs Moduli (GPa) = 92.07954 53.86116 82.71583
#
# Poissons Ratio (x) = 0.34645 -0.06056
# Poissons Ratio (y) = 0.59228 0.21140
# Poissons Ratio (z) = -0.06742 0.13765
#
# Static dielectric constant tensor:
#      x y z
#    x 1.898740 -0.019470 0.000590 
#    y -0.019470 1.959620 0.031780 
#    z 0.000590 0.031780 1.947280 
# 
# From -- ./inp_files/343572.got.cif
#   From: 2010.05.17/outbox.cif.g08.bks.cpg/sg2_172_cif.got.tgz:343572.got - 2010.06.03 11:33:40.
