data_PCOD9080893
_publ_section_title
;
Structure prediction by ZEFSAII (Michael W. Deem and Ramdas Pophale) SiO2 
 PCOD9080893
Probable space group: P -1
;
_chemical_formula_sum "Si O2"
_cell_formula_units_Z 16
_cell_length_a 23.777918
_cell_length_b 14.823524
_cell_length_c 8.956241
_cell_angle_alpha 133.953661
_cell_angle_beta 47.239518
_cell_angle_gamma 157.506086
_cell_volume 861.297472
_symmetry_space_group_name_H-M "P -1"
_symmetry_group_IT_number 2
_symmetry_cell_setting 'triclinic'
loop_
_space_group_symop_operation_xyz
x,y,z
-x,-y,-z
loop_
_atom_site_type_symbol
_atom_site_label
_atom_site_fract_x
_atom_site_fract_y
_atom_site_fract_z
Si Si1 0.011977 0.711730 0.691028
Si Si2 0.112714 0.214637 0.859925
Si Si3 0.225790 0.532255 0.741656
Si Si4 0.412922 0.992303 0.072185
Si Si5 0.343515 0.568581 0.093096
Si Si6 0.252257 0.855166 0.480206
Si Si7 0.931570 0.710601 0.554987
Si Si8 0.496432 0.854684 0.413936
O O1 0.153684 0.841252 0.651258
O O2 0.866503 0.423173 0.651956
O O3 0.022893 0.741005 0.525428
O O4 0.985424 0.812281 0.920542
O O5 0.184234 0.381998 0.779144
O O6 0.234490 0.345579 0.916541
O O7 0.014334 0.959456 0.698199
O O8 0.104850 0.371930 0.644229
O O9 0.372853 0.687723 0.573360
O O10 0.270105 0.730420 0.950720
O O11 0.358918 0.007077 0.317829
O O12 0.500000 0.000000 0.000000
O O13 0.529817 0.203770 0.983911
O O14 0.222973 0.489791 0.303356
O O15 0.442132 0.675703 0.184651
O O16 0.349495 0.961752 0.573057
O O17 0.500000 0.000000 0.500000
#
# Coordination Sequence:
#
# PCOD9080893 Si02
#       8
#     2   2   2   2   2   2   2   2
#     4  10  21  36  53  77 112 153 179 208 281 334
#     4  11  19  38  58  78 111 147 187 220 261 325
#     4  11  20  31  57  87 105 136 186 231 270 305
#     4  12  17  32  54  83 112 132 175 228 281 319
#     4  10  19  29  55  82 103 136 178 226 270 308
#     4  11  21  34  53  82 117 143 168 228 282 330
#     4  10  22  36  57  80 109 147 188 223 256 322
#     4  11  18  30  53  83 110 131 175 228 271 316
#
# _framework density 18.576625
#
# number of rings (size 3 to 8) (size 9 to 14) (size 15 to 20)
#    0.000    1.250    5.000    4.875    0.000    0.000 
#    0.000    1.875    0.000   13.500    0.000    0.000 
#    0.000    0.000    0.000    0.000    0.000    0.000 
#
# Total GULP energy -89101.516717 kJ/mol
# GULP energy per Si atom -5568.844795 kJ/mol
# Density = 1.853434 g / cm^3
# Si number density = 18.576625 Si / 1000 Ang^3
#
#
#
# Elastic Constant Matrix: (Units=GPa)
#
#
# Indices 1 2 3 4 5 6 
#
# 1 86.0748 44.1671 30.3628 4.4306 21.7098 26.3728
# 2 44.1671 83.7867 31.6673 3.5001 7.5215 3.7881
# 3 30.3628 31.6673 56.8849 11.1176 25.6896 10.5315
# 4 4.4306 3.5001 11.1176 32.0539 -0.2290 13.0961
# 5 21.7098 7.5215 25.6896 -0.2290 28.2780 2.9012
# 6 26.3728 3.7881 10.5315 13.0961 2.9012 35.2641
#
#
#
# Elastic Compliance Matrix: (Units=1/GPa)
#
#
# Indices 1 2 3 4 5 6 
#
# 1 0.028805 -0.014484 0.005140 0.004441 -0.020693 -0.021468
# 2 -0.014484 0.023273 -0.015407 0.000288 0.017762 0.011365
# 3 0.005140 -0.015407 0.045462 -0.011791 -0.040417 -0.008062
# 4 0.004441 0.000288 -0.011791 0.041198 0.009190 -0.015886
# 5 -0.020693 0.017762 -0.040417 0.009190 0.081727 0.015501
# 6 -0.021468 0.011365 -0.008062 -0.015886 0.015501 0.050224
#
#
# Mechanical properties :
#
#
# Convention : Reuss Voigt Hill
#
# Bulk Modulus (GPa) = 20.81668 48.79343 34.80506
# Shear Modulus (GPa) = 14.87189 27.15581 21.01385
#
# Velocity S-wave (km/s) = 2.83250 3.82753 3.36698
# Velocity P-wave (km/s) = 4.68269 6.77174 5.82168
#
# Compressibility (1/GPa) = 0.04803840
#
# Stress axis : x y z
#
# Youngs Moduli (GPa) = 34.71588 42.96853 21.99615
#
# Poissons Ratio (x) = 0.62237 -0.11306
# Poissons Ratio (y) = 0.50283 0.33889
# Poissons Ratio (z) = -0.17843 0.66200
#
# Static dielectric constant tensor:
#      x y z
#    x 1.682690 0.007960 0.069790 
#    y 0.007960 1.700610 -0.007460 
#    z 0.069790 -0.007460 1.747330 
# 
# From -- ./inp_files/259634.got.cif
#   From: 2010.05.17/outbox.cif.g08.bks.cpg/sg2_130_cif.got.tgz:259634.got - 2010.06.03 11:33:40.
