data_PCOD9080349
_publ_section_title
;
Structure prediction by ZEFSAII (Michael W. Deem and Ramdas Pophale) SiO2 
 PCOD9080349
Probable space group: P -1
;
_chemical_formula_sum "Si O2"
_cell_formula_units_Z 16
_cell_length_a 19.909961
_cell_length_b 17.537187
_cell_length_c 6.665729
_cell_angle_alpha 69.228299
_cell_angle_beta 71.120114
_cell_angle_gamma 21.034590
_cell_volume 780.899636
_symmetry_space_group_name_H-M "P -1"
_symmetry_group_IT_number 2
_symmetry_cell_setting 'triclinic'
loop_
_space_group_symop_operation_xyz
x,y,z
-x,-y,-z
loop_
_atom_site_type_symbol
_atom_site_label
_atom_site_fract_x
_atom_site_fract_y
_atom_site_fract_z
Si Si1 0.782343 0.250506 0.984799
Si Si2 0.368720 0.425415 0.989339
Si Si3 0.597997 0.004447 0.812512
Si Si4 0.896828 0.378079 0.247286
Si Si5 0.689732 0.094008 0.718678
Si Si6 0.692260 0.654312 0.568743
Si Si7 0.749762 0.680314 0.879283
Si Si8 0.481750 0.575219 0.644322
O O1 0.743807 0.377878 0.008049
O O2 0.669836 0.303277 0.173607
O O3 0.679720 0.365356 0.762277
O O4 0.000000 0.000000 0.000000
O O5 0.266450 0.499306 0.819900
O O6 0.577836 0.227394 0.908796
O O7 0.369618 0.354055 0.220790
O O8 0.668449 0.020943 0.758053
O O9 0.471793 0.138513 0.608413
O O10 0.754960 0.768754 0.854232
O O11 0.454663 0.131853 0.011465
O O12 0.844380 0.456656 0.451519
O O13 0.895979 0.464752 0.046353
O O14 0.090161 0.125207 0.278147
O O15 0.589477 0.259786 0.503135
O O16 0.758951 0.652781 0.659916
O O17 0.500000 0.500000 0.500000
#
# Coordination Sequence:
#
# PCOD9080349 Si02
#       8
#     2   2   2   2   2   2   2   2
#     4  11  27  44  71  98 127 172 213 266 325 387
#     4  11  23  43  63  91 129 168 212 257 322 384
#     4  10  19  37  64  90 125 171 208 264 326 369
#     4  10  24  39  63  94 127 165 218 263 312 388
#     4  12  23  43  65  90 131 172 203 267 327 373
#     4  10  18  39  60  93 122 163 216 261 311 379
#     4   9  19  38  61  92 126 163 219 262 310 388
#     4  11  26  46  64 101 134 161 216 268 318 393
#
# _framework density 20.489187999999999
#
# number of rings (size 3 to 8) (size 9 to 14) (size 15 to 20)
#    0.000    1.500    5.000    1.125    3.500    1.000 
#    6.750    0.625    0.000    0.000    0.000    0.000 
#    0.000    0.000    0.000    0.000    0.000    0.000 
#
# Total GULP energy -89378.754298 kJ/mol
# GULP energy per Si atom -5586.172144 kJ/mol
# Density = 2.044255 g / cm^3
# Si number density = 20.489188 Si / 1000 Ang^3
#
#
#
# Elastic Constant Matrix: (Units=GPa)
#
#
# Indices 1 2 3 4 5 6 
#
# 1 68.1155 20.9207 15.1643 -1.7052 5.2128 23.4448
# 2 20.9207 129.3486 38.4139 -6.1451 13.1741 4.4402
# 3 15.1643 38.4139 68.6636 6.7428 16.7238 4.6581
# 4 -1.7052 -6.1451 6.7428 19.8380 13.0846 0.3993
# 5 5.2128 13.1741 16.7238 13.0846 32.3582 -1.2961
# 6 23.4448 4.4402 4.6581 0.3993 -1.2961 34.4170
#
#
#
# Elastic Compliance Matrix: (Units=1/GPa)
#
#
# Indices 1 2 3 4 5 6 
#
# 1 0.020922 -0.001554 -0.002288 0.005142 -0.004194 -0.013959
# 2 -0.001554 0.010313 -0.005120 0.007708 -0.004413 0.000165
# 3 -0.002288 -0.005120 0.019888 -0.004569 -0.006004 -0.000646
# 4 0.005142 0.007708 -0.004569 0.076544 -0.032797 -0.006002
# 5 -0.004194 -0.004413 -0.006004 -0.032797 0.050002 0.006502
# 6 -0.013959 0.000165 -0.000646 -0.006002 0.006502 0.038945
#
#
# Mechanical properties :
#
#
# Convention : Reuss Voigt Hill
#
# Bulk Modulus (GPa) = 30.12041 46.12505 38.12273
# Shear Modulus (GPa) = 20.35802 30.09790 25.22796
#
# Velocity S-wave (km/s) = 3.15556 3.83687 3.51277
# Velocity P-wave (km/s) = 5.29238 6.49534 5.92447
#
# Compressibility (1/GPa) = 0.03320008
#
# Stress axis : x y z
#
# Youngs Moduli (GPa) = 47.79676 96.96710 50.28129
#
# Poissons Ratio (x) = 0.15067 0.11503
# Poissons Ratio (y) = 0.07427 0.25743
# Poissons Ratio (z) = 0.10935 0.49645
#
# Static dielectric constant tensor:
#      x y z
#    x 1.755070 0.009510 -0.010990 
#    y 0.009510 1.713630 0.009390 
#    z -0.010990 0.009390 1.722970 
# 
# From -- ./inp_files/120007.got.cif
#   From: 2010.05.17/outbox.cif.g08.bks.cpg/sg2_61_cif.got.tgz:120007.got - 2010.06.03 11:33:40.
