data_PCOD9080188
_publ_section_title
;
Structure prediction by ZEFSAII (Michael W. Deem and Ramdas Pophale) SiO2 
 PCOD9080188
Probable space group: P -1
;
_chemical_formula_sum "Si O2"
_cell_formula_units_Z 16
_cell_length_a 18.021053
_cell_length_b 20.301044
_cell_length_c 7.809082
_cell_angle_alpha 141.327171
_cell_angle_beta 145.097909
_cell_angle_gamma 25.283777
_cell_volume 689.144444
_symmetry_space_group_name_H-M "P -1"
_symmetry_group_IT_number 2
_symmetry_cell_setting 'triclinic'
loop_
_space_group_symop_operation_xyz
x,y,z
-x,-y,-z
loop_
_atom_site_type_symbol
_atom_site_label
_atom_site_fract_x
_atom_site_fract_y
_atom_site_fract_z
Si Si1 0.674284 0.332522 0.403594
Si Si2 0.185169 0.484264 0.498742
Si Si3 0.398759 0.827515 0.226271
Si Si4 0.947009 0.831494 0.700361
Si Si5 0.076244 0.158093 0.739110
Si Si6 0.982422 0.432763 0.171548
Si Si7 0.636314 0.537216 0.552435
Si Si8 0.759295 0.154684 0.668438
O O1 0.500000 0.500000 0.500000
O O2 0.660889 0.396537 0.318982
O O3 0.890629 0.234324 0.654701
O O4 0.656505 0.220130 0.124096
O O5 0.370254 0.327859 0.638276
O O6 0.284792 0.458566 0.460388
O O7 0.056952 0.666878 0.664825
O O8 0.042520 0.471288 0.207273
O O9 0.310903 0.834291 0.251689
O O10 0.275433 0.009773 0.345461
O O11 0.950533 0.810462 0.456467
O O12 0.065137 0.868902 0.035026
O O13 0.204854 0.978455 0.624055
O O14 0.121434 0.247976 0.070446
O O15 0.000000 0.500000 0.500000
O O16 0.771131 0.510003 0.896549
O O17 0.411846 0.689826 0.442971
#
# Coordination Sequence:
#
# PCOD9080188 Si02
#       8
#     2   2   2   2   2   2   2   2
#     4  11  20  34  59  88 133 164 197 246 322 385
#     4  11  22  39  67  92 125 165 220 260 303 367
#     4  10  20  34  60 100 125 161 202 258 325 376
#     4  11  18  37  68  98 130 152 205 275 318 370
#     4  10  20  39  63  90 127 166 205 259 319 369
#     4  11  25  44  61  84 128 176 214 255 311 371
#     4  10  22  40  63  94 117 167 221 255 310 374
#     4  10  18  38  65  96 124 151 205 278 318 370
#
# _framework density 23.217193999999999
#
# number of rings (size 3 to 8) (size 9 to 14) (size 15 to 20)
#    0.000    1.500    5.000    1.875    3.500    2.000 
#    2.250    4.375    0.000    0.000    0.000    0.000 
#    0.000    0.000    0.000    0.000    0.000    0.000 
#
# Total GULP energy -89107.509496 kJ/mol
# GULP energy per Si atom -5569.219343 kJ/mol
# Density = 2.316435 g / cm^3
# Si number density = 23.217194 Si / 1000 Ang^3
#
#
#
# Elastic Constant Matrix: (Units=GPa)
#
#
# Indices 1 2 3 4 5 6 
#
# 1 32.1518 1.5841 3.2621 0.5052 -1.6151 -11.1581
# 2 1.5841 152.4326 36.1717 21.2878 5.1673 6.6822
# 3 3.2621 36.1717 93.6691 24.1799 -0.2716 4.8529
# 4 0.5052 21.2878 24.1799 36.6088 -1.1526 -3.3957
# 5 -1.6151 5.1673 -0.2716 -1.1526 27.5559 10.2169
# 6 -11.1581 6.6822 4.8529 -3.3957 10.2169 23.6588
#
#
#
# Elastic Compliance Matrix: (Units=1/GPa)
#
#
# Indices 1 2 3 4 5 6 
#
# 1 0.038860 -0.000997 -0.003180 0.004033 -0.005660 0.022285
# 2 -0.000997 0.007631 -0.001911 -0.003408 -0.000763 -0.002393
# 3 -0.003180 -0.001911 0.014071 -0.008629 0.002185 -0.006028
# 4 0.004033 -0.003408 -0.008629 0.035862 -0.001591 0.010469
# 5 -0.005660 -0.000763 0.002185 -0.001591 0.044312 -0.022266
# 6 0.022285 -0.002393 -0.006028 0.010469 -0.022266 0.065808
#
#
# Mechanical properties :
#
#
# Convention : Reuss Voigt Hill
#
# Bulk Modulus (GPa) = 20.66752 40.03215 30.34984
# Shear Modulus (GPa) = 21.29033 33.38042 27.33537
#
# Velocity S-wave (km/s) = 3.03150 3.79587 3.43501
# Velocity P-wave (km/s) = 4.60157 6.04082 5.36963
#
# Compressibility (1/GPa) = 0.04838509
#
# Stress axis : x y z
#
# Youngs Moduli (GPa) = 25.73319 131.04998 71.07022
#
# Poissons Ratio (x) = 0.13072 0.22602
# Poissons Ratio (y) = 0.02567 0.13578
# Poissons Ratio (z) = 0.08184 0.25038
#
# Static dielectric constant tensor:
#      x y z
#    x 2.004930 0.007230 -0.088970 
#    y 0.007230 1.943980 -0.030090 
#    z -0.088970 -0.030090 1.880540 
# 
# From -- ./inp_files/350072.got.cif
#   From: 2010.05.17/outbox.cif.g08.bks.cpg/sg2_176_cif.got.tgz:350072.got - 2010.06.03 11:33:40.
