data_PCOD9080491
_publ_section_title
;
Structure prediction by ZEFSAII (Michael W. Deem and Ramdas Pophale) SiO2 
 PCOD9080491
Probable space group: P -1
;
_chemical_formula_sum "Si O2"
_cell_formula_units_Z 16
_cell_length_a 10.504833
_cell_length_b 8.414490
_cell_length_c 11.182660
_cell_angle_alpha 131.294370
_cell_angle_beta 65.179363
_cell_angle_gamma 99.792815
_cell_volume 665.721405
_symmetry_space_group_name_H-M "P -1"
_symmetry_group_IT_number 2
_symmetry_cell_setting 'triclinic'
loop_
_space_group_symop_operation_xyz
x,y,z
-x,-y,-z
loop_
_atom_site_type_symbol
_atom_site_label
_atom_site_fract_x
_atom_site_fract_y
_atom_site_fract_z
Si Si1 0.112769 0.622652 0.217487
Si Si2 0.347626 0.788446 0.679853
Si Si3 0.952010 0.090628 0.824599
Si Si4 0.246703 0.193185 0.830248
Si Si5 0.453069 0.237459 0.186176
Si Si6 0.539848 0.652443 0.318610
Si Si7 0.824901 0.471472 0.245330
Si Si8 0.134906 0.363058 0.317438
O O1 0.169287 0.520028 0.271662
O O2 0.113719 0.840709 0.248110
O O3 0.947064 0.607222 0.288308
O O4 0.182027 0.433483 0.007655
O O5 0.470229 0.738632 0.705399
O O6 0.413108 0.748958 0.503204
O O7 0.229445 0.641596 0.675345
O O8 0.272082 0.030679 0.849758
O O9 0.122263 0.100828 0.759984
O O10 0.917796 0.870901 0.785566
O O11 0.885973 0.280816 0.035290
O O12 0.408695 0.199693 0.728319
O O13 0.509513 0.420161 0.174373
O O14 0.285162 0.295984 0.289780
O O15 0.500000 0.000000 0.000000
O O16 0.686461 0.611706 0.315252
O O17 0.000000 0.500000 0.500000
#
# Coordination Sequence:
#
# PCOD9080491 Si02
#       8
#     2   2   2   2   2   2   2   2
#     4  11  22  42  71  98 133 175 223 285 341 401
#     4  11  24  38  70  98 135 179 224 288 348 389
#     4  11  22  43  73  96 137 171 223 290 339 404
#     4  11  21  41  69 106 127 165 232 289 345 404
#     4  11  25  46  65  94 139 189 228 269 340 425
#     4  11  22  40  68  99 134 166 227 288 338 400
#     4  10  18  39  68  98 122 166 222 279 341 396
#     4  12  29  44  66  99 140 186 233 273 336 423
#
# _framework density 24.034077
#
# number of rings (size 3 to 8) (size 9 to 14) (size 15 to 20)
#    0.000    1.000    2.500    6.375    5.250    2.500 
#    2.250    1.250    0.000    0.000    0.000    0.000 
#    0.000    0.000    0.000    0.000    0.000    0.000 
#
# Total GULP energy -89243.777379 kJ/mol
# GULP energy per Si atom -5577.736086 kJ/mol
# Density = 2.397937 g / cm^3
# Si number density = 24.034077 Si / 1000 Ang^3
#
#
#
# Elastic Constant Matrix: (Units=GPa)
#
#
# Indices 1 2 3 4 5 6 
#
# 1 83.8870 19.7014 11.6325 1.3858 -17.2128 -3.5096
# 2 19.7014 93.7755 38.1090 -7.4614 -2.5970 2.0653
# 3 11.6325 38.1090 73.4590 -2.8667 -11.6991 5.2545
# 4 1.3858 -7.4614 -2.8667 34.1765 3.3635 -9.4448
# 5 -17.2128 -2.5970 -11.6991 3.3635 26.3049 -0.3833
# 6 -3.5096 2.0653 5.2545 -9.4448 -0.3833 36.8123
#
#
#
# Elastic Compliance Matrix: (Units=1/GPa)
#
#
# Indices 1 2 3 4 5 6 
#
# 1 0.014700 -0.003326 0.000825 -0.001931 0.009920 0.001078
# 2 -0.003326 0.014619 -0.007711 0.003344 -0.004579 0.000774
# 3 0.000825 -0.007711 0.018933 -0.001651 0.008373 -0.002528
# 4 -0.001931 0.003344 -0.001651 0.032763 -0.005738 0.008210
# 5 0.009920 -0.004579 0.008373 -0.005738 0.048499 -0.000960
# 6 0.001078 0.000774 -0.002528 0.008210 -0.000960 0.029681
#
#
# Mechanical properties :
#
#
# Convention : Reuss Voigt Hill
#
# Bulk Modulus (GPa) = 35.93669 43.33415 39.63542
# Shear Modulus (GPa) = 26.46968 31.57065 29.02016
#
# Velocity S-wave (km/s) = 3.32224 3.62826 3.47862
# Velocity P-wave (km/s) = 5.44989 5.96840 5.71503
#
# Compressibility (1/GPa) = 0.02782671
#
# Stress axis : x y z
#
# Youngs Moduli (GPa) = 68.02633 68.40618 52.81882
#
# Poissons Ratio (x) = 0.22755 -0.04359
# Poissons Ratio (y) = 0.22629 0.40730
# Poissons Ratio (z) = -0.05614 0.52749
#
# Static dielectric constant tensor:
#      x y z
#    x 1.921860 -0.033700 0.025610 
#    y -0.033700 2.021730 -0.062000 
#    z 0.025610 -0.062000 1.968090 
# 
# From -- ./inp_files/419947.got.cif
#   From: 2010.05.17/outbox.cif.g08.bks.cpg/sg2_210_cif.got.tgz:419947.got - 2010.06.03 11:33:40.
