data_PCOD9080104
_publ_section_title
;
Structure prediction by ZEFSAII (Michael W. Deem and Ramdas Pophale) SiO2 
 PCOD9080104
Probable space group: P -1
;
_chemical_formula_sum "Si O2"
_cell_formula_units_Z 16
_cell_length_a 17.607705
_cell_length_b 23.005689
_cell_length_c 5.871937
_cell_angle_alpha 84.088525
_cell_angle_beta 108.164162
_cell_angle_gamma 157.692946
_cell_volume 735.794803
_symmetry_space_group_name_H-M "P -1"
_symmetry_group_IT_number 2
_symmetry_cell_setting 'triclinic'
loop_
_space_group_symop_operation_xyz
x,y,z
-x,-y,-z
loop_
_atom_site_type_symbol
_atom_site_label
_atom_site_fract_x
_atom_site_fract_y
_atom_site_fract_z
Si Si1 0.183977 0.906932 0.119497
Si Si2 0.562109 0.906712 0.217624
Si Si3 0.957990 0.061551 0.061230
Si Si4 0.172756 0.467972 0.541938
Si Si5 0.073261 0.616579 0.988094
Si Si6 0.612830 0.729660 0.614127
Si Si7 0.210122 0.806408 0.353835
Si Si8 0.454271 0.234550 0.855580
O O1 0.330187 0.007358 0.460787
O O2 0.096916 0.779480 0.099948
O O3 0.304635 0.995339 0.944136
O O4 0.034483 0.864365 0.018205
O O5 0.499298 0.794380 0.214214
O O6 0.332419 0.791122 0.032156
O O7 0.218842 0.210739 0.248916
O O8 0.814878 0.956188 0.208468
O O9 0.782868 0.900941 0.799331
O O10 0.362537 0.550970 0.593060
O O11 0.110179 0.471396 0.290634
O O12 0.917295 0.270497 0.490807
O O13 0.341638 0.617808 0.821862
O O14 0.113842 0.677010 0.238256
O O15 0.000000 0.500000 0.000000
O O16 0.540324 0.703227 0.311147
O O17 0.500000 0.000000 0.500000
#
# Coordination Sequence:
#
# PCOD9080104 Si02
#       8
#     2   2   2   2   2   2   2   2
#     4  11  24  43  66  99 134 177 226 281 333 403
#     4  11  23  41  67  96 137 173 225 280 335 404
#     4   9  20  35  66  98 132 174 221 279 340 409
#     4  11  25  40  63  94 134 177 223 283 341 401
#     4  12  27  42  67  97 134 177 223 280 344 406
#     4  10  18  38  63  98 133 170 225 281 346 395
#     4  12  26  44  67  93 133 183 230 275 337 406
#     4  10  20  38  64  97 138 172 220 282 344 402
#
# _framework density 21.745191999999999
#
# number of rings (size 3 to 8) (size 9 to 14) (size 15 to 20)
#    0.000    1.250    2.500    3.375    5.250    2.000 
#    0.000    0.625    0.000    3.000    0.000    0.000 
#    0.000    0.000    0.000    0.000    0.000    0.000 
#
# Total GULP energy -89166.547662 kJ/mol
# GULP energy per Si atom -5572.909229 kJ/mol
# Density = 2.169570 g / cm^3
# Si number density = 21.745192 Si / 1000 Ang^3
#
#
#
# Elastic Constant Matrix: (Units=GPa)
#
#
# Indices 1 2 3 4 5 6 
#
# 1 129.7376 42.4161 21.7225 9.2896 27.2581 18.5733
# 2 42.4161 108.7877 25.2910 -8.1513 20.7493 23.9875
# 3 21.7225 25.2910 80.1737 0.9842 3.1854 15.9789
# 4 9.2896 -8.1513 0.9842 24.1744 3.6098 8.5255
# 5 27.2581 20.7493 3.1854 3.6098 38.0302 5.1137
# 6 18.5733 23.9875 15.9789 8.5255 5.1137 42.5478
#
#
#
# Elastic Compliance Matrix: (Units=1/GPa)
#
#
# Indices 1 2 3 4 5 6 
#
# 1 0.010385 -0.002728 -0.001485 -0.003679 -0.005339 -0.001059
# 2 -0.002728 0.014056 -0.002175 0.009196 -0.005449 -0.007105
# 3 -0.001485 -0.002175 0.014239 0.000343 0.001527 -0.003725
# 4 -0.003679 0.009196 0.000343 0.051393 -0.005493 -0.013345
# 5 -0.005339 -0.005449 0.001527 -0.005493 0.033228 0.001937
# 6 -0.001059 -0.007105 -0.003725 -0.013345 0.001937 0.031811
#
#
# Mechanical properties :
#
#
# Convention : Reuss Voigt Hill
#
# Bulk Modulus (GPa) = 38.60369 55.28425 46.94397
# Shear Modulus (GPa) = 28.32483 36.23511 32.27997
#
# Velocity S-wave (km/s) = 3.61304 4.08652 3.85705
# Velocity P-wave (km/s) = 5.93268 6.90978 6.43979
#
# Compressibility (1/GPa) = 0.02590426
#
# Stress axis : x y z
#
# Youngs Moduli (GPa) = 96.29143 71.14172 70.22940
#
# Poissons Ratio (x) = 0.19406 0.10429
# Poissons Ratio (y) = 0.26266 0.15278
# Poissons Ratio (z) = 0.14299 0.15477
#
# Static dielectric constant tensor:
#      x y z
#    x 1.817140 0.000370 -0.064990 
#    y 0.000370 1.893090 0.014710 
#    z -0.064990 0.014710 1.809330 
# 
# From -- ./inp_files/85013.got.cif
#   From: 2010.05.17/outbox.cif.g08.bks.cpg/sg2_43_cif.got.tgz:85013.got - 2010.06.03 11:33:40.
