data_PCOD9080481
_publ_section_title
;
Structure prediction by ZEFSAII (Michael W. Deem and Ramdas Pophale) SiO2 
 PCOD9080481
Probable space group: P -1
;
_chemical_formula_sum "Si O2"
_cell_formula_units_Z 14
_cell_length_a 11.871861
_cell_length_b 9.373463
_cell_length_c 16.664325
_cell_angle_alpha 51.840101
_cell_angle_beta 31.181697
_cell_angle_gamma 39.508604
_cell_volume 605.793249
_symmetry_space_group_name_H-M "P -1"
_symmetry_group_IT_number 2
_symmetry_cell_setting 'triclinic'
loop_
_space_group_symop_operation_xyz
x,y,z
-x,-y,-z
loop_
_atom_site_type_symbol
_atom_site_label
_atom_site_fract_x
_atom_site_fract_y
_atom_site_fract_z
Si Si1 0.889705 0.353001 0.610564
Si Si2 0.674728 0.153543 0.494010
Si Si3 0.105981 0.631116 0.814714
Si Si4 0.825393 0.780260 0.167339
Si Si5 0.397145 0.497673 0.975809
Si Si6 0.647460 0.252841 0.664922
Si Si7 0.456429 0.971638 0.907161
O O1 0.620171 0.454164 0.791408
O O2 0.831046 0.316829 0.567871
O O3 0.000000 0.500000 0.500000
O O4 0.116310 0.093235 0.585433
O O5 0.738006 0.310800 0.359356
O O6 0.700883 0.182784 0.563450
O O7 0.383065 0.201846 0.647799
O O8 0.341701 0.475655 0.789578
O O9 0.071149 0.449535 0.862912
O O10 0.827401 0.853178 0.935966
O O11 0.643454 0.981554 0.142641
O O12 0.098337 0.722715 0.059002
O O13 0.500000 0.500000 0.000000
O O14 0.403270 0.275421 0.057492
O O15 0.647548 0.053030 0.773993
#
# Coordination Sequence:
#
# PCOD9080481 Si02
#       7
#     2   2   2   2   2   2   2
#     4  12  27  45  65 100 141 177 227 277 338 401
#     4  10  22  43  68 101 133 177 221 279 342 394
#     4  10  18  39  68 103 130 167 227 284 334 392
#     4  10  23  43  68  98 136 173 224 281 334 403
#     4  12  28  45  68  99 137 186 226 276 335 408
#     4  10  22  41  70 100 134 176 220 284 334 404
#     4  10  21  42  71 100 131 174 233 274 340 388
#
# _framework density 23.110194
#
# number of rings (size 3 to 8) (size 9 to 14) (size 15 to 20)
#    0.000    1.714    1.429    5.571    6.000    4.000 
#    2.571    1.429    0.000    0.000    0.000    0.000 
#    0.000    0.000    0.000    0.000    0.000    0.000 
#
# Total GULP energy -78191.916648 kJ/mol
# GULP energy per Si atom -5585.136903 kJ/mol
# Density = 2.305759 g / cm^3
# Si number density = 23.110194 Si / 1000 Ang^3
#
#
#
# Elastic Constant Matrix: (Units=GPa)
#
#
# Indices 1 2 3 4 5 6 
#
# 1 74.8455 17.6579 34.5902 -3.7965 -27.7094 1.7404
# 2 17.6579 54.8493 12.0518 -19.5790 -10.2366 -3.3793
# 3 34.5902 12.0518 132.8793 -14.1829 0.8240 -0.1674
# 4 -3.7965 -19.5790 -14.1829 45.7444 -1.5181 -4.6687
# 5 -27.7094 -10.2366 0.8240 -1.5181 30.7573 0.2239
# 6 1.7404 -3.3793 -0.1674 -4.6687 0.2239 26.2671
#
#
#
# Elastic Compliance Matrix: (Units=1/GPa)
#
#
# Indices 1 2 3 4 5 6 
#
# 1 0.025177 -0.003015 -0.006498 -0.000737 0.021834 -0.002415
# 2 -0.003015 0.024610 -0.000312 0.010921 0.005984 0.005254
# 3 -0.006498 -0.000312 0.009515 0.002165 -0.006112 0.000888
# 4 -0.000737 0.010921 0.002165 0.027939 0.004245 0.006397
# 5 0.021834 0.005984 -0.006112 0.004245 0.054551 -0.000426
# 6 -0.002415 0.005254 0.000888 0.006397 -0.000426 0.040053
#
#
# Mechanical properties :
#
#
# Convention : Reuss Voigt Hill
#
# Bulk Modulus (GPa) = 25.21839 43.46374 34.34107
# Shear Modulus (GPa) = 23.28702 33.77205 28.52954
#
# Velocity S-wave (km/s) = 3.17780 3.82691 3.51736
# Velocity P-wave (km/s) = 4.93968 6.19475 5.60247
#
# Compressibility (1/GPa) = 0.03965360
#
# Stress axis : x y z
#
# Youngs Moduli (GPa) = 39.71836 40.63439 105.09189
#
# Poissons Ratio (x) = 0.12250 0.68285
# Poissons Ratio (y) = 0.11974 0.03280
# Poissons Ratio (z) = 0.25808 0.01268
#
# Static dielectric constant tensor:
#      x y z
#    x 1.968970 -0.033270 -0.033430 
#    y -0.033270 1.891360 0.010260 
#    z -0.033430 0.010260 1.913050 
# 
# From -- ./inp_files/285794.got.cif
#   From: 2010.05.17/outbox.cif.g08.bks.cpg/sg2_143_cif.got.tgz:285794.got - 2010.06.03 11:33:40.
