data_PCOD9080541
_publ_section_title
;
Structure prediction by ZEFSAII (Michael W. Deem and Ramdas Pophale) SiO2 
 PCOD9080541
Probable space group: P -1
;
_chemical_formula_sum "Si O2"
_cell_formula_units_Z 16
_cell_length_a 9.129099
_cell_length_b 6.888383
_cell_length_c 19.376388
_cell_angle_alpha 136.301548
_cell_angle_beta 43.891992
_cell_angle_gamma 122.135598
_cell_volume 583.470847
_symmetry_space_group_name_H-M "P -1"
_symmetry_group_IT_number 2
_symmetry_cell_setting 'triclinic'
loop_
_space_group_symop_operation_xyz
x,y,z
-x,-y,-z
loop_
_atom_site_type_symbol
_atom_site_label
_atom_site_fract_x
_atom_site_fract_y
_atom_site_fract_z
Si Si1 0.659523 0.003964 0.009270
Si Si2 0.763760 0.947122 0.594515
Si Si3 0.077717 0.064054 0.321237
Si Si4 0.303058 0.667060 0.790696
Si Si5 0.624625 0.774552 0.184872
Si Si6 0.285853 0.308714 0.589630
Si Si7 0.071048 0.865507 0.754662
Si Si8 0.198227 0.485494 0.068953
O O1 0.671384 0.722527 0.980022
O O2 0.890666 0.999805 0.896373
O O3 0.500000 0.000000 0.000000
O O4 0.614028 0.260340 0.142654
O O5 0.627315 0.227476 0.721025
O O6 0.635184 0.776415 0.534790
O O7 0.793226 0.814842 0.626548
O O8 0.000000 0.000000 0.500000
O O9 0.199007 0.794329 0.180752
O O10 0.860523 0.943496 0.397084
O O11 0.012380 0.218833 0.314225
O O12 0.334560 0.951428 0.808566
O O13 0.404113 0.423811 0.647073
O O14 0.050164 0.611256 0.871954
O O15 0.750414 0.883288 0.238169
O O16 0.719157 0.537946 0.043477
O O17 0.142972 0.575211 0.688255
#
# Coordination Sequence:
#
# PCOD9080541 Si02
#       8
#     2   2   2   2   2   2   2   2
#     4  11  20  34  59  97 134 153 190 257 312 367
#     4  10  23  42  61  86 123 167 209 262 302 349
#     4  10  22  38  63  93 124 157 206 253 311 364
#     4   9  17  36  64  87 120 162 195 244 306 373
#     4  10  19  36  64  89 120 165 211 243 305 377
#     4   9  20  43  65  78 128 163 207 254 301 348
#     4  11  21  38  63  94 120 161 206 248 306 381
#     4  10  18  40  61  88 133 162 191 253 312 374
#
# _framework density 27.422103
#
# number of rings (size 3 to 8) (size 9 to 14) (size 15 to 20)
#    0.000    2.000    5.000    0.750    3.500    3.500 
#    0.000    2.500    2.750    0.000    0.000    0.000 
#    0.000    0.000    0.000    0.000    0.000    0.000 
#
# Total GULP energy -89531.594528 kJ/mol
# GULP energy per Si atom -5595.724658 kJ/mol
# Density = 2.735969 g / cm^3
# Si number density = 27.422103 Si / 1000 Ang^3
#
#
#
# Elastic Constant Matrix: (Units=GPa)
#
#
# Indices 1 2 3 4 5 6 
#
# 1 138.5053 22.4897 49.5831 -15.9667 33.9305 -0.7205
# 2 22.4897 55.4810 8.7133 -11.2834 -2.4145 6.2978
# 3 49.5831 8.7133 143.8761 -13.2685 33.6511 7.6370
# 4 -15.9667 -11.2834 -13.2685 26.9655 0.6349 5.5782
# 5 33.9305 -2.4145 33.6511 0.6349 75.8513 -5.0824
# 6 -0.7205 6.2978 7.6370 5.5782 -5.0824 39.7743
#
#
#
# Elastic Compliance Matrix: (Units=1/GPa)
#
#
# Indices 1 2 3 4 5 6 
#
# 1 0.009723 -0.003071 -0.002005 0.003552 -0.003582 0.000091
# 2 -0.003071 0.021460 0.000406 0.008256 0.001506 -0.004497
# 3 -0.002005 0.000406 0.008897 0.004014 -0.003258 -0.002788
# 4 0.003552 0.008256 0.004014 0.046591 -0.004105 -0.009072
# 5 -0.003582 0.001506 -0.003258 -0.004105 0.016515 0.003008
# 6 0.000091 -0.004497 -0.002788 -0.009072 0.003008 0.028048
#
#
# Mechanical properties :
#
#
# Convention : Reuss Voigt Hill
#
# Bulk Modulus (GPa) = 32.52774 55.49274 44.01024
# Shear Modulus (GPa) = 33.15229 45.65664 39.40447
#
# Velocity S-wave (km/s) = 3.48079 4.08482 3.79484
# Velocity P-wave (km/s) = 5.29548 6.52135 5.94013
#
# Compressibility (1/GPa) = 0.03074299
#
# Stress axis : x y z
#
# Youngs Moduli (GPa) = 102.84410 46.59784 112.39969
#
# Poissons Ratio (x) = 0.14308 0.22532
# Poissons Ratio (y) = 0.31580 -0.04569
# Poissons Ratio (z) = 0.20616 -0.01894
#
# Static dielectric constant tensor:
#      x y z
#    x 2.224820 0.044880 0.055190 
#    y 0.044880 2.203670 0.003550 
#    z 0.055190 0.003550 2.134000 
# 
# From -- ./inp_files/557541.got.cif
#   From: 2010.05.17/outbox.cif.g08.bks.cpg/sg2_279_cif.got.tgz:557541.got - 2010.06.03 11:33:40.
