data_PCOD9080381
_publ_section_title
;
Structure prediction by ZEFSAII (Michael W. Deem and Ramdas Pophale) SiO2 
 PCOD9080381
Probable space group: P -1
;
_chemical_formula_sum "Si O2"
_cell_formula_units_Z 16
_cell_length_a 8.206259
_cell_length_b 13.635224
_cell_length_c 9.179919
_cell_angle_alpha 136.440196
_cell_angle_beta 82.359594
_cell_angle_gamma 91.261760
_cell_volume 697.390239
_symmetry_space_group_name_H-M "P -1"
_symmetry_group_IT_number 2
_symmetry_cell_setting 'triclinic'
loop_
_space_group_symop_operation_xyz
x,y,z
-x,-y,-z
loop_
_atom_site_type_symbol
_atom_site_label
_atom_site_fract_x
_atom_site_fract_y
_atom_site_fract_z
Si Si1 0.326008 0.456388 0.530480
Si Si2 0.588547 0.347367 0.770379
Si Si3 0.851055 0.803299 0.774415
Si Si4 0.212794 0.278821 0.990501
Si Si5 0.393326 0.688448 0.962204
Si Si6 0.653661 0.042382 0.927411
Si Si7 0.856803 0.418970 0.594555
Si Si8 0.368994 0.106864 0.538970
O O1 0.500000 0.500000 0.500000
O O2 0.299309 0.290304 0.357117
O O3 0.193827 0.523008 0.498307
O O4 0.322039 0.540087 0.772037
O O5 0.674458 0.275152 0.828521
O O6 0.706435 0.364018 0.640217
O O7 0.454948 0.245219 0.632095
O O8 0.500000 0.500000 0.000000
O O9 0.854743 0.793368 0.937216
O O10 0.812652 0.966591 0.908861
O O11 0.002826 0.710702 0.580314
O O12 0.113451 0.436796 0.163853
O O13 0.406280 0.307482 0.035091
O O14 0.225840 0.174127 0.738232
O O15 0.350119 0.792915 0.942566
O O16 0.663155 0.971244 0.689675
O O17 0.500000 0.000000 0.000000
O O18 0.500000 0.000000 0.500000
#
# Coordination Sequence:
#
# PCOD9080381 Si02
#       8
#     2   2   2   2   2   2   2   2
#     4  11  19  37  66  95 117 158 216 259 310 360
#     4  11  21  38  65  91 129 159 213 262 313 375
#     4  11  24  40  64  94 131 169 204 261 324 379
#     4  10  18  39  62  93 126 153 207 267 310 363
#     4  11  21  37  60  97 119 156 210 274 297 357
#     4  12  23  40  63  93 130 160 216 260 310 383
#     4  11  23  40  63  96 132 164 207 265 322 373
#     4  11  21  37  64  96 119 165 209 263 314 359
#
# _framework density 22.942678000000001
#
# number of rings (size 3 to 8) (size 9 to 14) (size 15 to 20)
#    0.000    1.000    8.750    1.500    5.250    0.000 
#    0.000    5.000    2.750    0.000    0.000    0.000 
#    0.000    0.000    0.000    0.000    0.000    0.000 
#
# Total GULP energy -89285.871111 kJ/mol
# GULP energy per Si atom -5580.366944 kJ/mol
# Density = 2.289046 g / cm^3
# Si number density = 22.942678 Si / 1000 Ang^3
#
#
#
# Elastic Constant Matrix: (Units=GPa)
#
#
# Indices 1 2 3 4 5 6 
#
# 1 27.1350 1.0965 11.4801 2.9139 -15.6064 0.1279
# 2 1.0965 110.0090 10.9944 3.0772 -21.9966 1.6420
# 3 11.4801 10.9944 124.7296 -12.5525 -14.4809 2.4679
# 4 2.9139 3.0772 -12.5525 39.6800 -2.1261 -4.4021
# 5 -15.6064 -21.9966 -14.4809 -2.1261 34.9618 7.4408
# 6 0.1279 1.6420 2.4679 -4.4021 7.4408 20.3413
#
#
#
# Elastic Compliance Matrix: (Units=1/GPa)
#
#
# Indices 1 2 3 4 5 6 
#
# 1 0.055423 0.005993 -0.002426 -0.005096 0.029870 -0.012567
# 2 0.005993 0.011311 -0.000355 -0.001426 0.010645 -0.005110
# 3 -0.002426 -0.000355 0.008941 0.003029 0.002888 -0.001442
# 4 -0.005096 -0.001426 0.003029 0.027254 -0.001592 0.006260
# 5 0.029870 0.010645 0.002888 -0.001592 0.054334 -0.021617
# 6 -0.012567 -0.005110 -0.001442 0.006260 -0.021617 0.059090
#
#
# Mechanical properties :
#
#
# Convention : Reuss Voigt Hill
#
# Bulk Modulus (GPa) = 12.18053 34.33507 23.25780
# Shear Modulus (GPa) = 21.07096 34.88346 27.97721
#
# Velocity S-wave (km/s) = 3.03383 3.90354 3.49584
# Velocity P-wave (km/s) = 4.19438 5.94263 5.14333
#
# Compressibility (1/GPa) = 0.08209822
#
# Stress axis : x y z
#
# Youngs Moduli (GPa) = 18.04308 88.41256 111.85047
#
# Poissons Ratio (x) = -0.52984 0.27131
# Poissons Ratio (y) = -0.10813 0.03972
# Poissons Ratio (z) = 0.04377 0.03139
#
# Static dielectric constant tensor:
#      x y z
#    x 1.921520 -0.032000 -0.018820 
#    y -0.032000 1.954860 0.034510 
#    z -0.018820 0.034510 1.951550 
# 
# From -- ./inp_files/204194.got.cif
#   From: 2010.05.17/outbox.cif.g08.bks.cpg/sg2_103_cif.got.tgz:204194.got - 2010.06.03 11:33:40.
