data_PCOD9080298
_publ_section_title
;
Structure prediction by ZEFSAII (Michael W. Deem and Ramdas Pophale) SiO2 
 PCOD9080298
Probable space group: P -1
;
_chemical_formula_sum "Si O2"
_cell_formula_units_Z 11
_cell_length_a 9.844551
_cell_length_b 13.918008
_cell_length_c 9.020850
_cell_angle_alpha 38.404142
_cell_angle_beta 46.600033
_cell_angle_gamma 29.630074
_cell_volume 379.534620
_symmetry_space_group_name_H-M "P -1"
_symmetry_group_IT_number 2
_symmetry_cell_setting 'triclinic'
loop_
_space_group_symop_operation_xyz
x,y,z
-x,-y,-z
loop_
_atom_site_type_symbol
_atom_site_label
_atom_site_fract_x
_atom_site_fract_y
_atom_site_fract_z
Si Si1 0.317809 0.298250 0.312406
Si Si2 0.392939 0.672079 0.526758
Si Si3 0.968777 0.731564 0.216782
Si Si4 0.500000 0.000000 0.000000
Si Si5 0.195856 0.045891 0.430101
Si Si6 0.596912 0.224394 0.906695
O O1 0.081363 0.329837 0.517741
O O2 0.606518 0.060964 0.448991
O O3 0.234026 0.511304 0.197253
O O4 0.376517 0.285368 0.111080
O O5 0.279439 0.827653 0.564124
O O6 0.586921 0.411365 0.728473
O O7 0.486296 0.742605 0.247356
O O8 0.127825 0.760284 0.536192
O O9 0.714537 0.832007 0.181331
O O10 0.886102 0.960484 0.019473
O O11 0.243605 0.126417 0.156845
#
# Coordination Sequence:
#
# PCOD9080298 Si02
#       6
#     2   2   2   1   2   2
#     4  10  23  40  66  92 127 162 208 257 317 352
#     4  10  23  41  63  91 129 163 212 246 314 367
#     4  10  21  42  64  94 125 163 207 260 305 374
#     4  10  18  38  70  84 118 166 210 244 304 360
#     4  10  21  42  64  91 124 171 203 256 306 375
#     4  11  22  41  63  91 127 164 205 261 302 374
#
# _framework density 28.982862999999998
#
# number of rings (size 3 to 8) (size 9 to 14) (size 15 to 20)
#    0.000    1.818    1.818    1.636    2.545    1.455 
#    6.545    8.182    0.000    0.000    0.000    0.000 
#    0.000    0.000    0.000    0.000    0.000    0.000 
#
# Total GULP energy -61418.694548 kJ/mol
# GULP energy per Si atom -5583.517686 kJ/mol
# Density = 2.891690 g / cm^3
# Si number density = 28.982863 Si / 1000 Ang^3
#
#
#
# Elastic Constant Matrix: (Units=GPa)
#
#
# Indices 1 2 3 4 5 6 
#
# 1 80.1008 9.7170 7.9147 4.7639 8.9783 1.8172
# 2 9.7170 151.5644 57.9591 -15.2551 0.6794 30.2523
# 3 7.9147 57.9591 150.5465 -7.2032 -1.4695 1.8301
# 4 4.7639 -15.2551 -7.2032 70.8130 12.1568 1.8948
# 5 8.9783 0.6794 -1.4695 12.1568 33.1939 1.1283
# 6 1.8172 30.2523 1.8301 1.8948 1.1283 41.9732
#
#
#
# Elastic Compliance Matrix: (Units=1/GPa)
#
#
# Indices 1 2 3 4 5 6 
#
# 1 0.013020 -0.000706 -0.000470 -0.000504 -0.003346 0.000079
# 2 -0.000706 0.009522 -0.003455 0.002044 -0.000676 -0.006756
# 3 -0.000470 -0.003455 0.007974 -0.000044 0.000494 0.002152
# 4 -0.000504 0.002044 -0.000044 0.015598 -0.005552 -0.002004
# 5 -0.003346 -0.000676 0.000494 -0.005552 0.033101 -0.000029
# 6 0.000079 -0.006756 0.002152 -0.002004 -0.000029 0.028688
#
#
# Mechanical properties :
#
#
# Convention : Reuss Voigt Hill
#
# Bulk Modulus (GPa) = 47.05511 59.26592 53.16052
# Shear Modulus (GPa) = 40.24144 49.63744 44.93944
#
# Velocity S-wave (km/s) = 3.73024 4.14290 3.94198
# Velocity P-wave (km/s) = 5.90116 6.58619 6.25306
#
# Compressibility (1/GPa) = 0.02125168
#
# Stress axis : x y z
#
# Youngs Moduli (GPa) = 76.80705 105.02383 125.40750
#
# Poissons Ratio (x) = 0.07417 0.05898
# Poissons Ratio (y) = 0.05424 0.43332
# Poissons Ratio (z) = 0.03612 0.36289
#
# Static dielectric constant tensor:
#      x y z
#    x 2.143800 -0.012370 0.119600 
#    y -0.012370 2.177940 0.051810 
#    z 0.119600 0.051810 2.145880 
# 
# From -- ./inp_files/151810.got.cif
#   From: 2010.05.17/outbox.cif.g08.bks.cpg/sg2_76_cif.got.tgz:151810.got - 2010.06.03 11:33:40.
