data_PCOD9080439
_publ_section_title
;
Structure prediction by ZEFSAII (Michael W. Deem and Ramdas Pophale) SiO2 
 PCOD9080439
Probable space group: P -1
;
_chemical_formula_sum "Si O2"
_cell_formula_units_Z 14
_cell_length_a 20.305099
_cell_length_b 10.583927
_cell_length_c 9.530935
_cell_angle_alpha 61.549013
_cell_angle_beta 145.527390
_cell_angle_gamma 142.282421
_cell_volume 611.142373
_symmetry_space_group_name_H-M "P -1"
_symmetry_group_IT_number 2
_symmetry_cell_setting 'triclinic'
loop_
_space_group_symop_operation_xyz
x,y,z
-x,-y,-z
loop_
_atom_site_type_symbol
_atom_site_label
_atom_site_fract_x
_atom_site_fract_y
_atom_site_fract_z
Si Si1 0.617189 0.835746 0.311517
Si Si2 0.251123 0.388851 0.034164
Si Si3 0.012688 0.617274 0.809282
Si Si4 0.850495 0.023800 0.909264
Si Si5 0.704252 0.599425 0.573670
Si Si6 0.677462 0.269517 0.607921
Si Si7 0.076808 0.732803 0.547896
O O1 0.391711 0.624102 0.062612
O O2 0.731201 0.954325 0.598898
O O3 0.643827 0.699110 0.374113
O O4 0.706679 0.033076 0.253187
O O5 0.237352 0.209878 0.056963
O O6 0.336842 0.463042 0.301323
O O7 0.046475 0.265444 0.745728
O O8 0.039811 0.716270 0.655655
O O9 0.792319 0.371137 0.606056
O O10 0.140056 0.596873 0.042602
O O11 0.117720 0.822862 0.999998
O O12 0.064349 0.185879 0.151189
O O13 0.619412 0.378276 0.462184
O O14 0.500000 0.000000 0.500000
O O15 0.000000 0.500000 0.500000
#
# Coordination Sequence:
#
# PCOD9080439 Si02
#       7
#     2   2   2   2   2   2   2
#     4  11  23  39  67  93 120 164 211 255 301 364
#     4  11  22  38  67  93 121 165 206 257 306 357
#     4  10  25  41  62  95 124 165 201 253 315 359
#     4  10  19  41  68  91 124 159 212 258 300 363
#     4  10  18  39  65  95 118 163 210 251 303 358
#     4  10  23  39  66  92 124 158 205 256 304 362
#     4  12  26  44  61  88 132 163 203 252 313 377
#
# _framework density 22.907920000000001
#
# number of rings (size 3 to 8) (size 9 to 14) (size 15 to 20)
#    0.000    1.429    2.857    3.429    8.000    2.286 
#    0.000    0.714    0.000    0.000    0.000    0.000 
#    0.000    0.000    0.000    0.000    0.000    0.000 
#
# Total GULP energy -78195.793865 kJ/mol
# GULP energy per Si atom -5585.413847 kJ/mol
# Density = 2.285578 g / cm^3
# Si number density = 22.907920 Si / 1000 Ang^3
#
#
#
# Elastic Constant Matrix: (Units=GPa)
#
#
# Indices 1 2 3 4 5 6 
#
# 1 81.0015 46.8302 9.4866 12.0809 -9.4958 -4.0629
# 2 46.8302 161.5727 5.2014 25.8715 -10.5535 26.8134
# 3 9.4866 5.2014 19.0117 10.8510 3.1072 6.9647
# 4 12.0809 25.8715 10.8510 37.3765 6.4925 13.7513
# 5 -9.4958 -10.5535 3.1072 6.4925 17.9671 1.2797
# 6 -4.0629 26.8134 6.9647 13.7513 1.2797 50.5212
#
#
#
# Elastic Compliance Matrix: (Units=1/GPa)
#
#
# Indices 1 2 3 4 5 6 
#
# 1 0.018142 -0.004761 -0.009384 -0.003688 0.009317 0.006047
# 2 -0.004761 0.009313 0.003661 -0.005069 0.004478 -0.004564
# 3 -0.009384 0.003661 0.069268 -0.015190 -0.008737 -0.007891
# 4 -0.003688 -0.005069 -0.015190 0.041071 -0.016694 -0.006269
# 5 0.009317 0.004478 -0.008737 -0.016694 0.070589 0.002333
# 6 0.006047 -0.004564 -0.007891 -0.006269 0.002333 0.025437
#
#
# Mechanical properties :
#
#
# Convention : Reuss Voigt Hill
#
# Bulk Modulus (GPa) = 13.20021 42.73580 27.96801
# Shear Modulus (GPa) = 17.85462 34.51079 26.18270
#
# Velocity S-wave (km/s) = 2.79482 3.88558 3.38443
# Velocity P-wave (km/s) = 4.02361 6.23107 5.24479
#
# Compressibility (1/GPa) = 0.07575635
#
# Stress axis : x y z
#
# Youngs Moduli (GPa) = 55.11984 107.38069 14.43662
#
# Poissons Ratio (x) = 0.51122 0.13547
# Poissons Ratio (y) = 0.26241 -0.05285
# Poissons Ratio (z) = 0.51722 -0.39311
#
# Static dielectric constant tensor:
#      x y z
#    x 1.884510 -0.003850 0.004980 
#    y -0.003850 1.905340 0.033090 
#    z 0.004980 0.033090 1.842940 
# 
# From -- ./inp_files/346051.got.cif
#   From: 2010.05.17/outbox.cif.g08.bks.cpg/sg2_174_cif.got.tgz:346051.got - 2010.06.03 11:33:40.
