data_PCOD9080000
_publ_section_title
;
Structure prediction by ZEFSAII (Michael W. Deem and Ramdas Pophale) SiO2 
 PCOD9080000
Probable space group: P -1
;
_chemical_formula_sum "Si O2"
_cell_formula_units_Z 14
_cell_length_a 7.365805
_cell_length_b 8.521712
_cell_length_c 13.989833
_cell_angle_alpha 125.964440
_cell_angle_beta 55.933233
_cell_angle_gamma 95.219153
_cell_volume 550.425592
_symmetry_space_group_name_H-M "P -1"
_symmetry_group_IT_number 2
_symmetry_cell_setting 'triclinic'
loop_
_space_group_symop_operation_xyz
x,y,z
-x,-y,-z
loop_
_atom_site_type_symbol
_atom_site_label
_atom_site_fract_x
_atom_site_fract_y
_atom_site_fract_z
Si Si1 0.565848 0.496509 0.132116
Si Si2 0.287052 0.146158 0.816732
Si Si3 0.615412 0.837904 0.991507
Si Si4 0.557237 0.503862 0.348441
Si Si5 0.073384 0.871549 0.833777
Si Si6 0.864490 0.221119 0.527721
Si Si7 0.737057 0.854827 0.484298
O O1 0.737811 0.614447 0.093218
O O2 0.511682 0.328706 0.025112
O O3 0.634702 0.405175 0.185245
O O4 0.311141 0.672817 0.293665
O O5 0.077975 0.058619 0.831306
O O6 0.483602 0.023920 0.640556
O O7 0.385886 0.080104 0.871531
O O8 0.884865 0.757713 0.845843
O O9 0.500000 0.000000 0.000000
O O10 0.670062 0.309075 0.314036
O O11 0.279397 0.633182 0.464099
O O12 0.688835 0.665797 0.382405
O O13 0.000000 0.000000 0.000000
O O14 0.115587 0.215166 0.485844
O O15 0.866602 0.987267 0.436299
#
# Coordination Sequence:
#
# PCOD9080000 Si02
#       7
#     2   2   2   2   2   2   2
#     4   9  19  37  63  91 116 160 208 247 303 360
#     4  10  22  38  61  90 125 156 208 259 296 365
#     4  11  22  42  62  84 122 166 208 256 312 365
#     4  10  20  37  66  87 125 165 198 246 312 376
#     4  10  22  41  59  85 122 166 202 254 310 361
#     4   8  19  33  62  93 122 163 198 246 306 369
#     4  10  18  38  60  95 126 159 201 252 304 364
#
# _framework density 25.434867000000001
#
# number of rings (size 3 to 8) (size 9 to 14) (size 15 to 20)
#    0.857    1.429    0.000    3.429    0.000    0.571 
#    2.571   10.000    0.000    0.000    0.000    0.000 
#    0.000    0.000    0.000    0.000    0.000    0.000 
#
# Total GULP energy -78021.609058 kJ/mol
# GULP energy per Si atom -5572.972076 kJ/mol
# Density = 2.537698 g / cm^3
# Si number density = 25.434867 Si / 1000 Ang^3
#
#
#
# Elastic Constant Matrix: (Units=GPa)
#
#
# Indices 1 2 3 4 5 6 
#
# 1 98.9713 19.2701 21.3256 12.5869 -6.4818 5.9382
# 2 19.2701 90.8977 7.7692 17.6439 -5.1973 10.7756
# 3 21.3256 7.7692 33.4056 14.6096 2.5478 8.5889
# 4 12.5869 17.6439 14.6096 36.0584 -0.5144 8.3703
# 5 -6.4818 -5.1973 2.5478 -0.5144 38.2438 2.4258
# 6 5.9382 10.7756 8.5889 8.3703 2.4258 44.2022
#
#
#
# Elastic Compliance Matrix: (Units=1/GPa)
#
#
# Indices 1 2 3 4 5 6 
#
# 1 0.012246 -0.001771 -0.007456 -0.000397 0.002315 0.000184
# 2 -0.001771 0.012685 0.001012 -0.005494 0.001415 -0.002088
# 3 -0.007456 0.001012 0.042007 -0.013907 -0.003822 -0.004564
# 4 -0.000397 -0.005494 -0.013907 0.036887 0.000795 -0.002934
# 5 0.002315 0.001415 -0.003822 0.000795 0.027096 -0.001551
# 6 0.000184 -0.002088 -0.004564 -0.002934 -0.001551 0.024635
#
#
# Mechanical properties :
#
#
# Convention : Reuss Voigt Hill
#
# Bulk Modulus (GPa) = 19.79878 35.55605 27.67742
# Shear Modulus (GPa) = 26.47978 35.36152 30.92065
#
# Velocity S-wave (km/s) = 3.23008 3.73269 3.49044
# Velocity P-wave (km/s) = 4.65964 5.70849 5.21052
#
# Compressibility (1/GPa) = 0.05050816
#
# Stress axis : x y z
#
# Youngs Moduli (GPa) = 81.65621 78.83161 23.80563
#
# Poissons Ratio (x) = 0.13964 0.17750
# Poissons Ratio (y) = 0.14464 -0.02410
# Poissons Ratio (z) = 0.60885 -0.07980
#
# Static dielectric constant tensor:
#      x y z
#    x 2.081660 0.001710 -0.019790 
#    y 0.001710 2.068800 -0.051480 
#    z -0.019790 -0.051480 1.997370 
# 
# From -- ./inp_files/556474.got.cif
#   From: 2010.05.17/outbox.cif.g08.bks.cpg/sg2_279_cif.got.tgz:556474.got - 2010.06.03 11:33:40.
