data_PCOD9080552
_publ_section_title
;
Structure prediction by ZEFSAII (Michael W. Deem and Ramdas Pophale) SiO2 
 PCOD9080552
Probable space group: P -1
;
_chemical_formula_sum "Si O2"
_cell_formula_units_Z 16
_cell_length_a 14.307514
_cell_length_b 9.436016
_cell_length_c 16.565845
_cell_angle_alpha 135.315804
_cell_angle_beta 38.675518
_cell_angle_gamma 114.491099
_cell_volume 931.189505
_symmetry_space_group_name_H-M "P -1"
_symmetry_group_IT_number 2
_symmetry_cell_setting 'triclinic'
loop_
_space_group_symop_operation_xyz
x,y,z
-x,-y,-z
loop_
_atom_site_type_symbol
_atom_site_label
_atom_site_fract_x
_atom_site_fract_y
_atom_site_fract_z
Si Si1 0.104565 0.929020 0.776271
Si Si2 0.017931 0.653581 0.288069
Si Si3 0.178641 0.149681 0.966545
Si Si4 0.263801 0.719452 0.268492
Si Si5 0.577466 0.792233 0.054847
Si Si6 0.126270 0.494688 0.534171
Si Si7 0.948300 0.993083 0.339428
Si Si8 0.190291 0.220736 0.231703
O O1 0.187412 0.678537 0.602057
O O2 0.187119 0.031953 0.828393
O O3 0.090848 0.028136 0.736479
O O4 0.934583 0.937803 0.934159
O O5 0.139286 0.746561 0.291189
O O6 0.889507 0.655287 0.443419
O O7 0.962256 0.788640 0.300699
O O8 0.094179 0.403188 0.116327
O O9 0.342454 0.133606 0.892577
O O10 0.394093 0.830892 0.205403
O O11 0.175634 0.813761 0.449317
O O12 0.347492 0.464634 0.112328
O O13 0.649825 0.879273 0.965482
O O14 0.215117 0.362185 0.345635
O O15 0.948572 0.623781 0.670329
O O16 0.109285 0.053893 0.251942
#
# Coordination Sequence:
#
# PCOD9080552 Si02
#       8
#     2   2   2   2   2   2   2   2
#     4   9  17  29  50  71  90 118 168 194 227 261
#     4  10  18  30  46  70 102 123 149 189 237 279
#     4   9  17  32  49  71  91 122 157 204 225 267
#     4  10  19  29  47  73  97 126 148 188 244 282
#     4  10  17  31  49  69  97 122 155 194 237 269
#     4   9  15  27  48  71  93 116 159 197 224 266
#     4  11  19  29  49  72  98 123 155 189 229 283
#     4  10  15  28  49  69  92 121 155 196 223 267
#
# _framework density 17.182324999999999
#
# number of rings (size 3 to 8) (size 9 to 14) (size 15 to 20)
#    0.000    2.250    6.250    1.875    0.000    0.500 
#    0.000    1.250    0.000    0.000    0.000    7.875 
#    0.000    0.000    0.000    0.000    0.000    0.000 
#
# Total GULP energy -89089.352362 kJ/mol
# GULP energy per Si atom -5568.084523 kJ/mol
# Density = 1.714322 g / cm^3
# Si number density = 17.182325 Si / 1000 Ang^3
#
#
#
# Elastic Constant Matrix: (Units=GPa)
#
#
# Indices 1 2 3 4 5 6 
#
# 1 90.5560 43.9548 51.9675 -5.9105 42.6001 8.8768
# 2 43.9548 91.8511 27.7296 -17.6513 11.2173 -12.7028
# 3 51.9675 27.7296 57.0681 -11.0898 33.9727 6.2974
# 4 -5.9105 -17.6513 -11.0898 19.5843 -0.5465 4.8355
# 5 42.6001 11.2173 33.9727 -0.5465 33.1776 -0.7808
# 6 8.8768 -12.7028 6.2974 4.8355 -0.7808 31.3122
#
#
#
# Elastic Compliance Matrix: (Units=1/GPa)
#
#
# Indices 1 2 3 4 5 6 
#
# 1 0.052711 -0.021994 0.007805 0.005498 -0.068806 -0.028000
# 2 -0.021994 0.024891 -0.014279 0.003878 0.034967 0.019478
# 3 0.007805 -0.014279 0.082976 0.042216 -0.090251 -0.033463
# 4 0.005498 0.003878 0.042216 0.084325 -0.050745 -0.022763
# 5 -0.068806 0.034967 -0.090251 -0.050745 0.199764 0.064660
# 6 -0.028000 0.019478 -0.033463 -0.022763 0.064660 0.059634
#
#
# Mechanical properties :
#
#
# Convention : Reuss Voigt Hill
#
# Bulk Modulus (GPa) = 9.64838 54.08655 31.86747
# Shear Modulus (GPa) = 8.39231 24.53637 16.46434
#
# Velocity S-wave (km/s) = 2.21244 3.78299 3.09886
# Velocity P-wave (km/s) = 3.48626 7.11531 5.60275
#
# Compressibility (1/GPa) = 0.10364430
#
# Stress axis : x y z
#
# Youngs Moduli (GPa) = 18.97145 40.17437 12.05170
#
# Poissons Ratio (x) = 0.88359 -0.09407
# Poissons Ratio (y) = 0.41725 0.17208
# Poissons Ratio (z) = -0.14808 0.57363
#
# Static dielectric constant tensor:
#      x y z
#    x 1.581960 -0.004680 0.001450 
#    y -0.004680 1.625280 -0.004570 
#    z 0.001450 -0.004570 1.594930 
# 
# From -- ./inp_files/404176.got.cif
#   From: 2010.05.17/outbox.cif.g08.bks.cpg/sg2_203_cif.got.tgz:404176.got - 2010.06.03 11:33:40.
