data_PCOD9080391
_publ_section_title
;
Structure prediction by ZEFSAII (Michael W. Deem and Ramdas Pophale) SiO2 
 PCOD9080391
Probable space group: P -1
;
_chemical_formula_sum "Si O2"
_cell_formula_units_Z 16
_cell_length_a 15.472808
_cell_length_b 9.938974
_cell_length_c 13.729494
_cell_angle_alpha 54.365036
_cell_angle_beta 71.420393
_cell_angle_gamma 117.378778
_cell_volume 887.825637
_symmetry_space_group_name_H-M "P -1"
_symmetry_group_IT_number 2
_symmetry_cell_setting 'triclinic'
loop_
_space_group_symop_operation_xyz
x,y,z
-x,-y,-z
loop_
_atom_site_type_symbol
_atom_site_label
_atom_site_fract_x
_atom_site_fract_y
_atom_site_fract_z
Si Si1 0.761178 0.402579 0.755585
Si Si2 0.859537 0.047342 0.594933
Si Si3 0.241885 0.226425 0.451848
Si Si4 0.130437 0.255799 0.142780
Si Si5 0.602138 0.522708 0.512557
Si Si6 0.053042 0.119827 0.819872
Si Si7 0.573561 0.091533 0.150745
Si Si8 0.777696 0.293842 0.579040
O O1 0.716907 0.520208 0.690542
O O2 0.778980 0.330149 0.679347
O O3 0.946182 0.681022 0.617116
O O4 0.634193 0.166508 0.985553
O O5 0.834850 0.194399 0.581018
O O6 0.750551 0.857032 0.617314
O O7 0.831220 0.854194 0.763049
O O8 0.361860 0.358682 0.440720
O O9 0.048262 0.941487 0.675545
O O10 0.275918 0.606437 0.966826
O O11 0.094691 0.153361 0.086977
O O12 0.500000 0.500000 0.500000
O O13 0.785504 0.749752 0.313257
O O14 0.494781 0.192714 0.681424
O O15 0.113943 0.398698 0.646368
O O16 0.000000 0.000000 0.000000
O O17 0.415120 0.971587 0.268189
#
# Coordination Sequence:
#
# PCOD9080391 Si02
#       8
#     2   2   2   2   2   2   2   2
#     4  11  18  36  65  87 119 162 190 232 309 364
#     4  11  20  35  61  95 124 147 199 243 299 352
#     4  10  18  39  63  83 121 160 193 240 292 363
#     4  10  19  38  63  87 119 158 195 241 293 365
#     4  10  23  43  60  84 116 157 208 247 282 350
#     4  10  22  44  61  79 118 169 202 234 294 350
#     4  11  21  38  62  89 119 156 193 245 310 348
#     4  11  23  36  58  93 129 150 190 256 294 351
#
# _framework density 18.021557000000001
#
# number of rings (size 3 to 8) (size 9 to 14) (size 15 to 20)
#    0.000    1.500    7.500    1.500    0.000    1.500 
#    4.500    2.500    0.000    0.000    0.000    0.000 
#    0.000    0.000    0.000    0.000    0.000    0.000 
#
# Total GULP energy -89179.961044 kJ/mol
# GULP energy per Si atom -5573.747565 kJ/mol
# Density = 1.798054 g / cm^3
# Si number density = 18.021557 Si / 1000 Ang^3
#
#
#
# Elastic Constant Matrix: (Units=GPa)
#
#
# Indices 1 2 3 4 5 6 
#
# 1 102.5450 13.3991 43.0072 -2.5716 11.8558 -23.1588
# 2 13.3991 190.2644 25.4536 -8.8890 -2.4733 94.3680
# 3 43.0072 25.4536 98.0882 1.0853 13.2060 -25.0586
# 4 -2.5716 -8.8890 1.0853 29.1668 8.3516 -15.9116
# 5 11.8558 -2.4733 13.2060 8.3516 7.0567 -18.9110
# 6 -23.1588 94.3680 -25.0586 -15.9116 -18.9110 140.3635
#
#
#
# Elastic Compliance Matrix: (Units=1/GPa)
#
#
# Indices 1 2 3 4 5 6 
#
# 1 0.015300 0.000505 -0.001577 0.013054 -0.045325 -0.002724
# 2 0.000505 0.010671 -0.001832 0.005944 -0.029404 -0.010706
# 3 -0.001577 -0.001832 0.017194 0.011330 -0.045866 -0.000854
# 4 0.013054 0.005944 0.011330 0.078186 -0.171144 -0.014014
# 5 -0.045325 -0.029404 -0.045866 -0.171144 0.712019 0.080631
# 6 -0.002724 -0.010706 -0.000854 -0.014014 0.080631 0.022995
#
#
# Mechanical properties :
#
#
# Convention : Reuss Voigt Hill
#
# Bulk Modulus (GPa) = 26.77037 61.62416 44.19727
# Shear Modulus (GPa) = 5.71673 55.91991 30.81832
#
# Velocity S-wave (km/s) = 1.78299 5.57645 4.13980
# Velocity P-wave (km/s) = 4.37328 8.70238 6.88683
#
# Compressibility (1/GPa) = 0.03735473
#
# Stress axis : x y z
#
# Youngs Moduli (GPa) = 65.35994 93.71483 58.16093
#
# Poissons Ratio (x) = -0.04733 0.09174
# Poissons Ratio (y) = -0.03301 0.10658
# Poissons Ratio (z) = 0.10310 0.17173
#
# Static dielectric constant tensor:
#      x y z
#    x 1.181300 -0.486870 -0.559580 
#    y -0.486870 1.066340 -0.656970 
#    z -0.559580 -0.656970 0.908050 
# 
# From -- ./inp_files/215822.got.cif
#   From: 2010.05.17/outbox.cif.g08.bks.cpg/sg2_108_cif.got.tgz:215822.got - 2010.06.03 11:33:40.
