data_PCOD9080735
_publ_section_title
;
Structure prediction by ZEFSAII (Michael W. Deem and Ramdas Pophale) SiO2 
 PCOD9080735
Probable space group: P -1
;
_chemical_formula_sum "Si O2"
_cell_formula_units_Z 16
_cell_length_a 20.893263
_cell_length_b 16.501584
_cell_length_c 7.618585
_cell_angle_alpha 122.473053
_cell_angle_beta 52.486366
_cell_angle_gamma 162.251162
_cell_volume 624.991633
_symmetry_space_group_name_H-M "P -1"
_symmetry_group_IT_number 2
_symmetry_cell_setting 'triclinic'
loop_
_space_group_symop_operation_xyz
x,y,z
-x,-y,-z
loop_
_atom_site_type_symbol
_atom_site_label
_atom_site_fract_x
_atom_site_fract_y
_atom_site_fract_z
Si Si1 0.993355 0.575355 0.843768
Si Si2 0.359448 0.132667 0.214828
Si Si3 0.382651 0.774350 0.670257
Si Si4 0.824748 0.179692 0.538533
Si Si5 0.854575 0.958349 0.753332
Si Si6 0.385945 0.422771 0.801829
Si Si7 0.497305 0.885093 0.229128
Si Si8 0.943062 0.893108 0.749026
O O1 0.895864 0.360381 0.716302
O O2 0.026983 0.666221 0.706180
O O3 0.242347 0.833033 0.807587
O O4 0.829230 0.444449 0.104134
O O5 0.229751 0.028484 0.134455
O O6 0.518398 0.400156 0.301936
O O7 0.186677 0.912302 0.398669
O O8 0.512457 0.211935 0.003293
O O9 0.515692 0.025134 0.732013
O O10 0.563312 0.899821 0.586646
O O11 0.340895 0.706073 0.454589
O O12 0.615717 0.634673 0.741917
O O13 0.030929 0.131031 0.505806
O O14 0.942056 0.007169 0.839187
O O15 0.172401 0.127841 0.745348
O O16 0.277097 0.368304 0.072563
#
# Coordination Sequence:
#
# PCOD9080735 Si02
#       8
#     2   2   2   2   2   2   2   2
#     4  10  20  37  59  78 106 169 202 240 288 350
#     4  10  22  40  52  89 130 146 182 273 302 320
#     4  10  20  37  59  78 106 169 202 240 288 350
#     4  10  21  38  54  83 117 146 211 244 291 351
#     4   9  21  38  63  90 122 153 190 249 294 352
#     4   9  21  38  63  90 122 153 190 249 294 352
#     4  10  21  38  54  83 117 146 211 244 291 351
#     4  10  18  42  66  91 112 160 208 209 296 408
#
# _framework density 25.600344
#
# number of rings (size 3 to 8) (size 9 to 14) (size 15 to 20)
#    0.750    1.500    1.250    1.500    0.000    0.000 
#    6.750    7.500    0.000    0.000    0.000    0.000 
#    0.000    0.000    0.000    0.000    0.000    0.000 
#
# Total GULP energy -89370.641719 kJ/mol
# GULP energy per Si atom -5585.665107 kJ/mol
# Density = 2.554208 g / cm^3
# Si number density = 25.600344 Si / 1000 Ang^3
#
#
#
# Elastic Constant Matrix: (Units=GPa)
#
#
# Indices 1 2 3 4 5 6 
#
# 1 82.0601 14.1920 26.4992 -11.7893 5.9909 -8.3237
# 2 14.1920 45.8050 30.2675 -29.7211 5.3031 8.0094
# 3 26.4992 30.2675 158.1674 -49.9771 16.3796 -2.7189
# 4 -11.7893 -29.7211 -49.9771 39.6166 -4.6471 0.2238
# 5 5.9909 5.3031 16.3796 -4.6471 36.9361 -8.7276
# 6 -8.3237 8.0094 -2.7189 0.2238 -8.7276 25.3635
#
#
#
# Elastic Compliance Matrix: (Units=1/GPa)
#
#
# Indices 1 2 3 4 5 6 
#
# 1 0.014124 -0.006231 -0.002109 -0.003086 0.000723 0.006653
# 2 -0.006231 0.053837 0.005247 0.044265 -0.008639 -0.021847
# 3 -0.002109 0.005247 0.011540 0.017417 -0.003958 -0.002628
# 4 -0.003086 0.044265 0.017417 0.078710 -0.007555 -0.016418
# 5 0.000723 -0.008639 -0.003958 -0.007555 0.032239 0.013701
# 6 0.006653 -0.021847 -0.002628 -0.016418 0.013701 0.053087
#
#
# Mechanical properties :
#
#
# Convention : Reuss Voigt Hill
#
# Bulk Modulus (GPa) = 13.64005 47.54998 30.59501
# Shear Modulus (GPa) = 18.23744 34.72147 26.47946
#
# Velocity S-wave (km/s) = 2.67196 3.68678 3.21960
# Velocity P-wave (km/s) = 3.85471 6.06114 5.07918
#
# Compressibility (1/GPa) = 0.07331354
#
# Stress axis : x y z
#
# Youngs Moduli (GPa) = 70.80260 18.57464 86.65662
#
# Poissons Ratio (x) = 0.11574 0.18279
# Poissons Ratio (y) = 0.44119 -0.45470
# Poissons Ratio (z) = 0.14934 -0.09746
#
# Static dielectric constant tensor:
#      x y z
#    x 2.029510 0.027070 0.013950 
#    y 0.027070 2.072150 0.040010 
#    z 0.013950 0.040010 2.041050 
# 
# From -- ./inp_files/354834.got.cif
#   From: 2010.05.17/outbox.cif.g08.bks.cpg/sg2_178_cif.got.tgz:354834.got - 2010.06.03 11:33:40.
