data_PCOD9080565
_publ_section_title
;
Structure prediction by ZEFSAII (Michael W. Deem and Ramdas Pophale) SiO2 
 PCOD9080565
Probable space group: P -1
;
_chemical_formula_sum "Si O2"
_cell_formula_units_Z 12
_cell_length_a 9.087039
_cell_length_b 9.117619
_cell_length_c 9.388316
_cell_angle_alpha 62.759221
_cell_angle_beta 102.080058
_cell_angle_gamma 117.020036
_cell_volume 616.084827
_symmetry_space_group_name_H-M "P -1"
_symmetry_group_IT_number 2
_symmetry_cell_setting 'triclinic'
loop_
_space_group_symop_operation_xyz
x,y,z
-x,-y,-z
loop_
_atom_site_type_symbol
_atom_site_label
_atom_site_fract_x
_atom_site_fract_y
_atom_site_fract_z
Si Si1 0.492462 0.678577 0.982061
Si Si2 0.838027 0.983617 0.555343
Si Si3 0.615340 0.180366 0.858033
Si Si4 0.837204 0.995450 0.893578
Si Si5 0.513231 0.683343 0.491630
Si Si6 0.633161 0.188232 0.374254
O O1 0.426355 0.773430 0.805645
O O2 0.681316 0.814030 0.990476
O O3 0.500000 0.500000 0.000000
O O4 0.378302 0.660378 0.104722
O O5 0.850011 0.988874 0.727183
O O6 0.795194 0.151363 0.424101
O O7 0.686566 0.799377 0.552957
O O8 0.000000 0.000000 0.500000
O O9 0.779571 0.154622 0.857651
O O10 0.519882 0.199236 0.691364
O O11 0.500000 0.000000 0.000000
O O12 0.000000 0.000000 0.000000
O O13 0.500000 0.500000 0.500000
O O14 0.372030 0.657230 0.591314
O O15 0.500000 0.000000 0.500000
#
# Coordination Sequence:
#
# PCOD9080565 Si02
#       6
#     2   2   2   2   2   2
#     4  11  22  39  64  92 120 154 199 249 299 347
#     4  11  23  39  62  88 118 160 203 242 294 353
#     4  10  21  37  62  89 115 159 203 235 291 365
#     4  11  23  40  59  89 123 157 198 246 293 357
#     4  11  21  39  65  87 115 154 202 253 292 342
#     4  10  18  40  63  83 117 161 202 241 284 359
#
# _framework density 19.477834999999999
#
# number of rings (size 3 to 8) (size 9 to 14) (size 15 to 20)
#    0.000    1.333    5.000    4.000    7.000    0.000 
#    0.000    3.333    0.000    0.000    0.000    0.000 
#    0.000    0.000    0.000    0.000    0.000    0.000 
#
# Total GULP energy -66931.792468 kJ/mol
# GULP energy per Si atom -5577.649372 kJ/mol
# Density = 1.943350 g / cm^3
# Si number density = 19.477835 Si / 1000 Ang^3
#
#
#
# Elastic Constant Matrix: (Units=GPa)
#
#
# Indices 1 2 3 4 5 6 
#
# 1 191.8232 65.5223 61.4028 24.7369 11.1487 -34.3679
# 2 65.5223 94.9437 29.5272 23.1966 8.7659 -36.2069
# 3 61.4028 29.5272 135.0993 29.8328 17.6977 -3.6659
# 4 24.7369 23.1966 29.8328 28.5458 -5.6902 -8.3119
# 5 11.1487 8.7659 17.6977 -5.6902 37.1589 8.5956
# 6 -34.3679 -36.2069 -3.6659 -8.3119 8.5956 32.2457
#
#
#
# Elastic Compliance Matrix: (Units=1/GPa)
#
#
# Indices 1 2 3 4 5 6 
#
# 1 0.008158 -0.001463 -0.002402 -0.001889 -0.002881 0.007059
# 2 -0.001463 0.028832 0.001394 -0.018010 -0.016918 0.030840
# 3 -0.002402 0.001394 0.012053 -0.013412 -0.007129 -0.001182
# 4 -0.001889 -0.018010 -0.013412 0.066353 0.024409 -0.013163
# 5 -0.002881 -0.016918 -0.007129 0.024409 0.045545 -0.028726
# 6 0.007059 0.030840 -0.001182 -0.013163 -0.028726 0.077295
#
#
# Mechanical properties :
#
#
# Convention : Reuss Voigt Hill
#
# Bulk Modulus (GPa) = 22.67603 81.64119 52.15861
# Shear Modulus (GPa) = 19.38906 37.28434 28.33670
#
# Velocity S-wave (km/s) = 3.15849 4.37990 3.81835
# Velocity P-wave (km/s) = 4.99686 8.22094 6.80267
#
# Compressibility (1/GPa) = 0.04409943
#
# Stress axis : x y z
#
# Youngs Moduli (GPa) = 122.58627 34.68338 82.97023
#
# Poissons Ratio (x) = 0.05075 0.19928
# Poissons Ratio (y) = 0.17937 -0.11563
# Poissons Ratio (z) = 0.29444 -0.04834
#
# Static dielectric constant tensor:
#      x y z
#    x 1.761230 -0.049790 0.002920 
#    y -0.049790 1.752510 0.020730 
#    z 0.002920 0.020730 1.715900 
# 
# From -- ./inp_files/147519.got.cif
#   From: 2010.05.17/outbox.cif.g08.bks.cpg/sg2_74_cif.got.tgz:147519.got - 2010.06.03 11:33:40.
