data_PCOD9080939
_publ_section_title
;
Structure prediction by ZEFSAII (Michael W. Deem and Ramdas Pophale) SiO2 
 PCOD9080939
Probable space group: P -1
;
_chemical_formula_sum "Si O2"
_cell_formula_units_Z 14
_cell_length_a 8.833139
_cell_length_b 20.574645
_cell_length_c 8.712578
_cell_angle_alpha 30.780666
_cell_angle_beta 130.569475
_cell_angle_gamma 131.823978
_cell_volume 591.257081
_symmetry_space_group_name_H-M "P -1"
_symmetry_group_IT_number 2
_symmetry_cell_setting 'triclinic'
loop_
_space_group_symop_operation_xyz
x,y,z
-x,-y,-z
loop_
_atom_site_type_symbol
_atom_site_label
_atom_site_fract_x
_atom_site_fract_y
_atom_site_fract_z
Si Si1 0.205380 0.670105 0.305979
Si Si2 0.627346 0.195711 0.130287
Si Si3 0.382004 0.197722 0.525988
Si Si4 0.874341 0.723742 0.209760
Si Si5 0.754880 0.719929 0.448546
Si Si6 0.639852 0.920256 0.555773
Si Si7 0.581374 0.544034 0.179989
O O1 0.410121 0.777100 0.289293
O O2 0.260558 0.531552 0.634101
O O3 0.031327 0.691063 0.259244
O O4 0.195012 0.695517 0.064292
O O5 0.574615 0.174360 0.319053
O O6 0.656724 0.059726 0.360075
O O7 0.416005 0.225590 0.867624
O O8 0.204849 0.196192 0.538369
O O9 0.356800 0.083102 0.618758
O O10 0.414369 0.330239 0.175806
O O11 0.925521 0.726792 0.417283
O O12 0.667088 0.604235 0.279010
O O13 0.824624 0.858634 0.852813
O O14 0.634757 0.569133 0.719752
#
# Coordination Sequence:
#
# PCOD9080939 Si02
#       7
#     2   2   2   2   2   2   2
#     4  10  19  31  47  72  99 120 149 197 239 269
#     4   8  17  32  52  70  90 121 161 190 223 278
#     4   9  18  32  50  68  93 123 156 191 229 275
#     4  10  19  30  48  71  97 123 153 192 234 271
#     4   9  17  30  49  70  93 124 158 190 224 276
#     4   9  17  33  53  70  88 123 162 190 222 277
#     4   9  17  33  49  66  91 128 162 187 221 277
#
# _framework density 23.678363000000001
#
# number of rings (size 3 to 8) (size 9 to 14) (size 15 to 20)
#    0.000    3.143    0.000    2.571    0.000    4.000 
#    0.000    5.714    0.000    8.571    0.000    0.000 
#    0.000    0.000    0.000    0.000    0.000    0.000 
#
# Total GULP energy -77997.744164 kJ/mol
# GULP energy per Si atom -5571.267440 kJ/mol
# Density = 2.362447 g / cm^3
# Si number density = 23.678363 Si / 1000 Ang^3
#
#
#
# Elastic Constant Matrix: (Units=GPa)
#
#
# Indices 1 2 3 4 5 6 
#
# 1 95.2137 25.0620 17.9506 3.3609 -5.0524 -35.1339
# 2 25.0620 51.7740 -5.1889 4.3171 -2.8534 -33.8311
# 3 17.9506 -5.1889 54.2107 -13.7849 8.8378 -4.7685
# 4 3.3609 4.3171 -13.7849 25.3638 -19.4168 -1.7894
# 5 -5.0524 -2.8534 8.8378 -19.4168 24.9982 5.0991
# 6 -35.1339 -33.8311 -4.7685 -1.7894 5.0991 40.1819
#
#
#
# Elastic Compliance Matrix: (Units=1/GPa)
#
#
# Indices 1 2 3 4 5 6 
#
# 1 0.016912 0.002186 -0.005151 -0.006382 -0.002749 0.016081
# 2 0.002186 0.048980 0.007016 -0.014775 -0.017206 0.045508
# 3 -0.005151 0.007016 0.024637 0.013844 0.000815 0.004840
# 4 -0.006382 -0.014775 0.013844 0.113909 0.085115 -0.022106
# 5 -0.002749 -0.017206 0.000815 0.085115 0.108774 -0.026807
# 6 0.016081 0.045508 0.004840 -0.022106 -0.026807 0.080255
#
#
# Mechanical properties :
#
#
# Convention : Reuss Voigt Hill
#
# Bulk Modulus (GPa) = 10.13896 30.76067 20.44981
# Shear Modulus (GPa) = 11.95480 29.00042 20.47761
#
# Velocity S-wave (km/s) = 2.24940 3.50346 2.94398
# Velocity P-wave (km/s) = 3.32229 5.42078 4.49569
#
# Compressibility (1/GPa) = 0.09862943
#
# Stress axis : x y z
#
# Youngs Moduli (GPa) = 59.13077 20.41645 40.58989
#
# Poissons Ratio (x) = -0.04463 0.20908
# Poissons Ratio (y) = -0.12925 -0.28476
# Poissons Ratio (z) = 0.30458 -0.14323
#
# Static dielectric constant tensor:
#      x y z
#    x 2.031540 0.020700 -0.044910 
#    y 0.020700 1.995210 0.041680 
#    z -0.044910 0.041680 1.920710 
# 
# From -- ./inp_files/163826.got.cif
#   From: 2010.05.17/outbox.cif.g08.bks.cpg/sg2_82_cif.got.tgz:163826.got - 2010.06.03 11:33:40.
