data_PCOD9080006
_publ_section_title
;
Structure prediction by ZEFSAII (Michael W. Deem and Ramdas Pophale) SiO2 
 PCOD9080006
Probable space group: P -1
;
_chemical_formula_sum "Si O2"
_cell_formula_units_Z 16
_cell_length_a 9.310791
_cell_length_b 22.077709
_cell_length_c 20.923480
_cell_angle_alpha 19.187823
_cell_angle_beta 136.940872
_cell_angle_gamma 127.749657
_cell_volume 905.206742
_symmetry_space_group_name_H-M "P -1"
_symmetry_group_IT_number 2
_symmetry_cell_setting 'triclinic'
loop_
_space_group_symop_operation_xyz
x,y,z
-x,-y,-z
loop_
_atom_site_type_symbol
_atom_site_label
_atom_site_fract_x
_atom_site_fract_y
_atom_site_fract_z
Si Si1 0.507602 0.097994 0.109642
Si Si2 0.971371 0.097468 0.541753
Si Si3 0.025881 0.700811 0.787753
Si Si4 0.936445 0.730219 0.254486
Si Si5 0.643176 0.958106 0.494010
Si Si6 0.178351 0.944704 0.205259
Si Si7 0.715676 0.232029 0.450784
Si Si8 0.518016 0.668449 0.006243
O O1 0.429527 0.263066 0.975674
O O2 0.433336 0.920316 0.291137
O O3 0.333418 0.176155 0.916929
O O4 0.767216 0.037708 0.238396
O O5 0.953595 0.259211 0.320007
O O6 0.884931 0.194826 0.484235
O O7 0.802435 0.985526 0.574911
O O8 0.256821 0.696105 0.898103
O O9 0.815791 0.873811 0.575755
O O10 0.000000 0.500000 0.000000
O O11 0.000000 0.500000 0.500000
O O12 0.081424 0.792854 0.291561
O O13 0.959300 0.844970 0.082020
O O14 0.503546 0.813273 0.600670
O O15 0.476174 0.171098 0.204787
O O16 0.180714 0.918288 0.307668
O O17 0.646615 0.449088 0.242406
#
# Coordination Sequence:
#
# PCOD9080006 Si02
#       8
#     2   2   2   2   2   2   2   2
#     4  10  18  38  61  82 113 146 190 237 276 342
#     4  11  23  37  54  86 122 152 192 239 291 329
#     4  11  20  36  59  80 112 157 209 236 269 329
#     4   9  18  36  66  89 104 140 196 235 277 345
#     4  11  20  40  56  78 117 162 201 234 270 336
#     4   9  20  36  60  87 109 143 190 233 286 343
#     4  12  23  36  57  86 120 155 188 240 292 335
#     4  11  20  34  61  80 112 155 198 234 278 331
#
# _framework density 17.675521
#
# number of rings (size 3 to 8) (size 9 to 14) (size 15 to 20)
#    0.750    0.750    5.000    1.875    0.000    2.000 
#    2.250    0.625    0.000    0.750    0.000    0.000 
#    0.000    0.000    0.000    0.000    0.000    0.000 
#
# Total GULP energy -89074.261990 kJ/mol
# GULP energy per Si atom -5567.141374 kJ/mol
# Density = 1.763529 g / cm^3
# Si number density = 17.675521 Si / 1000 Ang^3
#
#
#
# Elastic Constant Matrix: (Units=GPa)
#
#
# Indices 1 2 3 4 5 6 
#
# 1 73.6854 47.6630 26.9606 -6.3191 14.8102 -11.5954
# 2 47.6630 112.6655 41.4611 -7.8225 7.5378 14.8824
# 3 26.9606 41.4611 71.1299 -15.9889 -3.2586 -0.3435
# 4 -6.3191 -7.8225 -15.9889 26.7538 3.2973 -6.4009
# 5 14.8102 7.5378 -3.2586 3.2973 18.7441 -2.3900
# 6 -11.5954 14.8824 -0.3435 -6.4009 -2.3900 19.2787
#
#
#
# Elastic Compliance Matrix: (Units=1/GPa)
#
#
# Indices 1 2 3 4 5 6 
#
# 1 0.036714 -0.017928 -0.000933 0.014447 -0.019623 0.038269
# 2 -0.017928 0.023406 -0.009417 -0.010911 0.000887 -0.032532
# 3 -0.000933 -0.009417 0.023221 0.012895 0.007871 0.012380
# 4 0.014447 -0.010911 0.012895 0.054744 -0.010045 0.034273
# 5 -0.019623 0.000887 0.007871 -0.010045 0.070752 -0.006911
# 6 0.038269 -0.032532 0.012380 0.034273 -0.006911 0.110745
#
#
# Mechanical properties :
#
#
# Convention : Reuss Voigt Hill
#
# Bulk Modulus (GPa) = 37.33368 54.40560 45.86964
# Shear Modulus (GPa) = 12.98478 22.38171 17.68325
#
# Velocity S-wave (km/s) = 2.71333 3.56231 3.16640
# Velocity P-wave (km/s) = 5.56630 6.91137 6.27498
#
# Compressibility (1/GPa) = 0.02678547
#
# Stress axis : x y z
#
# Youngs Moduli (GPa) = 27.23751 42.72398 43.06533
#
# Poissons Ratio (x) = 0.76595 0.04016
# Poissons Ratio (y) = 0.48831 0.40556
# Poissons Ratio (z) = 0.02540 0.40234
#
# Static dielectric constant tensor:
#      x y z
#    x 1.604410 0.019920 -0.030730 
#    y 0.019920 1.659990 -0.006400 
#    z -0.030730 -0.006400 1.651940 
# 
# From -- ./inp_files/212384.got.cif
#   From: 2010.05.17/outbox.cif.g08.bks.cpg/sg2_107_cif.got.tgz:212384.got - 2010.06.03 11:33:40.
