data_PCOD9080692
_publ_section_title
;
Structure prediction by ZEFSAII (Michael W. Deem and Ramdas Pophale) SiO2 
 PCOD9080692
Probable space group: P -1
;
_chemical_formula_sum "Si O2"
_cell_formula_units_Z 16
_cell_length_a 14.691637
_cell_length_b 14.002401
_cell_length_c 11.833251
_cell_angle_alpha 64.360824
_cell_angle_beta 44.199383
_cell_angle_gamma 30.805647
_cell_volume 746.187827
_symmetry_space_group_name_H-M "P -1"
_symmetry_group_IT_number 2
_symmetry_cell_setting 'triclinic'
loop_
_space_group_symop_operation_xyz
x,y,z
-x,-y,-z
loop_
_atom_site_type_symbol
_atom_site_label
_atom_site_fract_x
_atom_site_fract_y
_atom_site_fract_z
Si Si1 0.796485 0.333519 0.067004
Si Si2 0.616700 0.185795 0.815259
Si Si3 0.421381 0.445539 0.221763
Si Si4 0.839531 0.886358 0.576028
Si Si5 0.205159 0.040752 0.659499
Si Si6 0.911260 0.038842 0.847529
Si Si7 0.252101 0.285842 0.230009
Si Si8 0.328029 0.265888 0.429690
O O1 0.600772 0.569636 0.149411
O O2 0.599053 0.377405 0.190342
O O3 0.005644 0.129511 0.073330
O O4 0.945396 0.255748 0.855909
O O5 0.847916 0.059874 0.762104
O O6 0.747219 0.041724 0.662870
O O7 0.452692 0.209158 0.013684
O O8 0.338592 0.385310 0.351101
O O9 0.133750 0.703193 0.355335
O O10 0.622278 0.290351 0.017294
O O11 0.691075 0.988252 0.536769
O O12 0.805762 0.795133 0.710693
O O13 0.130309 0.970872 0.728930
O O14 0.433868 0.920498 0.601693
O O15 0.356286 0.208367 0.305908
O O16 0.968639 0.548937 0.356500
#
# Coordination Sequence:
#
# PCOD9080692 Si02
#       8
#     2   2   2   2   2   2   2   2
#     4  11  22  38  70  99 130 163 210 270 324 386
#     4  12  25  45  61  95 137 176 214 253 325 392
#     4  10  18  41  63  97 124 162 210 263 320 378
#     4  11  26  41  64  91 132 180 216 256 317 385
#     4  11  21  40  66 102 126 159 213 276 324 374
#     4  11  21  42  70  97 133 165 207 273 326 382
#     4  10  23  43  66  88 124 178 215 267 316 370
#     4  10  19  39  70  94 122 153 224 269 317 370
#
# _framework density 21.442322000000001
#
# number of rings (size 3 to 8) (size 9 to 14) (size 15 to 20)
#    0.000    1.250    3.750    2.625    3.500    4.500 
#    6.750    1.875    0.000    0.000    0.000    0.000 
#    0.000    0.000    0.000    0.000    0.000    0.000 
#
# Total GULP energy -89103.623705 kJ/mol
# GULP energy per Si atom -5568.976482 kJ/mol
# Density = 2.139352 g / cm^3
# Si number density = 21.442322 Si / 1000 Ang^3
#
#
#
# Elastic Constant Matrix: (Units=GPa)
#
#
# Indices 1 2 3 4 5 6 
#
# 1 86.8050 73.5939 44.0431 21.2941 -5.9630 0.7585
# 2 73.5939 86.3038 41.3661 4.8891 26.0242 13.5087
# 3 44.0431 41.3661 89.8469 -4.0046 2.3560 -6.9612
# 4 21.2941 4.8891 -4.0046 19.3799 13.7248 -10.2996
# 5 -5.9630 26.0242 2.3560 13.7248 31.6029 1.0167
# 6 0.7585 13.5087 -6.9612 -10.2996 1.0167 39.7618
#
#
#
# Elastic Compliance Matrix: (Units=1/GPa)
#
#
# Indices 1 2 3 4 5 6 
#
# 1 -0.011026 0.015094 0.000817 0.030139 -0.027780 0.003743
# 2 0.015094 0.003616 -0.012614 -0.041938 0.019509 -0.015087
# 3 0.000817 -0.012614 0.017307 0.005947 0.006389 0.008677
# 4 0.030139 -0.041938 0.005947 0.017914 0.031402 0.018552
# 5 -0.027780 0.019509 0.006389 0.031402 -0.003883 0.003254
# 6 0.003743 -0.015087 0.008677 0.018552 0.003254 0.036445
#
#
# Mechanical properties :
#
#
# Convention : Reuss Voigt Hill
#
# Bulk Modulus (GPa) = 60.63529 64.55131 62.59330
# Shear Modulus (GPa) = 84.35089 25.07906 54.71498
#
# Velocity S-wave (km/s) = 6.27885 3.42366 5.05694
# Velocity P-wave (km/s) = 8.99472 6.76746 7.95938
#
# Compressibility (1/GPa) = 0.01649205
#
# Stress axis : x y z
#
# Youngs Moduli (GPa) = -90.69703 276.54206 57.78109
#
# Poissons Ratio (x) = -4.17414 -0.04722
# Poissons Ratio (y) = 1.36898 0.72884
# Poissons Ratio (z) = 0.07412 3.48823
#
# Static dielectric constant tensor:
#      x y z
#    x 1.740100 -0.014470 0.008190 
#    y -0.014470 2.018190 -0.030580 
#    z 0.008190 -0.030580 1.735860 
# 
# From -- ./inp_files/262149.got.cif
#   From: 2010.05.17/outbox.cif.g08.bks.cpg/sg2_132_cif.got.tgz:262149.got - 2010.06.03 11:33:40.
