data_PCOD9080007
_publ_section_title
;
Structure prediction by ZEFSAII (Michael W. Deem and Ramdas Pophale) SiO2 
 PCOD9080007
Probable space group: P -1
;
_chemical_formula_sum "Si O2"
_cell_formula_units_Z 16
_cell_length_a 8.165718
_cell_length_b 16.392619
_cell_length_c 7.840148
_cell_angle_alpha 64.145815
_cell_angle_beta 53.631974
_cell_angle_gamma 67.031768
_cell_volume 747.815856
_symmetry_space_group_name_H-M "P -1"
_symmetry_group_IT_number 2
_symmetry_cell_setting 'triclinic'
loop_
_space_group_symop_operation_xyz
x,y,z
-x,-y,-z
loop_
_atom_site_type_symbol
_atom_site_label
_atom_site_fract_x
_atom_site_fract_y
_atom_site_fract_z
Si Si1 0.278908 0.279878 0.518185
Si Si2 0.188431 0.049309 0.289167
Si Si3 0.536474 0.368802 0.029021
Si Si4 0.429464 0.104632 0.808634
Si Si5 0.035480 0.564739 0.262837
Si Si6 0.407309 0.744444 0.229652
Si Si7 0.779151 0.598958 0.089056
Si Si8 0.961170 0.750844 0.647285
O O1 0.374604 0.182778 0.630255
O O2 0.108143 0.337423 0.693526
O O3 0.157795 0.263815 0.437168
O O4 0.447630 0.337572 0.289120
O O5 0.133987 0.149210 0.315038
O O6 0.397687 0.980618 0.277780
O O7 0.235004 0.068071 0.044164
O O8 0.000000 0.000000 0.500000
O O9 0.607474 0.279805 0.940136
O O10 0.348206 0.425476 0.976922
O O11 0.730020 0.418481 0.892179
O O12 0.522407 0.159988 0.854540
O O13 0.927341 0.533043 0.186850
O O14 0.000000 0.500000 0.500000
O O15 0.584047 0.659047 0.256434
O O16 0.199070 0.742616 0.460635
O O17 0.915852 0.672850 0.875084
#
# Coordination Sequence:
#
# PCOD9080007 Si02
#       8
#     2   2   2   2   2   2   2   2
#     4  11  21  42  62  84 116 155 199 245 290 358
#     4  11  22  36  56  88 119 155 195 242 294 347
#     4   9  22  39  62  87 115 158 200 237 300 352
#     4  11  22  36  61  85 117 155 198 243 292 345
#     4  12  24  38  62  94 119 150 201 247 295 361
#     4  10  18  38  61  83 112 161 195 237 289 354
#     4   9  21  40  59  85 120 155 199 243 290 355
#     4  11  20  38  64  82 116 160 198 238 297 349
#
# _framework density 21.395641000000001
#
# number of rings (size 3 to 8) (size 9 to 14) (size 15 to 20)
#    0.750    0.750    5.000    0.000    1.750    2.500 
#    0.000    3.125    0.000    0.000    0.000    0.000 
#    0.000    0.000    0.000    0.000    0.000    0.000 
#
# Total GULP energy -89259.588767 kJ/mol
# GULP energy per Si atom -5578.724298 kJ/mol
# Density = 2.134694 g / cm^3
# Si number density = 21.395641 Si / 1000 Ang^3
#
#
#
# Elastic Constant Matrix: (Units=GPa)
#
#
# Indices 1 2 3 4 5 6 
#
# 1 70.8192 25.7196 83.0018 -8.8564 -8.7829 -14.2402
# 2 25.7196 78.3038 22.2647 7.8886 -0.7624 -12.6315
# 3 83.0018 22.2647 141.4672 3.5100 -21.6252 -19.3946
# 4 -8.8564 7.8886 3.5100 33.2132 -11.1298 2.0327
# 5 -8.7829 -0.7624 -21.6252 -11.1298 45.0235 2.5799
# 6 -14.2402 -12.6315 -19.3946 2.0327 2.5799 29.4508
#
#
#
# Elastic Compliance Matrix: (Units=1/GPa)
#
#
# Indices 1 2 3 4 5 6 
#
# 1 0.064902 -0.013468 -0.036438 0.024720 0.001053 -0.000189
# 2 -0.013468 0.017367 0.005840 -0.009406 -0.002176 0.005623
# 3 -0.036438 0.005840 0.029006 -0.013324 0.003365 0.004613
# 4 0.024720 -0.009406 -0.013324 0.043763 0.009351 -0.004696
# 5 0.001053 -0.002176 0.003365 0.009351 0.026373 -0.001164
# 6 -0.000189 0.005623 0.004613 -0.004696 -0.001164 0.039739
#
#
# Mechanical properties :
#
#
# Convention : Reuss Voigt Hill
#
# Bulk Modulus (GPa) = 43.20805 61.39583 52.30194
# Shear Modulus (GPa) = 15.77308 32.17776 23.97542
#
# Velocity S-wave (km/s) = 2.71811 3.88227 3.35113
# Velocity P-wave (km/s) = 5.48538 6.98955 6.28265
#
# Compressibility (1/GPa) = 0.02314384
#
# Stress axis : x y z
#
# Youngs Moduli (GPa) = 15.40795 57.57960 34.47578
#
# Poissons Ratio (x) = 0.77546 1.25623
# Poissons Ratio (y) = 0.20751 -0.20134
# Poissons Ratio (z) = 0.56143 -0.33627
#
# Static dielectric constant tensor:
#      x y z
#    x 1.807520 0.017330 0.015300 
#    y 0.017330 1.827360 0.031430 
#    z 0.015300 0.031430 1.801120 
# 
# From -- ./inp_files/214237.got.cif
#   From: 2010.05.17/outbox.cif.g08.bks.cpg/sg2_108_cif.got.tgz:214237.got - 2010.06.03 11:33:40.
