data_PCOD9080766
_publ_section_title
;
Structure prediction by ZEFSAII (Michael W. Deem and Ramdas Pophale) SiO2 
 PCOD9080766
Probable space group: P -1
;
_chemical_formula_sum "Si O2"
_cell_formula_units_Z 14
_cell_length_a 12.601932
_cell_length_b 6.770419
_cell_length_c 13.051378
_cell_angle_alpha 63.243880
_cell_angle_beta 137.530993
_cell_angle_gamma 96.766894
_cell_volume 627.535055
_symmetry_space_group_name_H-M "P -1"
_symmetry_group_IT_number 2
_symmetry_cell_setting 'triclinic'
loop_
_space_group_symop_operation_xyz
x,y,z
-x,-y,-z
loop_
_atom_site_type_symbol
_atom_site_label
_atom_site_fract_x
_atom_site_fract_y
_atom_site_fract_z
Si Si1 0.984625 0.738263 0.496492
Si Si2 0.220991 0.267611 0.444512
Si Si3 0.385121 0.870706 0.495897
Si Si4 0.183389 0.079456 0.863522
Si Si5 0.094355 0.790124 0.193290
Si Si6 0.655497 0.539994 0.156177
Si Si7 0.499087 0.649780 0.238582
O O1 0.895561 0.742428 0.540161
O O2 0.875608 0.931922 0.292765
O O3 0.000000 0.500000 0.500000
O O4 0.180343 0.698349 0.660872
O O5 0.267842 0.820589 0.338479
O O6 0.135507 0.512862 0.263084
O O7 0.391604 0.281781 0.613012
O O8 0.269020 0.041049 0.459596
O O9 0.493161 0.615702 0.677032
O O10 0.500000 0.000000 0.500000
O O11 0.280226 0.266788 0.896553
O O12 0.018852 0.167727 0.795135
O O13 0.312370 0.833371 0.052976
O O14 0.000000 0.000000 0.000000
O O15 0.593849 0.643860 0.200200
O O16 0.500000 0.500000 0.000000
#
# Coordination Sequence:
#
# PCOD9080766 Si02
#       7
#     2   2   2   2   2   2   2
#     4  10  18  43  72  99 147 185 228 291 360 430
#     4  11  23  47  77  98 145 191 235 300 360 423
#     4  11  29  49  71 105 141 190 254 294 354 435
#     4  11  23  45  72 104 150 189 231 298 362 431
#     4  11  26  47  75 104 143 192 242 297 365 421
#     4  11  23  39  71 110 145 184 238 292 354 433
#     4  11  25  43  70 107 145 189 238 296 365 416
#
# _framework density 22.309508000000001
#
# number of rings (size 3 to 8) (size 9 to 14) (size 15 to 20)
#    0.000    1.143    5.714    1.286    6.000    2.857 
#    0.000    2.143    0.000    0.000    0.000    0.000 
#    0.000    0.000    0.000    0.000    0.000    0.000 
#
# Total GULP energy -78338.699438 kJ/mol
# GULP energy per Si atom -5595.621388 kJ/mol
# Density = 2.225873 g / cm^3
# Si number density = 22.309508 Si / 1000 Ang^3
#
#
#
# Elastic Constant Matrix: (Units=GPa)
#
#
# Indices 1 2 3 4 5 6 
#
# 1 44.4949 -1.9591 -5.9169 5.8355 5.1760 20.3258
# 2 -1.9591 83.2218 36.2342 -9.1533 -2.6428 9.7744
# 3 -5.9169 36.2342 139.9313 -15.8205 1.9831 15.4946
# 4 5.8355 -9.1533 -15.8205 38.1548 6.5725 2.2314
# 5 5.1760 -2.6428 1.9831 6.5725 36.9525 2.6860
# 6 20.3258 9.7744 15.4946 2.2314 2.6860 33.8209
#
#
#
# Elastic Compliance Matrix: (Units=1/GPa)
#
#
# Indices 1 2 3 4 5 6 
#
# 1 0.033457 0.001657 0.003252 -0.001604 -0.002877 -0.021742
# 2 0.001657 0.014030 -0.002918 0.001983 0.000860 -0.003913
# 3 0.003252 -0.002918 0.008995 0.003069 -0.001305 -0.005331
# 4 -0.001604 0.001983 0.003069 0.029180 -0.004802 -0.002559
# 5 -0.002877 0.000860 -0.001305 -0.004802 0.028440 0.000137
# 6 -0.021742 -0.003913 -0.005331 -0.002559 0.000137 0.046365
#
#
# Mechanical properties :
#
#
# Convention : Reuss Voigt Hill
#
# Bulk Modulus (GPa) = 16.53795 36.04049 26.28922
# Shear Modulus (GPa) = 28.30626 37.73829 33.02228
#
# Velocity S-wave (km/s) = 3.56588 4.11734 3.85150
# Velocity P-wave (km/s) = 4.93792 6.22842 5.62033
#
# Compressibility (1/GPa) = 0.06046700
#
# Stress axis : x y z
#
# Youngs Moduli (GPa) = 29.88918 71.27336 111.17031
#
# Poissons Ratio (x) = -0.11812 -0.36158
# Poissons Ratio (y) = -0.04954 0.32435
# Poissons Ratio (z) = -0.09721 0.20795
#
# Static dielectric constant tensor:
#      x y z
#    x 1.812610 0.026200 -0.014050 
#    y 0.026200 1.864830 -0.031260 
#    z -0.014050 -0.031260 1.846900 
# 
# From -- ./inp_files/514141.got.cif
#   From: 2010.05.17/outbox.cif.g08.bks.cpg/sg2_258_cif.got.tgz:514141.got - 2010.06.03 11:33:40.
