data_PCOD9080753
_publ_section_title
;
Structure prediction by ZEFSAII (Michael W. Deem and Ramdas Pophale) SiO2 
 PCOD9080753
Probable space group: P -1
;
_chemical_formula_sum "Si O2"
_cell_formula_units_Z 13
_cell_length_a 16.281595
_cell_length_b 10.933236
_cell_length_c 8.016855
_cell_angle_alpha 42.619888
_cell_angle_beta 145.081601
_cell_angle_gamma 139.155371
_cell_volume 508.151359
_symmetry_space_group_name_H-M "P -1"
_symmetry_group_IT_number 2
_symmetry_cell_setting 'triclinic'
loop_
_space_group_symop_operation_xyz
x,y,z
-x,-y,-z
loop_
_atom_site_type_symbol
_atom_site_label
_atom_site_fract_x
_atom_site_fract_y
_atom_site_fract_z
Si Si1 0.023128 0.135838 0.124252
Si Si2 0.283966 0.724688 0.990604
Si Si3 0.374650 0.540458 0.858942
Si Si4 0.866681 0.583838 0.697247
Si Si5 0.000000 0.500000 0.500000
Si Si6 0.261869 0.159124 0.232633
Si Si7 0.490412 0.934505 0.830701
O O1 0.061790 0.205015 0.309025
O O2 0.167764 0.112086 0.295824
O O3 0.998885 0.313536 0.803950
O O4 0.869482 0.942954 0.025039
O O5 0.265216 0.546419 0.259893
O O6 0.331861 0.914282 0.002014
O O7 0.132979 0.655717 0.690915
O O8 0.428140 0.799449 0.027238
O O9 0.212722 0.463831 0.566352
O O10 0.442964 0.771227 0.774014
O O11 0.500000 0.500000 0.000000
O O12 0.335144 0.394236 0.096775
O O13 0.000000 0.500000 0.000000
O O14 0.387436 0.064312 0.514205
#
# Coordination Sequence:
#
# PCOD9080753 Si02
#       7
#     2   2   2   2   1   2   2
#     4  10  23  41  70 105 134 179 241 293 345 414
#     4  10  23  41  76 102 131 188 238 288 351 415
#     4  12  28  46  68 101 150 191 230 288 360 432
#     4  11  25  41  70 105 143 193 226 292 360 427
#     4  10  18  42  70  98 138 168 226 296 344 394
#     4  11  24  43  74 103 137 186 242 294 348 420
#     4  11  24  48  73 103 137 188 237 299 350 414
#
# _framework density 25.582927999999999
#
# number of rings (size 3 to 8) (size 9 to 14) (size 15 to 20)
#    0.000    1.231    1.538    3.692    6.462    6.769 
#    0.000    7.692    0.000    0.000    0.000    0.000 
#    0.000    0.000    0.000    0.000    0.000    0.000 
#
# Total GULP energy -72513.971039 kJ/mol
# GULP energy per Si atom -5577.997772 kJ/mol
# Density = 2.552470 g / cm^3
# Si number density = 25.582928 Si / 1000 Ang^3
#
#
#
# Elastic Constant Matrix: (Units=GPa)
#
#
# Indices 1 2 3 4 5 6 
#
# 1 29.2901 23.4655 14.5442 11.3146 14.2067 -20.1519
# 2 23.4655 214.8357 66.8567 26.0914 -0.5028 -38.2353
# 3 14.5442 66.8567 102.6833 7.3266 9.7009 -18.2477
# 4 11.3146 26.0914 7.3266 39.8290 9.4022 -12.6872
# 5 14.2067 -0.5028 9.7009 9.4022 21.8079 -3.7036
# 6 -20.1519 -38.2353 -18.2477 -12.6872 -3.7036 57.0115
#
#
#
# Elastic Compliance Matrix: (Units=1/GPa)
#
#
# Indices 1 2 3 4 5 6 
#
# 1 0.072920 -0.004523 0.000357 -0.001162 -0.043913 0.019745
# 2 -0.004523 0.007182 -0.004146 -0.003799 0.006848 0.001490
# 3 0.000357 -0.004146 0.013164 0.002346 -0.006918 0.001631
# 4 -0.001162 -0.003799 0.002346 0.031957 -0.013468 0.004029
# 5 -0.043913 0.006848 -0.006918 -0.013468 0.081663 -0.010836
# 6 0.019745 0.001490 0.001631 0.004029 -0.010836 0.026234
#
#
# Mechanical properties :
#
#
# Convention : Reuss Voigt Hill
#
# Bulk Modulus (GPa) = 13.04800 61.83799 37.44300
# Shear Modulus (GPa) = 18.16251 39.85919 29.01085
#
# Velocity S-wave (km/s) = 2.66737 3.95148 3.37113
# Velocity P-wave (km/s) = 3.82071 6.71141 5.46081
#
# Compressibility (1/GPa) = 0.07664010
#
# Stress axis : x y z
#
# Youngs Moduli (GPa) = 13.71362 139.24318 75.96515
#
# Poissons Ratio (x) = 0.62986 -0.02712
# Poissons Ratio (y) = 0.06203 0.31498
# Poissons Ratio (z) = -0.00490 0.57735
#
# Static dielectric constant tensor:
#      x y z
#    x 2.131110 -0.031700 0.013300 
#    y -0.031700 2.026950 0.028730 
#    z 0.013300 0.028730 2.132770 
# 
# From -- ./inp_files/331583.got.cif
#   From: 2010.05.17/outbox.cif.g08.bks.cpg/sg2_166_cif.got.tgz:331583.got - 2010.06.03 11:33:40.
