data_PCOD9080640
_publ_section_title
;
Structure prediction by ZEFSAII (Michael W. Deem and Ramdas Pophale) SiO2 
 PCOD9080640
Probable space group: P -1
;
_chemical_formula_sum "Si O2"
_cell_formula_units_Z 14
_cell_length_a 12.467055
_cell_length_b 11.075955
_cell_length_c 15.871726
_cell_angle_alpha 26.392394
_cell_angle_beta 143.212793
_cell_angle_gamma 136.712712
_cell_volume 582.949437
_symmetry_space_group_name_H-M "P -1"
_symmetry_group_IT_number 2
_symmetry_cell_setting 'triclinic'
loop_
_space_group_symop_operation_xyz
x,y,z
-x,-y,-z
loop_
_atom_site_type_symbol
_atom_site_label
_atom_site_fract_x
_atom_site_fract_y
_atom_site_fract_z
Si Si1 0.994362 0.359291 0.493801
Si Si2 0.513230 0.019504 0.208971
Si Si3 0.739619 0.848558 0.615549
Si Si4 0.316701 0.398367 0.093310
Si Si5 0.186949 0.152080 0.007488
Si Si6 0.327462 0.110456 0.775576
Si Si7 0.026115 0.745327 0.740434
O O1 0.195352 0.321305 0.605367
O O2 0.000000 0.500000 0.500000
O O3 0.883053 0.072756 0.602604
O O4 0.868170 0.549347 0.241350
O O5 0.612041 0.968763 0.390256
O O6 0.593676 0.828019 0.307010
O O7 0.561641 0.334261 0.018134
O O8 0.302106 0.005114 0.100760
O O9 0.643185 0.713318 0.719302
O O10 0.860830 0.667306 0.744296
O O11 0.309217 0.182860 0.148533
O O12 0.110972 0.495487 0.904559
O O13 0.000000 0.000000 0.000000
O O14 0.187903 0.858896 0.829523
O O15 0.500000 0.000000 0.000000
O O16 0.000000 0.000000 0.500000
#
# Coordination Sequence:
#
# PCOD9080640 Si02
#       7
#     2   2   2   2   2   2   2
#     4  11  23  43  70 101 146 187 228 290 356 416
#     4  11  24  47  70 101 143 180 238 301 341 418
#     4  11  22  40  73 104 134 185 238 285 352 420
#     4  11  22  40  72 101 135 182 238 284 348 421
#     4  12  26  46  66  99 144 188 231 292 364 421
#     4  10  21  40  71 100 139 185 229 288 356 408
#     4  10  18  40  68 101 139 182 227 289 348 414
#
# _framework density 24.015806999999999
#
# number of rings (size 3 to 8) (size 9 to 14) (size 15 to 20)
#    0.000    1.143    4.286    3.429    0.000    1.714 
#    7.714    0.714    0.000    0.000    0.000    0.000 
#    0.000    0.000    0.000    0.000    0.000    0.000 
#
# Total GULP energy -78196.147933 kJ/mol
# GULP energy per Si atom -5585.439138 kJ/mol
# Density = 2.396115 g / cm^3
# Si number density = 24.015807 Si / 1000 Ang^3
#
#
#
# Elastic Constant Matrix: (Units=GPa)
#
#
# Indices 1 2 3 4 5 6 
#
# 1 192.4914 28.3962 69.2621 14.3723 23.6727 -16.7824
# 2 28.3962 25.6764 23.2611 19.4362 3.5193 -10.9833
# 3 69.2621 23.2611 100.0564 22.2674 -19.2255 2.0815
# 4 14.3723 19.4362 22.2674 30.8465 -3.6235 -1.0994
# 5 23.6727 3.5193 -19.2255 -3.6235 59.2305 2.4567
# 6 -16.7824 -10.9833 2.0815 -1.0994 2.4567 43.0430
#
#
#
# Elastic Compliance Matrix: (Units=1/GPa)
#
#
# Indices 1 2 3 4 5 6 
#
# 1 0.009133 -0.002761 -0.007390 0.002255 -0.005896 0.003608
# 2 -0.002761 0.118003 -0.015172 -0.062945 -0.015889 0.029067
# 3 -0.007390 -0.015172 0.021224 -0.001325 0.011013 -0.008441
# 4 0.002255 -0.062945 -0.001325 0.072368 0.007404 -0.013693
# 5 -0.005896 -0.015889 0.011013 0.007404 0.024547 -0.008098
# 6 0.003608 0.029067 -0.008441 -0.013693 -0.008098 0.032577
#
#
# Mechanical properties :
#
#
# Convention : Reuss Voigt Hill
#
# Bulk Modulus (GPa) = 10.23388 62.22921 36.23154
# Shear Modulus (GPa) = 13.84783 39.77765 26.81274
#
# Velocity S-wave (km/s) = 2.40388 4.07420 3.34498
# Velocity P-wave (km/s) = 3.46055 6.93542 5.48067
#
# Compressibility (1/GPa) = 0.09771469
#
# Stress axis : x y z
#
# Youngs Moduli (GPa) = 109.49664 8.47438 47.11705
#
# Poissons Ratio (x) = 0.02339 0.34820
# Poissons Ratio (y) = 0.30228 0.71484
# Poissons Ratio (z) = 0.80918 0.12857
#
# Static dielectric constant tensor:
#      x y z
#    x 1.988500 -0.016850 -0.008090 
#    y -0.016850 1.881140 0.002730 
#    z -0.008090 0.002730 1.969280 
# 
# From -- ./inp_files/451057.got.cif
#   From: 2010.05.17/outbox.cif.g08.bks.cpg/sg2_226_cif.got.tgz:451057.got - 2010.06.03 11:33:40.
