data_PCOD9080887
_publ_section_title
;
Structure prediction by ZEFSAII (Michael W. Deem and Ramdas Pophale) SiO2 
 PCOD9080887
Probable space group: P -1
;
_chemical_formula_sum "Si O2"
_cell_formula_units_Z 14
_cell_length_a 8.989048
_cell_length_b 5.708815
_cell_length_c 14.776153
_cell_angle_alpha 66.080631
_cell_angle_beta 73.526746
_cell_angle_gamma 114.880538
_cell_volume 526.130472
_symmetry_space_group_name_H-M "P -1"
_symmetry_group_IT_number 2
_symmetry_cell_setting 'triclinic'
loop_
_space_group_symop_operation_xyz
x,y,z
-x,-y,-z
loop_
_atom_site_type_symbol
_atom_site_label
_atom_site_fract_x
_atom_site_fract_y
_atom_site_fract_z
Si Si1 0.161453 0.461655 0.007881
Si Si2 0.755970 0.850305 0.597116
Si Si3 0.709276 0.556872 0.302799
Si Si4 0.247814 0.571416 0.478447
Si Si5 0.664380 0.839299 0.966384
Si Si6 0.681513 0.104961 0.241158
Si Si7 0.700516 0.395039 0.833129
O O1 0.159233 0.159005 0.032539
O O2 0.337217 0.743739 0.869207
O O3 0.196081 0.497609 0.103530
O O4 0.000000 0.500000 0.000000
O O5 0.523711 0.662023 0.644658
O O6 0.831902 0.749214 0.516898
O O7 0.765916 0.678599 0.710056
O O8 0.829588 0.213631 0.543767
O O9 0.745021 0.503895 0.406965
O O10 0.783171 0.403621 0.247852
O O11 0.776237 0.922768 0.230491
O O12 0.470713 0.823532 0.363012
O O13 0.533156 0.808615 0.076544
O O14 0.500000 0.500000 0.000000
O O15 0.731689 0.131447 0.842389
#
# Coordination Sequence:
#
# PCOD9080887 Si02
#       7
#     2   2   2   2   2   2   2
#     4  11  25  40  56  84 125 171 210 245 289 368
#     4  10  19  29  53  83 118 150 180 236 316 364
#     4  10  19  34  55  87 120 145 195 255 314 366
#     4  10  19  32  55  89 120 145 191 255 317 366
#     4   9  20  35  58  80 119 148 205 250 307 345
#     4  10  20  33  55  79 114 158 192 241 306 349
#     4  10  22  35  58  87 119 160 202 255 305 364
#
# _framework density 26.609368
#
# number of rings (size 3 to 8) (size 9 to 14) (size 15 to 20)
#    0.000    2.000    0.000    6.000   18.000    0.571 
#    0.000    0.000    0.000    0.000    0.000   11.000 
#    0.000    0.000    0.000    0.000    0.000    0.000 
#
# Total GULP energy -78241.727893 kJ/mol
# GULP energy per Si atom -5588.694850 kJ/mol
# Density = 2.654880 g / cm^3
# Si number density = 26.609368 Si / 1000 Ang^3
#
#
#
# Elastic Constant Matrix: (Units=GPa)
#
#
# Indices 1 2 3 4 5 6 
#
# 1 139.6992 56.2687 46.2022 -13.2426 27.0126 -34.3852
# 2 56.2687 217.5741 84.3649 -9.1780 30.3295 -27.5890
# 3 46.2022 84.3649 137.0190 -0.9555 55.7208 -7.1452
# 4 -13.2426 -9.1780 -0.9555 52.5388 -6.1028 16.1441
# 5 27.0126 30.3295 55.7208 -6.1028 46.8962 -11.1231
# 6 -34.3852 -27.5890 -7.1452 16.1441 -11.1231 46.8542
#
#
#
# Elastic Compliance Matrix: (Units=1/GPa)
#
#
# Indices 1 2 3 4 5 6 
#
# 1 0.009929 -0.000836 -0.001954 0.000297 -0.001379 0.006067
# 2 -0.000836 0.006687 -0.004683 0.000199 0.002490 0.003132
# 3 -0.001954 -0.004683 0.018306 -0.001534 -0.019078 -0.005400
# 4 0.000297 0.000199 -0.001534 0.021476 0.002741 -0.006648
# 5 -0.001379 0.002490 -0.019078 0.002741 0.045275 0.007348
# 6 0.006067 0.003132 -0.005400 -0.006648 0.007348 0.030851
#
#
# Mechanical properties :
#
#
# Convention : Reuss Voigt Hill
#
# Bulk Modulus (GPa) = 50.05972 96.44044 73.25008
# Shear Modulus (GPa) = 32.44012 49.75494 41.09753
#
# Velocity S-wave (km/s) = 3.49538 4.32884 3.93425
# Velocity P-wave (km/s) = 5.92823 7.82987 6.94445
#
# Compressibility (1/GPa) = 0.01997614
#
# Stress axis : x y z
#
# Youngs Moduli (GPa) = 100.71105 149.55051 54.62553
#
# Poissons Ratio (x) = 0.12505 0.10673
# Poissons Ratio (y) = 0.08421 0.25582
# Poissons Ratio (z) = 0.19677 0.70037
#
# Static dielectric constant tensor:
#      x y z
#    x 2.349510 0.098420 -0.092970 
#    y 0.098420 2.399010 -0.011070 
#    z -0.092970 -0.011070 2.007640 
# 
# From -- ./inp_files/27801.got.cif
#   From: 2010.05.17/outbox.cif.g08.bks.cpg/sg2_14_cif.got.tgz:27801.got - 2010.06.03 11:33:40.
