data_PCOD9080547
_publ_section_title
;
Structure prediction by ZEFSAII (Michael W. Deem and Ramdas Pophale) SiO2 
 PCOD9080547
Probable space group: P -1
;
_chemical_formula_sum "Si O2"
_cell_formula_units_Z 16
_cell_length_a 7.152303
_cell_length_b 16.576332
_cell_length_c 22.570953
_cell_angle_alpha 16.045483
_cell_angle_beta 52.084963
_cell_angle_gamma 54.827373
_cell_volume 582.228613
_symmetry_space_group_name_H-M "P -1"
_symmetry_group_IT_number 2
_symmetry_cell_setting 'triclinic'
loop_
_space_group_symop_operation_xyz
x,y,z
-x,-y,-z
loop_
_atom_site_type_symbol
_atom_site_label
_atom_site_fract_x
_atom_site_fract_y
_atom_site_fract_z
Si Si1 0.991817 0.590768 0.829058
Si Si2 0.394947 0.061664 0.686617
Si Si3 0.652689 0.614235 0.648835
Si Si4 0.551971 0.544639 0.857019
Si Si5 0.090587 0.884072 0.716083
Si Si6 0.863823 0.133732 0.879257
Si Si7 0.692536 0.470681 0.532578
Si Si8 0.840469 0.844469 0.972569
O O1 0.760862 0.614285 0.815864
O O2 0.023184 0.868740 0.670234
O O3 0.000862 0.345702 0.053265
O O4 0.191900 0.469263 0.832120
O O5 0.437078 0.158247 0.543231
O O6 0.408180 0.352048 0.518066
O O7 0.122971 0.926954 0.846095
O O8 0.541420 0.788879 0.871698
O O9 0.599171 0.541840 0.779373
O O10 0.667673 0.318568 0.817265
O O11 0.912654 0.793069 0.484572
O O12 0.361209 0.784107 0.730412
O O13 0.050353 0.366310 0.646636
O O14 0.799160 0.873244 0.030129
O O15 0.000000 0.000000 0.000000
O O16 0.500000 0.500000 0.500000
O O17 0.719178 0.127892 0.774067
#
# Coordination Sequence:
#
# PCOD9080547 Si02
#       8
#     2   2   2   2   2   2   2   2
#     4  10  22  41  65  93 124 172 211 261 325 377
#     4  10  20  40  63  90 123 168 210 253 317 383
#     4  12  21  41  67  94 124 168 216 254 321 382
#     4  11  24  41  66  93 129 169 217 261 315 384
#     4  11  23  41  65  93 130 166 215 269 313 377
#     4  11  21  40  67  89 123 169 207 257 320 388
#     4  11  21  35  60  95 123 163 209 262 320 378
#     4  10  18  40  62  84 123 162 206 255 309 385
#
# _framework density 27.480613999999999
#
# number of rings (size 3 to 8) (size 9 to 14) (size 15 to 20)
#    0.000    1.250    5.000    3.750    1.750    0.500 
#    0.000    3.125    0.000    0.000    0.000    0.000 
#    0.000    0.000    0.000    0.000    0.000    0.000 
#
# Total GULP energy -89385.063029 kJ/mol
# GULP energy per Si atom -5586.566439 kJ/mol
# Density = 2.741807 g / cm^3
# Si number density = 27.480614 Si / 1000 Ang^3
#
#
#
# Elastic Constant Matrix: (Units=GPa)
#
#
# Indices 1 2 3 4 5 6 
#
# 1 98.4645 44.6504 3.3573 -0.1934 23.8099 30.1525
# 2 44.6504 198.9936 29.5089 -2.4486 -0.8472 46.6794
# 3 3.3573 29.5089 81.1540 15.4737 -12.0866 4.7675
# 4 -0.1934 -2.4486 15.4737 39.1258 2.6741 -1.3903
# 5 23.8099 -0.8472 -12.0866 2.6741 40.6095 -6.9460
# 6 30.1525 46.6794 4.7675 -1.3903 -6.9460 47.6198
#
#
#
# Elastic Compliance Matrix: (Units=1/GPa)
#
#
# Indices 1 2 3 4 5 6 
#
# 1 0.017319 -0.000901 -0.001839 0.001215 -0.012807 -0.011732
# 2 -0.000901 0.007098 -0.002619 0.001339 -0.001264 -0.006270
# 3 -0.001839 -0.002619 0.015414 -0.006612 0.006551 0.002951
# 4 0.001215 0.001339 -0.006612 0.028542 -0.004751 -0.001279
# 5 -0.012807 -0.001264 0.006551 -0.004751 0.036750 0.013914
# 6 -0.011732 -0.006270 0.002951 -0.001279 0.013914 0.036271
#
#
# Mechanical properties :
#
#
# Convention : Reuss Voigt Hill
#
# Bulk Modulus (GPa) = 34.34856 59.29393 46.82124
# Shear Modulus (GPa) = 30.89949 45.54406 38.22178
#
# Velocity S-wave (km/s) = 3.35686 4.07543 3.73347
# Velocity P-wave (km/s) = 5.24891 6.61581 5.97160
#
# Compressibility (1/GPa) = 0.02911330
#
# Stress axis : x y z
#
# Youngs Moduli (GPa) = 57.74005 140.89057 64.87801
#
# Poissons Ratio (x) = 0.12694 0.11929
# Poissons Ratio (y) = 0.05202 0.16990
# Poissons Ratio (z) = 0.10617 0.36896
#
# Static dielectric constant tensor:
#      x y z
#    x 2.298060 -0.031740 -0.192180 
#    y -0.031740 2.149180 -0.014500 
#    z -0.192180 -0.014500 2.216900 
# 
# From -- ./inp_files/590174.got.cif
#   From: 2010.05.17/outbox.cif.g08.bks.cpg/sg2_296_cif.got.tgz:590174.got - 2010.06.03 11:33:40.
