data_PCOD9080509
_publ_section_title
;
Structure prediction by ZEFSAII (Michael W. Deem and Ramdas Pophale) SiO2 
 PCOD9080509
Probable space group: P -1
;
_chemical_formula_sum "Si O2"
_cell_formula_units_Z 16
_cell_length_a 9.555151
_cell_length_b 12.230443
_cell_length_c 8.093608
_cell_angle_alpha 47.281802
_cell_angle_beta 89.343846
_cell_angle_gamma 79.365529
_cell_volume 674.452887
_symmetry_space_group_name_H-M "P -1"
_symmetry_group_IT_number 2
_symmetry_cell_setting 'triclinic'
loop_
_space_group_symop_operation_xyz
x,y,z
-x,-y,-z
loop_
_atom_site_type_symbol
_atom_site_label
_atom_site_fract_x
_atom_site_fract_y
_atom_site_fract_z
Si Si1 0.596137 0.558133 0.192648
Si Si2 0.642056 0.584586 0.554637
Si Si3 0.303851 0.081002 0.756735
Si Si4 0.566714 0.896106 0.759925
Si Si5 0.973432 0.887603 0.473975
Si Si6 0.064397 0.661413 0.209471
Si Si7 0.841523 0.956825 0.856599
Si Si8 0.924453 0.417776 0.325464
O O1 0.598329 0.601722 0.343855
O O2 0.483826 0.451966 0.294810
O O3 0.755482 0.462323 0.249270
O O4 0.563424 0.718281 0.931494
O O5 0.686104 0.741737 0.435123
O O6 0.771898 0.431828 0.720984
O O7 0.186308 0.055926 0.652327
O O8 0.459368 0.971389 0.832298
O O9 0.238024 0.045615 0.967152
O O10 0.728662 0.911819 0.777535
O O11 0.500000 0.000000 0.500000
O O12 0.995648 0.705707 0.680834
O O13 0.108489 0.891373 0.345339
O O14 0.000000 0.000000 0.500000
O O15 0.035506 0.645350 0.422159
O O16 0.974589 0.573586 0.184593
O O17 0.996939 0.836261 0.988152
#
# Coordination Sequence:
#
# PCOD9080509 Si02
#       8
#     2   2   2   2   2   2   2   2
#     4  10  22  40  70 106 137 184 237 295 359 417
#     4  10  21  39  71 109 137 174 244 305 348 413
#     4  12  24  45  70 103 139 189 244 298 349 425
#     4  12  27  46  67 102 155 190 228 295 372 438
#     4  12  27  44  67 106 151 191 233 295 371 432
#     4  10  18  39  70 101 133 176 240 308 345 402
#     4  12  24  44  72 105 137 197 245 292 354 426
#     4  10  19  40  69  97 139 177 242 296 348 418
#
# _framework density 23.722930999999999
#
# number of rings (size 3 to 8) (size 9 to 14) (size 15 to 20)
#    0.000    1.000    5.000    2.250    3.500    1.000 
#    0.000    2.500    0.000    0.000    0.000    0.000 
#    0.000    0.000    0.000    0.000    0.000    0.000 
#
# Total GULP energy -89465.160877 kJ/mol
# GULP energy per Si atom -5591.572555 kJ/mol
# Density = 2.366894 g / cm^3
# Si number density = 23.722931 Si / 1000 Ang^3
#
#
#
# Elastic Constant Matrix: (Units=GPa)
#
#
# Indices 1 2 3 4 5 6 
#
# 1 94.1907 17.9950 23.1849 5.8550 -2.3865 7.0128
# 2 17.9950 96.8622 13.4452 -8.2427 4.7821 12.8085
# 3 23.1849 13.4452 68.6318 -2.3439 11.9204 -11.4555
# 4 5.8550 -8.2427 -2.3439 20.5235 -0.2850 6.7674
# 5 -2.3865 4.7821 11.9204 -0.2850 30.0862 -9.1047
# 6 7.0128 12.8085 -11.4555 6.7674 -9.1047 33.1518
#
#
#
# Elastic Compliance Matrix: (Units=1/GPa)
#
#
# Indices 1 2 3 4 5 6 
#
# 1 0.012647 -0.001892 -0.004832 -0.004207 0.002557 -0.002053
# 2 -0.001892 0.012929 -0.002329 0.008069 -0.003641 -0.008047
# 3 -0.004832 -0.002329 0.018746 0.000241 -0.005356 0.006879
# 4 -0.004207 0.008069 0.000241 0.058275 -0.005899 -0.015660
# 5 0.002557 -0.003641 -0.005356 -0.005899 0.039429 0.011048
# 6 -0.002053 -0.008047 0.006879 -0.015660 0.011048 0.042316
#
#
# Mechanical properties :
#
#
# Convention : Reuss Voigt Hill
#
# Bulk Modulus (GPa) = 38.14427 40.99278 39.56852
# Shear Modulus (GPa) = 23.67583 30.42295 27.04939
#
# Velocity S-wave (km/s) = 3.16256 3.58499 3.38038
# Velocity P-wave (km/s) = 5.42676 5.86971 5.65257
#
# Compressibility (1/GPa) = 0.02621626
#
# Stress axis : x y z
#
# Youngs Moduli (GPa) = 79.07186 77.34452 53.34473
#
# Poissons Ratio (x) = 0.14630 0.25777
# Poissons Ratio (y) = 0.14956 0.12424
# Poissons Ratio (z) = 0.38209 0.18014
#
# Static dielectric constant tensor:
#      x y z
#    x 1.874950 -0.032060 -0.019530 
#    y -0.032060 1.942850 0.045190 
#    z -0.019530 0.045190 1.944390 
# 
# From -- ./inp_files/184211.got.cif
#   From: 2010.05.17/outbox.cif.g08.bks.cpg/sg2_93_cif.got.tgz:184211.got - 2010.06.03 11:33:40.
