data_PCOD9080715
_publ_section_title
;
Structure prediction by ZEFSAII (Michael W. Deem and Ramdas Pophale) SiO2 
 PCOD9080715
Probable space group: P -1
;
_chemical_formula_sum "Si O2"
_cell_formula_units_Z 14
_cell_length_a 7.127011
_cell_length_b 11.009630
_cell_length_c 8.267624
_cell_angle_alpha 72.945136
_cell_angle_beta 77.024251
_cell_angle_gamma 111.665835
_cell_volume 534.415791
_symmetry_space_group_name_H-M "P -1"
_symmetry_group_IT_number 2
_symmetry_cell_setting 'triclinic'
loop_
_space_group_symop_operation_xyz
x,y,z
-x,-y,-z
loop_
_atom_site_type_symbol
_atom_site_label
_atom_site_fract_x
_atom_site_fract_y
_atom_site_fract_z
Si Si1 0.974027 0.297235 0.189902
Si Si2 0.488556 0.697349 0.703457
Si Si3 0.679349 0.977312 0.371692
Si Si4 0.670745 0.111133 0.781935
Si Si5 0.738334 0.619743 0.213496
Si Si6 0.418753 0.190117 0.008380
Si Si7 0.057903 0.374849 0.486302
O O1 0.748878 0.306830 0.246766
O O2 0.121733 0.384059 0.281477
O O3 0.900932 0.125582 0.273917
O O4 0.089514 0.357393 0.972646
O O5 0.658547 0.832082 0.511089
O O6 0.444469 0.544512 0.704693
O O7 0.562648 0.727173 0.862274
O O8 0.568368 0.950707 0.228010
O O9 0.500000 0.000000 0.500000
O O10 0.839829 0.222907 0.585311
O O11 0.719232 0.980137 0.861232
O O12 0.647416 0.196981 0.905813
O O13 0.822597 0.639294 0.371694
O O14 0.655404 0.734044 0.141231
O O15 0.000000 0.500000 0.500000
#
# Coordination Sequence:
#
# PCOD9080715 Si02
#       7
#     2   2   2   2   2   2   2
#     4  11  22  43  73  99 132 182 223 277 337 403
#     4  11  20  45  71  94 131 181 228 268 337 408
#     4  10  18  41  70  95 122 174 240 267 315 411
#     4  11  22  44  70  91 129 184 232 269 330 413
#     4  12  27  43  65 107 144 169 221 289 342 395
#     4  11  25  42  69  97 131 180 229 278 331 403
#     4  12  24  43  69 102 137 177 224 276 343 403
#
# _framework density 26.196832000000001
#
# number of rings (size 3 to 8) (size 9 to 14) (size 15 to 20)
#    0.000    0.857    7.143    1.714    4.000    0.571 
#    2.571    2.857    0.000    0.000    0.000    0.000 
#    0.000    0.000    0.000    0.000    0.000    0.000 
#
# Total GULP energy -78379.315213 kJ/mol
# GULP energy per Si atom -5598.522515 kJ/mol
# Density = 2.613721 g / cm^3
# Si number density = 26.196832 Si / 1000 Ang^3
#
#
#
# Elastic Constant Matrix: (Units=GPa)
#
#
# Indices 1 2 3 4 5 6 
#
# 1 74.6145 47.0248 50.3326 8.8251 21.9218 -8.0429
# 2 47.0248 153.8185 70.0887 4.3922 22.3011 -6.0413
# 3 50.3326 70.0887 158.1772 7.1241 21.9362 -0.9070
# 4 8.8251 4.3922 7.1241 60.4838 -2.3217 7.7752
# 5 21.9218 22.3011 21.9362 -2.3217 53.5174 0.2518
# 6 -8.0429 -6.0413 -0.9070 7.7752 0.2518 41.3603
#
#
#
# Elastic Compliance Matrix: (Units=1/GPa)
#
#
# Indices 1 2 3 4 5 6 
#
# 1 0.020787 -0.003402 -0.004180 -0.003028 -0.005534 0.004057
# 2 -0.003402 0.008984 -0.002726 0.000042 -0.001234 0.000591
# 3 -0.004180 -0.002726 0.008977 -0.000156 -0.000834 -0.000980
# 4 -0.003028 0.000042 -0.000156 0.017571 0.002067 -0.003902
# 5 -0.005534 -0.001234 -0.000834 0.002067 0.021906 -0.001797
# 6 0.004057 0.000591 -0.000980 -0.003902 -0.001797 0.025776
#
#
# Mechanical properties :
#
#
# Convention : Reuss Voigt Hill
#
# Bulk Modulus (GPa) = 55.14911 80.16694 67.65803
# Shear Modulus (GPa) = 38.26663 45.68323 41.97493
#
# Velocity S-wave (km/s) = 3.82610 4.18047 4.00720
# Velocity P-wave (km/s) = 6.37309 7.34642 6.87700
#
# Compressibility (1/GPa) = 0.01813266
#
# Stress axis : x y z
#
# Youngs Moduli (GPa) = 48.10592 111.30693 111.39751
#
# Poissons Ratio (x) = 0.37870 0.46564
# Poissons Ratio (y) = 0.16367 0.30363
# Poissons Ratio (z) = 0.20108 0.30339
#
# Static dielectric constant tensor:
#      x y z
#    x 2.115230 0.021210 0.012950 
#    y 0.021210 2.075610 0.066830 
#    z 0.012950 0.066830 2.148540 
# 
# From -- ./inp_files/185105.got.cif
#   From: 2010.05.17/outbox.cif.g08.bks.cpg/sg2_93_cif.got.tgz:185105.got - 2010.06.03 11:33:40.
