data_PCOD9080023
_publ_section_title
;
Structure prediction by ZEFSAII (Michael W. Deem and Ramdas Pophale) SiO2 
 PCOD9080023
Probable space group: P -1
;
_chemical_formula_sum "Si O2"
_cell_formula_units_Z 16
_cell_length_a 19.775295
_cell_length_b 8.850508
_cell_length_c 5.050005
_cell_angle_alpha 89.703529
_cell_angle_beta 98.126397
_cell_angle_gamma 45.465651
_cell_volume 616.862746
_symmetry_space_group_name_H-M "P -1"
_symmetry_group_IT_number 2
_symmetry_cell_setting 'triclinic'
loop_
_space_group_symop_operation_xyz
x,y,z
-x,-y,-z
loop_
_atom_site_type_symbol
_atom_site_label
_atom_site_fract_x
_atom_site_fract_y
_atom_site_fract_z
Si Si1 0.141688 0.655484 0.290456
Si Si2 0.685137 0.301489 0.300671
Si Si3 0.784632 0.939248 0.978589
Si Si4 0.570269 0.033078 0.026690
Si Si5 0.270299 0.457681 0.875996
Si Si6 0.387988 0.841813 0.434646
Si Si7 0.898997 0.965455 0.670008
Si Si8 0.062427 0.520769 0.869883
O O1 0.190948 0.549658 0.602293
O O2 0.097377 0.587590 0.104899
O O3 0.070802 0.909157 0.280482
O O4 0.224393 0.580686 0.127779
O O5 0.665500 0.501808 0.194166
O O6 0.615994 0.328474 0.475199
O O7 0.697078 0.161015 0.074927
O O8 0.799115 0.128083 0.450697
O O9 0.859273 0.947792 0.914081
O O10 0.846281 0.719922 0.175147
O O11 0.727389 0.953642 0.700240
O O12 0.671181 0.786106 0.041247
O O13 0.576709 0.113451 0.301613
O O14 0.500000 0.000000 0.000000
O O15 0.556123 0.174496 0.782228
O O16 0.989108 0.722000 0.630495
O O17 0.000000 0.500000 0.000000
#
# Coordination Sequence:
#
# PCOD9080023 Si02
#       8
#     2   2   2   2   2   2   2   2
#     4  11  22  42  63  91 122 173 218 261 314 379
#     4  10  21  40  67  93 125 170 219 264 309 380
#     4  10  18  38  61  89 125 165 217 260 314 371
#     4  12  25  44  67 100 134 162 204 262 319 380
#     4  11  24  43  70  94 123 167 217 257 319 391
#     4  11  23  42  70  95 128 172 209 259 311 384
#     4   9  20  36  57  89 126 162 215 272 318 360
#     4  10  21  37  56  88 130 170 217 269 320 366
#
# _framework density 25.937698000000001
#
# number of rings (size 3 to 8) (size 9 to 14) (size 15 to 20)
#    0.000    1.500    2.500    3.000    0.000    0.500 
#    4.500    3.125    0.000    0.000    0.000    0.000 
#    0.000    0.000    0.000    0.000    0.000    0.000 
#
# Total GULP energy -89436.255803 kJ/mol
# GULP energy per Si atom -5589.765988 kJ/mol
# Density = 2.587866 g / cm^3
# Si number density = 25.937698 Si / 1000 Ang^3
#
#
#
# Elastic Constant Matrix: (Units=GPa)
#
#
# Indices 1 2 3 4 5 6 
#
# 1 134.0824 18.3378 12.6879 -0.8653 -5.7055 24.3762
# 2 18.3378 53.0314 26.9913 -26.1512 -3.3928 16.5098
# 3 12.6879 26.9913 109.8607 9.2271 -8.8861 7.1216
# 4 -0.8653 -26.1512 9.2271 24.2351 10.1116 -4.4467
# 5 -5.7055 -3.3928 -8.8861 10.1116 35.9259 4.7456
# 6 24.3762 16.5098 7.1216 -4.4467 4.7456 33.8840
#
#
#
# Elastic Compliance Matrix: (Units=1/GPa)
#
#
# Indices 1 2 3 4 5 6 
#
# 1 0.010307 -0.016469 0.005976 -0.024421 0.009111 -0.005127
# 2 -0.016469 0.187322 -0.069745 0.253646 -0.070717 -0.021574
# 3 0.005976 -0.069745 0.036271 -0.101058 0.031192 0.004430
# 4 -0.024421 0.253646 -0.101058 0.397319 -0.114557 -0.016593
# 5 0.009111 -0.070717 0.031192 -0.114557 0.062891 -0.002495
# 6 -0.005127 -0.021574 0.004430 -0.016593 -0.002495 0.040954
#
#
# Mechanical properties :
#
#
# Convention : Reuss Voigt Hill
#
# Bulk Modulus (GPa) = 13.61966 45.88982 29.75474
# Shear Modulus (GPa) = 5.43469 34.73948 20.08709
#
# Velocity S-wave (km/s) = 1.44908 3.66367 2.78589
# Velocity P-wave (km/s) = 2.83938 5.96887 4.67384
#
# Compressibility (1/GPa) = 0.07342327
#
# Stress axis : x y z
#
# Youngs Moduli (GPa) = 97.01917 5.33841 27.56999
#
# Poissons Ratio (x) = 0.08792 -0.16477
# Poissons Ratio (y) = 1.59785 1.92288
# Poissons Ratio (z) = -0.57982 0.37233
#
# Static dielectric constant tensor:
#      x y z
#    x 2.093020 -0.019350 0.022020 
#    y -0.019350 2.036670 0.010520 
#    z 0.022020 0.010520 2.081260 
# 
# From -- ./inp_files/117069.got.cif
#   From: 2010.05.17/outbox.cif.g08.bks.cpg/sg2_59_cif.got.tgz:117069.got - 2010.06.03 11:33:40.
