data_PCOD9080383
_publ_section_title
;
Structure prediction by ZEFSAII (Michael W. Deem and Ramdas Pophale) SiO2 
 PCOD9080383
Probable space group: P -1
;
_chemical_formula_sum "Si O2"
_cell_formula_units_Z 16
_cell_length_a 8.835629
_cell_length_b 14.222994
_cell_length_c 28.594269
_cell_angle_alpha 23.803478
_cell_angle_beta 37.912610
_cell_angle_gamma 52.797028
_cell_volume 785.365025
_symmetry_space_group_name_H-M "P -1"
_symmetry_group_IT_number 2
_symmetry_cell_setting 'triclinic'
loop_
_space_group_symop_operation_xyz
x,y,z
-x,-y,-z
loop_
_atom_site_type_symbol
_atom_site_label
_atom_site_fract_x
_atom_site_fract_y
_atom_site_fract_z
Si Si1 0.028415 0.064456 0.018486
Si Si2 0.980014 0.555018 0.287485
Si Si3 0.326605 0.682343 0.236376
Si Si4 0.723244 0.800972 0.470459
Si Si5 0.936021 0.416503 0.256083
Si Si6 0.238505 0.222439 0.203164
Si Si7 0.561012 0.182839 0.628596
Si Si8 0.156013 0.261322 0.637997
O O1 0.344597 0.158416 0.913291
O O2 0.981472 0.320401 0.915846
O O3 0.872842 0.776543 0.210850
O O4 0.000000 0.000000 0.000000
O O5 0.223954 0.639461 0.227605
O O6 0.043941 0.510697 0.239426
O O7 0.739943 0.289242 0.488904
O O8 0.245317 0.409020 0.407707
O O9 0.167696 0.819165 0.239674
O O10 0.404515 0.746504 0.582501
O O11 0.760113 0.741279 0.434761
O O12 0.983163 0.083557 0.291550
O O13 0.080182 0.258196 0.270491
O O14 0.373156 0.031097 0.266905
O O15 0.500000 0.500000 0.000000
O O16 0.252413 0.094899 0.724150
O O17 0.686434 0.443093 0.512573
#
# Coordination Sequence:
#
# PCOD9080383 Si02
#       8
#     2   2   2   2   2   2   2   2
#     4   9  20  36  60  96 132 159 207 258 324 372
#     4  10  18  39  62  95 126 160 213 264 313 378
#     4  10  20  34  61  99 129 159 206 261 325 377
#     4  11  21  42  64  97 123 170 220 257 329 379
#     4  10  23  41  65  92 129 175 208 262 320 386
#     4  12  27  45  61  91 130 175 221 261 316 391
#     4  10  22  41  65  96 125 166 212 256 331 371
#     4  10  20  38  68  95 124 160 206 276 308 383
#
# _framework density 20.372693000000002
#
# number of rings (size 3 to 8) (size 9 to 14) (size 15 to 20)
#    0.000    1.750    3.750    1.125    0.000    5.500 
#    2.250    0.625    0.000    0.000    0.000    0.000 
#    0.000    0.000    0.000    0.000    0.000    0.000 
#
# Total GULP energy -89219.756116 kJ/mol
# GULP energy per Si atom -5576.234757 kJ/mol
# Density = 2.032632 g / cm^3
# Si number density = 20.372693 Si / 1000 Ang^3
#
#
#
# Elastic Constant Matrix: (Units=GPa)
#
#
# Indices 1 2 3 4 5 6 
#
# 1 119.6769 37.2145 22.8631 1.4724 6.9639 12.9081
# 2 37.2145 90.0256 15.0720 7.4392 -3.2070 11.4670
# 3 22.8631 15.0720 55.0888 -6.8879 1.7185 0.8763
# 4 1.4724 7.4392 -6.8879 21.1106 1.0466 -0.9170
# 5 6.9639 -3.2070 1.7185 1.0466 16.9783 3.9130
# 6 12.9081 11.4670 0.8763 -0.9170 3.9130 30.5050
#
#
#
# Elastic Compliance Matrix: (Units=1/GPa)
#
#
# Indices 1 2 3 4 5 6 
#
# 1 0.010633 -0.003629 -0.003308 -0.000449 -0.004102 -0.002528
# 2 -0.003629 0.014543 -0.003398 -0.006491 0.006088 -0.004810
# 3 -0.003308 -0.003398 0.021584 0.008716 -0.002619 0.002655
# 4 -0.000449 -0.006491 0.008716 0.053052 -0.006297 0.004782
# 5 -0.004102 0.006088 -0.002619 -0.006297 0.064443 -0.008933
# 6 -0.002528 -0.004810 0.002655 0.004782 -0.008933 0.036872
#
#
# Mechanical properties :
#
#
# Convention : Reuss Voigt Hill
#
# Bulk Modulus (GPa) = 38.32769 46.12118 42.22444
# Shear Modulus (GPa) = 21.69260 26.36156 24.02708
#
# Velocity S-wave (km/s) = 3.26665 3.60108 3.43793
# Velocity P-wave (km/s) = 5.75170 6.32283 6.04402
#
# Compressibility (1/GPa) = 0.02609080
#
# Stress axis : x y z
#
# Youngs Moduli (GPa) = 94.04690 68.76298 46.33002
#
# Poissons Ratio (x) = 0.24952 0.15326
# Poissons Ratio (y) = 0.34127 0.15742
# Poissons Ratio (z) = 0.31111 0.23364
#
# Static dielectric constant tensor:
#      x y z
#    x 1.729610 -0.031410 -0.023320 
#    y -0.031410 1.761450 0.023680 
#    z -0.023320 0.023680 1.800340 
# 
# From -- ./inp_files/622610.got.cif
#   From: 2010.05.17/outbox.cif.g08.bks.cpg/sg2_312_cif.got.tgz:622610.got - 2010.06.03 11:33:40.
