data_PCOD9080625
_publ_section_title
;
Structure prediction by ZEFSAII (Michael W. Deem and Ramdas Pophale) SiO2 
 PCOD9080625
Probable space group: P -1
;
_chemical_formula_sum "Si O2"
_cell_formula_units_Z 13
_cell_length_a 10.835106
_cell_length_b 8.125314
_cell_length_c 8.917691
_cell_angle_alpha 107.871954
_cell_angle_beta 118.679182
_cell_angle_gamma 60.211895
_cell_volume 595.352954
_symmetry_space_group_name_H-M "P -1"
_symmetry_group_IT_number 2
_symmetry_cell_setting 'triclinic'
loop_
_space_group_symop_operation_xyz
x,y,z
-x,-y,-z
loop_
_atom_site_type_symbol
_atom_site_label
_atom_site_fract_x
_atom_site_fract_y
_atom_site_fract_z
Si Si1 0.342603 0.529885 0.995047
Si Si2 0.637406 0.533912 0.671587
Si Si3 0.322590 0.142360 0.408534
Si Si4 0.016088 0.675300 0.155199
Si Si5 0.217463 0.256431 0.707096
Si Si6 0.500000 0.000000 0.000000
Si Si7 0.767546 0.035296 0.952744
O O1 0.390956 0.420786 0.154040
O O2 0.241827 0.754267 0.004209
O O3 0.500000 0.500000 0.000000
O O4 0.257690 0.432153 0.820837
O O5 0.500000 0.500000 0.500000
O O6 0.667461 0.694371 0.645153
O O7 0.806681 0.361918 0.729817
O O8 0.230073 0.223408 0.529351
O O9 0.500000 0.000000 0.500000
O O10 0.244229 0.031429 0.239520
O O11 0.939286 0.696259 0.280042
O O12 0.000000 0.500000 0.000000
O O13 0.916462 0.871324 0.068075
O O14 0.355806 0.078360 0.817039
O O15 0.382947 0.961308 0.044565
#
# Coordination Sequence:
#
# PCOD9080625 Si02
#       7
#     2   2   2   2   2   1   2
#     4  12  23  42  70 109 141 189 242 296 364 429
#     4  12  26  45  68 102 147 185 240 305 365 416
#     4  12  23  42  70 109 141 189 242 296 364 429
#     4  11  23  48  71 102 141 198 241 300 361 432
#     4  11  23  40  72 105 139 191 240 295 358 437
#     4  10  18  40  66  98 134 182 244 274 350 430
#     4  11  23  40  72 105 139 191 240 295 358 437
#
# _framework density 21.835788000000001
#
# number of rings (size 3 to 8) (size 9 to 14) (size 15 to 20)
#    0.000    0.615    6.154    2.769    0.000    1.231 
#    0.000    1.538    0.000    7.385    0.000    0.000 
#    0.000    0.000    0.000    0.000    0.000    0.000 
#
# Total GULP energy -72461.689967 kJ/mol
# GULP energy per Si atom -5573.976151 kJ/mol
# Density = 2.178609 g / cm^3
# Si number density = 21.835788 Si / 1000 Ang^3
#
#
#
# Elastic Constant Matrix: (Units=GPa)
#
#
# Indices 1 2 3 4 5 6 
#
# 1 97.3127 11.9600 43.8374 -4.8169 -23.6848 -29.4368
# 2 11.9600 97.0272 51.1566 -6.4463 -11.3091 2.5569
# 3 43.8374 51.1566 118.3259 18.4241 -24.0868 -4.8001
# 4 -4.8169 -6.4463 18.4241 35.0498 -6.0228 3.2396
# 5 -23.6848 -11.3091 -24.0868 -6.0228 55.4927 -9.1889
# 6 -29.4368 2.5569 -4.8001 3.2396 -9.1889 33.0643
#
#
#
# Elastic Compliance Matrix: (Units=1/GPa)
#
#
# Indices 1 2 3 4 5 6 
#
# 1 0.023164 0.002409 -0.007573 0.007572 0.011522 0.021797
# 2 0.002409 0.015135 -0.008440 0.007818 0.001184 -0.000688
# 3 -0.007573 -0.008440 0.016663 -0.011012 0.000688 -0.002400
# 4 0.007572 0.007818 -0.011012 0.037367 0.004451 0.002114
# 5 0.011522 0.001184 0.000688 0.004451 0.026823 0.017284
# 6 0.021797 -0.000688 -0.002400 0.002114 0.017284 0.053951
#
#
# Mechanical properties :
#
#
# Convention : Reuss Voigt Hill
#
# Bulk Modulus (GPa) = 36.03039 58.50819 47.26929
# Shear Modulus (GPa) = 23.85910 38.43547 31.14728
#
# Velocity S-wave (km/s) = 3.30913 4.20003 3.78091
# Velocity P-wave (km/s) = 5.58004 7.09740 6.38397
#
# Compressibility (1/GPa) = 0.02775435
#
# Stress axis : x y z
#
# Youngs Moduli (GPa) = 43.16999 66.07208 60.01280
#
# Poissons Ratio (x) = -0.15916 0.45446
# Poissons Ratio (y) = -0.10399 0.50652
# Poissons Ratio (z) = 0.32692 0.55766
#
# Static dielectric constant tensor:
#      x y z
#    x 1.775030 -0.027890 -0.014720 
#    y -0.027890 1.889430 0.029660 
#    z -0.014720 0.029660 1.770360 
# 
# From -- ./inp_files/235726.got.cif
#   From: 2010.05.17/outbox.cif.g08.bks.cpg/sg2_118_cif.got.tgz:235726.got - 2010.06.03 11:33:40.
