data_PCOD9080094
_publ_section_title
;
Structure prediction by ZEFSAII (Michael W. Deem and Ramdas Pophale) SiO2 
 PCOD9080094
Probable space group: P -1
;
_chemical_formula_sum "Si O2"
_cell_formula_units_Z 14
_cell_length_a 9.337281
_cell_length_b 23.181717
_cell_length_c 7.794671
_cell_angle_alpha 134.512237
_cell_angle_beta 54.733029
_cell_angle_gamma 153.115305
_cell_volume 538.017256
_symmetry_space_group_name_H-M "P -1"
_symmetry_group_IT_number 2
_symmetry_cell_setting 'triclinic'
loop_
_space_group_symop_operation_xyz
x,y,z
-x,-y,-z
loop_
_atom_site_type_symbol
_atom_site_label
_atom_site_fract_x
_atom_site_fract_y
_atom_site_fract_z
Si Si1 0.247636 0.361437 0.748663
Si Si2 0.177114 0.410047 0.375086
Si Si3 0.290787 0.169013 0.984019
Si Si4 0.866493 0.116876 0.979304
Si Si5 0.906382 0.875362 0.505050
Si Si6 0.908634 0.373247 0.132805
Si Si7 0.706011 0.335566 0.701660
O O1 0.441536 0.438056 0.595197
O O2 0.172139 0.241006 0.599273
O O3 0.500000 0.500000 0.000000
O O4 0.939292 0.298899 0.858924
O O5 0.039811 0.410234 0.309997
O O6 0.986897 0.377951 0.594387
O O7 0.067650 0.276295 0.146811
O O8 0.531026 0.277071 0.881861
O O9 0.013045 0.127452 0.064322
O O10 0.546925 0.266426 0.161604
O O11 0.123818 0.018034 0.763502
O O12 0.916776 0.079412 0.701339
O O13 0.500000 0.000000 0.000000
O O14 0.584745 0.796338 0.500809
O O15 0.137776 0.521824 0.178823
#
# Coordination Sequence:
#
# PCOD9080094 Si02
#       7
#     2   2   2   2   2   2   2
#     4  10  18  38  63  89 118 165 209 246 293 369
#     4  11  21  39  70  90 116 165 221 242 288 377
#     4  11  25  40  62  96 128 158 198 262 321 346
#     4  11  21  41  63  89 123 167 206 247 302 383
#     4  11  20  39  64  87 122 167 209 239 301 382
#     4  11  22  41  63  94 126 159 202 264 307 347
#     4  11  21  40  67  91 121 167 210 244 300 380
#
# _framework density 26.021470999999998
#
# number of rings (size 3 to 8) (size 9 to 14) (size 15 to 20)
#    0.000    1.143    5.714    5.143    0.000    0.571 
#    0.000    7.143    0.000    0.000    0.000    0.000 
#    0.000    0.000    0.000    0.000    0.000    0.000 
#
# Total GULP energy -78499.953453 kJ/mol
# GULP energy per Si atom -5607.139532 kJ/mol
# Density = 2.596224 g / cm^3
# Si number density = 26.021471 Si / 1000 Ang^3
#
#
#
# Elastic Constant Matrix: (Units=GPa)
#
#
# Indices 1 2 3 4 5 6 
#
# 1 128.5584 49.3985 34.9407 6.8544 -15.4872 20.6080
# 2 49.3985 108.6088 31.2233 13.8964 -12.1886 12.2792
# 3 34.9407 31.2233 77.1975 13.2794 -9.2358 -4.7227
# 4 6.8544 13.8964 13.2794 61.6031 -3.4288 -19.7684
# 5 -15.4872 -12.1886 -9.2358 -3.4288 46.3259 0.3149
# 6 20.6080 12.2792 -4.7227 -19.7684 0.3149 53.0559
#
#
#
# Elastic Compliance Matrix: (Units=1/GPa)
#
#
# Indices 1 2 3 4 5 6 
#
# 1 0.010910 -0.003115 -0.003516 -0.000988 0.002082 -0.004210
# 2 -0.003115 0.012350 -0.003145 -0.002618 0.001407 -0.002912
# 3 -0.003516 -0.003145 0.016379 -0.001396 0.001138 0.003025
# 4 -0.000988 -0.002618 -0.001396 0.019898 0.000119 0.008279
# 5 0.002082 0.001407 0.001138 0.000119 0.022896 -0.001125
# 6 -0.004210 -0.002912 0.003025 0.008279 -0.001125 0.024518
#
#
# Mechanical properties :
#
#
# Convention : Reuss Voigt Hill
#
# Bulk Modulus (GPa) = 49.78552 60.60996 55.19774
# Shear Modulus (GPa) = 37.53816 45.45045 41.49430
#
# Velocity S-wave (km/s) = 3.80226 4.18383 3.99760
# Velocity P-wave (km/s) = 6.20082 6.83243 6.52427
#
# Compressibility (1/GPa) = 0.02008616
#
# Stress axis : x y z
#
# Youngs Moduli (GPa) = 91.66203 80.96966 61.05484
#
# Poissons Ratio (x) = 0.25222 0.21469
# Poissons Ratio (y) = 0.28553 0.19201
# Poissons Ratio (z) = 0.32232 0.25464
#
# Static dielectric constant tensor:
#      x y z
#    x 2.089520 -0.019540 0.048050 
#    y -0.019540 2.056540 -0.105440 
#    z 0.048050 -0.105440 2.089880 
# 
# From -- ./inp_files/224036.got.cif
#   From: 2010.05.17/outbox.cif.g08.bks.cpg/sg2_113_cif.got.tgz:224036.got - 2010.06.03 11:33:40.
