data_PCOD9080779
_publ_section_title
;
Structure prediction by ZEFSAII (Michael W. Deem and Ramdas Pophale) SiO2 
 PCOD9080779
Probable space group: P -1
;
_chemical_formula_sum "Si O2"
_cell_formula_units_Z 16
_cell_length_a 11.664306
_cell_length_b 11.934000
_cell_length_c 12.283167
_cell_angle_alpha 143.668643
_cell_angle_beta 118.159055
_cell_angle_gamma 39.927279
_cell_volume 600.420143
_symmetry_space_group_name_H-M "P -1"
_symmetry_group_IT_number 2
_symmetry_cell_setting 'triclinic'
loop_
_space_group_symop_operation_xyz
x,y,z
-x,-y,-z
loop_
_atom_site_type_symbol
_atom_site_label
_atom_site_fract_x
_atom_site_fract_y
_atom_site_fract_z
Si Si1 0.608569 0.213781 0.884054
Si Si2 0.300921 0.950117 0.964528
Si Si3 0.196923 0.711271 0.415925
Si Si4 0.871339 0.239996 0.995346
Si Si5 0.186786 0.485273 0.031626
Si Si6 0.717874 0.000643 0.247464
Si Si7 0.247257 0.308531 0.550797
Si Si8 0.116416 0.519676 0.412537
O O1 0.584508 0.232087 0.017943
O O2 0.597656 0.022241 0.669561
O O3 0.500000 0.500000 0.000000
O O4 0.828692 0.064259 0.853955
O O5 0.246535 0.225583 0.178804
O O6 0.098441 0.048840 0.952528
O O7 0.377372 0.870767 0.812809
O O8 0.248095 0.494113 0.184102
O O9 0.147193 0.680229 0.487528
O O10 0.323925 0.762785 0.521758
O O11 0.000000 0.000000 0.500000
O O12 0.756844 0.489945 0.228565
O O13 0.788569 0.400681 0.968135
O O14 0.950474 0.726909 0.115034
O O15 0.305925 0.162312 0.820433
O O16 0.177592 0.443135 0.504816
O O17 0.095348 0.345586 0.581622
#
# Coordination Sequence:
#
# PCOD9080779 Si02
#       8
#     2   2   2   2   2   2   2   2
#     4  11  24  38  55  81 111 146 186 230 275 324
#     4   9  18  35  56  81 113 140 182 225 269 327
#     4  10  19  25  47  78 118 144 166 216 280 327
#     4  10  21  35  60  81 111 146 180 225 277 327
#     4   9  18  31  44  81 116 137 174 219 276 322
#     4   9  17  27  48  75 110 143 170 214 266 323
#     4   9  21  34  54  77 109 145 181 227 270 328
#     4   9  17  33  50  82 116 139 176 228 277 315
#
# _framework density 26.648005000000001
#
# number of rings (size 3 to 8) (size 9 to 14) (size 15 to 20)
#    0.000    2.500    1.250    1.125   12.250    0.500 
#    0.000    0.000    0.000    0.750    0.000    1.750 
#    0.000    0.000    0.000    0.000    0.000    0.000 
#
# Total GULP energy -89419.511924 kJ/mol
# GULP energy per Si atom -5588.719495 kJ/mol
# Density = 2.658735 g / cm^3
# Si number density = 26.648005 Si / 1000 Ang^3
#
#
#
# Elastic Constant Matrix: (Units=GPa)
#
#
# Indices 1 2 3 4 5 6 
#
# 1 83.2389 3.8213 -5.4739 9.2352 -1.9095 23.1396
# 2 3.8213 118.4231 21.9167 6.0774 -9.9651 16.9507
# 3 -5.4739 21.9167 92.8323 0.7952 19.0899 6.7195
# 4 9.2352 6.0774 0.7952 43.4233 7.1179 1.7831
# 5 -1.9095 -9.9651 19.0899 7.1179 25.4421 1.8576
# 6 23.1396 16.9507 6.7195 1.7831 1.8576 40.3729
#
#
#
# Elastic Compliance Matrix: (Units=1/GPa)
#
#
# Indices 1 2 3 4 5 6 
#
# 1 0.014994 0.001068 0.000795 -0.003398 0.002565 -0.009143
# 2 0.001068 0.010609 -0.003760 -0.002791 0.008181 -0.004694
# 3 0.000795 -0.003760 0.014368 0.002217 -0.012757 -0.000779
# 4 -0.003398 -0.002791 0.002217 0.025714 -0.010358 0.002091
# 5 0.002565 0.008181 -0.012757 -0.010358 0.055528 -0.004879
# 6 -0.009143 -0.004694 -0.000779 0.002091 -0.004879 0.032242
#
#
# Mechanical properties :
#
#
# Convention : Reuss Voigt Hill
#
# Bulk Modulus (GPa) = 27.64198 37.22472 32.43335
# Shear Modulus (GPa) = 29.53210 40.12968 34.83089
#
# Velocity S-wave (km/s) = 3.33262 3.88482 3.61927
# Velocity P-wave (km/s) = 5.02036 5.84139 5.44637
#
# Compressibility (1/GPa) = 0.03617686
#
# Stress axis : x y z
#
# Youngs Moduli (GPa) = 66.69208 94.25744 69.60141
#
# Poissons Ratio (x) = -0.10065 -0.05537
# Poissons Ratio (y) = -0.07121 0.26173
# Poissons Ratio (z) = -0.05305 0.35444
#
# Static dielectric constant tensor:
#      x y z
#    x 2.273740 -0.176360 -0.014640 
#    y -0.176360 2.133990 0.055410 
#    z -0.014640 0.055410 2.110100 
# 
# From -- ./inp_files/268129.got.cif
#   From: 2010.05.17/outbox.cif.g08.bks.cpg/sg2_135_cif.got.tgz:268129.got - 2010.06.03 11:33:40.
