data_PCOD9080944
_publ_section_title
;
Structure prediction by ZEFSAII (Michael W. Deem and Ramdas Pophale) SiO2 
 PCOD9080944
Probable space group: P -1
;
_chemical_formula_sum "Si O2"
_cell_formula_units_Z 16
_cell_length_a 15.165794
_cell_length_b 21.968697
_cell_length_c 5.284658
_cell_angle_alpha 107.889720
_cell_angle_beta 74.192068
_cell_angle_gamma 159.204411
_cell_volume 594.319145
_symmetry_space_group_name_H-M "P -1"
_symmetry_group_IT_number 2
_symmetry_cell_setting 'triclinic'
loop_
_space_group_symop_operation_xyz
x,y,z
-x,-y,-z
loop_
_atom_site_type_symbol
_atom_site_label
_atom_site_fract_x
_atom_site_fract_y
_atom_site_fract_z
Si Si1 0.330032 0.947684 0.897135
Si Si2 0.653387 0.170234 0.423884
Si Si3 0.718407 0.849024 0.751000
Si Si4 0.611860 0.655866 0.366328
Si Si5 0.287391 0.523772 0.055797
Si Si6 0.798403 0.653709 0.319237
Si Si7 0.875278 0.062944 0.158447
Si Si8 0.600058 0.277316 0.570416
O O1 0.545511 0.096718 0.700054
O O2 0.191132 0.794028 0.703151
O O3 0.172581 0.910278 0.961583
O O4 0.444201 0.020634 0.180956
O O5 0.728122 0.291420 0.453327
O O6 0.792975 0.830590 0.537338
O O7 0.506513 0.688081 0.904903
O O8 0.565653 0.798272 0.620177
O O9 0.929052 0.028582 0.951054
O O10 0.725978 0.663158 0.191168
O O11 0.423466 0.567704 0.211463
O O12 0.449662 0.529168 0.572356
O O13 0.106054 0.354682 0.848796
O O14 0.220112 0.549063 0.256751
O O15 0.960218 0.798802 0.576671
O O16 0.609332 0.875810 0.256066
#
# Coordination Sequence:
#
# PCOD9080944 Si02
#       8
#     2   2   2   2   2   2   2   2
#     4   9  17  29  48  78 110 135 168 208 261 312
#     4   9  16  29  51  76 106 141 168 207 253 313
#     4   9  17  32  49  70  98 125 166 210 254 306
#     4   9  19  35  51  67  91 133 178 208 248 311
#     4   9  18  33  51  67  93 132 173 211 243 311
#     4  10  20  33  50  71  97 130 169 212 261 305
#     4  10  19  30  48  76 105 126 160 217 266 306
#     4   9  17  31  50  73  99 129 168 207 253 306
#
# _framework density 26.921562000000002
#
# number of rings (size 3 to 8) (size 9 to 14) (size 15 to 20)
#    0.000    2.750    1.250    0.375    0.000    1.500 
#    0.000    5.625    0.000    0.750    0.000    7.875 
#    0.000    0.000    0.000    0.000    0.000    0.000 
#
# Total GULP energy -89318.311406 kJ/mol
# GULP energy per Si atom -5582.394463 kJ/mol
# Density = 2.686029 g / cm^3
# Si number density = 26.921562 Si / 1000 Ang^3
#
#
#
# Elastic Constant Matrix: (Units=GPa)
#
#
# Indices 1 2 3 4 5 6 
#
# 1 169.1014 48.8342 60.7177 8.0563 -52.0984 -46.6002
# 2 48.8342 105.1420 34.0219 30.2510 -23.6948 -39.1274
# 3 60.7177 34.0219 126.2966 34.9215 -39.2626 -24.0090
# 4 8.0563 30.2510 34.9215 47.2901 -30.6649 -19.2822
# 5 -52.0984 -23.6948 -39.2626 -30.6649 63.9233 3.5432
# 6 -46.6002 -39.1274 -24.0090 -19.2822 3.5432 58.0049
#
#
#
# Elastic Compliance Matrix: (Units=1/GPa)
#
#
# Indices 1 2 3 4 5 6 
#
# 1 0.018757 -0.002284 -0.004630 0.023048 0.021659 0.017951
# 2 -0.002284 0.014657 0.000147 -0.006560 0.000187 0.005921
# 3 -0.004630 0.000147 0.012185 -0.009406 -0.000654 -0.001663
# 4 0.023048 -0.006560 -0.009406 0.067349 0.041217 0.030069
# 5 0.021659 0.000187 -0.000654 0.041217 0.051193 0.027830
# 6 0.017951 0.005921 -0.001663 0.030069 0.027830 0.043263
#
#
# Mechanical properties :
#
#
# Convention : Reuss Voigt Hill
#
# Bulk Modulus (GPa) = 31.18490 76.40973 53.79732
# Shear Modulus (GPa) = 21.58657 50.97473 36.28065
#
# Velocity S-wave (km/s) = 2.83474 4.35610 3.67501
# Velocity P-wave (km/s) = 4.72473 7.33109 6.16717
#
# Compressibility (1/GPa) = 0.03206680
#
# Stress axis : x y z
#
# Youngs Moduli (GPa) = 53.31320 68.22644 82.06743
#
# Poissons Ratio (x) = 0.15582 0.37994
# Poissons Ratio (y) = 0.12176 -0.01208
# Poissons Ratio (z) = 0.24682 -0.01005
#
# Static dielectric constant tensor:
#      x y z
#    x 2.242460 0.042560 -0.085650 
#    y 0.042560 2.123890 -0.053820 
#    z -0.085650 -0.053820 2.226120 
# 
# From -- ./inp_files/112700.got.cif
#   From: 2010.05.17/outbox.cif.g08.bks.cpg/sg2_57_cif.got.tgz:112700.got - 2010.06.03 11:33:40.
