data_PCOD9080178
_publ_section_title
;
Structure prediction by ZEFSAII (Michael W. Deem and Ramdas Pophale) SiO2 
 PCOD9080178
Probable space group: P -1
;
_chemical_formula_sum "Si O2"
_cell_formula_units_Z 16
_cell_length_a 12.122742
_cell_length_b 19.583563
_cell_length_c 8.430288
_cell_angle_alpha 34.287125
_cell_angle_beta 134.148913
_cell_angle_gamma 141.220551
_cell_volume 698.322846
_symmetry_space_group_name_H-M "P -1"
_symmetry_group_IT_number 2
_symmetry_cell_setting 'triclinic'
loop_
_space_group_symop_operation_xyz
x,y,z
-x,-y,-z
loop_
_atom_site_type_symbol
_atom_site_label
_atom_site_fract_x
_atom_site_fract_y
_atom_site_fract_z
Si Si1 0.510437 0.084302 0.009554
Si Si2 0.162493 0.609212 0.185442
Si Si3 0.517604 0.655933 0.875300
Si Si4 0.391821 0.582137 0.213213
Si Si5 0.051731 0.243383 0.283463
Si Si6 0.766164 0.564572 0.203623
Si Si7 0.721391 0.971105 0.571143
Si Si8 0.721371 0.864582 0.108111
O O1 0.577982 0.021496 0.337275
O O2 0.666986 0.247788 0.847040
O O3 0.326504 0.070356 0.913681
O O4 0.500000 0.000000 0.000000
O O5 0.226141 0.552997 0.209616
O O6 0.108097 0.485518 0.496235
O O7 0.024029 0.659903 0.910875
O O8 0.407966 0.576751 0.763324
O O9 0.619175 0.822000 0.667630
O O10 0.369009 0.586602 0.994970
O O11 0.674701 0.620740 0.126715
O O12 0.500000 0.500000 0.500000
O O13 0.532432 0.742196 0.091559
O O14 0.178835 0.215832 0.577072
O O15 0.144420 0.318474 0.067612
O O16 0.881096 0.086946 0.402000
O O17 0.792581 0.959970 0.837918
#
# Coordination Sequence:
#
# PCOD9080178 Si02
#       8
#     2   2   2   2   2   2   2   2
#     4  10  21  38  66  96 125 163 213 265 312 372
#     4  10  22  40  63  92 132 164 209 260 318 376
#     4  10  22  37  67  95 116 163 220 259 306 375
#     4  10  18  38  65  91 118 163 216 260 302 369
#     4  11  24  40  64  92 133 169 201 261 326 373
#     4  11  22  39  65  92 129 164 210 259 317 375
#     4  10  22  42  63  93 128 163 215 258 320 368
#     4  10  22  39  65  90 126 169 215 257 311 378
#
# _framework density 22.912037999999999
#
# number of rings (size 3 to 8) (size 9 to 14) (size 15 to 20)
#    0.000    1.750    1.250    2.625    7.000    1.500 
#    2.250    2.500    2.750    0.000    0.000    0.000 
#    0.000    0.000    0.000    0.000    0.000    0.000 
#
# Total GULP energy -89221.010710 kJ/mol
# GULP energy per Si atom -5576.313169 kJ/mol
# Density = 2.285989 g / cm^3
# Si number density = 22.912038 Si / 1000 Ang^3
#
#
#
# Elastic Constant Matrix: (Units=GPa)
#
#
# Indices 1 2 3 4 5 6 
#
# 1 119.2254 21.1555 63.2038 -8.3233 3.7545 -2.6768
# 2 21.1555 50.7642 21.1515 -17.5857 -9.9940 3.1301
# 3 63.2038 21.1515 188.6606 3.5548 5.3224 1.0864
# 4 -8.3233 -17.5857 3.5548 28.5457 10.0110 3.9056
# 5 3.7545 -9.9940 5.3224 10.0110 34.5596 -2.7592
# 6 -2.6768 3.1301 1.0864 3.9056 -2.7592 24.9612
#
#
#
# Elastic Compliance Matrix: (Units=1/GPa)
#
#
# Indices 1 2 3 4 5 6 
#
# 1 0.010913 -0.002776 -0.003338 0.002485 -0.002111 0.001041
# 2 -0.002776 0.028930 -0.002701 0.016873 0.003714 -0.006037
# 3 -0.003338 -0.002701 0.006797 -0.003334 -0.000487 0.000153
# 4 0.002485 0.016873 -0.003334 0.051851 -0.010776 -0.011008
# 5 -0.002111 0.003714 -0.000487 -0.010776 0.033815 0.004753
# 6 0.001041 -0.006037 0.000153 -0.011008 0.004753 0.043172
#
#
# Mechanical properties :
#
#
# Convention : Reuss Voigt Hill
#
# Bulk Modulus (GPa) = 34.47145 63.29684 48.88414
# Shear Modulus (GPa) = 24.65740 34.48928 29.57334
#
# Velocity S-wave (km/s) = 3.28407 3.88402 3.59658
# Velocity P-wave (km/s) = 5.42752 6.91376 6.21523
#
# Compressibility (1/GPa) = 0.02900952
#
# Stress axis : x y z
#
# Youngs Moduli (GPa) = 91.63413 34.56645 147.11571
#
# Poissons Ratio (x) = 0.09595 0.49108
# Poissons Ratio (y) = 0.25436 0.39742
# Poissons Ratio (z) = 0.30588 0.09338
#
# Static dielectric constant tensor:
#      x y z
#    x 1.908980 -0.014480 -0.008660 
#    y -0.014480 1.865970 0.041870 
#    z -0.008660 0.041870 1.935200 
# 
# From -- ./inp_files/281423.got.cif
#   From: 2010.05.17/outbox.cif.g08.bks.cpg/sg2_141_cif.got.tgz:281423.got - 2010.06.03 11:33:40.
