data_PCOD9080158
_publ_section_title
;
Structure prediction by ZEFSAII (Michael W. Deem and Ramdas Pophale) SiO2 
 PCOD9080158
Probable space group: P -1
;
_chemical_formula_sum "Si O2"
_cell_formula_units_Z 16
_cell_length_a 11.986289
_cell_length_b 16.140866
_cell_length_c 9.548520
_cell_angle_alpha 124.606435
_cell_angle_beta 72.264934
_cell_angle_gamma 59.700344
_cell_volume 728.582948
_symmetry_space_group_name_H-M "P -1"
_symmetry_group_IT_number 2
_symmetry_cell_setting 'triclinic'
loop_
_space_group_symop_operation_xyz
x,y,z
-x,-y,-z
loop_
_atom_site_type_symbol
_atom_site_label
_atom_site_fract_x
_atom_site_fract_y
_atom_site_fract_z
Si Si1 0.902455 0.344356 0.199264
Si Si2 0.900803 0.323301 0.643390
Si Si3 0.905620 0.174842 0.261314
Si Si4 0.590599 0.971821 0.788298
Si Si5 0.734420 0.606213 0.762821
Si Si6 0.621549 0.753395 0.413875
Si Si7 0.412713 0.448976 0.746545
Si Si8 0.082120 0.395101 0.087398
O O1 0.964742 0.210243 0.151582
O O2 0.782469 0.516705 0.510959
O O3 0.734657 0.432188 0.225245
O O4 0.107579 0.256725 0.966518
O O5 0.987663 0.163074 0.365157
O O6 0.739217 0.509169 0.777764
O O7 0.131407 0.215254 0.493086
O O8 0.752521 0.409072 0.920267
O O9 0.631111 0.359929 0.567869
O O10 0.000000 0.000000 0.000000
O O11 0.513869 0.936486 0.685463
O O12 0.500000 0.000000 0.000000
O O13 0.476474 0.160355 0.960083
O O14 0.921421 0.539992 0.705293
O O15 0.507789 0.727965 0.442354
O O16 0.847989 0.575832 0.258825
O O17 0.714885 0.705946 0.177975
#
# Coordination Sequence:
#
# PCOD9080158 Si02
#       8
#     2   2   2   2   2   2   2   2
#     4  10  23  39  70  95 136 176 229 281 352 398
#     4  11  25  49  68  99 142 181 227 285 347 409
#     4  11  27  45  71  98 131 183 242 286 334 400
#     4  12  25  37  67 106 143 177 227 282 342 411
#     4  11  23  38  66 100 137 178 224 269 349 413
#     4  10  20  37  66 100 140 171 220 276 345 403
#     4  11  22  47  72  93 143 185 224 280 349 402
#     4  10  18  38  64  97 135 177 213 276 348 410
#
# _framework density 21.960435
#
# number of rings (size 3 to 8) (size 9 to 14) (size 15 to 20)
#    0.000    1.250    2.500    4.125    7.000    0.500 
#    4.500    0.625    0.000    0.000    0.000    0.000 
#    0.000    0.000    0.000    0.000    0.000    0.000 
#
# Total GULP energy -89318.129219 kJ/mol
# GULP energy per Si atom -5582.383076 kJ/mol
# Density = 2.191045 g / cm^3
# Si number density = 21.960435 Si / 1000 Ang^3
#
#
#
# Elastic Constant Matrix: (Units=GPa)
#
#
# Indices 1 2 3 4 5 6 
#
# 1 84.2832 19.6556 2.0727 -0.3771 16.5666 2.2135
# 2 19.6556 96.4658 44.2716 -8.4782 6.5815 -6.0407
# 3 2.0727 44.2716 54.7252 -1.1002 17.8215 0.7015
# 4 -0.3771 -8.4782 -1.1002 36.4859 -0.4468 10.1187
# 5 16.5666 6.5815 17.8215 -0.4468 43.6511 8.3549
# 6 2.2135 -6.0407 0.7015 10.1187 8.3549 25.2036
#
#
#
# Elastic Compliance Matrix: (Units=1/GPa)
#
#
# Indices 1 2 3 4 5 6 
#
# 1 0.014347 -0.005293 0.006042 -0.001007 -0.007138 0.000074
# 2 -0.005293 0.019478 -0.017394 0.003363 0.005757 0.002359
# 3 0.006042 -0.017394 0.036883 -0.003181 -0.014852 0.000474
# 4 -0.001007 0.003363 -0.003181 0.031764 0.004006 -0.013098
# 5 -0.007138 0.005757 -0.014852 0.004006 0.032779 -0.010054
# 6 0.000074 0.002359 0.000474 -0.013098 -0.010054 0.048814
#
#
# Mechanical properties :
#
#
# Convention : Reuss Voigt Hill
#
# Bulk Modulus (GPa) = 26.72572 40.83045 33.77808
# Shear Modulus (GPa) = 21.75531 32.36642 27.06087
#
# Velocity S-wave (km/s) = 3.15089 3.84324 3.51416
# Velocity P-wave (km/s) = 5.04320 6.19089 5.64628
#
# Compressibility (1/GPa) = 0.03741714
#
# Stress axis : x y z
#
# Youngs Moduli (GPa) = 69.69986 51.33897 27.11308
#
# Poissons Ratio (x) = 0.27175 -0.16382
# Poissons Ratio (y) = 0.36893 0.47162
# Poissons Ratio (z) = -0.42113 0.89301
#
# Static dielectric constant tensor:
#      x y z
#    x 1.792850 0.018920 0.031680 
#    y 0.018920 1.851750 0.003930 
#    z 0.031680 0.003930 1.877450 
# 
# From -- ./inp_files/274072.got.cif
#   From: 2010.05.17/outbox.cif.g08.bks.cpg/sg2_138_cif.got.tgz:274072.got - 2010.06.03 11:33:40.
