data_PCOD9080898
_publ_section_title
;
Structure prediction by ZEFSAII (Michael W. Deem and Ramdas Pophale) SiO2 
 PCOD9080898
Probable space group: P -1
;
_chemical_formula_sum "Si O2"
_cell_formula_units_Z 16
_cell_length_a 23.812091
_cell_length_b 16.763448
_cell_length_c 15.401163
_cell_angle_alpha 30.218671
_cell_angle_beta 160.670634
_cell_angle_gamma 158.319766
_cell_volume 747.630455
_symmetry_space_group_name_H-M "P -1"
_symmetry_group_IT_number 2
_symmetry_cell_setting 'triclinic'
loop_
_space_group_symop_operation_xyz
x,y,z
-x,-y,-z
loop_
_atom_site_type_symbol
_atom_site_label
_atom_site_fract_x
_atom_site_fract_y
_atom_site_fract_z
Si Si1 0.876249 0.852479 0.043172
Si Si2 0.746109 0.105840 0.222150
Si Si3 0.034939 0.417922 0.211739
Si Si4 0.067104 0.032056 0.789010
Si Si5 0.381096 0.391841 0.773492
Si Si6 0.324165 0.873573 0.279802
Si Si7 0.057424 0.633523 0.568510
Si Si8 0.612766 0.209679 0.242742
O O1 0.940573 0.979639 0.107060
O O2 0.975924 0.740019 0.301765
O O3 0.598949 0.648988 0.837429
O O4 0.000000 0.000000 0.000000
O O5 0.916106 0.301287 0.355399
O O6 0.797600 0.215248 0.101862
O O7 0.832218 0.977055 0.469769
O O8 0.500000 0.000000 0.000000
O O9 0.171774 0.342765 0.464481
O O10 0.190173 0.622864 0.311363
O O11 0.000000 0.500000 0.000000
O O12 0.272482 0.277264 0.817795
O O13 0.139345 0.901869 0.987074
O O14 0.467448 0.278515 0.972037
O O15 0.500000 0.000000 0.500000
O O16 0.468805 0.987649 0.293966
O O17 0.298656 0.747066 0.766953
O O18 0.853120 0.380836 0.487765
#
# Coordination Sequence:
#
# PCOD9080898 Si02
#       8
#     2   2   2   2   2   2   2   2
#     4  10  19  29  56  90 121 149 188 251 301 343
#     4  10  22  42  62  80 116 171 197 237 299 370
#     4  11  25  41  62  89 121 152 207 253 298 350
#     4   9  20  39  57  84 114 157 206 236 289 367
#     4   9  19  39  56  80 115 163 193 235 297 363
#     4  11  22  37  65  91 121 153 198 255 303 338
#     4   9  19  35  57  86 122 151 202 233 297 364
#     4   9  19  36  60  89 115 155 196 245 289 360
#
# _framework density 21.400946000000001
#
# number of rings (size 3 to 8) (size 9 to 14) (size 15 to 20)
#    0.000    2.250    0.000    1.875    5.250    5.000 
#    4.500    2.500    0.000    0.000    0.000    0.000 
#    0.000    0.000    0.000    0.000    0.000    0.000 
#
# Total GULP energy -89188.632144 kJ/mol
# GULP energy per Si atom -5574.289509 kJ/mol
# Density = 2.135224 g / cm^3
# Si number density = 21.400946 Si / 1000 Ang^3
#
#
#
# Elastic Constant Matrix: (Units=GPa)
#
#
# Indices 1 2 3 4 5 6 
#
# 1 82.6492 17.2577 42.3753 -7.3090 15.8206 32.3683
# 2 17.2577 63.0670 24.9785 4.5001 10.5303 31.5439
# 3 42.3753 24.9785 94.7850 -1.1865 22.4069 24.9838
# 4 -7.3090 4.5001 -1.1865 14.1059 9.0276 -3.9149
# 5 15.8206 10.5303 22.4069 9.0276 43.0214 0.0768
# 6 32.3683 31.5439 24.9838 -3.9149 0.0768 43.8883
#
#
#
# Elastic Compliance Matrix: (Units=1/GPa)
#
#
# Indices 1 2 3 4 5 6 
#
# 1 0.022785 0.004578 -0.004706 0.011431 -0.009418 -0.016380
# 2 0.004578 0.029095 -0.002255 -0.010256 -0.005436 -0.023909
# 3 -0.004706 -0.002255 0.015780 0.002766 -0.006510 -0.003633
# 4 0.011431 -0.010256 0.002766 0.097049 -0.023510 0.006064
# 5 -0.009418 -0.005436 -0.006510 -0.023510 0.036340 0.012398
# 6 -0.016380 -0.023909 -0.003633 0.006064 0.012398 0.054637
#
#
# Mechanical properties :
#
#
# Convention : Reuss Voigt Hill
#
# Bulk Modulus (GPa) = 15.90012 45.52491 30.71251
# Shear Modulus (GPa) = 17.76743 30.59576 24.18160
#
# Velocity S-wave (km/s) = 2.88447 3.78517 3.36509
# Velocity P-wave (km/s) = 4.30574 6.35782 5.42961
#
# Compressibility (1/GPa) = 0.06289261
#
# Stress axis : x y z
#
# Youngs Moduli (GPa) = 43.88947 34.37068 63.37331
#
# Poissons Ratio (x) = -0.15736 0.29823
# Poissons Ratio (y) = -0.20094 0.14293
# Poissons Ratio (z) = 0.20654 0.07752
#
# Static dielectric constant tensor:
#      x y z
#    x 1.816360 -0.007680 -0.000010 
#    y -0.007680 1.805400 0.053790 
#    z -0.000010 0.053790 1.812570 
# 
# From -- ./inp_files/332018.got.cif
#   From: 2010.05.17/outbox.cif.g08.bks.cpg/sg2_167_cif.got.tgz:332018.got - 2010.06.03 11:33:40.
