data_PCOD9080196
_publ_section_title
;
Structure prediction by ZEFSAII (Michael W. Deem and Ramdas Pophale) SiO2 
 PCOD9080196
Probable space group: P -1
;
_chemical_formula_sum "Si O2"
_cell_formula_units_Z 11
_cell_length_a 17.825064
_cell_length_b 5.082972
_cell_length_c 9.166589
_cell_angle_alpha 84.593379
_cell_angle_beta 29.270681
_cell_angle_gamma 91.346004
_cell_volume 394.627268
_symmetry_space_group_name_H-M "P -1"
_symmetry_group_IT_number 2
_symmetry_cell_setting 'triclinic'
loop_
_space_group_symop_operation_xyz
x,y,z
-x,-y,-z
loop_
_atom_site_type_symbol
_atom_site_label
_atom_site_fract_x
_atom_site_fract_y
_atom_site_fract_z
Si Si1 0.623649 0.663437 0.396667
Si Si2 0.343610 0.286894 0.358605
Si Si3 0.932934 0.490977 0.905956
Si Si4 0.255237 0.809857 0.338563
Si Si5 0.000000 0.000000 0.000000
Si Si6 0.855437 0.130041 0.792242
O O1 0.500000 0.500000 0.500000
O O2 0.547742 0.697963 0.682251
O O3 0.752571 0.492140 0.234843
O O4 0.729844 0.918748 0.115557
O O5 0.322174 0.571754 0.313590
O O6 0.189168 0.101270 0.702177
O O7 0.352496 0.095578 0.214360
O O8 0.927362 0.387540 0.755982
O O9 0.062722 0.769761 0.711024
O O10 0.002758 0.277761 0.886036
O O11 0.232883 0.800732 0.204558
O O12 0.000000 0.000000 0.500000
#
# Coordination Sequence:
#
# PCOD9080196 Si02
#       6
#     2   2   2   2   1   2
#     4  12  28  47  72 105 153 200 243 294 371 457
#     4  11  23  44  67 109 141 193 243 306 364 436
#     4  11  23  42  75 107 149 183 249 306 375 421
#     4  11  24  41  76 108 145 179 250 317 370 417
#     4  10  18  38  66 106 132 174 238 312 344 402
#     4  12  24  46  71 112 143 191 246 310 373 430
#
# _framework density 27.874406
#
# number of rings (size 3 to 8) (size 9 to 14) (size 15 to 20)
#    0.000    0.727    3.636    4.909    2.545    3.636 
#    0.000    1.818    0.000    0.000    0.000    0.000 
#    0.000    0.000    0.000    0.000    0.000    0.000 
#
# Total GULP energy -61411.189229 kJ/mol
# GULP energy per Si atom -5582.835384 kJ/mol
# Density = 2.781096 g / cm^3
# Si number density = 27.874406 Si / 1000 Ang^3
#
#
#
# Elastic Constant Matrix: (Units=GPa)
#
#
# Indices 1 2 3 4 5 6 
#
# 1 263.9265 63.6014 50.4612 -13.1417 12.6141 31.4869
# 2 63.6014 131.5738 16.1966 -16.7653 -19.1728 17.5911
# 3 50.4612 16.1966 103.0299 -23.8779 -12.2102 5.4210
# 4 -13.1417 -16.7653 -23.8779 40.8785 -10.4229 5.3540
# 5 12.6141 -19.1728 -12.2102 -10.4229 64.0051 -1.3194
# 6 31.4869 17.5911 5.4210 5.3540 -1.3194 55.5759
#
#
#
# Elastic Compliance Matrix: (Units=1/GPa)
#
#
# Indices 1 2 3 4 5 6 
#
# 1 0.005158 -0.002453 -0.002640 -0.001289 -0.002503 -0.001823
# 2 -0.002453 0.010390 0.001668 0.006012 0.004841 -0.002526
# 3 -0.002640 0.001668 0.013522 0.009173 0.005070 -0.001115
# 4 -0.001289 0.006012 0.009173 0.034948 0.009389 -0.005211
# 5 -0.002503 0.004841 0.005070 0.009389 0.020042 -0.001038
# 6 -0.001823 -0.002526 -0.001115 -0.005211 -0.001038 0.020412
#
#
# Mechanical properties :
#
#
# Convention : Reuss Voigt Hill
#
# Bulk Modulus (GPa) = 45.00533 84.33874 64.67204
# Shear Modulus (GPa) = 42.11271 56.64331 49.37801
#
# Velocity S-wave (km/s) = 3.89112 4.51276 4.21342
# Velocity P-wave (km/s) = 6.03064 7.58128 6.84997
#
# Compressibility (1/GPa) = 0.02221959
#
# Stress axis : x y z
#
# Youngs Moduli (GPa) = 193.87894 96.24535 73.95341
#
# Poissons Ratio (x) = 0.23614 0.19523
# Poissons Ratio (y) = 0.47568 -0.12337
# Poissons Ratio (z) = 0.51183 -0.16056
#
# Static dielectric constant tensor:
#      x y z
#    x 2.111980 0.125610 0.003880 
#    y 0.125610 2.944560 0.105590 
#    z 0.003880 0.105590 2.226160 
# 
# From -- ./inp_files/32487.got.cif
#   From: 2010.05.17/outbox.cif.g08.bks.cpg/sg2_17_cif.got.tgz:32487.got - 2010.06.03 11:33:40.
