data_PCOD9080227
_publ_section_title
;
Structure prediction by ZEFSAII (Michael W. Deem and Ramdas Pophale) SiO2 
 PCOD9080227
Probable space group: P -1
;
_chemical_formula_sum "Si O2"
_cell_formula_units_Z 14
_cell_length_a 10.885782
_cell_length_b 8.737032
_cell_length_c 16.884127
_cell_angle_alpha 37.780067
_cell_angle_beta 49.398742
_cell_angle_gamma 74.438382
_cell_volume 633.848860
_symmetry_space_group_name_H-M "P -1"
_symmetry_group_IT_number 2
_symmetry_cell_setting 'triclinic'
loop_
_space_group_symop_operation_xyz
x,y,z
-x,-y,-z
loop_
_atom_site_type_symbol
_atom_site_label
_atom_site_fract_x
_atom_site_fract_y
_atom_site_fract_z
Si Si1 0.790288 0.254648 0.345699
Si Si2 0.206631 0.138676 0.634705
Si Si3 0.152917 0.398096 0.963740
Si Si4 0.467137 0.738585 0.959262
Si Si5 0.178428 0.666755 0.415075
Si Si6 0.582461 0.073917 0.261465
Si Si7 0.950231 0.666776 0.660937
O O1 0.781740 0.495573 0.196582
O O2 0.986429 0.378947 0.259997
O O3 0.759218 0.000967 0.400915
O O4 0.624965 0.113894 0.536555
O O5 0.273810 0.472538 0.458403
O O6 0.304127 0.073761 0.693238
O O7 0.977706 0.946341 0.825268
O O8 0.317516 0.600991 0.873024
O O9 0.000000 0.500000 0.000000
O O10 0.426554 0.897637 0.839268
O O11 0.661753 0.997391 0.810287
O O12 0.500000 0.500000 0.000000
O O13 0.274801 0.559406 0.164207
O O14 0.000000 0.500000 0.500000
O O15 0.082229 0.650704 0.546134
O O16 0.000000 0.000000 0.500000
#
# Coordination Sequence:
#
# PCOD9080227 Si02
#       7
#     2   2   2   2   2   2   2
#     4  10  18  38  66  97 129 177 226 263 322 405
#     4  10  21  39  63  99 141 168 214 287 331 386
#     4   8  16  31  58  91 125 170 209 259 318 388
#     4  12  25  45  73  97 129 182 227 272 327 405
#     4  12  28  46  66 101 139 173 218 285 343 385
#     4  10  19  38  67 100 129 176 229 264 326 400
#     4  12  23  45  69  95 128 179 231 268 324 413
#
# _framework density 22.087285000000001
#
# number of rings (size 3 to 8) (size 9 to 14) (size 15 to 20)
#    0.000    1.714    2.857    5.143    2.000    1.143 
#    5.143    1.429    0.000    0.000    0.000    0.000 
#    0.000    0.000    0.000    0.000    0.000    0.000 
#
# Total GULP energy -78208.254961 kJ/mol
# GULP energy per Si atom -5586.303926 kJ/mol
# Density = 2.203701 g / cm^3
# Si number density = 22.087285 Si / 1000 Ang^3
#
#
#
# Elastic Constant Matrix: (Units=GPa)
#
#
# Indices 1 2 3 4 5 6 
#
# 1 84.1017 8.9536 9.0430 -16.0542 -10.7890 14.6636
# 2 8.9536 25.3020 11.6010 -6.8253 2.8603 0.0194
# 3 9.0430 11.6010 137.2341 -7.3235 -27.6368 -1.0984
# 4 -16.0542 -6.8253 -7.3235 39.1920 0.1738 1.9433
# 5 -10.7890 2.8603 -27.6368 0.1738 36.0159 -2.4088
# 6 14.6636 0.0194 -1.0984 1.9433 -2.4088 28.3170
#
#
#
# Elastic Compliance Matrix: (Units=1/GPa)
#
#
# Indices 1 2 3 4 5 6 
#
# 1 0.015499 -0.004699 0.000627 0.006022 0.004934 -0.007992
# 2 -0.004699 0.045898 -0.005082 0.005104 -0.008904 0.001097
# 3 0.000627 -0.005082 0.009299 0.001044 0.007764 0.000628
# 4 0.006022 0.005104 0.001044 0.029304 0.001728 -0.004945
# 5 0.004934 -0.008904 0.007764 0.001728 0.035946 0.000692
# 6 -0.007992 0.001097 0.000628 -0.004945 0.000692 0.039875
#
#
# Mechanical properties :
#
#
# Convention : Reuss Voigt Hill
#
# Bulk Modulus (GPa) = 19.08850 33.98145 26.53497
# Shear Modulus (GPa) = 23.63020 35.17434 29.40227
#
# Velocity S-wave (km/s) = 3.27441 3.99496 3.65250
# Velocity P-wave (km/s) = 4.79132 6.05790 5.46145
#
# Compressibility (1/GPa) = 0.05238758
#
# Stress axis : x y z
#
# Youngs Moduli (GPa) = 64.51954 21.78734 107.53279
#
# Poissons Ratio (x) = 0.10238 -0.06741
# Poissons Ratio (y) = 0.30319 0.54651
# Poissons Ratio (z) = -0.04045 0.11073
#
# Static dielectric constant tensor:
#      x y z
#    x 1.881100 0.019230 -0.007520 
#    y 0.019230 1.806500 -0.011900 
#    z -0.007520 -0.011900 1.881150 
# 
# From -- ./inp_files/565683.got.cif
#   From: 2010.05.17/outbox.cif.g08.bks.cpg/sg2_283_cif.got.tgz:565683.got - 2010.06.03 11:33:40.
