data_PCOD9080637
_publ_section_title
;
Structure prediction by ZEFSAII (Michael W. Deem and Ramdas Pophale) SiO2 
 PCOD9080637
Probable space group: P -1
;
_chemical_formula_sum "Si O2"
_cell_formula_units_Z 16
_cell_length_a 15.532114
_cell_length_b 12.318675
_cell_length_c 7.999791
_cell_angle_alpha 131.869058
_cell_angle_beta 42.832082
_cell_angle_gamma 143.623861
_cell_volume 605.815682
_symmetry_space_group_name_H-M "P -1"
_symmetry_group_IT_number 2
_symmetry_cell_setting 'triclinic'
loop_
_space_group_symop_operation_xyz
x,y,z
-x,-y,-z
loop_
_atom_site_type_symbol
_atom_site_label
_atom_site_fract_x
_atom_site_fract_y
_atom_site_fract_z
Si Si1 0.755366 0.898329 0.813557
Si Si2 0.543688 0.348735 0.179993
Si Si3 0.025044 0.302659 0.923012
Si Si4 0.630209 0.849343 0.284570
Si Si5 0.318205 0.487125 0.490598
Si Si6 0.665486 0.127624 0.786821
Si Si7 0.024482 0.442398 0.588705
Si Si8 0.790968 0.673607 0.973782
O O1 0.643694 0.830571 0.739984
O O2 0.740050 0.715860 0.682647
O O3 0.662607 0.910191 0.109535
O O4 0.923892 0.098792 0.777907
O O5 0.587996 0.444344 0.393348
O O6 0.650906 0.285640 0.919565
O O7 0.605154 0.498394 0.100820
O O8 0.154957 0.446211 0.746756
O O9 0.928476 0.377900 0.191303
O O10 0.110313 0.291962 0.958218
O O11 0.447434 0.658270 0.366164
O O12 0.649922 0.000793 0.531548
O O13 0.767766 0.826497 0.115662
O O14 0.852359 0.257775 0.714440
O O15 0.500000 0.000000 0.000000
O O16 0.000000 0.500000 0.500000
O O17 0.136718 0.383098 0.327529
#
# Coordination Sequence:
#
# PCOD9080637 Si02
#       8
#     2   2   2   2   2   2   2   2
#     4  12  26  40  68 106 140 171 229 288 338 392
#     4  11  23  44  73  93 132 193 227 265 340 422
#     4  10  22  41  68 100 133 182 226 275 336 409
#     4  12  25  42  70 107 138 169 233 290 332 388
#     4  11  22  45  68  95 137 181 225 273 342 407
#     4  12  23  42  72 104 131 176 233 279 328 408
#     4  10  18  40  67  96 133 176 226 271 332 406
#     4  10  22  41  73  94 135 185 223 268 342 409
#
# _framework density 26.410672000000002
#
# number of rings (size 3 to 8) (size 9 to 14) (size 15 to 20)
#    0.000    1.000    6.250    2.625    1.750    2.500 
#    0.000    1.250    0.000    2.250    0.000    0.000 
#    0.000    0.000    0.000    0.000    0.000    0.000 
#
# Total GULP energy -89442.864414 kJ/mol
# GULP energy per Si atom -5590.179026 kJ/mol
# Density = 2.635056 g / cm^3
# Si number density = 26.410672 Si / 1000 Ang^3
#
#
#
# Elastic Constant Matrix: (Units=GPa)
#
#
# Indices 1 2 3 4 5 6 
#
# 1 54.9224 13.5837 10.9748 9.6458 -0.8552 12.3091
# 2 13.5837 149.2483 39.1462 8.3475 3.4281 23.8132
# 3 10.9748 39.1462 184.2402 26.8646 -13.0449 4.7943
# 4 9.6458 8.3475 26.8646 54.0171 0.1161 6.4077
# 5 -0.8552 3.4281 -13.0449 0.1161 34.1774 -0.9363
# 6 12.3091 23.8132 4.7943 6.4077 -0.9363 29.1359
#
#
#
# Elastic Compliance Matrix: (Units=1/GPa)
#
#
# Indices 1 2 3 4 5 6 
#
# 1 0.020579 -0.000344 -0.000591 -0.002405 0.000119 -0.007783
# 2 -0.000344 0.008231 -0.001741 0.000423 -0.001677 -0.006442
# 3 -0.000591 -0.001741 0.006421 -0.002986 0.002658 0.001358
# 4 -0.002405 0.000423 -0.002986 0.020774 -0.001407 -0.003453
# 5 0.000119 -0.001677 0.002658 -0.001407 0.030509 0.002173
# 6 -0.007783 -0.006442 0.001358 -0.003453 0.002173 0.043481
#
#
# Mechanical properties :
#
#
# Convention : Reuss Voigt Hill
#
# Bulk Modulus (GPa) = 33.46957 57.31339 45.39148
# Shear Modulus (GPa) = 34.40964 45.11314 39.76139
#
# Velocity S-wave (km/s) = 3.61344 4.13745 3.88429
# Velocity P-wave (km/s) = 5.48722 6.67627 6.11073
#
# Compressibility (1/GPa) = 0.02987789
#
# Stress axis : x y z
#
# Youngs Moduli (GPa) = 48.59266 121.49185 155.73767
#
# Poissons Ratio (x) = 0.04185 0.09206
# Poissons Ratio (y) = 0.01674 0.27116
# Poissons Ratio (z) = 0.02872 0.21154
#
# Static dielectric constant tensor:
#      x y z
#    x 2.261550 0.014340 -0.020380 
#    y 0.014340 2.060360 -0.014420 
#    z -0.020380 -0.014420 2.011940 
# 
# From -- ./inp_files/335798.got.cif
#   From: 2010.05.17/outbox.cif.g08.bks.cpg/sg2_168_cif.got.tgz:335798.got - 2010.06.03 11:33:40.
