data_PCOD9080297
_publ_section_title
;
Structure prediction by ZEFSAII (Michael W. Deem and Ramdas Pophale) SiO2 
 PCOD9080297
Probable space group: P -1
;
_chemical_formula_sum "Si O2"
_cell_formula_units_Z 16
_cell_length_a 9.479844
_cell_length_b 12.206480
_cell_length_c 14.104180
_cell_angle_alpha 58.274551
_cell_angle_beta 76.784470
_cell_angle_gamma 36.931752
_cell_volume 773.205618
_symmetry_space_group_name_H-M "P -1"
_symmetry_group_IT_number 2
_symmetry_cell_setting 'triclinic'
loop_
_space_group_symop_operation_xyz
x,y,z
-x,-y,-z
loop_
_atom_site_type_symbol
_atom_site_label
_atom_site_fract_x
_atom_site_fract_y
_atom_site_fract_z
Si Si1 0.449277 0.961919 0.301161
Si Si2 0.989775 0.388598 0.814430
Si Si3 0.216172 0.914894 0.623780
Si Si4 0.564419 0.758781 0.175118
Si Si5 0.933650 0.251082 0.352577
Si Si6 0.198704 0.967378 0.967241
Si Si7 0.506354 0.225219 0.167829
Si Si8 0.348457 0.238669 0.450482
O O1 0.471901 0.097284 0.219190
O O2 0.184433 0.123996 0.320649
O O3 0.471878 0.870305 0.241717
O O4 0.666514 0.765390 0.433179
O O5 0.233720 0.279723 0.871373
O O6 0.760945 0.535182 0.856520
O O7 0.892570 0.557546 0.670415
O O8 0.062462 0.197461 0.848415
O O9 0.150358 0.815351 0.660656
O O10 0.278526 0.903396 0.727606
O O11 0.473036 0.769342 0.596314
O O12 0.007253 0.152179 0.492834
O O13 0.717154 0.514389 0.267394
O O14 0.337743 0.905205 0.070587
O O15 0.406983 0.778512 0.942636
O O16 0.000000 0.000000 0.000000
O O17 0.500000 0.000000 0.500000
#
# Coordination Sequence:
#
# PCOD9080297 Si02
#       8
#     2   2   2   2   2   2   2   2
#     4  11  22  40  70 106 134 172 212 274 335 413
#     4  11  23  44  72  97 134 172 220 277 328 396
#     4   9  20  39  68 100 137 169 222 263 340 409
#     4  12  26  43  66  97 135 175 231 270 332 383
#     4  10  22  42  65 100 140 176 207 281 332 402
#     4  12  31  48  62  95 137 178 235 284 317 391
#     4  11  23  44  74  96 130 177 225 270 340 392
#     4  10  18  38  70 107 135 164 217 265 336 407
#
# _framework density 20.693072000000001
#
# number of rings (size 3 to 8) (size 9 to 14) (size 15 to 20)
#    0.000    1.250    5.000    1.125    5.250    3.500 
#    0.000    5.625    0.000    0.000    0.000    0.000 
#    0.000    0.000    0.000    0.000    0.000    0.000 
#
# Total GULP energy -89405.777002 kJ/mol
# GULP energy per Si atom -5587.861063 kJ/mol
# Density = 2.064597 g / cm^3
# Si number density = 20.693072 Si / 1000 Ang^3
#
#
#
# Elastic Constant Matrix: (Units=GPa)
#
#
# Indices 1 2 3 4 5 6 
#
# 1 120.7591 5.5821 22.9409 0.3426 11.8042 -4.0555
# 2 5.5821 67.9567 16.9816 10.8294 16.2773 9.1535
# 3 22.9409 16.9816 38.0167 3.6070 30.4023 11.9744
# 4 0.3426 10.8294 3.6070 38.9157 10.0363 -1.6228
# 5 11.8042 16.2773 30.4023 10.0363 29.1319 0.4289
# 6 -4.0555 9.1535 11.9744 -1.6228 0.4289 23.1275
#
#
#
# Elastic Compliance Matrix: (Units=1/GPa)
#
#
# Indices 1 2 3 4 5 6 
#
# 1 0.003052 0.003323 0.053598 0.008875 -0.061692 -0.026764
# 2 0.003323 0.016174 -0.033397 -0.007981 0.027065 0.010411
# 3 0.053598 -0.033397 -0.507000 -0.074171 0.547634 0.269759
# 4 0.008875 -0.007981 -0.074171 0.018096 0.071400 0.043063
# 5 -0.061692 0.027065 0.547634 0.071400 -0.547644 -0.289905
# 6 -0.026764 0.010411 0.269759 0.043063 -0.289905 -0.096846
#
#
# Mechanical properties :
#
#
# Convention : Reuss Voigt Hill
#
# Bulk Modulus (GPa) = -2.26899 35.30462 16.51782
# Shear Modulus (GPa) = -3.82226 30.31688 13.24731
#
# Velocity S-wave (km/s) = -1.36056 3.83178 2.53292
# Velocity P-wave (km/s) = 1.88866 6.05598 4.06865
#
# Compressibility (1/GPa) = -0.44072484
#
# Stress axis : x y z
#
# Youngs Moduli (GPa) = 327.69511 61.82604 -1.97239
#
# Poissons Ratio (x) = -0.20547 0.10572
# Poissons Ratio (y) = -1.08907 -0.06587
# Poissons Ratio (z) = -17.56384 2.06479
#
# Static dielectric constant tensor:
#      x y z
#    x 1.725310 -0.016940 0.021750 
#    y -0.016940 1.750190 -0.012050 
#    z 0.021750 -0.012050 1.787380 
# 
# From -- ./inp_files/498945.got.cif
#   From: 2010.05.17/outbox.cif.g08.bks.cpg/sg2_250_cif.got.tgz:498945.got - 2010.06.03 11:33:40.
