data_PCOD9080671
_publ_section_title
;
Structure prediction by ZEFSAII (Michael W. Deem and Ramdas Pophale) SiO2 
 PCOD9080671
Probable space group: P -1
;
_chemical_formula_sum "Si O2"
_cell_formula_units_Z 16
_cell_length_a 7.783552
_cell_length_b 12.071176
_cell_length_c 16.470684
_cell_angle_alpha 41.255084
_cell_angle_beta 84.395714
_cell_angle_gamma 55.703723
_cell_volume 675.481600
_symmetry_space_group_name_H-M "P -1"
_symmetry_group_IT_number 2
_symmetry_cell_setting 'triclinic'
loop_
_space_group_symop_operation_xyz
x,y,z
-x,-y,-z
loop_
_atom_site_type_symbol
_atom_site_label
_atom_site_fract_x
_atom_site_fract_y
_atom_site_fract_z
Si Si1 0.700915 0.730841 0.904700
Si Si2 0.269039 0.591326 0.798118
Si Si3 0.188110 0.206242 0.396302
Si Si4 0.248620 0.956575 0.689893
Si Si5 0.869447 0.714911 0.196373
Si Si6 0.894415 0.388364 0.592526
Si Si7 0.477226 0.789393 0.281065
Si Si8 0.289534 0.825953 0.111424
O O1 0.524916 0.823286 0.783123
O O2 0.650763 0.951364 0.820139
O O3 0.643011 0.630792 0.029234
O O4 0.000000 0.500000 0.000000
O O5 0.270800 0.753443 0.765835
O O6 0.482230 0.440660 0.798519
O O7 0.977869 0.773370 0.675226
O O8 0.048675 0.488659 0.248613
O O9 0.500000 0.000000 0.500000
O O10 0.139936 0.146249 0.516599
O O11 0.062658 0.128533 0.680024
O O12 0.696679 0.702740 0.257396
O O13 0.057487 0.650920 0.292805
O O14 0.696567 0.987156 0.017476
O O15 0.606826 0.599993 0.454161
O O16 0.000000 0.500000 0.500000
O O17 0.308486 0.802924 0.220342
O O18 0.000000 0.000000 0.000000
#
# Coordination Sequence:
#
# PCOD9080671 Si02
#       8
#     2   2   2   2   2   2   2   2
#     4  12  25  42  69  97 130 175 225 269 323 401
#     4  12  26  44  64  99 139 172 209 279 345 381
#     4  12  25  42  69  97 130 175 225 269 323 401
#     4  12  23  42  66  93 134 168 211 276 335 380
#     4  11  20  43  71  90 124 172 227 267 317 383
#     4  10  18  40  71  89 112 169 219 260 313 379
#     4  11  20  43  71  90 124 172 227 267 317 383
#     4  12  26  41  65  98 134 173 219 273 326 387
#
# _framework density 23.686800999999999
#
# number of rings (size 3 to 8) (size 9 to 14) (size 15 to 20)
#    0.000    0.500    7.500    2.625    3.500    0.000 
#    0.000    0.625    0.000    0.000    0.000    0.000 
#    0.000    0.000    0.000    0.000    0.000    0.000 
#
# Total GULP energy -89514.168621 kJ/mol
# GULP energy per Si atom -5594.635539 kJ/mol
# Density = 2.363289 g / cm^3
# Si number density = 23.686801 Si / 1000 Ang^3
#
#
#
# Elastic Constant Matrix: (Units=GPa)
#
#
# Indices 1 2 3 4 5 6 
#
# 1 80.9500 42.2276 14.9005 -9.7382 23.3239 30.3652
# 2 42.2276 125.1739 37.9143 -28.8377 13.5542 43.7463
# 3 14.9005 37.9143 108.8397 0.9969 21.4933 20.0078
# 4 -9.7382 -28.8377 0.9969 63.9073 3.8103 4.2748
# 5 23.3239 13.5542 21.4933 3.8103 39.4441 11.4843
# 6 30.3652 43.7463 20.0078 4.2748 11.4843 40.5761
#
#
#
# Elastic Compliance Matrix: (Units=1/GPa)
#
#
# Indices 1 2 3 4 5 6 
#
# 1 0.020629 -0.000967 0.001727 0.004112 -0.009415 -0.013016
# 2 -0.000967 0.017325 -0.002831 0.008867 0.000433 -0.017616
# 3 0.001727 -0.002831 0.011455 -0.000711 -0.005570 -0.002237
# 4 0.004112 0.008867 -0.000711 0.021389 -0.003186 -0.013638
# 5 -0.009415 0.000433 -0.005570 -0.003186 0.034112 0.000006
# 6 -0.013016 -0.017616 -0.002237 -0.013638 0.000006 0.055916
#
#
# Mechanical properties :
#
#
# Convention : Reuss Voigt Hill
#
# Bulk Modulus (GPa) = 22.09103 56.11650 39.10377
# Shear Modulus (GPa) = 27.76884 43.44691 35.60788
#
# Velocity S-wave (km/s) = 3.42765 4.28743 3.88142
# Velocity P-wave (km/s) = 5.00116 6.94636 6.05242
#
# Compressibility (1/GPa) = 0.04526724
#
# Stress axis : x y z
#
# Youngs Moduli (GPa) = 48.47427 57.72031 87.29495
#
# Poissons Ratio (x) = 0.05580 -0.15073
# Poissons Ratio (y) = 0.04686 0.24716
# Poissons Ratio (z) = -0.08370 0.16343
#
# Static dielectric constant tensor:
#      x y z
#    x 1.900350 -0.138340 -0.006990 
#    y -0.138340 1.775830 0.031460 
#    z -0.006990 0.031460 1.901290 
# 
# From -- ./inp_files/559778.got.cif
#   From: 2010.05.17/outbox.cif.g08.bks.cpg/sg2_280_cif.got.tgz:559778.got - 2010.06.03 11:33:40.
