data_PCOD9080063
_publ_section_title
;
Structure prediction by ZEFSAII (Michael W. Deem and Ramdas Pophale) SiO2 
 PCOD9080063
Probable space group: P -1
;
_chemical_formula_sum "Si O2"
_cell_formula_units_Z 11
_cell_length_a 15.328614
_cell_length_b 7.962139
_cell_length_c 5.134525
_cell_angle_alpha 119.485481
_cell_angle_beta 100.734143
_cell_angle_gamma 51.553381
_cell_volume 420.579131
_symmetry_space_group_name_H-M "P -1"
_symmetry_group_IT_number 2
_symmetry_cell_setting 'triclinic'
loop_
_space_group_symop_operation_xyz
x,y,z
-x,-y,-z
loop_
_atom_site_type_symbol
_atom_site_label
_atom_site_fract_x
_atom_site_fract_y
_atom_site_fract_z
Si Si1 0.967353 0.341295 0.241064
Si Si2 0.364334 0.982984 0.565062
Si Si3 0.214776 0.879570 0.150679
Si Si4 0.500000 0.500000 0.500000
Si Si5 0.886740 0.277677 0.648283
Si Si6 0.399687 0.375879 0.893093
O O1 0.000000 0.500000 0.500000
O O2 0.880569 0.368743 0.425499
O O3 0.090592 0.067836 0.099765
O O4 0.912234 0.408874 0.977900
O O5 0.263576 0.020300 0.375095
O O6 0.392511 0.807431 0.685967
O O7 0.485333 0.796925 0.341527
O O8 0.354457 0.222068 0.804001
O O9 0.198398 0.758237 0.297883
O O10 0.313192 0.624772 0.869536
O O11 0.567526 0.540245 0.779269
O O12 0.000000 0.000000 0.500000
#
# Coordination Sequence:
#
# PCOD9080063 Si02
#       6
#     2   2   2   1   2   2
#     4  11  24  45  71 102 139 176 227 285 338 406
#     4  10  22  42  63  95 132 172 225 268 330 396
#     4  10  21  40  65  95 132 178 224 272 345 397
#     4  10  18  38  62  88 124 168 208 274 324 376
#     4  10  22  45  67  96 141 175 222 284 339 400
#     4  10  22  42  64  92 137 169 224 271 329 398
#
# _framework density 26.154413000000002
#
# number of rings (size 3 to 8) (size 9 to 14) (size 15 to 20)
#    0.000    1.818    0.000    5.455    2.545    0.000 
#   39.273    0.000    0.000    0.000    0.000    0.000 
#    0.000    0.000    0.000    0.000    0.000    0.000 
#
# Total GULP energy -61267.052307 kJ/mol
# GULP energy per Si atom -5569.732028 kJ/mol
# Density = 2.609488 g / cm^3
# Si number density = 26.154413 Si / 1000 Ang^3
#
#
#
# Elastic Constant Matrix: (Units=GPa)
#
#
# Indices 1 2 3 4 5 6 
#
# 1 132.2341 40.3859 45.8217 2.7075 44.5892 1.9729
# 2 40.3859 82.9705 39.1621 13.9571 5.7085 -11.8272
# 3 45.8217 39.1621 125.6293 14.9750 32.1233 7.0536
# 4 2.7075 13.9571 14.9750 37.7751 13.0710 15.3779
# 5 44.5892 5.7085 32.1233 13.0710 32.8362 2.7396
# 6 1.9729 -11.8272 7.0536 15.3779 2.7396 48.6329
#
#
#
# Elastic Compliance Matrix: (Units=1/GPa)
#
#
# Indices 1 2 3 4 5 6 
#
# 1 0.026381 -0.017712 0.005667 0.022903 -0.046503 -0.010822
# 2 -0.017712 0.029103 -0.010083 -0.024475 0.037356 0.014893
# 3 0.005667 -0.010083 0.014170 0.007901 -0.022453 -0.005971
# 4 0.022903 -0.024475 0.007901 0.059972 -0.056462 -0.023810
# 5 -0.046503 0.037356 -0.022453 -0.056462 0.129481 0.024787
# 6 -0.010822 0.014893 -0.005971 -0.023810 0.024787 0.031622
#
#
# Mechanical properties :
#
#
# Convention : Reuss Voigt Hill
#
# Bulk Modulus (GPa) = 39.36978 65.73036 52.55007
# Shear Modulus (GPa) = 14.55819 38.21312 26.38565
#
# Velocity S-wave (km/s) = 2.36185 3.82653 3.17967
# Velocity P-wave (km/s) = 4.74587 6.68650 5.79795
#
# Compressibility (1/GPa) = 0.02540019
#
# Stress axis : x y z
#
# Youngs Moduli (GPa) = 37.90582 34.36099 70.56959
#
# Poissons Ratio (x) = 0.60860 -0.39995
# Poissons Ratio (y) = 0.67139 0.71152
# Poissons Ratio (z) = -0.21483 0.34645
#
# Static dielectric constant tensor:
#      x y z
#    x 2.417760 0.160750 -0.211900 
#    y 0.160750 2.175340 -0.007000 
#    z -0.211900 -0.007000 2.135050 
# 
# From -- ./inp_files/88305.got.cif
#   From: 2010.05.17/outbox.cif.g08.bks.cpg/sg2_45_cif.got.tgz:88305.got - 2010.06.03 11:33:40.
