data_PCOD9080851
_publ_section_title
;
Structure prediction by ZEFSAII (Michael W. Deem and Ramdas Pophale) SiO2 
 PCOD9080851
Probable space group: P -1
;
_chemical_formula_sum "Si O2"
_cell_formula_units_Z 16
_cell_length_a 7.740490
_cell_length_b 13.919663
_cell_length_c 7.210728
_cell_angle_alpha 52.390120
_cell_angle_beta 97.207541
_cell_angle_gamma 73.042529
_cell_volume 539.433341
_symmetry_space_group_name_H-M "P -1"
_symmetry_group_IT_number 2
_symmetry_cell_setting 'triclinic'
loop_
_space_group_symop_operation_xyz
x,y,z
-x,-y,-z
loop_
_atom_site_type_symbol
_atom_site_label
_atom_site_fract_x
_atom_site_fract_y
_atom_site_fract_z
Si Si1 0.738938 0.848497 0.048639
Si Si2 0.113821 0.593221 0.416697
Si Si3 0.799187 0.103549 0.099726
Si Si4 0.556598 0.659200 0.182498
Si Si5 0.223983 0.140430 0.527685
Si Si6 0.256305 0.905251 0.338745
Si Si7 0.759497 0.593547 0.887435
Si Si8 0.211949 0.669939 0.752054
O O1 0.604237 0.775625 0.135071
O O2 0.775466 0.877558 0.228831
O O3 0.952043 0.734674 0.138823
O O4 0.644726 0.993492 0.759652
O O5 0.330345 0.478770 0.521470
O O6 0.151418 0.638442 0.573088
O O7 0.000000 0.500000 0.500000
O O8 0.721585 0.017470 0.323334
O O9 0.677585 0.261865 0.962231
O O10 0.758236 0.121419 0.850540
O O11 0.033314 0.009472 0.249160
O O12 0.676256 0.628659 0.042878
O O13 0.298076 0.255558 0.378193
O O14 0.002055 0.227267 0.318370
O O15 0.320374 0.760892 0.616659
O O16 0.692588 0.477861 0.960772
O O17 0.000000 0.500000 0.000000
#
# Coordination Sequence:
#
# PCOD9080851 Si02
#       8
#     2   2   2   2   2   2   2   2
#     4   9  17  31  51  76 101 126 159 206 257 294
#     4   8  14  25  40  63  96 121 147 196 244 273
#     4   9  17  29  47  74 102 130 165 201 244 295
#     4  10  19  29  48  80 102 120 167 216 242 282
#     4   8  15  27  46  68  97 130 157 195 245 293
#     4   9  17  31  49  70 103 137 158 195 256 306
#     4   9  17  31  49  71  97 131 168 204 244 292
#     4   8  14  27  46  66  89 128 170 192 230 299
#
# _framework density 29.660754000000001
#
# number of rings (size 3 to 8) (size 9 to 14) (size 15 to 20)
#    0.000    3.250    0.000    3.000    0.000    2.500 
#    0.000    5.625    0.000    6.750    0.000   14.875 
#    0.000    0.000    0.000    0.000    0.000    0.000 
#
# Total GULP energy -89263.663742 kJ/mol
# GULP energy per Si atom -5578.978984 kJ/mol
# Density = 2.959324 g / cm^3
# Si number density = 29.660754 Si / 1000 Ang^3
#
#
#
# Elastic Constant Matrix: (Units=GPa)
#
#
# Indices 1 2 3 4 5 6 
#
# 1 115.9269 26.0983 28.4672 -0.4633 -13.8126 -15.2216
# 2 26.0983 100.1977 55.8906 -7.4412 5.9226 -9.7977
# 3 28.4672 55.8906 259.2364 -50.4547 -23.7354 -7.8598
# 4 -0.4633 -7.4412 -50.4547 66.0664 -2.0063 12.5497
# 5 -13.8126 5.9226 -23.7354 -2.0063 55.1555 -5.4562
# 6 -15.2216 -9.7977 -7.8598 12.5497 -5.4562 33.0379
#
#
#
# Elastic Compliance Matrix: (Units=1/GPa)
#
#
# Indices 1 2 3 4 5 6 
#
# 1 0.010252 -0.002187 -0.000501 -0.001413 0.003029 0.004993
# 2 -0.002187 0.012448 -0.002911 -0.001306 -0.002987 0.001994
# 3 -0.000501 -0.002911 0.005567 0.004175 0.002644 -0.000919
# 4 -0.001413 -0.001306 0.004175 0.019588 0.001581 -0.007225
# 5 0.003029 -0.002987 0.002644 0.001581 0.020798 0.003973
# 6 0.004993 0.001994 -0.000919 -0.007225 0.003973 0.036342
#
#
# Mechanical properties :
#
#
# Convention : Reuss Voigt Hill
#
# Bulk Modulus (GPa) = 58.58073 77.36368 67.97220
# Shear Modulus (GPa) = 41.02317 55.17895 48.10106
#
# Velocity S-wave (km/s) = 3.72301 4.31784 4.03141
# Velocity P-wave (km/s) = 6.18662 7.14127 6.68102
#
# Compressibility (1/GPa) = 0.01707046
#
# Stress axis : x y z
#
# Youngs Moduli (GPa) = 97.53906 80.33312 179.63809
#
# Poissons Ratio (x) = 0.17568 0.08993
# Poissons Ratio (y) = 0.21331 0.52289
# Poissons Ratio (z) = 0.04883 0.23384
#
# Static dielectric constant tensor:
#      x y z
#    x 2.465570 0.039490 -0.064800 
#    y 0.039490 2.424960 0.017410 
#    z -0.064800 0.017410 2.373620 
# 
# From -- ./inp_files/404518.got.cif
#   From: 2010.05.17/outbox.cif.g08.bks.cpg/sg2_203_cif.got.tgz:404518.got - 2010.06.03 11:33:40.
