data_PCOD9080516
_publ_section_title
;
Structure prediction by ZEFSAII (Michael W. Deem and Ramdas Pophale) SiO2 
 PCOD9080516
Probable space group: P -1
;
_chemical_formula_sum "Si O2"
_cell_formula_units_Z 16
_cell_length_a 7.213046
_cell_length_b 15.188019
_cell_length_c 9.241045
_cell_angle_alpha 60.225956
_cell_angle_beta 108.997891
_cell_angle_gamma 132.139749
_cell_volume 651.542281
_symmetry_space_group_name_H-M "P -1"
_symmetry_group_IT_number 2
_symmetry_cell_setting 'triclinic'
loop_
_space_group_symop_operation_xyz
x,y,z
-x,-y,-z
loop_
_atom_site_type_symbol
_atom_site_label
_atom_site_fract_x
_atom_site_fract_y
_atom_site_fract_z
Si Si1 0.559560 0.398198 0.868422
Si Si2 0.818021 0.263024 0.715816
Si Si3 0.975556 0.045301 0.301444
Si Si4 0.917661 0.645318 0.564755
Si Si5 0.232497 0.725509 0.835134
Si Si6 0.304323 0.216636 0.694290
Si Si7 0.848597 0.691225 0.968545
Si Si8 0.488285 0.013039 0.161691
O O1 0.727263 0.507244 0.703905
O O2 0.356031 0.270497 0.825778
O O3 0.719696 0.372985 0.025261
O O4 0.401007 0.416118 0.922030
O O5 0.568151 0.250327 0.681313
O O6 0.746469 0.129885 0.738173
O O7 0.020036 0.370712 0.568753
O O8 0.936748 0.273220 0.891252
O O9 0.164624 0.192611 0.171490
O O10 0.903894 0.937114 0.254134
O O11 0.727509 0.031871 0.266929
O O12 0.000000 0.000000 0.500000
O O13 0.786698 0.713472 0.472796
O O14 0.181474 0.726597 0.652519
O O15 0.962073 0.674273 0.871221
O O16 0.458682 0.861609 0.856169
O O17 0.500000 0.000000 0.000000
#
# Coordination Sequence:
#
# PCOD9080516 Si02
#       8
#     2   2   2   2   2   2   2   2
#     4  12  26  43  68  97 130 180 235 258 312 405
#     4  11  23  42  71  99 130 173 217 271 333 388
#     4  10  21  38  66 102 133 160 213 276 333 393
#     4  12  28  44  63 102 137 167 232 278 307 386
#     4  11  24  45  68  95 136 173 210 282 339 370
#     4  11  23  42  69  95 131 177 216 271 330 385
#     4  11  23  43  72  96 132 174 218 266 333 397
#     4  10  18  39  70  96 126 167 219 259 328 414
#
# _framework density 24.557116000000001
#
# number of rings (size 3 to 8) (size 9 to 14) (size 15 to 20)
#    0.000    1.000    5.000    3.000    0.000    7.000 
#    0.000    0.000    0.000    0.000    0.000    0.000 
#    0.000    0.000    0.000    0.000    0.000    0.000 
#
# Total GULP energy -89374.550724 kJ/mol
# GULP energy per Si atom -5585.909420 kJ/mol
# Density = 2.450122 g / cm^3
# Si number density = 24.557116 Si / 1000 Ang^3
#
#
#
# Elastic Constant Matrix: (Units=GPa)
#
#
# Indices 1 2 3 4 5 6 
#
# 1 74.7880 -7.1520 14.4217 -13.1399 12.2579 -0.7773
# 2 -7.1520 45.3423 6.4785 15.6161 -1.4561 -1.6964
# 3 14.4217 6.4785 137.8950 0.7474 19.9794 8.6522
# 4 -13.1399 15.6161 0.7474 26.7089 -3.5876 -1.4444
# 5 12.2579 -1.4561 19.9794 -3.5876 52.0515 -2.9940
# 6 -0.7773 -1.6964 8.6522 -1.4444 -2.9940 25.1282
#
#
#
# Elastic Compliance Matrix: (Units=1/GPa)
#
#
# Indices 1 2 3 4 5 6 
#
# 1 0.015339 0.000070 -0.001346 0.007260 -0.002532 0.001058
# 2 0.000070 0.027870 -0.001358 -0.016110 0.000258 0.001456
# 3 -0.001346 -0.001358 0.008115 -0.000689 -0.003075 -0.003333
# 4 0.007260 -0.016110 -0.000689 0.050821 0.001751 0.002504
# 5 -0.002532 0.000258 -0.003075 0.001751 0.021326 0.003639
# 6 0.001058 0.001456 -0.003333 0.002504 0.003639 0.041652
#
#
# Mechanical properties :
#
#
# Convention : Reuss Voigt Hill
#
# Bulk Modulus (GPa) = 21.71325 31.72463 26.71894
# Shear Modulus (GPa) = 26.91864 37.06286 31.99075
#
# Velocity S-wave (km/s) = 3.31443 3.88912 3.61322
# Velocity P-wave (km/s) = 4.84855 5.75446 5.32082
#
# Compressibility (1/GPa) = 0.04605482
#
# Stress axis : x y z
#
# Youngs Moduli (GPa) = 65.19303 35.88026 123.22960
#
# Poissons Ratio (x) = -0.00250 0.16591
# Poissons Ratio (y) = -0.00454 0.16736
# Poissons Ratio (z) = 0.08777 0.04873
#
# Static dielectric constant tensor:
#      x y z
#    x 1.817300 -0.021060 0.130740 
#    y -0.021060 2.126680 -0.055080 
#    z 0.130740 -0.055080 1.774830 
# 
# From -- ./inp_files/212295.got.cif
#   From: 2010.05.17/outbox.cif.g08.bks.cpg/sg2_107_cif.got.tgz:212295.got - 2010.06.03 11:33:40.
