data_PCOD9080658
_publ_section_title
;
Structure prediction by ZEFSAII (Michael W. Deem and Ramdas Pophale) SiO2 
 PCOD9080658
Probable space group: P -1
;
_chemical_formula_sum "Si O2"
_cell_formula_units_Z 16
_cell_length_a 9.505836
_cell_length_b 21.262579
_cell_length_c 9.905599
_cell_angle_alpha 129.848008
_cell_angle_beta 121.899856
_cell_angle_gamma 28.789432
_cell_volume 737.284810
_symmetry_space_group_name_H-M "P -1"
_symmetry_group_IT_number 2
_symmetry_cell_setting 'triclinic'
loop_
_space_group_symop_operation_xyz
x,y,z
-x,-y,-z
loop_
_atom_site_type_symbol
_atom_site_label
_atom_site_fract_x
_atom_site_fract_y
_atom_site_fract_z
Si Si1 0.146097 0.395421 0.598278
Si Si2 0.645240 0.897007 0.059825
Si Si3 0.655315 0.420442 0.683550
Si Si4 0.700819 0.119820 0.094987
Si Si5 0.213321 0.106952 0.595795
Si Si6 0.877909 0.421674 0.225999
Si Si7 0.582062 0.588599 0.702140
Si Si8 0.807675 0.118023 0.448020
O O1 0.088920 0.514448 0.765685
O O2 0.489845 0.255731 0.547794
O O3 0.005692 0.411525 0.413953
O O4 0.936247 0.436680 0.655731
O O5 0.694078 0.938697 0.264246
O O6 0.463110 0.898099 0.039543
O O7 0.937651 0.732070 0.931625
O O8 0.500000 0.000000 0.000000
O O9 0.456663 0.464940 0.762432
O O10 0.530716 0.560752 0.775736
O O11 0.580140 0.395613 0.478589
O O12 0.994485 0.272860 0.689196
O O13 0.527724 0.273824 0.180917
O O14 0.746678 0.096061 0.247244
O O15 0.000000 0.000000 0.000000
O O16 0.989747 0.121765 0.487281
O O17 0.500000 0.000000 0.500000
O O18 0.000000 0.000000 0.500000
#
# Coordination Sequence:
#
# PCOD9080658 Si02
#       8
#     2   2   2   2   2   2   2   2
#     4  10  18  40  69  93 125 171 229 272 320 393
#     4  12  27  43  67 101 136 180 222 276 335 395
#     4  10  22  40  67  98 130 175 220 271 335 396
#     4  12  24  45  67  96 136 176 223 272 332 402
#     4  12  27  45  63 100 144 175 219 279 337 397
#     4  10  19  40  67  91 130 169 226 274 321 394
#     4  10  21  40  70  98 126 176 225 269 331 400
#     4  12  24  44  69  98 129 181 228 270 329 397
#
# _framework density 21.701246000000001
#
# number of rings (size 3 to 8) (size 9 to 14) (size 15 to 20)
#    0.000    1.000    5.000    2.250    3.500    1.500 
#    0.000    0.625    0.000    0.000    0.000    0.000 
#    0.000    0.000    0.000    0.000    0.000    0.000 
#
# Total GULP energy -89156.295702 kJ/mol
# GULP energy per Si atom -5572.268481 kJ/mol
# Density = 2.165185 g / cm^3
# Si number density = 21.701246 Si / 1000 Ang^3
#
#
#
# Elastic Constant Matrix: (Units=GPa)
#
#
# Indices 1 2 3 4 5 6 
#
# 1 79.3860 39.8571 5.4362 6.1298 -5.3955 -9.3385
# 2 39.8571 109.3764 16.6475 18.4176 -17.2577 -13.3777
# 3 5.4362 16.6475 39.1905 11.1332 -6.4779 -8.1441
# 4 6.1298 18.4176 11.1332 25.0942 -10.3044 -6.9390
# 5 -5.3955 -17.2577 -6.4779 -10.3044 22.1940 2.9366
# 6 -9.3385 -13.3777 -8.1441 -6.9390 2.9366 42.1027
#
#
#
# Elastic Compliance Matrix: (Units=1/GPa)
#
#
# Indices 1 2 3 4 5 6 
#
# 1 0.015560 -0.005670 0.000412 0.000469 -0.000532 0.001844
# 2 -0.005670 0.013468 -0.002338 -0.004571 0.006105 0.001390
# 3 0.000412 -0.002338 0.030359 -0.010083 0.002010 0.003419
# 4 0.000469 -0.004571 -0.010083 0.056823 0.019375 0.004715
# 5 -0.000532 0.006105 0.002010 0.019375 0.059088 0.001283
# 6 0.001844 0.001390 0.003419 0.004715 0.001283 0.025951
#
#
# Mechanical properties :
#
#
# Convention : Reuss Voigt Hill
#
# Bulk Modulus (GPa) = 22.62685 39.09270 30.85977
# Shear Modulus (GPa) = 21.62885 28.94567 25.28726
#
# Velocity S-wave (km/s) = 3.16042 3.65612 3.41727
# Velocity P-wave (km/s) = 4.87513 5.98966 5.46090
#
# Compressibility (1/GPa) = 0.04419529
#
# Stress axis : x y z
#
# Youngs Moduli (GPa) = 64.26834 74.25090 32.93866
#
# Poissons Ratio (x) = 0.42102 -0.01358
# Poissons Ratio (y) = 0.36442 0.07700
# Poissons Ratio (z) = -0.02649 0.17359
#
# Static dielectric constant tensor:
#      x y z
#    x 1.799920 0.037870 0.074020 
#    y 0.037870 1.760950 -0.079740 
#    z 0.074020 -0.079740 1.649480 
# 
# From -- ./inp_files/404868.got.cif
#   From: 2010.05.17/outbox.cif.g08.bks.cpg/sg2_203_cif.got.tgz:404868.got - 2010.06.03 11:33:40.
