data_PCOD9080500
_publ_section_title
;
Structure prediction by ZEFSAII (Michael W. Deem and Ramdas Pophale) SiO2 
 PCOD9080500
Probable space group: P -1
;
_chemical_formula_sum "Si O2"
_cell_formula_units_Z 16
_cell_length_a 11.628555
_cell_length_b 22.062665
_cell_length_c 10.662705
_cell_angle_alpha 19.508777
_cell_angle_beta 40.822836
_cell_angle_gamma 42.790226
_cell_volume 594.557486
_symmetry_space_group_name_H-M "P -1"
_symmetry_group_IT_number 2
_symmetry_cell_setting 'triclinic'
loop_
_space_group_symop_operation_xyz
x,y,z
-x,-y,-z
loop_
_atom_site_type_symbol
_atom_site_label
_atom_site_fract_x
_atom_site_fract_y
_atom_site_fract_z
Si Si1 0.602870 0.239083 0.785809
Si Si2 0.845248 0.851264 0.768847
Si Si3 0.202304 0.317695 0.399873
Si Si4 0.490137 0.946299 0.257532
Si Si5 0.233368 0.294672 0.123726
Si Si6 0.161906 0.705933 0.298089
Si Si7 0.379935 0.507602 0.300602
Si Si8 0.864699 0.392773 0.903732
O O1 0.770115 0.206926 0.801391
O O2 0.565778 0.420314 0.375843
O O3 0.438670 0.265031 0.969133
O O4 0.584947 0.078026 0.017989
O O5 0.734163 0.672095 0.239456
O O6 0.034090 0.804139 0.767779
O O7 0.854366 0.846172 0.620118
O O8 0.714093 0.015205 0.608696
O O9 0.385036 0.237714 0.466847
O O10 0.218934 0.286752 0.298381
O O11 0.153782 0.505523 0.147358
O O12 0.019881 0.220974 0.760408
O O13 0.500000 0.000000 0.000000
O O14 0.148658 0.497153 0.764043
O O15 0.308953 0.663449 0.153105
O O16 0.318658 0.582051 0.069522
O O17 0.000000 0.500000 0.500000
#
# Coordination Sequence:
#
# PCOD9080500 Si02
#       8
#     2   2   2   2   2   2   2   2
#     4   9  19  35  51  74 111 147 166 208 273 321
#     4   8  16  29  46  69 103 133 160 213 260 299
#     4  12  20  29  56  86 104 133 176 231 257 297
#     4  10  21  34  52  78 106 138 179 218 257 312
#     4   9  18  33  51  81 109 132 177 218 266 304
#     4  10  18  31  54  78 108 138 172 218 264 310
#     4   8  14  27  49  69  94 133 175 204 245 301
#     4  10  15  28  48  76 100 130 178 215 253 298
#
# _framework density 26.910772000000001
#
# number of rings (size 3 to 8) (size 9 to 14) (size 15 to 20)
#    0.000    3.000    3.750    4.125    0.000    2.500 
#    0.000    0.000    0.000    6.750    0.000    4.375 
#    0.000    0.000    0.000    0.000    0.000    0.000 
#
# Total GULP energy -89367.496398 kJ/mol
# GULP energy per Si atom -5585.468525 kJ/mol
# Density = 2.684952 g / cm^3
# Si number density = 26.910772 Si / 1000 Ang^3
#
#
#
# Elastic Constant Matrix: (Units=GPa)
#
#
# Indices 1 2 3 4 5 6 
#
# 1 202.7099 40.5098 23.9116 -9.1937 4.5153 -5.8217
# 2 40.5098 118.6102 28.0890 -10.6112 -0.6847 3.4753
# 3 23.9116 28.0890 50.6593 -17.2992 12.2798 -1.2357
# 4 -9.1937 -10.6112 -17.2992 27.0417 -1.6495 5.6977
# 5 4.5153 -0.6847 12.2798 -1.6495 47.7207 -6.5180
# 6 -5.8217 3.4753 -1.2357 5.6977 -6.5180 44.7022
#
#
#
# Elastic Compliance Matrix: (Units=1/GPa)
#
#
# Indices 1 2 3 4 5 6 
#
# 1 0.005455 -0.001473 -0.001744 -0.000002 0.000018 0.000780
# 2 -0.001473 0.010249 -0.005212 0.000484 0.001511 -0.000974
# 3 -0.001744 -0.005212 0.031161 0.017311 -0.007642 -0.002281
# 4 -0.000002 0.000484 0.017311 0.049366 -0.003612 -0.006378
# 5 0.000018 0.001511 -0.007642 -0.003612 0.023299 0.003531
# 6 0.000780 -0.000974 -0.002281 -0.006378 0.003531 0.023812
#
#
# Mechanical properties :
#
#
# Convention : Reuss Voigt Hill
#
# Bulk Modulus (GPa) = 33.32682 61.88890 47.60786
# Shear Modulus (GPa) = 29.37645 42.52419 35.95032
#
# Velocity S-wave (km/s) = 3.30756 3.97948 3.65897
# Velocity P-wave (km/s) = 5.19593 6.64550 5.96491
#
# Compressibility (1/GPa) = 0.03000586
#
# Stress axis : x y z
#
# Youngs Moduli (GPa) = 183.31251 97.57047 32.09136
#
# Poissons Ratio (x) = 0.14372 0.05598
# Poissons Ratio (y) = 0.27002 0.16727
# Poissons Ratio (z) = 0.31975 0.50857
#
# Static dielectric constant tensor:
#      x y z
#    x 2.107110 -0.080430 -0.029210 
#    y -0.080430 2.069030 0.100440 
#    z -0.029210 0.100440 2.291760 
# 
# From -- ./inp_files/438309.got.cif
#   From: 2010.05.17/outbox.cif.g08.bks.cpg/sg2_220_cif.got.tgz:438309.got - 2010.06.03 11:33:40.
