data_PCOD9080669
_publ_section_title
;
Structure prediction by ZEFSAII (Michael W. Deem and Ramdas Pophale) SiO2 
 PCOD9080669
Probable space group: P -1
;
_chemical_formula_sum "Si O2"
_cell_formula_units_Z 15
_cell_length_a 9.501045
_cell_length_b 12.013919
_cell_length_c 12.214306
_cell_angle_alpha 71.207150
_cell_angle_beta 131.713432
_cell_angle_gamma 69.530361
_cell_volume 593.528956
_symmetry_space_group_name_H-M "P -1"
_symmetry_group_IT_number 2
_symmetry_cell_setting 'triclinic'
loop_
_space_group_symop_operation_xyz
x,y,z
-x,-y,-z
loop_
_atom_site_type_symbol
_atom_site_label
_atom_site_fract_x
_atom_site_fract_y
_atom_site_fract_z
Si Si1 0.885897 0.515757 0.185306
Si Si2 0.397280 0.243040 0.378949
Si Si3 0.557829 0.789680 0.125783
Si Si4 0.177881 0.141416 0.153233
Si Si5 0.277295 0.114222 0.638977
Si Si6 0.106579 0.844616 0.437918
Si Si7 0.504078 0.426083 0.767961
Si Si8 0.500000 0.500000 0.000000
O O1 0.768096 0.664935 0.167194
O O2 0.586211 0.590218 0.969363
O O3 0.123978 0.445809 0.239592
O O4 0.072261 0.309375 0.401023
O O5 0.219333 0.221354 0.240410
O O6 0.609793 0.206135 0.414297
O O7 0.649896 0.061744 0.649926
O O8 0.644085 0.861368 0.215154
O O9 0.611847 0.649578 0.276040
O O10 0.192728 0.969427 0.847642
O O11 0.397557 0.073745 0.190431
O O12 0.818399 0.291271 0.906056
O O13 0.055712 0.113032 0.544789
O O14 0.255513 0.647673 0.536860
O O15 0.562955 0.414248 0.933605
#
# Coordination Sequence:
#
# PCOD9080669 Si02
#       8
#     2   2   2   2   2   2   2   1
#     4  10  21  41  72  93 132 180 211 272 339 389
#     4  10  22  41  68 101 134 168 222 272 340 392
#     4  11  24  45  68  93 138 176 223 277 320 391
#     4  10  22  43  68  95 138 175 210 277 337 397
#     4  11  24  43  67  99 131 180 228 262 331 398
#     4  12  25  43  68 102 128 176 231 270 327 396
#     4  11  23  43  69  98 135 176 214 275 339 389
#     4  10  18  40  70  94 128 168 218 258 330 396
#
# _framework density 25.272568
#
# number of rings (size 3 to 8) (size 9 to 14) (size 15 to 20)
#    0.000    1.333    5.333    0.800    0.000    2.667 
#    4.800    1.333    0.000    0.000    0.000    0.000 
#    0.000    0.000    0.000    0.000    0.000    0.000 
#
# Total GULP energy -83698.425918 kJ/mol
# GULP energy per Si atom -5579.895061 kJ/mol
# Density = 2.521505 g / cm^3
# Si number density = 25.272568 Si / 1000 Ang^3
#
#
#
# Elastic Constant Matrix: (Units=GPa)
#
#
# Indices 1 2 3 4 5 6 
#
# 1 148.2132 25.8671 40.6567 -8.9163 48.4327 -11.1223
# 2 25.8671 61.6427 20.7398 -8.4205 24.2568 -8.5807
# 3 40.6567 20.7398 83.9401 -24.3227 19.9076 -0.6099
# 4 -8.9163 -8.4205 -24.3227 31.8627 -3.4548 8.9394
# 5 48.4327 24.2568 19.9076 -3.4548 54.2653 -16.4707
# 6 -11.1223 -8.5807 -0.6099 8.9394 -16.4707 20.0507
#
#
#
# Elastic Compliance Matrix: (Units=1/GPa)
#
#
# Indices 1 2 3 4 5 6 
#
# 1 0.010218 -0.000196 -0.002889 0.000099 -0.008407 -0.001454
# 2 -0.000196 0.020635 -0.002573 0.002201 -0.007512 0.001492
# 3 -0.002889 -0.002573 0.021039 0.018420 -0.007908 -0.016772
# 4 0.000099 0.002201 0.018420 0.054230 -0.014977 -0.034924
# 5 -0.008407 -0.007512 -0.007908 -0.014977 0.041029 0.032262
# 6 -0.001454 0.001492 -0.016772 -0.034924 0.032262 0.091268
#
#
# Mechanical properties :
#
#
# Convention : Reuss Voigt Hill
#
# Bulk Modulus (GPa) = 24.64541 52.03591 38.34066
# Shear Modulus (GPa) = 18.99264 35.00456 26.99860
#
# Velocity S-wave (km/s) = 2.74435 3.72571 3.27203
# Velocity P-wave (km/s) = 4.45140 6.25639 5.42943
#
# Compressibility (1/GPa) = 0.04057551
#
# Stress axis : x y z
#
# Youngs Moduli (GPa) = 97.86878 48.46163 47.53006
#
# Poissons Ratio (x) = 0.00952 0.13729
# Poissons Ratio (y) = 0.01923 0.12230
# Poissons Ratio (z) = 0.28270 0.12470
#
# Static dielectric constant tensor:
#      x y z
#    x 2.053860 0.020040 0.034480 
#    y 0.020040 1.909520 -0.116940 
#    z 0.034480 -0.116940 1.564000 
# 
# From -- ./inp_files/499005.got.cif
#   From: 2010.05.17/outbox.cif.g08.bks.cpg/sg2_250_cif.got.tgz:499005.got - 2010.06.03 11:33:40.
