data_PCOD9080911
_publ_section_title
;
Structure prediction by ZEFSAII (Michael W. Deem and Ramdas Pophale) SiO2 
 PCOD9080911
Probable space group: P -1
;
_chemical_formula_sum "Si O2"
_cell_formula_units_Z 16
_cell_length_a 9.488905
_cell_length_b 20.381042
_cell_length_c 12.374009
_cell_angle_alpha 51.997964
_cell_angle_beta 45.061194
_cell_angle_gamma 87.610662
_cell_volume 946.748261
_symmetry_space_group_name_H-M "P -1"
_symmetry_group_IT_number 2
_symmetry_cell_setting 'triclinic'
loop_
_space_group_symop_operation_xyz
x,y,z
-x,-y,-z
loop_
_atom_site_type_symbol
_atom_site_label
_atom_site_fract_x
_atom_site_fract_y
_atom_site_fract_z
Si Si1 0.881894 0.085185 0.605761
Si Si2 0.018098 0.172880 0.213902
Si Si3 0.030492 0.955599 0.921107
Si Si4 0.080273 0.774722 0.129288
Si Si5 0.528369 0.766034 0.227152
Si Si6 0.333658 0.372208 0.677477
Si Si7 0.246109 0.830832 0.222376
Si Si8 0.674396 0.923196 0.567544
O O1 0.885865 0.138359 0.660308
O O2 0.953649 0.162842 0.384267
O O3 0.108804 0.078389 0.496180
O O4 0.565550 0.956027 0.896282
O O5 0.294505 0.197375 0.016523
O O6 0.094483 0.273774 0.994870
O O7 0.769934 0.044181 0.428830
O O8 0.746967 0.871831 0.086224
O O9 0.083420 0.874624 0.000747
O O10 0.000000 0.000000 0.000000
O O11 0.272957 0.062602 0.603632
O O12 0.362281 0.818234 0.883582
O O13 0.085955 0.768710 0.260897
O O14 0.818374 0.660792 0.321007
O O15 0.477222 0.656295 0.403807
O O16 0.282393 0.756385 0.345206
O O17 0.500000 0.500000 0.500000
#
# Coordination Sequence:
#
# PCOD9080911 Si02
#       8
#     2   2   2   2   2   2   2   2
#     4  11  19  29  49  81 116 146 160 202 257 338
#     4   9  17  31  52  73 105 136 169 209 257 300
#     4  10  19  30  45  76 115 143 165 203 259 315
#     4  11  21  31  54  80 106 140 173 217 259 314
#     4   8  18  34  50  74 102 140 175 206 259 301
#     4   9  20  39  58  74  95 134 187 229 261 292
#     4  11  20  30  50  82 113 143 169 198 268 319
#     4  11  18  31  48  79 117 134 171 205 266 315
#
# _framework density 16.899953
#
# number of rings (size 3 to 8) (size 9 to 14) (size 15 to 20)
#    0.750    1.250    5.000    2.250    1.750    0.000 
#    0.000    0.625    0.000    1.500    0.000    0.000 
#    0.000    0.000    0.000    0.000    0.000    0.000 
#
# Total GULP energy -89094.330076 kJ/mol
# GULP energy per Si atom -5568.395630 kJ/mol
# Density = 1.686149 g / cm^3
# Si number density = 16.899953 Si / 1000 Ang^3
#
#
#
# Elastic Constant Matrix: (Units=GPa)
#
#
# Indices 1 2 3 4 5 6 
#
# 1 94.3319 45.6417 22.4645 -2.2631 2.1090 16.1002
# 2 45.6417 96.6121 35.4434 -4.0879 0.7120 26.7383
# 3 22.4645 35.4434 27.1867 -1.7513 2.1422 9.8174
# 4 -2.2631 -4.0879 -1.7513 24.6066 4.5879 6.6021
# 5 2.1090 0.7120 2.1422 4.5879 14.6543 6.0893
# 6 16.1002 26.7383 9.8174 6.6021 6.0893 23.6553
#
#
#
# Elastic Compliance Matrix: (Units=1/GPa)
#
#
# Indices 1 2 3 4 5 6 
#
# 1 0.014377 -0.003588 -0.005785 0.001294 0.000088 -0.003713
# 2 -0.003588 0.028115 -0.025668 0.006811 0.010441 -0.023272
# 3 -0.005785 -0.025668 0.074330 0.001334 -0.011111 0.004590
# 4 0.001294 0.006811 0.001334 0.048966 -0.007355 -0.020906
# 5 0.000088 0.010441 -0.011111 -0.007355 0.082646 -0.026472
# 6 -0.003713 -0.023272 0.004590 -0.020906 -0.026472 0.081850
#
#
# Mechanical properties :
#
#
# Convention : Reuss Voigt Hill
#
# Bulk Modulus (GPa) = 21.39515 47.24779 34.32147
# Shear Modulus (GPa) = 12.02079 20.22199 16.12139
#
# Velocity S-wave (km/s) = 2.66990 3.46290 3.09193
# Velocity P-wave (km/s) = 4.71082 6.63377 5.75321
#
# Compressibility (1/GPa) = 0.04673956
#
# Stress axis : x y z
#
# Youngs Moduli (GPa) = 69.55349 35.56877 13.45348
#
# Poissons Ratio (x) = 0.12763 0.07783
# Poissons Ratio (y) = 0.24958 0.34532
# Poissons Ratio (z) = 0.40236 0.91298
#
# Static dielectric constant tensor:
#      x y z
#    x 1.619380 -0.005290 0.009140 
#    y -0.005290 1.569600 0.018420 
#    z 0.009140 0.018420 1.562670 
# 
# From -- ./inp_files/180500.got.cif
#   From: 2010.05.17/outbox.cif.g08.bks.cpg/sg2_91_cif.got.tgz:180500.got - 2010.06.03 11:33:40.
