data_PCOD9080230
_publ_section_title
;
Structure prediction by ZEFSAII (Michael W. Deem and Ramdas Pophale) SiO2 
 PCOD9080230
Probable space group: P -1
;
_chemical_formula_sum "Si O2"
_cell_formula_units_Z 16
_cell_length_a 10.839425
_cell_length_b 9.091048
_cell_length_c 8.131142
_cell_angle_alpha 116.407698
_cell_angle_beta 70.624527
_cell_angle_gamma 103.464798
_cell_volume 673.544556
_symmetry_space_group_name_H-M "P -1"
_symmetry_group_IT_number 2
_symmetry_cell_setting 'triclinic'
loop_
_space_group_symop_operation_xyz
x,y,z
-x,-y,-z
loop_
_atom_site_type_symbol
_atom_site_label
_atom_site_fract_x
_atom_site_fract_y
_atom_site_fract_z
Si Si1 0.140214 0.442273 0.644084
Si Si2 0.989679 0.247665 0.185932
Si Si3 0.913216 0.148673 0.627463
Si Si4 0.180120 0.005285 0.080705
Si Si5 0.679139 0.262394 0.682523
Si Si6 0.578535 0.774663 0.045360
Si Si7 0.403095 0.470636 0.376764
Si Si8 0.777911 0.567275 0.028111
O O1 0.086162 0.597494 0.653788
O O2 0.262244 0.386620 0.460243
O O3 0.199871 0.484605 0.820529
O O4 0.016217 0.309481 0.660135
O O5 0.086808 0.155885 0.213193
O O6 0.088965 0.326922 0.039680
O O7 0.885327 0.107332 0.091455
O O8 0.799016 0.154758 0.546137
O O9 0.833152 0.109424 0.811565
O O10 0.000000 0.000000 0.500000
O O11 0.324624 0.080609 0.005170
O O12 0.625819 0.353270 0.595609
O O13 0.553726 0.175841 0.790647
O O14 0.743242 0.411984 0.846023
O O15 0.546879 0.638553 0.847497
O O16 0.337543 0.315335 0.898774
O O17 0.500000 0.500000 0.500000
#
# Coordination Sequence:
#
# PCOD9080230 Si02
#       8
#     2   2   2   2   2   2   2   2
#     4  12  22  39  71  97 136 172 225 274 339 396
#     4  10  20  37  65 100 129 173 220 272 327 396
#     4  12  26  41  63  99 142 176 216 275 339 396
#     4  10  22  40  62  98 137 168 222 274 326 395
#     4  11  23  42  67  95 134 181 226 273 330 400
#     4  10  22  42  67  94 135 176 221 275 335 396
#     4  11  24  42  66 103 133 172 227 283 331 399
#     4  10  18  38  67 102 127 169 224 276 324 398
#
# _framework density 23.754925
#
# number of rings (size 3 to 8) (size 9 to 14) (size 15 to 20)
#    0.000    1.250    2.500    4.875    1.750    1.000 
#    0.000    1.250    0.000    4.500    0.000    0.000 
#    0.000    0.000    0.000    0.000    0.000    0.000 
#
# Total GULP energy -89565.333322 kJ/mol
# GULP energy per Si atom -5597.833333 kJ/mol
# Density = 2.370086 g / cm^3
# Si number density = 23.754925 Si / 1000 Ang^3
#
#
#
# Elastic Constant Matrix: (Units=GPa)
#
#
# Indices 1 2 3 4 5 6 
#
# 1 154.8048 55.6480 49.6216 -5.8424 -6.9352 6.9895
# 2 55.6480 118.0654 21.1405 -16.4309 -1.7147 6.5600
# 3 49.6216 21.1405 44.9547 -16.7922 8.4420 -7.1410
# 4 -5.8424 -16.4309 -16.7922 35.4470 -0.0525 -2.3266
# 5 -6.9352 -1.7147 8.4420 -0.0525 38.4703 -7.7329
# 6 6.9895 6.5600 -7.1410 -2.3266 -7.7329 42.4623
#
#
#
# Elastic Compliance Matrix: (Units=1/GPa)
#
#
# Indices 1 2 3 4 5 6 
#
# 1 0.013955 -0.004174 -0.018354 -0.008598 0.005500 -0.004208
# 2 -0.004174 0.010910 0.001365 0.004974 -0.000684 -0.000621
# 3 -0.018354 0.001365 0.055222 0.024473 -0.013111 0.011050
# 4 -0.008598 0.004974 0.024473 0.041081 -0.005432 0.006024
# 5 0.005500 -0.000684 -0.013111 -0.005432 0.030269 0.002210
# 6 -0.004208 -0.000621 0.011050 0.006024 0.002210 0.026930
#
#
# Mechanical properties :
#
#
# Convention : Reuss Voigt Hill
#
# Bulk Modulus (GPa) = 26.48337 63.40499 44.94418
# Shear Modulus (GPa) = 21.43349 36.03692 28.73520
#
# Velocity S-wave (km/s) = 3.00705 3.89913 3.48178
# Velocity P-wave (km/s) = 4.81967 6.85713 5.92661
#
# Compressibility (1/GPa) = 0.03775955
#
# Stress axis : x y z
#
# Youngs Moduli (GPa) = 71.65702 91.66219 18.10885
#
# Poissons Ratio (x) = 0.38260 0.33237
# Poissons Ratio (y) = 0.29909 -0.02471
# Poissons Ratio (z) = 1.31520 -0.12508
#
# Static dielectric constant tensor:
#      x y z
#    x 1.900890 -0.036570 -0.035400 
#    y -0.036570 1.902910 0.006310 
#    z -0.035400 0.006310 1.943690 
# 
# From -- ./inp_files/240290.got.cif
#   From: 2010.05.17/outbox.cif.g08.bks.cpg/sg2_121_cif.got.tgz:240290.got - 2010.06.03 11:33:40.
