data_PCOD9080234
_publ_section_title
;
Structure prediction by ZEFSAII (Michael W. Deem and Ramdas Pophale) SiO2 
 PCOD9080234
Probable space group: P -1
;
_chemical_formula_sum "Si O2"
_cell_formula_units_Z 16
_cell_length_a 8.531139
_cell_length_b 10.747601
_cell_length_c 11.619605
_cell_angle_alpha 96.854309
_cell_angle_beta 125.583174
_cell_angle_gamma 119.616093
_cell_volume 616.005663
_symmetry_space_group_name_H-M "P -1"
_symmetry_group_IT_number 2
_symmetry_cell_setting 'triclinic'
loop_
_space_group_symop_operation_xyz
x,y,z
-x,-y,-z
loop_
_atom_site_type_symbol
_atom_site_label
_atom_site_fract_x
_atom_site_fract_y
_atom_site_fract_z
Si Si1 0.794809 0.128578 0.088344
Si Si2 0.256972 0.150274 0.888789
Si Si3 0.467644 0.023788 0.280077
Si Si4 0.044663 0.721003 0.212900
Si Si5 0.944696 0.663316 0.416371
Si Si6 0.488695 0.306279 0.255850
Si Si7 0.697748 0.539221 0.686671
Si Si8 0.556555 0.373537 0.829672
O O1 0.907249 0.050957 0.182659
O O2 0.730324 0.092919 0.922642
O O3 0.003537 0.333558 0.220987
O O4 0.500000 0.000000 0.000000
O O5 0.076280 0.192559 0.815075
O O6 0.438325 0.224825 0.858601
O O7 0.431567 0.245053 0.091370
O O8 0.446303 0.164743 0.298759
O O9 0.783666 0.148956 0.400919
O O10 0.342310 0.880956 0.309392
O O11 0.033346 0.657419 0.327574
O O12 0.831059 0.551331 0.022838
O O13 0.793106 0.494507 0.411817
O O14 0.695174 0.644334 0.285930
O O15 0.301829 0.336859 0.216291
O O16 0.500000 0.500000 0.500000
O O17 0.620154 0.390289 0.722029
#
# Coordination Sequence:
#
# PCOD9080234 Si02
#       8
#     2   2   2   2   2   2   2   2
#     4  11  25  40  58  83 119 156 191 238 294 341
#     4  10  18  38  67  87 108 150 200 240 284 343
#     4  11  22  34  59  87 122 146 186 245 290 335
#     4  11  17  35  60  90 115 143 190 244 288 337
#     4  10  19  32  55  91 117 142 182 242 293 335
#     4  10  19  36  61  88 111 152 196 235 284 344
#     4  11  23  40  60  83 119 156 197 233 283 349
#     4  10  19  37  63  86 114 151 196 237 284 342
#
# _framework density 25.973790000000001
#
# number of rings (size 3 to 8) (size 9 to 14) (size 15 to 20)
#    0.000    1.500    5.000    2.250    3.500    2.000 
#    0.000    1.250    5.500    0.000    0.000    0.000 
#    0.000    0.000    0.000    0.000    0.000    0.000 
#
# Total GULP energy -89362.918567 kJ/mol
# GULP energy per Si atom -5585.182410 kJ/mol
# Density = 2.591467 g / cm^3
# Si number density = 25.973790 Si / 1000 Ang^3
#
#
#
# Elastic Constant Matrix: (Units=GPa)
#
#
# Indices 1 2 3 4 5 6 
#
# 1 44.8906 30.0805 13.2747 10.0671 9.3664 -1.0795
# 2 30.0805 146.9257 35.9694 17.2693 -11.5465 32.4807
# 3 13.2747 35.9694 118.0374 1.3751 12.3288 21.0776
# 4 10.0671 17.2693 1.3751 39.5136 14.3184 11.3126
# 5 9.3664 -11.5465 12.3288 14.3184 27.0629 3.8069
# 6 -1.0795 32.4807 21.0776 11.3126 3.8069 43.8670
#
#
#
# Elastic Compliance Matrix: (Units=1/GPa)
#
#
# Indices 1 2 3 4 5 6 
#
# 1 0.033094 -0.009999 -0.000807 -0.001106 -0.016216 0.010298
# 2 -0.009999 0.013328 -0.002922 -0.006177 0.014930 -0.008413
# 3 -0.000807 -0.002922 0.010903 0.005105 -0.008114 -0.003707
# 4 -0.001106 -0.006177 0.005105 0.038503 -0.024142 -0.005741
# 5 -0.016216 0.014930 -0.008114 -0.024142 0.066400 -0.007092
# 6 0.010298 -0.008413 -0.003707 -0.005741 -0.007092 0.033156
#
#
# Mechanical properties :
#
#
# Convention : Reuss Voigt Hill
#
# Bulk Modulus (GPa) = 33.47957 52.05589 42.76773
# Shear Modulus (GPa) = 21.47800 37.45732 29.46766
#
# Velocity S-wave (km/s) = 2.87872 3.80165 3.37191
# Velocity P-wave (km/s) = 4.89562 6.27337 5.62683
#
# Compressibility (1/GPa) = 0.02986896
#
# Stress axis : x y z
#
# Youngs Moduli (GPa) = 30.21685 75.03118 91.71693
#
# Poissons Ratio (x) = 0.75022 0.07404
# Poissons Ratio (y) = 0.30213 0.26800
# Poissons Ratio (z) = 0.02439 0.21924
#
# Static dielectric constant tensor:
#      x y z
#    x 2.192070 0.031520 -0.009470 
#    y 0.031520 2.083080 -0.026350 
#    z -0.009470 -0.026350 2.014890 
# 
# From -- ./inp_files/434065.got.cif
#   From: 2010.05.17/outbox.cif.g08.bks.cpg/sg2_218_cif.got.tgz:434065.got - 2010.06.03 11:33:40.
