data_PCOD9080610
_publ_section_title
;
Structure prediction by ZEFSAII (Michael W. Deem and Ramdas Pophale) SiO2 
 PCOD9080610
Probable space group: P -1
;
_chemical_formula_sum "Si O2"
_cell_formula_units_Z 16
_cell_length_a 15.104234
_cell_length_b 11.605351
_cell_length_c 9.277206
_cell_angle_alpha 73.612944
_cell_angle_beta 134.732590
_cell_angle_gamma 131.836415
_cell_volume 805.020033
_symmetry_space_group_name_H-M "P -1"
_symmetry_group_IT_number 2
_symmetry_cell_setting 'triclinic'
loop_
_space_group_symop_operation_xyz
x,y,z
-x,-y,-z
loop_
_atom_site_type_symbol
_atom_site_label
_atom_site_fract_x
_atom_site_fract_y
_atom_site_fract_z
Si Si1 0.389714 0.006395 0.756673
Si Si2 0.440881 0.690559 0.006672
Si Si3 0.395657 0.147026 0.160077
Si Si4 0.270646 0.441109 0.308057
Si Si5 0.589471 0.581875 0.805163
Si Si6 0.601883 0.206529 0.652746
Si Si7 0.105303 0.762918 0.931047
Si Si8 0.132544 0.660596 0.690491
O O1 0.209402 0.820626 0.626197
O O2 0.482726 0.068663 0.688047
O O3 0.500000 0.000000 0.000000
O O4 0.399682 0.148920 0.776572
O O5 0.475587 0.751260 0.861506
O O6 0.279679 0.659316 0.890660
O O7 0.411901 0.531124 0.048652
O O8 0.350406 0.251727 0.121591
O O9 0.495134 0.147855 0.404439
O O10 0.230341 0.960905 0.989938
O O11 0.395133 0.470184 0.563475
O O12 0.298150 0.381763 0.217132
O O13 0.348633 0.625209 0.305466
O O14 0.075594 0.324366 0.175616
O O15 0.779655 0.251512 0.835584
O O16 0.077538 0.681091 0.772704
O O17 0.000000 0.500000 0.500000
#
# Coordination Sequence:
#
# PCOD9080610 Si02
#       8
#     2   2   2   2   2   2   2   2
#     4  10  18  40  66  89 125 169 201 252 320 382
#     4  11  20  44  69  88 127 176 209 262 314 386
#     4  11  25  39  67  96 132 172 218 254 312 391
#     4  10  23  40  67  91 127 166 223 268 311 377
#     4  10  22  44  64  89 121 180 223 254 315 375
#     4  11  21  42  66  97 127 174 206 260 329 383
#     4  12  22  42  62  99 135 161 208 275 324 374
#     4  11  24  39  66  99 133 157 206 270 331 381
#
# _framework density 19.875281999999999
#
# number of rings (size 3 to 8) (size 9 to 14) (size 15 to 20)
#    0.000    1.250    5.000    1.875    3.500    0.500 
#    4.500    1.875    0.000    0.000    0.000    0.000 
#    0.000    0.000    0.000    0.000    0.000    0.000 
#
# Total GULP energy -89357.600322 kJ/mol
# GULP energy per Si atom -5584.850020 kJ/mol
# Density = 1.983004 g / cm^3
# Si number density = 19.875282 Si / 1000 Ang^3
#
#
#
# Elastic Constant Matrix: (Units=GPa)
#
#
# Indices 1 2 3 4 5 6 
#
# 1 115.0359 34.2267 46.9145 5.3087 -6.2219 -2.8473
# 2 34.2267 93.1225 50.9107 1.3867 -9.4241 -10.0500
# 3 46.9145 50.9107 79.0031 5.8734 -13.2739 8.8635
# 4 5.3087 1.3867 5.8734 39.4377 -5.6073 -9.1658
# 5 -6.2219 -9.4241 -13.2739 -5.6073 29.3810 3.7799
# 6 -2.8473 -10.0500 8.8635 -9.1658 3.7799 39.6417
#
#
#
# Elastic Compliance Matrix: (Units=1/GPa)
#
#
# Indices 1 2 3 4 5 6 
#
# 1 0.011740 -0.000127 -0.007380 -0.000055 -0.001229 0.002566
# 2 -0.000127 0.018961 -0.013437 0.003282 -0.000497 0.008608
# 3 -0.007380 -0.013437 0.028708 -0.004524 0.007796 -0.012145
# 4 -0.000055 0.003282 -0.004524 0.028272 0.003356 0.008056
# 5 -0.001229 -0.000497 0.007796 0.003356 0.038402 -0.004843
# 6 0.002566 0.008608 -0.012145 0.008056 -0.004843 0.032633
#
#
# Mechanical properties :
#
#
# Convention : Reuss Voigt Hill
#
# Bulk Modulus (GPa) = 57.07258 61.25170 59.16214
# Shear Modulus (GPa) = 24.21982 32.03270 28.12626
#
# Velocity S-wave (km/s) = 3.49462 4.01894 3.76591
# Velocity P-wave (km/s) = 6.71274 7.24022 6.98146
#
# Compressibility (1/GPa) = 0.01752155
#
# Stress axis : x y z
#
# Youngs Moduli (GPa) = 85.17840 52.73999 34.83387
#
# Poissons Ratio (x) = 0.00670 0.25708
# Poissons Ratio (y) = 0.01081 0.46805
# Poissons Ratio (z) = 0.62863 0.70864
#
# Static dielectric constant tensor:
#      x y z
#    x 1.712000 -0.017630 -0.021830 
#    y -0.017630 1.747450 0.035120 
#    z -0.021830 0.035120 1.776190 
# 
# From -- ./inp_files/307417.got.cif
#   From: 2010.05.17/outbox.cif.g08.bks.cpg/sg2_154_cif.got.tgz:307417.got - 2010.06.03 11:33:40.
