data_PCOD9080177
_publ_section_title
;
Structure prediction by ZEFSAII (Michael W. Deem and Ramdas Pophale) SiO2 
 PCOD9080177
Probable space group: P -1
;
_chemical_formula_sum "Si O2"
_cell_formula_units_Z 16
_cell_length_a 25.288664
_cell_length_b 15.769659
_cell_length_c 9.275808
_cell_angle_alpha 45.377007
_cell_angle_beta 28.831510
_cell_angle_gamma 27.331780
_cell_volume 769.546430
_symmetry_space_group_name_H-M "P -1"
_symmetry_group_IT_number 2
_symmetry_cell_setting 'triclinic'
loop_
_space_group_symop_operation_xyz
x,y,z
-x,-y,-z
loop_
_atom_site_type_symbol
_atom_site_label
_atom_site_fract_x
_atom_site_fract_y
_atom_site_fract_z
Si Si1 0.422134 0.092977 0.735725
Si Si2 0.018695 0.699465 0.841657
Si Si3 0.174074 0.558385 0.340443
Si Si4 0.373845 0.856418 0.836813
Si Si5 0.554789 0.184617 0.941900
Si Si6 0.008751 0.489524 0.320286
Si Si7 0.819888 0.196251 0.610090
Si Si8 0.085931 0.008828 0.665746
O O1 0.494472 0.160231 0.530779
O O2 0.500000 0.000000 0.500000
O O3 0.205952 0.280308 0.038779
O O4 0.480221 0.923448 0.883082
O O5 0.110297 0.565284 0.641140
O O6 0.162919 0.676730 0.571371
O O7 0.978176 0.642026 0.133078
O O8 0.827610 0.918312 0.982096
O O9 0.132534 0.488016 0.416462
O O10 0.054762 0.775082 0.323233
O O11 0.384668 0.405585 0.030358
O O12 0.425408 0.820670 0.925257
O O13 0.347979 0.737616 0.006627
O O14 0.748112 0.062955 0.573888
O O15 0.000000 0.500000 0.500000
O O16 0.843227 0.133210 0.465744
O O17 0.000000 0.000000 0.500000
O O18 0.000000 0.000000 0.000000
#
# Coordination Sequence:
#
# PCOD9080177 Si02
#       8
#     2   2   2   2   2   2   2   2
#     4  10  18  38  65  90 129 170 221 276 325 389
#     4  11  20  39  70  94 130 182 225 274 340 401
#     4  12  22  43  70  95 127 180 233 272 333 411
#     4   9  17  35  61  98 123 163 221 281 316 382
#     4  10  20  38  65  97 125 168 231 271 322 400
#     4  12  27  42  63 103 142 173 220 287 350 399
#     4   9  18  37  62  93 128 166 221 271 333 390
#     4  11  23  41  67  92 137 178 215 277 342 398
#
# _framework density 20.791467999999998
#
# number of rings (size 3 to 8) (size 9 to 14) (size 15 to 20)
#    0.000    1.500    5.000    3.375    1.750    0.500 
#    0.000   10.625    0.000    0.000    0.000    0.000 
#    0.000    0.000    0.000    0.000    0.000    0.000 
#
# Total GULP energy -89222.708724 kJ/mol
# GULP energy per Si atom -5576.419295 kJ/mol
# Density = 2.074415 g / cm^3
# Si number density = 20.791468 Si / 1000 Ang^3
#
#
#
# Elastic Constant Matrix: (Units=GPa)
#
#
# Indices 1 2 3 4 5 6 
#
# 1 92.2737 34.3579 32.6988 -17.5705 -7.9163 3.2414
# 2 34.3579 64.3514 28.9576 2.1771 -1.0170 -13.4219
# 3 32.6988 28.9576 92.6344 -6.0556 -9.1379 -17.8363
# 4 -17.5705 2.1771 -6.0556 35.4376 -6.9544 -9.9916
# 5 -7.9163 -1.0170 -9.1379 -6.9544 33.8985 -2.1087
# 6 3.2414 -13.4219 -17.8363 -9.9916 -2.1087 22.4150
#
#
#
# Elastic Compliance Matrix: (Units=1/GPa)
#
#
# Indices 1 2 3 4 5 6 
#
# 1 0.017768 -0.009526 -0.003951 0.007260 0.003801 -0.007823
# 2 -0.009526 0.024321 -0.002301 -0.003539 -0.002074 0.012338
# 3 -0.003951 -0.002301 0.017143 0.006961 0.006085 0.016510
# 4 0.007260 -0.003539 0.006961 0.042211 0.013522 0.022458
# 5 0.003801 -0.002074 0.006085 0.013522 0.035512 0.012419
# 6 -0.007823 0.012338 0.016510 0.022458 0.012419 0.077449
#
#
# Mechanical properties :
#
#
# Convention : Reuss Voigt Hill
#
# Bulk Modulus (GPa) = 36.13058 49.03201 42.58130
# Shear Modulus (GPa) = 19.59374 28.56657 24.08015
#
# Velocity S-wave (km/s) = 3.07317 3.71071 3.40689
# Velocity P-wave (km/s) = 5.47794 6.48021 6.00004
#
# Compressibility (1/GPa) = 0.02767738
#
# Stress axis : x y z
#
# Youngs Moduli (GPa) = 56.28248 41.11667 58.33228
#
# Poissons Ratio (x) = 0.39167 0.23046
# Poissons Ratio (y) = 0.53613 0.13420
# Poissons Ratio (z) = 0.22236 0.09460
#
# Static dielectric constant tensor:
#      x y z
#    x 1.751280 0.025640 -0.036370 
#    y 0.025640 1.803960 -0.032580 
#    z -0.036370 -0.032580 1.757580 
# 
# From -- ./inp_files/354505.got.cif
#   From: 2010.05.17/outbox.cif.g08.bks.cpg/sg2_178_cif.got.tgz:354505.got - 2010.06.03 11:33:40.
