data_PCOD9080132
_publ_section_title
;
Structure prediction by ZEFSAII (Michael W. Deem and Ramdas Pophale) SiO2 
 PCOD9080132
Probable space group: P -1
;
_chemical_formula_sum "Si O2"
_cell_formula_units_Z 16
_cell_length_a 15.345634
_cell_length_b 5.570443
_cell_length_c 14.221395
_cell_angle_alpha 100.585836
_cell_angle_beta 38.588019
_cell_angle_gamma 90.553543
_cell_volume 727.328439
_symmetry_space_group_name_H-M "P -1"
_symmetry_group_IT_number 2
_symmetry_cell_setting 'triclinic'
loop_
_space_group_symop_operation_xyz
x,y,z
-x,-y,-z
loop_
_atom_site_type_symbol
_atom_site_label
_atom_site_fract_x
_atom_site_fract_y
_atom_site_fract_z
Si Si1 0.841106 0.361538 0.745685
Si Si2 0.234225 0.450143 0.367971
Si Si3 0.112403 0.097397 0.188749
Si Si4 0.647443 0.958198 0.670341
Si Si5 0.408458 0.785505 0.588370
Si Si6 0.456423 0.468834 0.899478
Si Si7 0.374326 0.790518 0.829002
Si Si8 0.192785 0.793805 0.600626
O O1 0.854672 0.379947 0.623056
O O2 0.886647 0.617664 0.760673
O O3 0.900886 0.103894 0.732033
O O4 0.671203 0.420656 0.916376
O O5 0.235203 0.161128 0.358334
O O6 0.404658 0.412720 0.201835
O O7 0.206884 0.549704 0.504200
O O8 0.975771 0.107238 0.237666
O O9 0.259775 0.981646 0.001883
O O10 0.536451 0.825051 0.700556
O O11 0.532570 0.183957 0.829240
O O12 0.739585 0.041171 0.516973
O O13 0.500000 0.500000 0.500000
O O14 0.336208 0.828976 0.755359
O O15 0.289349 0.776017 0.609329
O O16 0.500000 0.000000 0.500000
O O17 0.391160 0.526553 0.852699
#
# Coordination Sequence:
#
# PCOD9080132 Si02
#       8
#     2   2   2   2   2   2   2   2
#     4  11  24  43  64  97 128 184 219 265 328 392
#     4  10  23  37  66  93 132 172 227 274 321 381
#     4  11  27  43  67  92 139 173 219 265 328 389
#     4  10  18  38  64  89 128 165 214 274 321 366
#     4  12  25  42  74 103 128 166 218 268 330 390
#     4   9  19  37  62  96 130 161 218 277 320 374
#     4  10  21  42  66  96 130 172 213 268 327 392
#     4  11  26  43  62  99 134 171 217 276 322 385
#
# _framework density 21.998318000000001
#
# number of rings (size 3 to 8) (size 9 to 14) (size 15 to 20)
#    0.000    1.500    2.500    2.625    5.250    2.000 
#    0.000    0.000    0.000    3.750    0.000    0.000 
#    0.000    0.000    0.000    0.000    0.000    0.000 
#
# Total GULP energy -89072.974315 kJ/mol
# GULP energy per Si atom -5567.060895 kJ/mol
# Density = 2.194825 g / cm^3
# Si number density = 21.998318 Si / 1000 Ang^3
#
#
#
# Elastic Constant Matrix: (Units=GPa)
#
#
# Indices 1 2 3 4 5 6 
#
# 1 121.2977 49.6577 27.2238 -21.5777 14.7594 -16.7196
# 2 49.6577 103.2931 14.2909 -17.0874 10.1364 -9.7685
# 3 27.2238 14.2909 66.4625 -7.6400 -13.2795 -0.0569
# 4 -21.5777 -17.0874 -7.6400 62.1784 -20.2403 -1.6896
# 5 14.7594 10.1364 -13.2795 -20.2403 41.0259 -2.2537
# 6 -16.7196 -9.7685 -0.0569 -1.6896 -2.2537 27.4174
#
#
#
# Elastic Compliance Matrix: (Units=1/GPa)
#
#
# Indices 1 2 3 4 5 6 
#
# 1 0.012638 -0.004192 -0.004909 0.001476 -0.004044 0.005962
# 2 -0.004192 0.012359 -0.000957 0.001553 -0.000987 0.001860
# 3 -0.004909 -0.000957 0.019693 0.003668 0.010063 -0.002240
# 4 0.001476 0.001553 0.003668 0.021118 0.010892 0.003658
# 5 -0.004044 -0.000987 0.010063 0.010892 0.034745 0.000730
# 6 0.005962 0.001860 -0.002240 0.003658 0.000730 0.041052
#
#
# Mechanical properties :
#
#
# Convention : Reuss Voigt Hill
#
# Bulk Modulus (GPa) = 40.69315 52.59979 46.64647
# Shear Modulus (GPa) = 29.42706 39.44974 34.43840
#
# Velocity S-wave (km/s) = 3.66142 4.23934 3.96093
# Velocity P-wave (km/s) = 6.03433 6.92282 6.49379
#
# Compressibility (1/GPa) = 0.02457416
#
# Stress axis : x y z
#
# Youngs Moduli (GPa) = 79.12339 80.91595 50.77928
#
# Poissons Ratio (x) = 0.33919 0.24926
# Poissons Ratio (y) = 0.33167 0.04861
# Poissons Ratio (z) = 0.38840 0.07747
#
# Static dielectric constant tensor:
#      x y z
#    x 1.838760 0.013950 -0.012600 
#    y 0.013950 2.042680 -0.039080 
#    z -0.012600 -0.039080 1.754760 
# 
# From -- ./inp_files/98216.got.cif
#   From: 2010.05.17/outbox.cif.g08.bks.cpg/sg2_50_cif.got.tgz:98216.got - 2010.06.03 11:33:40.
