data_PCOD9080826
_publ_section_title
;
Structure prediction by ZEFSAII (Michael W. Deem and Ramdas Pophale) SiO2 
 PCOD9080826
Probable space group: P -1
;
_chemical_formula_sum "Si O2"
_cell_formula_units_Z 14
_cell_length_a 6.850864
_cell_length_b 8.211297
_cell_length_c 15.124290
_cell_angle_alpha 117.889923
_cell_angle_beta 125.624352
_cell_angle_gamma 99.809413
_cell_volume 481.328696
_symmetry_space_group_name_H-M "P -1"
_symmetry_group_IT_number 2
_symmetry_cell_setting 'triclinic'
loop_
_space_group_symop_operation_xyz
x,y,z
-x,-y,-z
loop_
_atom_site_type_symbol
_atom_site_label
_atom_site_fract_x
_atom_site_fract_y
_atom_site_fract_z
Si Si1 0.389416 0.103875 0.625268
Si Si2 0.864754 0.629979 0.904486
Si Si3 0.279931 0.676846 0.505554
Si Si4 0.402650 0.688011 0.973776
Si Si5 0.195000 0.097201 0.185028
Si Si6 0.927323 0.209316 0.685561
Si Si7 0.282804 0.821163 0.782992
O O1 0.546957 0.368881 0.760175
O O2 0.692260 0.128449 0.681857
O O3 0.242843 0.869088 0.583958
O O4 0.154953 0.999894 0.453465
O O5 0.883818 0.755633 0.850578
O O6 0.150373 0.628103 0.967483
O O7 0.931159 0.816249 0.043709
O O8 0.608104 0.759321 0.641682
O O9 0.204655 0.687676 0.386396
O O10 0.024198 0.410575 0.393856
O O11 0.342503 0.757417 0.879492
O O12 0.273850 0.419341 0.854738
O O13 0.697069 0.947117 0.146864
O O14 0.440854 0.122982 0.189070
#
# Coordination Sequence:
#
# PCOD9080826 Si02
#       7
#     2   2   2   2   2   2   2
#     4   8  14  28  46  63  88 114 151 177 213 260
#     4   9  18  31  45  65  90 118 145 180 224 260
#     4   9  16  27  45  67  90 114 147 181 215 258
#     4   8  14  28  48  65  81 116 155 179 206 257
#     4  10  19  29  43  67  96 115 140 183 225 257
#     4   7  13  26  46  64  86 108 150 183 207 247
#     4   9  16  27  45  66  89 115 147 180 213 258
#
# _framework density 29.086151999999998
#
# number of rings (size 3 to 8) (size 9 to 14) (size 15 to 20)
#    0.857    2.571    0.000    0.429    0.000    0.571 
#    0.000    7.143    0.000    0.000    0.000    1.000 
#    0.000    2.000    0.000    0.000    0.000    0.000 
#
# Total GULP energy -78040.327550 kJ/mol
# GULP energy per Si atom -5574.309111 kJ/mol
# Density = 2.901995 g / cm^3
# Si number density = 29.086152 Si / 1000 Ang^3
#
#
#
# Elastic Constant Matrix: (Units=GPa)
#
#
# Indices 1 2 3 4 5 6 
#
# 1 79.6719 9.7225 10.7861 13.1133 -21.7250 -16.9584
# 2 9.7225 89.9192 70.3626 43.0537 0.5626 10.3370
# 3 10.7861 70.3626 268.1945 66.8717 24.5197 -5.1299
# 4 13.1133 43.0537 66.8717 81.7038 2.4177 -3.9134
# 5 -21.7250 0.5626 24.5197 2.4177 31.3534 4.6614
# 6 -16.9584 10.3370 -5.1299 -3.9134 4.6614 26.1682
#
#
#
# Elastic Compliance Matrix: (Units=1/GPa)
#
#
# Indices 1 2 3 4 5 6 
#
# 1 0.018624 -0.002136 -0.000840 -0.001035 0.012129 0.010434
# 2 -0.002136 0.018922 -0.003552 -0.007354 0.003194 -0.011224
# 3 -0.000840 -0.003552 0.005850 -0.002502 -0.005283 0.002573
# 4 -0.001035 -0.007354 -0.002502 0.018574 -0.000753 0.004655
# 5 0.012129 0.003194 -0.005283 -0.000753 0.044807 -0.002531
# 6 0.010434 -0.011224 0.002573 0.004655 -0.002531 0.051061
#
#
# Mechanical properties :
#
#
# Convention : Reuss Voigt Hill
#
# Bulk Modulus (GPa) = 32.95770 68.83646 50.89708
# Shear Modulus (GPa) = 27.62308 50.97272 39.29790
#
# Velocity S-wave (km/s) = 3.08506 4.19080 3.67970
# Velocity P-wave (km/s) = 4.90365 6.86548 5.96576
#
# Compressibility (1/GPa) = 0.03034192
#
# Stress axis : x y z
#
# Youngs Moduli (GPa) = 53.69329 52.84716 170.92954
#
# Poissons Ratio (x) = 0.11290 0.14353
# Poissons Ratio (y) = 0.11470 0.60708
# Poissons Ratio (z) = 0.04509 0.18770
#
# Static dielectric constant tensor:
#      x y z
#    x 2.367500 0.031700 -0.019000 
#    y 0.031700 2.350380 0.011630 
#    z -0.019000 0.011630 2.380180 
# 
# From -- ./inp_files/475468.got.cif
#   From: 2010.05.17/outbox.cif.g08.bks.cpg/sg2_238_cif.got.tgz:475468.got - 2010.06.03 11:33:40.
