data_PCOD9080739
_publ_section_title
;
Structure prediction by ZEFSAII (Michael W. Deem and Ramdas Pophale) SiO2 
 PCOD9080739
Probable space group: P -1
;
_chemical_formula_sum "Si O2"
_cell_formula_units_Z 13
_cell_length_a 4.855718
_cell_length_b 12.282046
_cell_length_c 9.443794
_cell_angle_alpha 56.160418
_cell_angle_beta 102.245466
_cell_angle_gamma 100.638456
_cell_volume 455.622313
_symmetry_space_group_name_H-M "P -1"
_symmetry_group_IT_number 2
_symmetry_cell_setting 'triclinic'
loop_
_space_group_symop_operation_xyz
x,y,z
-x,-y,-z
loop_
_atom_site_type_symbol
_atom_site_label
_atom_site_fract_x
_atom_site_fract_y
_atom_site_fract_z
Si Si1 0.215815 0.852570 0.045793
Si Si2 0.236411 0.718057 0.708873
Si Si3 0.813810 0.682405 0.928004
Si Si4 0.560349 0.596555 0.225292
Si Si5 0.423818 0.104488 0.704841
Si Si6 0.855352 0.621218 0.511858
Si Si7 0.000000 0.000000 0.500000
O O1 0.425917 0.738392 0.114819
O O2 0.259637 0.872959 0.205684
O O3 0.939069 0.793443 0.973352
O O4 0.288969 0.993487 0.879604
O O5 0.562912 0.730284 0.772565
O O6 0.061088 0.651166 0.871432
O O7 0.151932 0.652935 0.597432
O O8 0.109585 0.858114 0.585577
O O9 0.664490 0.574538 0.094141
O O10 0.827912 0.594868 0.360987
O O11 0.323728 0.491624 0.337218
O O12 0.309138 0.246921 0.592364
O O13 0.309959 0.042478 0.590788
#
# Coordination Sequence:
#
# PCOD9080739 Si02
#       7
#     2   2   2   2   2   2   1
#     4  10  20  41  66  98 131 180 225 279 332 413
#     4  11  25  44  69 102 141 179 230 281 349 401
#     4  12  23  45  70 101 137 183 228 285 335 418
#     4  10  21  45  71  96 140 177 236 277 343 406
#     4   9  18  38  69  94 135 174 229 274 342 399
#     4   9  22  45  66 104 134 185 222 291 340 408
#     4  10  18  42  66  98 138 178 220 284 342 402
#
# _framework density 28.532402000000001
#
# number of rings (size 3 to 8) (size 9 to 14) (size 15 to 20)
#    0.000    1.846    3.077    0.000    0.000    1.846 
#   11.077   14.615    0.000    0.000    0.000    0.000 
#    0.000    0.000    0.000    0.000    0.000    0.000 
#
# Total GULP energy -72586.779542 kJ/mol
# GULP energy per Si atom -5583.598426 kJ/mol
# Density = 2.846746 g / cm^3
# Si number density = 28.532402 Si / 1000 Ang^3
#
#
#
# Elastic Constant Matrix: (Units=GPa)
#
#
# Indices 1 2 3 4 5 6 
#
# 1 134.8178 57.4484 61.8460 20.0387 7.8371 19.2585
# 2 57.4484 169.0860 69.1816 47.4059 16.6102 7.3197
# 3 61.8460 69.1816 134.1053 26.3705 5.2891 14.1888
# 4 20.0387 47.4059 26.3705 84.9349 8.0281 29.3409
# 5 7.8371 16.6102 5.2891 8.0281 52.6525 17.3417
# 6 19.2585 7.3197 14.1888 29.3409 17.3417 41.2982
#
#
#
# Elastic Compliance Matrix: (Units=1/GPa)
#
#
# Indices 1 2 3 4 5 6 
#
# 1 0.010406 -0.002466 -0.003360 0.001506 0.000886 -0.004703
# 2 -0.002466 0.009744 -0.003289 -0.005571 -0.003496 0.005979
# 3 -0.003360 -0.003289 0.010901 -0.000198 0.001105 -0.001919
# 4 0.001506 -0.005571 -0.000198 0.019407 0.003504 -0.014906
# 5 0.000886 -0.003496 0.001105 0.003504 0.023437 -0.012504
# 6 -0.004703 0.005979 -0.001919 -0.014906 -0.012504 0.041847
#
#
# Mechanical properties :
#
#
# Convention : Reuss Voigt Hill
#
# Bulk Modulus (GPa) = 77.99452 90.55122 84.27287
# Shear Modulus (GPa) = 36.16703 52.41266 44.28984
#
# Velocity S-wave (km/s) = 3.56417 4.29062 3.94415
# Velocity P-wave (km/s) = 6.65826 7.50673 7.09519
#
# Compressibility (1/GPa) = 0.01282141
#
# Stress axis : x y z
#
# Youngs Moduli (GPa) = 96.09503 102.62631 91.73175
#
# Poissons Ratio (x) = 0.25311 0.30824
# Poissons Ratio (y) = 0.23701 0.30167
# Poissons Ratio (z) = 0.32290 0.33750
#
# Static dielectric constant tensor:
#      x y z
#    x 2.227430 0.055570 -0.040800 
#    y 0.055570 2.250500 -0.003080 
#    z -0.040800 -0.003080 2.224620 
# 
# From -- ./inp_files/366101.got.cif
#   From: 2010.05.17/outbox.cif.g08.bks.cpg/sg2_184_cif.got.tgz:366101.got - 2010.06.03 11:33:40.
