data_PCOD9080326
_publ_section_title
;
Structure prediction by ZEFSAII (Michael W. Deem and Ramdas Pophale) SiO2 
 PCOD9080326
Probable space group: P -1
;
_chemical_formula_sum "Si O2"
_cell_formula_units_Z 14
_cell_length_a 14.835853
_cell_length_b 8.391107
_cell_length_c 7.116700
_cell_angle_alpha 80.354273
_cell_angle_beta 100.157822
_cell_angle_gamma 135.525855
_cell_volume 609.839667
_symmetry_space_group_name_H-M "P -1"
_symmetry_group_IT_number 2
_symmetry_cell_setting 'triclinic'
loop_
_space_group_symop_operation_xyz
x,y,z
-x,-y,-z
loop_
_atom_site_type_symbol
_atom_site_label
_atom_site_fract_x
_atom_site_fract_y
_atom_site_fract_z
Si Si1 0.426871 0.933716 0.685548
Si Si2 0.231408 0.908046 0.406695
Si Si3 0.323230 0.589728 0.207596
Si Si4 0.576369 0.630906 0.810674
Si Si5 0.082245 0.487455 0.164029
Si Si6 0.330623 0.489078 0.650223
Si Si7 0.099014 0.992831 0.615002
O O1 0.315414 0.921884 0.595213
O O2 0.370971 0.687236 0.761170
O O3 0.500000 0.000000 0.500000
O O4 0.539485 0.148598 0.810407
O O5 0.137716 0.663613 0.321679
O O6 0.160668 0.966907 0.472562
O O7 0.325054 0.098506 0.241590
O O8 0.344887 0.434231 0.181973
O O9 0.205290 0.551890 0.101661
O O10 0.292852 0.526435 0.432533
O O11 0.456003 0.533747 0.653386
O O12 0.500000 0.500000 0.000000
O O13 0.982787 0.229143 0.246026
O O14 0.000000 0.500000 0.000000
O O15 0.213734 0.229615 0.716923
O O16 0.000000 0.000000 0.500000
#
# Coordination Sequence:
#
# PCOD9080326 Si02
#       7
#     2   2   2   2   2   2   2
#     4  10  18  38  76  94 121 164 224 291 320 385
#     4  12  22  45  69  97 130 175 231 274 330 405
#     4  11  20  46  69  95 134 177 225 271 336 405
#     4  12  25  40  67 106 137 169 213 294 352 390
#     4  12  27  46  65 100 142 181 220 281 335 393
#     4  11  20  41  70  99 127 168 233 273 334 396
#     4  12  24  44  72  96 130 182 235 268 316 412
#
# _framework density 22.956852999999999
#
# number of rings (size 3 to 8) (size 9 to 14) (size 15 to 20)
#    0.000    0.571    8.571    1.714    2.000    0.000 
#    5.143    2.857    0.000    0.000    0.000    0.000 
#    0.000    0.000    0.000    0.000    0.000    0.000 
#
# Total GULP energy -78290.463264 kJ/mol
# GULP energy per Si atom -5592.175947 kJ/mol
# Density = 2.290460 g / cm^3
# Si number density = 22.956853 Si / 1000 Ang^3
#
#
#
# Elastic Constant Matrix: (Units=GPa)
#
#
# Indices 1 2 3 4 5 6 
#
# 1 163.0132 44.4896 40.6922 2.8624 38.2325 -0.0777
# 2 44.4896 207.7283 35.6657 -17.6513 18.7470 -12.7710
# 3 40.6922 35.6657 62.3748 -14.9150 27.4159 2.1942
# 4 2.8624 -17.6513 -14.9150 26.2103 -2.5740 11.1949
# 5 38.2325 18.7470 27.4159 -2.5740 40.4073 3.2077
# 6 -0.0777 -12.7710 2.1942 11.1949 3.2077 29.1445
#
#
#
# Elastic Compliance Matrix: (Units=1/GPa)
#
#
# Indices 1 2 3 4 5 6 
#
# 1 0.008891 -0.000989 -0.004214 -0.005766 -0.005680 0.002748
# 2 -0.000989 0.005694 -0.002085 0.001887 -0.000327 0.001961
# 3 -0.004214 -0.002085 0.031162 0.019282 -0.014238 -0.009110
# 4 -0.005766 0.001887 0.019282 0.060892 -0.002740 -0.023728
# 5 -0.005680 -0.000327 -0.014238 -0.002740 0.039953 -0.002431
# 6 0.002748 0.001961 -0.009110 -0.023728 -0.002431 0.045246
#
#
# Mechanical properties :
#
#
# Convention : Reuss Voigt Hill
#
# Bulk Modulus (GPa) = 32.07964 74.97903 53.52934
# Shear Modulus (GPa) = 23.06238 39.97034 31.51636
#
# Velocity S-wave (km/s) = 3.17298 4.17718 3.70922
# Velocity P-wave (km/s) = 5.23717 7.48311 6.45852
#
# Compressibility (1/GPa) = 0.03117242
#
# Stress axis : x y z
#
# Youngs Moduli (GPa) = 112.47301 175.61922 32.09023
#
# Poissons Ratio (x) = 0.17372 0.13521
# Poissons Ratio (y) = 0.11126 0.06690
# Poissons Ratio (z) = 0.47391 0.36611
#
# Static dielectric constant tensor:
#      x y z
#    x 1.847430 0.000660 0.000230 
#    y 0.000660 1.866250 -0.001470 
#    z 0.000230 -0.001470 1.931500 
# 
# From -- ./inp_files/294938.got.cif
#   From: 2010.05.17/outbox.cif.g08.bks.cpg/sg2_148_cif.got.tgz:294938.got - 2010.06.03 11:33:40.
