data_PCOD9080902
_publ_section_title
;
Structure prediction by ZEFSAII (Michael W. Deem and Ramdas Pophale) SiO2 
 PCOD9080902
Probable space group: P -1
;
_chemical_formula_sum "Si O2"
_cell_formula_units_Z 14
_cell_length_a 16.797574
_cell_length_b 8.199063
_cell_length_c 23.341601
_cell_angle_alpha 35.025256
_cell_angle_beta 21.639663
_cell_angle_gamma 26.930410
_cell_volume 535.984696
_symmetry_space_group_name_H-M "P -1"
_symmetry_group_IT_number 2
_symmetry_cell_setting 'triclinic'
loop_
_space_group_symop_operation_xyz
x,y,z
-x,-y,-z
loop_
_atom_site_type_symbol
_atom_site_label
_atom_site_fract_x
_atom_site_fract_y
_atom_site_fract_z
Si Si1 0.163170 0.977858 0.951542
Si Si2 0.444235 0.004552 0.943207
Si Si3 0.990469 0.636015 0.391224
Si Si4 0.555403 0.816055 0.232107
Si Si5 0.234630 0.573247 0.477859
Si Si6 0.276453 0.814511 0.215016
Si Si7 0.971944 0.237518 0.789777
O O1 0.453048 0.583778 0.865543
O O2 0.250575 0.230720 0.833661
O O3 0.994086 0.003318 0.112122
O O4 0.000000 0.000000 0.000000
O O5 0.655484 0.583209 0.909450
O O6 0.327684 0.178982 0.909358
O O7 0.644193 0.096500 0.805036
O O8 0.266314 0.067401 0.099710
O O9 0.026085 0.795958 0.378326
O O10 0.994012 0.860837 0.271499
O O11 0.746388 0.620880 0.539314
O O12 0.266664 0.223954 0.315977
O O13 0.474489 0.554536 0.352742
O O14 0.144762 0.390989 0.633006
O O15 0.000000 0.000000 0.500000
#
# Coordination Sequence:
#
# PCOD9080902 Si02
#       7
#     2   2   2   2   2   2   2
#     4  10  19  30  43  61  83 117 152 174 194 240
#     4   9  15  24  44  67  90 105 131 172 232 249
#     4   7  13  24  43  60  85 106 132 168 214 248
#     4   9  15  27  45  61  85 112 140 174 209 251
#     4   8  13  25  44  67  88 103 135 174 213 259
#     4   9  16  26  40  67  92 107 131 179 211 255
#     4   8  15  27  46  64  88 107 139 168 213 258
#
# _framework density 26.120148
#
# number of rings (size 3 to 8) (size 9 to 14) (size 15 to 20)
#    0.857    2.571    1.429    0.857    0.000    3.429 
#    0.000    2.143    0.000    0.000    0.000    1.000 
#    0.000    0.000    0.000    0.000    0.000    0.000 
#
# Total GULP energy -78013.452392 kJ/mol
# GULP energy per Si atom -5572.389457 kJ/mol
# Density = 2.606070 g / cm^3
# Si number density = 26.120148 Si / 1000 Ang^3
#
#
#
# Elastic Constant Matrix: (Units=GPa)
#
#
# Indices 1 2 3 4 5 6 
#
# 1 182.1505 9.5242 71.6285 -16.3597 -58.9264 10.7365
# 2 9.5242 46.9964 14.2528 1.4837 -3.1985 -1.6198
# 3 71.6285 14.2528 124.1980 -20.6508 -38.0028 1.8039
# 4 -16.3597 1.4837 -20.6508 20.5055 16.1668 -3.8771
# 5 -58.9264 -3.1985 -38.0028 16.1668 66.6261 -8.5721
# 6 10.7365 -1.6198 1.8039 -3.8771 -8.5721 19.8463
#
#
#
# Elastic Compliance Matrix: (Units=1/GPa)
#
#
# Indices 1 2 3 4 5 6 
#
# 1 0.008742 -0.000365 -0.003427 -0.001466 0.005830 -0.002216
# 2 -0.000365 0.022540 -0.003121 -0.005105 0.000411 0.001501
# 3 -0.003427 -0.003121 0.012497 0.008954 0.002180 0.003154
# 4 -0.001466 -0.005105 0.008954 0.067821 -0.011904 0.007670
# 5 0.005830 0.000411 0.002180 -0.011904 0.024979 0.005145
# 6 -0.002216 0.001501 0.003154 0.007670 0.005145 0.055142
#
#
# Mechanical properties :
#
#
# Convention : Reuss Voigt Hill
#
# Bulk Modulus (GPa) = 33.38867 60.46176 46.92521
# Shear Modulus (GPa) = 23.19858 38.59154 30.89506
#
# Velocity S-wave (km/s) = 2.98342 3.84795 3.44293
# Velocity P-wave (km/s) = 4.96771 6.55287 5.81456
#
# Compressibility (1/GPa) = 0.02995028
#
# Stress axis : x y z
#
# Youngs Moduli (GPa) = 114.39407 44.36628 80.02202
#
# Poissons Ratio (x) = 0.01621 0.27427
# Poissons Ratio (y) = 0.04180 0.24974
# Poissons Ratio (z) = 0.39208 0.13846
#
# Static dielectric constant tensor:
#      x y z
#    x 2.129090 -0.049320 -0.019690 
#    y -0.049320 2.099850 -0.044580 
#    z -0.019690 -0.044580 2.146470 
# 
# From -- ./inp_files/281161.got.cif
#   From: 2010.05.17/outbox.cif.g08.bks.cpg/sg2_141_cif.got.tgz:281161.got - 2010.06.03 11:33:40.
