data_PCOD9080825
_publ_section_title
;
Structure prediction by ZEFSAII (Michael W. Deem and Ramdas Pophale) SiO2 
 PCOD9080825
Probable space group: P -1
;
_chemical_formula_sum "Si O2"
_cell_formula_units_Z 12
_cell_length_a 7.785995
_cell_length_b 9.396906
_cell_length_c 12.841422
_cell_angle_alpha 113.964322
_cell_angle_beta 40.018046
_cell_angle_gamma 133.512904
_cell_volume 423.101017
_symmetry_space_group_name_H-M "P -1"
_symmetry_group_IT_number 2
_symmetry_cell_setting 'triclinic'
loop_
_space_group_symop_operation_xyz
x,y,z
-x,-y,-z
loop_
_atom_site_type_symbol
_atom_site_label
_atom_site_fract_x
_atom_site_fract_y
_atom_site_fract_z
Si Si1 0.052433 0.166172 0.719344
Si Si2 0.552953 0.555704 0.869200
Si Si3 0.205843 0.107290 0.831260
Si Si4 0.782577 0.324597 0.349585
Si Si5 0.879570 0.213912 0.606281
Si Si6 0.616870 0.379912 0.233233
O O1 0.946013 0.040693 0.836704
O O2 0.033752 0.442312 0.632685
O O3 0.390480 0.197776 0.532154
O O4 0.196599 0.391178 0.747721
O O5 0.409172 0.346191 0.820051
O O6 0.380605 0.622766 0.894825
O O7 0.500000 0.500000 0.000000
O O8 0.973870 0.710495 0.718944
O O9 0.196393 0.900180 0.282463
O O10 0.000000 0.000000 0.000000
O O11 0.206096 0.251297 0.412673
O O12 0.771997 0.315466 0.225245
O O13 0.525273 0.105298 0.675421
#
# Coordination Sequence:
#
# PCOD9080825 Si02
#       6
#     2   2   2   2   2   2
#     4   8  14  26  45  66  84 106 143 186 216 240
#     4  10  19  29  43  65  91 116 140 170 212 258
#     4  10  19  29  43  65  91 116 140 170 212 258
#     4   8  14  26  45  66  84 106 143 186 216 240
#     4   8  14  26  45  66  84 106 143 186 216 240
#     4   8  14  26  45  66  84 106 143 186 216 240
#
# _framework density 28.362020999999999
#
# number of rings (size 3 to 8) (size 9 to 14) (size 15 to 20)
#    0.000    3.333    0.000    3.000    0.000    5.333 
#    0.000    0.000    0.000    4.000    0.000    4.667 
#    0.000    0.000    0.000    0.000    0.000    0.000 
#
# Total GULP energy -67133.994316 kJ/mol
# GULP energy per Si atom -5594.499526 kJ/mol
# Density = 2.829747 g / cm^3
# Si number density = 28.362021 Si / 1000 Ang^3
#
#
#
# Elastic Constant Matrix: (Units=GPa)
#
#
# Indices 1 2 3 4 5 6 
#
# 1 149.8752 27.0567 20.0561 -1.7069 33.6634 -1.1261
# 2 27.0567 118.7089 -16.0345 1.0526 -7.8079 17.8071
# 3 20.0561 -16.0345 88.6523 -2.9576 20.5715 -6.1869
# 4 -1.7069 1.0526 -2.9576 17.9930 -3.8957 -3.1777
# 5 33.6634 -7.8079 20.5715 -3.8957 58.9229 -3.0936
# 6 -1.1261 17.8071 -6.1869 -3.1777 -3.0936 37.1103
#
#
#
# Elastic Compliance Matrix: (Units=1/GPa)
#
#
# Indices 1 2 3 4 5 6 
#
# 1 0.008329 -0.002492 -0.001205 -0.000114 -0.004631 0.000852
# 2 -0.002492 0.010021 0.001588 -0.000954 0.001896 -0.004543
# 3 -0.001205 0.001588 0.012756 0.001358 -0.003404 0.001161
# 4 -0.000114 -0.000954 0.001358 0.057667 0.003588 0.005918
# 5 -0.004631 0.001896 -0.003404 0.003588 0.021318 0.000467
# 6 0.000852 -0.004543 0.001161 0.005918 0.000467 0.029892
#
#
# Mechanical properties :
#
#
# Convention : Reuss Voigt Hill
#
# Bulk Modulus (GPa) = 37.19367 46.59924 41.89645
# Shear Modulus (GPa) = 32.64464 44.54910 38.59687
#
# Velocity S-wave (km/s) = 3.39632 3.96754 3.69299
# Velocity P-wave (km/s) = 5.34063 6.12000 5.74355
#
# Compressibility (1/GPa) = 0.02688630
#
# Stress axis : x y z
#
# Youngs Moduli (GPa) = 120.06828 99.78893 78.39495
#
# Poissons Ratio (x) = 0.24872 0.09445
# Poissons Ratio (y) = 0.29926 -0.12446
# Poissons Ratio (z) = 0.14466 -0.15842
#
# Static dielectric constant tensor:
#      x y z
#    x 2.196500 -0.030090 0.051310 
#    y -0.030090 2.237810 -0.006860 
#    z 0.051310 -0.006860 2.299060 
# 
# From -- ./inp_files/390351.got.cif
#   From: 2010.05.17/outbox.cif.g08.bks.cpg/sg2_196_cif.got.tgz:390351.got - 2010.06.03 11:33:40.
