data_PCOD9080873
_publ_section_title
;
Structure prediction by ZEFSAII (Michael W. Deem and Ramdas Pophale) SiO2 
 PCOD9080873
Probable space group: P -1
;
_chemical_formula_sum "Si O2"
_cell_formula_units_Z 16
_cell_length_a 11.931726
_cell_length_b 24.833559
_cell_length_c 10.101031
_cell_angle_alpha 145.538777
_cell_angle_beta 145.592186
_cell_angle_gamma 36.145323
_cell_volume 877.932237
_symmetry_space_group_name_H-M "P -1"
_symmetry_group_IT_number 2
_symmetry_cell_setting 'triclinic'
loop_
_space_group_symop_operation_xyz
x,y,z
-x,-y,-z
loop_
_atom_site_type_symbol
_atom_site_label
_atom_site_fract_x
_atom_site_fract_y
_atom_site_fract_z
Si Si1 0.195059 0.927988 0.712332
Si Si2 0.959759 0.642747 0.213461
Si Si3 0.188892 0.888093 0.918990
Si Si4 0.769198 0.131794 0.660851
Si Si5 0.212149 0.715373 0.805361
Si Si6 0.470662 0.043287 0.329400
Si Si7 0.645841 0.544082 0.815915
Si Si8 0.677379 0.870066 0.370880
O O1 0.965442 0.021375 0.652884
O O2 0.178022 0.873304 0.721281
O O3 0.259483 0.856744 0.501233
O O4 0.363024 0.983684 0.011733
O O5 0.842444 0.756081 0.267495
O O6 0.063614 0.658135 0.487206
O O7 0.155071 0.559641 0.151131
O O8 0.775495 0.599766 0.973583
O O9 0.189778 0.797051 0.830456
O O10 0.431417 0.880557 0.156472
O O11 0.000000 0.000000 0.000000
O O12 0.562898 0.118847 0.501167
O O13 0.834915 0.216418 0.969875
O O14 0.460509 0.632992 0.897489
O O15 0.297340 0.101801 0.394723
O O16 0.664044 0.954053 0.418010
O O17 0.500000 0.500000 0.500000
#
# Coordination Sequence:
#
# PCOD9080873 Si02
#       8
#     2   2   2   2   2   2   2   2
#     4  10  22  31  46  71 104 143 178 205 242 299
#     4  10  19  31  51  78 105 127 164 216 260 302
#     4  11  19  33  49  76 107 140 172 212 249 298
#     4  11  20  34  47  70 108 142 173 205 248 296
#     4  11  20  31  54  74 104 136 169 210 257 300
#     4  10  19  31  47  71 108 140 171 207 246 298
#     4   9  19  35  50  77 105 126 161 214 268 304
#     4  10  19  29  50  79 105 135 176 209 255 300
#
# _framework density 18.224641999999999
#
# number of rings (size 3 to 8) (size 9 to 14) (size 15 to 20)
#    0.000    1.750    3.750    1.125    5.250    0.000 
#    0.000    0.000    0.000    0.000    0.000   11.375 
#    0.000    0.625    0.000    0.000    0.000    0.000 
#
# Total GULP energy -89091.642058 kJ/mol
# GULP energy per Si atom -5568.227629 kJ/mol
# Density = 1.818316 g / cm^3
# Si number density = 18.224642 Si / 1000 Ang^3
#
#
#
# Elastic Constant Matrix: (Units=GPa)
#
#
# Indices 1 2 3 4 5 6 
#
# 1 58.1490 17.0661 38.4628 -3.9268 -7.5541 -3.2101
# 2 17.0661 91.2580 -0.7818 9.6506 -10.0378 -14.8636
# 3 38.4628 -0.7818 91.5911 -6.0427 -2.6051 7.6113
# 4 -3.9268 9.6506 -6.0427 23.3621 -4.5700 0.8528
# 5 -7.5541 -10.0378 -2.6051 -4.5700 38.7558 -9.0454
# 6 -3.2101 -14.8636 7.6113 0.8528 -9.0454 19.8322
#
#
#
# Elastic Compliance Matrix: (Units=1/GPa)
#
#
# Indices 1 2 3 4 5 6 
#
# 1 0.027766 -0.003524 -0.012015 0.003911 0.006292 0.009166
# 2 -0.003524 0.015089 0.000243 -0.006148 0.005662 0.013492
# 3 -0.012015 0.000243 0.016815 0.001961 -0.003195 -0.009758
# 4 0.003911 -0.006148 0.001961 0.047419 0.003709 -0.005074
# 5 0.006292 0.005662 -0.003195 0.003709 0.033792 0.021741
# 6 0.009166 0.013492 -0.009758 -0.005074 0.021741 0.075898
#
#
# Mechanical properties :
#
#
# Convention : Reuss Voigt Hill
#
# Bulk Modulus (GPa) = 34.38953 38.94358 36.66656
# Shear Modulus (GPa) = 19.45032 28.80677 24.12855
#
# Velocity S-wave (km/s) = 3.27043 3.98005 3.64256
# Velocity P-wave (km/s) = 5.75949 6.52197 6.15255
#
# Compressibility (1/GPa) = 0.02907862
#
# Stress axis : x y z
#
# Youngs Moduli (GPa) = 36.01475 66.27149 59.47030
#
# Poissons Ratio (x) = 0.23355 0.71454
# Poissons Ratio (y) = 0.12692 -0.01445
# Poissons Ratio (z) = 0.43272 -0.01610
#
# Static dielectric constant tensor:
#      x y z
#    x 1.648140 -0.030480 0.026110 
#    y -0.030480 1.674060 0.007870 
#    z 0.026110 0.007870 1.721760 
# 
# From -- ./inp_files/284507.got.cif
#   From: 2010.05.17/outbox.cif.g08.bks.cpg/sg2_143_cif.got.tgz:284507.got - 2010.06.03 11:33:40.
