data_PCOD9080918
_publ_section_title
;
Structure prediction by ZEFSAII (Michael W. Deem and Ramdas Pophale) SiO2 
 PCOD9080918
Probable space group: P -1
;
_chemical_formula_sum "Si O2"
_cell_formula_units_Z 16
_cell_length_a 9.209879
_cell_length_b 11.339485
_cell_length_c 8.764781
_cell_angle_alpha 40.800939
_cell_angle_beta 110.687198
_cell_angle_gamma 112.114617
_cell_volume 550.582049
_symmetry_space_group_name_H-M "P -1"
_symmetry_group_IT_number 2
_symmetry_cell_setting 'triclinic'
loop_
_space_group_symop_operation_xyz
x,y,z
-x,-y,-z
loop_
_atom_site_type_symbol
_atom_site_label
_atom_site_fract_x
_atom_site_fract_y
_atom_site_fract_z
Si Si1 0.469569 0.210450 0.893785
Si Si2 0.090063 0.415773 0.399698
Si Si3 0.324445 0.534643 0.093416
Si Si4 0.125776 0.278256 0.059065
Si Si5 0.820181 0.986595 0.921309
Si Si6 0.563958 0.920470 0.448085
Si Si7 0.117961 0.847207 0.639591
Si Si8 0.674118 0.345059 0.541808
O O1 0.505375 0.375297 0.867224
O O2 0.572333 0.287647 0.713545
O O3 0.289352 0.124854 0.879297
O O4 0.524171 0.042701 0.168807
O O5 0.222046 0.445705 0.286465
O O6 0.197169 0.475985 0.533452
O O7 0.980212 0.227585 0.477157
O O8 0.977925 0.572164 0.191509
O O9 0.279999 0.398785 0.072345
O O10 0.233132 0.699569 0.851727
O O11 0.196162 0.145128 0.101267
O O12 0.997839 0.174266 0.236147
O O13 0.779096 0.187848 0.703593
O O14 0.000000 0.000000 0.000000
O O15 0.752214 0.967452 0.481471
O O16 0.500000 0.000000 0.500000
O O17 0.461842 0.719304 0.574346
#
# Coordination Sequence:
#
# PCOD9080918 Si02
#       8
#     2   2   2   2   2   2   2   2
#     4   9  19  33  49  67  93 126 155 192 229 273
#     4   8  13  27  45  66  90 119 154 186 226 274
#     4   7  13  26  44  63  90 120 153 183 227 274
#     4   9  15  24  42  70  97 119 144 190 238 275
#     4  11  19  23  40  73 102 118 148 190 234 273
#     4  10  19  30  47  69  93 123 159 192 226 275
#     4   8  15  27  46  64  89 126 153 186 230 274
#     4  10  19  33  50  69  96 124 155 192 231 275
#
# _framework density 29.060157
#
# number of rings (size 3 to 8) (size 9 to 14) (size 15 to 20)
#    0.000    3.000    1.250    3.750    1.750    0.500 
#    0.000    0.625    0.000    3.000    0.000    0.000 
#    0.000   63.000    0.000    0.000    0.000    0.000 
#
# Total GULP energy -89462.395890 kJ/mol
# GULP energy per Si atom -5591.399743 kJ/mol
# Density = 2.899401 g / cm^3
# Si number density = 29.060157 Si / 1000 Ang^3
#
#
#
# Elastic Constant Matrix: (Units=GPa)
#
#
# Indices 1 2 3 4 5 6 
#
# 1 115.2128 52.0735 36.5604 7.3021 -13.7315 40.1513
# 2 52.0735 230.0420 0.6864 18.9565 14.0315 16.5520
# 3 36.5604 0.6864 67.4298 6.5570 -12.8377 7.6308
# 4 7.3021 18.9565 6.5570 43.9789 -4.6686 10.3124
# 5 -13.7315 14.0315 -12.8377 -4.6686 45.9837 11.3483
# 6 40.1513 16.5520 7.6308 10.3124 11.3483 73.3301
#
#
#
# Elastic Compliance Matrix: (Units=1/GPa)
#
#
# Indices 1 2 3 4 5 6 
#
# 1 0.016042 -0.003595 -0.006718 0.002591 0.006404 -0.008629
# 2 -0.003595 0.005450 0.001425 -0.002610 -0.002952 0.001414
# 3 -0.006718 0.001425 0.018970 -0.002407 0.002273 0.001369
# 4 0.002591 -0.002610 -0.002407 0.025434 0.004685 -0.004881
# 5 0.006404 -0.002952 0.002273 0.004685 0.027648 -0.008014
# 6 -0.008629 0.001414 0.001369 -0.004881 -0.008014 0.019827
#
#
# Mechanical properties :
#
#
# Convention : Reuss Voigt Hill
#
# Bulk Modulus (GPa) = 44.07618 65.70279 54.88949
# Shear Modulus (GPa) = 36.04730 54.21615 45.13172
#
# Velocity S-wave (km/s) = 3.52580 4.32401 3.94514
# Velocity P-wave (km/s) = 5.63695 6.89838 6.29932
#
# Compressibility (1/GPa) = 0.02268799
#
# Stress axis : x y z
#
# Youngs Moduli (GPa) = 62.33577 183.49031 52.71536
#
# Poissons Ratio (x) = 0.65957 0.35412
# Poissons Ratio (y) = 0.22407 -0.07513
# Poissons Ratio (z) = 0.41874 -0.26151
#
# Static dielectric constant tensor:
#      x y z
#    x 2.161530 0.213020 0.075110 
#    y 0.213020 1.994010 0.097300 
#    z 0.075110 0.097300 2.358010 
# 
# From -- ./inp_files/176408.got.cif
#   From: 2010.05.17/outbox.cif.g08.bks.cpg/sg2_89_cif.got.tgz:176408.got - 2010.06.03 11:33:40.
