data_PCOD9080302
_publ_section_title
;
Structure prediction by ZEFSAII (Michael W. Deem and Ramdas Pophale) SiO2 
 PCOD9080302
Probable space group: P -1
;
_chemical_formula_sum "Si O2"
_cell_formula_units_Z 14
_cell_length_a 11.542701
_cell_length_b 13.691197
_cell_length_c 7.103410
_cell_angle_alpha 139.849780
_cell_angle_beta 119.820791
_cell_angle_gamma 57.016141
_cell_volume 600.289600
_symmetry_space_group_name_H-M "P -1"
_symmetry_group_IT_number 2
_symmetry_cell_setting 'triclinic'
loop_
_space_group_symop_operation_xyz
x,y,z
-x,-y,-z
loop_
_atom_site_type_symbol
_atom_site_label
_atom_site_fract_x
_atom_site_fract_y
_atom_site_fract_z
Si Si1 0.161147 0.101491 0.242748
Si Si2 0.651197 0.813940 0.030554
Si Si3 0.336787 0.691027 0.175870
Si Si4 0.157427 0.752084 0.776262
Si Si5 0.646117 0.484357 0.694256
Si Si6 0.434001 0.150315 0.426128
Si Si7 0.848086 0.985322 0.327975
O O1 0.160583 0.062227 0.962982
O O2 0.174061 0.928384 0.083998
O O3 0.297168 0.161021 0.455327
O O4 0.008228 0.219159 0.334484
O O5 0.671719 0.649466 0.906779
O O6 0.611052 0.803137 0.760025
O O7 0.795376 0.860793 0.222872
O O8 0.526855 0.964997 0.225862
O O9 0.467578 0.743123 0.278157
O O10 0.258065 0.847526 0.460601
O O11 0.236253 0.659974 0.886952
O O12 0.633317 0.443222 0.840551
O O13 0.237781 0.659757 0.525868
O O14 0.500000 0.500000 0.500000
O O15 0.000000 0.000000 0.500000
#
# Coordination Sequence:
#
# PCOD9080302 Si02
#       7
#     2   2   2   2   2   2   2
#     4  10  20  39  65  95 129 165 217 264 319 374
#     4   9  19  35  66  94 122 170 215 253 323 379
#     4  11  22  39  69  96 126 168 219 261 312 381
#     4  11  24  38  66  99 125 171 215 260 321 381
#     4  12  23  42  65  92 137 173 202 265 327 379
#     4   9  18  39  67  94 118 169 218 262 314 375
#     4  10  18  38  70  93 124 168 214 267 313 374
#
# _framework density 23.322075000000002
#
# number of rings (size 3 to 8) (size 9 to 14) (size 15 to 20)
#    0.000    1.714    4.286    1.714    0.000    1.143 
#    0.000    3.571    6.286    0.000    0.000    0.000 
#    0.000    0.000    0.000    0.000    0.000    0.000 
#
# Total GULP energy -78355.627829 kJ/mol
# GULP energy per Si atom -5596.830559 kJ/mol
# Density = 2.326899 g / cm^3
# Si number density = 23.322075 Si / 1000 Ang^3
#
#
#
# Elastic Constant Matrix: (Units=GPa)
#
#
# Indices 1 2 3 4 5 6 
#
# 1 153.3648 65.9575 28.7686 14.3928 21.2477 -22.7451
# 2 65.9575 109.8556 27.0309 -1.1696 21.5698 3.3492
# 3 28.7686 27.0309 67.3424 15.3983 -1.5683 -12.4439
# 4 14.3928 -1.1696 15.3983 30.5539 1.3237 -1.1962
# 5 21.2477 21.5698 -1.5683 1.3237 38.7297 10.4603
# 6 -22.7451 3.3492 -12.4439 -1.1962 10.4603 50.1006
#
#
#
# Elastic Compliance Matrix: (Units=1/GPa)
#
#
# Indices 1 2 3 4 5 6 
#
# 1 0.011120 -0.006052 -0.000140 -0.004974 -0.004236 0.006184
# 2 -0.006052 0.015267 -0.005883 0.006434 -0.004525 -0.004131
# 3 -0.000140 -0.005883 0.020579 -0.010499 0.003331 0.004495
# 4 -0.004974 0.006434 -0.010499 0.040522 -0.001585 -0.003997
# 5 -0.004236 -0.004525 0.003331 -0.001585 0.032935 -0.007707
# 6 0.006184 -0.004131 0.004495 -0.003997 -0.007707 0.025674
#
#
# Mechanical properties :
#
#
# Convention : Reuss Voigt Hill
#
# Bulk Modulus (GPa) = 43.82615 63.78633 53.80624
# Shear Modulus (GPa) = 28.11344 37.79722 32.95533
#
# Velocity S-wave (km/s) = 3.47572 4.03011 3.76314
# Velocity P-wave (km/s) = 5.91100 7.00466 6.48094
#
# Compressibility (1/GPa) = 0.02281743
#
# Stress axis : x y z
#
# Youngs Moduli (GPa) = 89.92682 65.50191 48.59236
#
# Poissons Ratio (x) = 0.39641 0.00680
# Poissons Ratio (y) = 0.54422 0.28585
# Poissons Ratio (z) = 0.01259 0.38532
#
# Static dielectric constant tensor:
#      x y z
#    x 1.929590 0.006140 0.013210 
#    y 0.006140 1.888980 -0.011330 
#    z 0.013210 -0.011330 1.822450 
# 
# From -- ./inp_files/201381.got.cif
#   From: 2010.05.17/outbox.cif.g08.bks.cpg/sg2_101_cif.got.tgz:201381.got - 2010.06.03 11:33:40.
