data_PCOD9080175
_publ_section_title
;
Structure prediction by ZEFSAII (Michael W. Deem and Ramdas Pophale) SiO2 
 PCOD9080175
Probable space group: P -1
;
_chemical_formula_sum "Si O2"
_cell_formula_units_Z 12
_cell_length_a 12.082283
_cell_length_b 7.999855
_cell_length_c 11.496722
_cell_angle_alpha 74.679741
_cell_angle_beta 61.003278
_cell_angle_gamma 125.768204
_cell_volume 501.684812
_symmetry_space_group_name_H-M "P -1"
_symmetry_group_IT_number 2
_symmetry_cell_setting 'triclinic'
loop_
_space_group_symop_operation_xyz
x,y,z
-x,-y,-z
loop_
_atom_site_type_symbol
_atom_site_label
_atom_site_fract_x
_atom_site_fract_y
_atom_site_fract_z
Si Si1 0.247802 0.706845 0.876317
Si Si2 0.573276 0.404133 0.644850
Si Si3 0.225446 0.683369 0.156753
Si Si4 0.258731 0.349776 0.849996
Si Si5 0.022206 0.853432 0.442728
Si Si6 0.689541 0.848204 0.951684
O O1 0.433281 0.081250 0.719824
O O2 0.218619 0.607541 0.042829
O O3 0.309171 0.611865 0.782717
O O4 0.000000 0.500000 0.000000
O O5 0.849745 0.688443 0.450104
O O6 0.454228 0.452487 0.667822
O O7 0.530595 0.354102 0.817046
O O8 0.060618 0.398500 0.386843
O O9 0.150910 0.798288 0.165461
O O10 0.500000 0.000000 0.000000
O O11 0.251637 0.265237 0.999395
O O12 0.000000 0.000000 0.000000
O O13 0.282921 0.129647 0.204468
O O14 0.000000 0.000000 0.500000
#
# Coordination Sequence:
#
# PCOD9080175 Si02
#       6
#     2   2   2   2   2   2
#     4  11  19  36  68  89 121 171 205 254 320 372
#     4   9  22  40  59  92 125 159 214 254 313 370
#     4  11  20  40  63  90 127 166 209 261 312 374
#     4  10  18  38  65  89 124 167 210 252 316 379
#     4  12  23  39  61  92 128 165 213 262 313 371
#     4   9  21  38  59  88 124 163 208 259 311 366
#
# _framework density 23.9194
#
# number of rings (size 3 to 8) (size 9 to 14) (size 15 to 20)
#    1.000    0.667    5.000    1.500    0.000    2.000 
#    3.000    0.833    0.000    5.000    0.000    0.000 
#    0.000    0.000    0.000    0.000    0.000    0.000 
#
# Total GULP energy -66811.357317 kJ/mol
# GULP energy per Si atom -5567.613110 kJ/mol
# Density = 2.386496 g / cm^3
# Si number density = 23.919400 Si / 1000 Ang^3
#
#
#
# Elastic Constant Matrix: (Units=GPa)
#
#
# Indices 1 2 3 4 5 6 
#
# 1 92.4000 49.6737 14.1913 -8.0685 -19.8082 -13.9354
# 2 49.6737 150.9284 19.4315 -3.7615 -25.0845 -21.0754
# 3 14.1913 19.4315 79.6757 8.0275 2.6296 -0.0442
# 4 -8.0685 -3.7615 8.0275 31.3922 1.1386 -10.8765
# 5 -19.8082 -25.0845 2.6296 1.1386 24.7903 4.5105
# 6 -13.9354 -21.0754 -0.0442 -10.8765 4.5105 57.4606
#
#
#
# Elastic Compliance Matrix: (Units=1/GPa)
#
#
# Indices 1 2 3 4 5 6 
#
# 1 0.015613 -0.002654 -0.002960 0.005174 0.009309 0.003059
# 2 -0.002654 0.009347 -0.002201 0.001625 0.007034 0.002538
# 3 -0.002960 -0.002201 0.014320 -0.005203 -0.005497 -0.002068
# 4 0.005174 0.001625 -0.005203 0.037626 0.003014 0.008732
# 5 0.009309 0.007034 -0.005497 0.003014 0.055143 0.001075
# 6 0.003059 0.002538 -0.002068 0.008732 0.001075 0.020643
#
#
# Mechanical properties :
#
#
# Convention : Reuss Voigt Hill
#
# Bulk Modulus (GPa) = 42.28754 54.39968 48.34361
# Shear Modulus (GPa) = 28.37597 38.70913 33.54255
#
# Velocity S-wave (km/s) = 3.44803 4.02719 3.74881
# Velocity P-wave (km/s) = 5.79391 6.66458 6.24444
#
# Compressibility (1/GPa) = 0.02364763
#
# Stress axis : x y z
#
# Youngs Moduli (GPa) = 64.04963 106.99188 69.83466
#
# Poissons Ratio (x) = 0.28395 0.20674
# Poissons Ratio (y) = 0.16999 0.15372
# Poissons Ratio (z) = 0.18962 0.23551
#
# Static dielectric constant tensor:
#      x y z
#    x 1.440890 -0.204220 -0.172930 
#    y -0.204220 1.851210 -0.029380 
#    z -0.172930 -0.029380 1.957900 
# 
# From -- ./inp_files/444575.got.cif
#   From: 2010.05.17/outbox.cif.g08.bks.cpg/sg2_223_cif.got.tgz:444575.got - 2010.06.03 11:33:40.
