data_PCOD9080716
_publ_section_title
;
Structure prediction by ZEFSAII (Michael W. Deem and Ramdas Pophale) SiO2 
 PCOD9080716
Probable space group: P -1
;
_chemical_formula_sum "Si O2"
_cell_formula_units_Z 11
_cell_length_a 10.293634
_cell_length_b 7.727178
_cell_length_c 7.434601
_cell_angle_alpha 93.069805
_cell_angle_beta 44.445916
_cell_angle_gamma 71.003398
_cell_volume 353.139757
_symmetry_space_group_name_H-M "P -1"
_symmetry_group_IT_number 2
_symmetry_cell_setting 'triclinic'
loop_
_space_group_symop_operation_xyz
x,y,z
-x,-y,-z
loop_
_atom_site_type_symbol
_atom_site_label
_atom_site_fract_x
_atom_site_fract_y
_atom_site_fract_z
Si Si1 0.212640 0.110502 0.916289
Si Si2 0.074375 0.822059 0.241497
Si Si3 0.350817 0.437247 0.747291
Si Si4 0.144060 0.555952 0.479723
Si Si5 0.500000 0.500000 0.000000
Si Si6 0.616727 0.081628 0.645403
O O1 0.137538 0.965265 0.096736
O O2 0.267650 0.977703 0.665947
O O3 0.980639 0.320378 0.221703
O O4 0.414649 0.057818 0.856637
O O5 0.216298 0.681940 0.269253
O O6 0.825084 0.944978 0.553652
O O7 0.139578 0.635649 0.036693
O O8 0.500000 0.500000 0.500000
O O9 0.299044 0.272444 0.728385
O O10 0.399050 0.397889 0.228015
O O11 0.000000 0.500000 0.500000
O O12 0.502171 0.664393 0.208450
#
# Coordination Sequence:
#
# PCOD9080716 Si02
#       6
#     2   2   2   2   1   2
#     4   9  19  41  65 101 136 173 228 280 339 403
#     4  10  21  41  66  96 135 175 226 280 338 399
#     4  10  21  40  65  96 138 176 224 280 332 405
#     4  10  18  41  70  95 137 177 224 282 343 401
#     4   8  22  38  60 106 128 168 226 276 334 402
#     4   9  21  41  64 104 132 177 230 272 342 405
#
# _framework density 31.149139999999999
#
# number of rings (size 3 to 8) (size 9 to 14) (size 15 to 20)
#    2.182    0.364    1.818    0.000    0.000    3.636 
#    3.273    0.909    4.000    0.000    0.000    0.000 
#    0.000    0.000    0.000    0.000    0.000    0.000 
#
# Total GULP energy -61268.655078 kJ/mol
# GULP energy per Si atom -5569.877734 kJ/mol
# Density = 3.107824 g / cm^3
# Si number density = 31.149140 Si / 1000 Ang^3
#
#
#
# Elastic Constant Matrix: (Units=GPa)
#
#
# Indices 1 2 3 4 5 6 
#
# 1 169.6922 45.6662 75.7427 -4.9217 -14.8168 8.2131
# 2 45.6662 176.0255 63.9726 5.8123 -13.8221 19.6397
# 3 75.7427 63.9726 262.7183 2.8868 -19.4088 -10.2381
# 4 -4.9217 5.8123 2.8868 68.5147 1.6886 -2.5699
# 5 -14.8168 -13.8221 -19.4088 1.6886 83.0045 -9.3151
# 6 8.2131 19.6397 -10.2381 -2.5699 -9.3151 41.5027
#
#
#
# Elastic Compliance Matrix: (Units=1/GPa)
#
#
# Indices 1 2 3 4 5 6 
#
# 1 0.007101 -0.001028 -0.001812 0.000615 0.000524 -0.001210
# 2 -0.001028 0.006917 -0.001495 -0.000732 0.000249 -0.003428
# 3 -0.001812 -0.001495 0.004852 -0.000137 0.000839 0.002443
# 4 0.000615 -0.000732 -0.000137 0.014753 -0.000226 0.001054
# 5 0.000524 0.000249 0.000839 -0.000226 0.012700 0.002822
# 6 -0.001210 -0.003428 0.002443 0.001054 0.002822 0.027258
#
#
# Mechanical properties :
#
#
# Convention : Reuss Voigt Hill
#
# Bulk Modulus (GPa) = 98.04481 108.79989 103.42235
# Shear Modulus (GPa) = 58.37735 66.80802 62.59268
#
# Velocity S-wave (km/s) = 4.33381 4.63620 4.48755
# Velocity P-wave (km/s) = 7.52242 7.97895 7.75405
#
# Compressibility (1/GPa) = 0.01019942
#
# Stress axis : x y z
#
# Youngs Moduli (GPa) = 140.83317 144.56595 206.11958
#
# Poissons Ratio (x) = 0.14857 0.37350
# Poissons Ratio (y) = 0.14473 0.30820
# Poissons Ratio (z) = 0.25520 0.21616
#
# Static dielectric constant tensor:
#      x y z
#    x 18.229940 3.045730 7.369550 
#    y 3.045730 3.855480 1.918810 
#    z 7.369550 1.918810 6.065280 
# 
# From -- ./inp_files/234011.got.cif
#   From: 2010.05.17/outbox.cif.g08.bks.cpg/sg2_118_cif.got.tgz:234011.got - 2010.06.03 11:33:40.
