data_PCOD9080372
_publ_section_title
;
Structure prediction by ZEFSAII (Michael W. Deem and Ramdas Pophale) SiO2 
 PCOD9080372
Probable space group: P -1
;
_chemical_formula_sum "Si O2"
_cell_formula_units_Z 16
_cell_length_a 8.512897
_cell_length_b 12.271192
_cell_length_c 22.700430
_cell_angle_alpha 145.010929
_cell_angle_beta 141.373721
_cell_angle_gamma 60.557870
_cell_volume 772.348301
_symmetry_space_group_name_H-M "P -1"
_symmetry_group_IT_number 2
_symmetry_cell_setting 'triclinic'
loop_
_space_group_symop_operation_xyz
x,y,z
-x,-y,-z
loop_
_atom_site_type_symbol
_atom_site_label
_atom_site_fract_x
_atom_site_fract_y
_atom_site_fract_z
Si Si1 0.541381 0.082180 0.483554
Si Si2 0.412312 0.252651 0.233532
Si Si3 0.678991 0.694328 0.559042
Si Si4 0.688822 0.044871 0.133377
Si Si5 0.455585 0.322847 0.984864
Si Si6 0.178035 0.231332 0.739400
Si Si7 0.114248 0.818598 0.015267
Si Si8 0.474706 0.973318 0.295151
O O1 0.500000 0.000000 0.500000
O O2 0.367400 0.217218 0.478843
O O3 0.441741 0.911382 0.326579
O O4 0.870388 0.201498 0.622549
O O5 0.573499 0.450960 0.409416
O O6 0.595372 0.169969 0.210510
O O7 0.224975 0.059797 0.134434
O O8 0.202471 0.292996 0.145257
O O9 0.507082 0.790389 0.591199
O O10 0.992839 0.811362 0.723213
O O11 0.500000 0.000000 0.000000
O O12 0.656496 0.828467 0.059346
O O13 0.596980 0.571688 0.142535
O O14 0.237510 0.269233 0.843506
O O15 0.706993 0.275174 0.010883
O O16 0.257188 0.041506 0.660674
O O17 0.211680 0.831179 0.116390
#
# Coordination Sequence:
#
# PCOD9080372 Si02
#       8
#     2   2   2   2   2   2   2   2
#     4  10  21  37  59  85 125 153 186 247 306 348
#     4  10  20  36  61  81 116 159 199 242 301 352
#     4  10  22  37  56  85 117 154 199 242 301 351
#     4  11  22  40  56  85 123 160 198 253 303 353
#     4   9  20  35  63  83 114 158 203 243 291 357
#     4  10  18  39  62  88 114 158 206 238 295 358
#     4   9  18  37  58  86 113 153 198 247 292 345
#     4   9  21  36  58  90 120 151 199 244 288 358
#
# _framework density 20.716041000000001
#
# number of rings (size 3 to 8) (size 9 to 14) (size 15 to 20)
#    0.750    1.500    0.000    3.000    0.000    0.500 
#    4.500    0.625    0.000    0.000    0.000    0.000 
#    0.000    0.000    0.000    0.000    0.000    0.000 
#
# Total GULP energy -89151.317440 kJ/mol
# GULP energy per Si atom -5571.957340 kJ/mol
# Density = 2.066889 g / cm^3
# Si number density = 20.716041 Si / 1000 Ang^3
#
#
#
# Elastic Constant Matrix: (Units=GPa)
#
#
# Indices 1 2 3 4 5 6 
#
# 1 46.1163 6.4887 35.1182 -0.9095 -14.6366 0.7334
# 2 6.4887 75.4260 45.3574 -17.6620 -4.3758 7.9560
# 3 35.1182 45.3574 106.3153 -6.3360 -4.9363 -6.3668
# 4 -0.9095 -17.6620 -6.3360 32.3300 -8.7518 -0.7543
# 5 -14.6366 -4.3758 -4.9363 -8.7518 17.2320 -4.3271
# 6 0.7334 7.9560 -6.3668 -0.7543 -4.3271 32.9228
#
#
#
# Elastic Compliance Matrix: (Units=1/GPa)
#
#
# Indices 1 2 3 4 5 6 
#
# 1 0.051834 0.015597 -0.020261 0.020041 0.051972 -0.001552
# 2 0.015597 0.027364 -0.014977 0.018764 0.023856 -0.006291
# 3 -0.020261 -0.014977 0.021420 -0.009356 -0.018221 0.005604
# 4 0.020041 0.018764 -0.009356 0.052316 0.045784 0.000426
# 5 0.051972 0.023856 -0.018221 0.045784 0.128136 0.007444
# 6 -0.001552 -0.006291 0.005604 0.000426 0.007444 0.034001
#
#
# Mechanical properties :
#
#
# Convention : Reuss Voigt Hill
#
# Bulk Modulus (GPa) = 16.30392 44.64294 30.47343
# Shear Modulus (GPa) = 13.34045 25.88986 19.61515
#
# Velocity S-wave (km/s) = 2.54040 3.53901 3.08044
# Velocity P-wave (km/s) = 4.06105 6.18839 5.23394
#
# Compressibility (1/GPa) = 0.06133496
#
# Stress axis : x y z
#
# Youngs Moduli (GPa) = 19.29227 36.54420 46.68435
#
# Poissons Ratio (x) = -0.56997 0.94589
# Poissons Ratio (y) = -0.30089 0.69920
# Poissons Ratio (z) = 0.39089 0.54733
#
# Static dielectric constant tensor:
#      x y z
#    x 1.763120 -0.017180 -0.016440 
#    y -0.017180 1.827620 0.010730 
#    z -0.016440 0.010730 1.745420 
# 
# From -- ./inp_files/607770.got.cif
#   From: 2010.05.17/outbox.cif.g08.bks.cpg/sg2_304_cif.got.tgz:607770.got - 2010.06.03 11:33:40.
