data_PCOD9080663
_publ_section_title
;
Structure prediction by ZEFSAII (Michael W. Deem and Ramdas Pophale) SiO2 
 PCOD9080663
Probable space group: P -1
;
_chemical_formula_sum "Si O2"
_cell_formula_units_Z 14
_cell_length_a 9.702809
_cell_length_b 9.748750
_cell_length_c 8.719830
_cell_angle_alpha 118.586083
_cell_angle_beta 67.114516
_cell_angle_gamma 136.069994
_cell_volume 501.150480
_symmetry_space_group_name_H-M "P -1"
_symmetry_group_IT_number 2
_symmetry_cell_setting 'triclinic'
loop_
_space_group_symop_operation_xyz
x,y,z
-x,-y,-z
loop_
_atom_site_type_symbol
_atom_site_label
_atom_site_fract_x
_atom_site_fract_y
_atom_site_fract_z
Si Si1 0.443629 0.515361 0.862617
Si Si2 0.811280 0.482823 0.553095
Si Si3 0.216052 0.882299 0.286982
Si Si4 0.279761 0.083749 0.682902
Si Si5 0.644470 0.109391 0.210080
Si Si6 0.151631 0.146776 0.285980
Si Si7 0.908108 0.548720 0.891389
O O1 0.392268 0.314303 0.697081
O O2 0.638011 0.729769 0.823720
O O3 0.500000 0.500000 0.000000
O O4 0.243232 0.479157 0.937044
O O5 0.672441 0.275852 0.403131
O O6 0.828889 0.661853 0.557633
O O7 0.801036 0.516232 0.756760
O O8 0.000000 0.500000 0.500000
O O9 0.093582 0.639299 0.192754
O O10 0.254483 0.941841 0.482123
O O11 0.428223 0.994061 0.174327
O O12 0.129420 0.984839 0.319627
O O13 0.380359 0.062658 0.767455
O O14 0.059966 0.987614 0.781366
O O15 0.859327 0.240341 0.102985
#
# Coordination Sequence:
#
# PCOD9080663 Si02
#       7
#     2   2   2   2   2   2   2
#     4  12  26  43  71 105 142 183 236 284 341 419
#     4  10  18  40  69  95 133 172 222 286 330 396
#     4  12  27  42  74 106 138 182 233 291 352 402
#     4  12  24  44  74 102 136 186 236 284 350 410
#     4  11  22  41  73 102 134 180 238 282 339 414
#     4  12  26  46  67 108 145 175 233 297 342 410
#     4  11  23  45  68  99 141 183 229 282 343 412
#
# _framework density 27.93572
#
# number of rings (size 3 to 8) (size 9 to 14) (size 15 to 20)
#    0.000    0.571    5.714    3.429    0.000    7.429 
#    0.000    1.429    0.000    0.000    0.000    0.000 
#    0.000    0.000    0.000    0.000    0.000    0.000 
#
# Total GULP energy -78434.982366 kJ/mol
# GULP energy per Si atom -5602.498740 kJ/mol
# Density = 2.787214 g / cm^3
# Si number density = 27.935720 Si / 1000 Ang^3
#
#
#
# Elastic Constant Matrix: (Units=GPa)
#
#
# Indices 1 2 3 4 5 6 
#
# 1 131.3342 52.0568 23.2619 1.7018 -45.0316 -5.9155
# 2 52.0568 158.0060 15.0930 6.1396 -16.1489 -3.5494
# 3 23.2619 15.0930 98.2037 -7.8872 -34.9450 3.3282
# 4 1.7018 6.1396 -7.8872 45.6253 8.6138 -20.5171
# 5 -45.0316 -16.1489 -34.9450 8.6138 40.9016 4.0355
# 6 -5.9155 -3.5494 3.3282 -20.5171 4.0355 68.5730
#
#
#
# Elastic Compliance Matrix: (Units=1/GPa)
#
#
# Indices 1 2 3 4 5 6 
#
# 1 0.014653 -0.003130 0.003416 -0.003628 0.018704 -0.001250
# 2 -0.003130 0.007361 -0.000839 -0.000830 -0.001078 -0.000033
# 3 0.003416 -0.000839 0.015590 -0.001456 0.017249 -0.001956
# 4 -0.003628 -0.000830 -0.001456 0.028254 -0.012394 0.008898
# 5 0.018704 -0.001078 0.017249 -0.012394 0.062621 -0.006673
# 6 -0.001250 -0.000033 -0.001956 0.008898 -0.006673 0.017623
#
#
# Mechanical properties :
#
#
# Convention : Reuss Voigt Hill
#
# Bulk Modulus (GPa) = 27.39711 63.15191 45.27451
# Shear Modulus (GPa) = 31.37260 50.82878 41.10069
#
# Velocity S-wave (km/s) = 3.35480 4.27018 3.83986
# Velocity P-wave (km/s) = 4.98344 6.85330 5.99176
#
# Compressibility (1/GPa) = 0.03650020
#
# Stress axis : x y z
#
# Youngs Moduli (GPa) = 68.24437 135.84281 64.14362
#
# Poissons Ratio (x) = 0.42512 -0.21915
# Poissons Ratio (y) = 0.21357 0.05383
# Poissons Ratio (z) = -0.23316 0.11400
#
# Static dielectric constant tensor:
#      x y z
#    x 2.126740 0.075700 0.032720 
#    y 0.075700 2.242560 -0.056630 
#    z 0.032720 -0.056630 2.299770 
# 
# From -- ./inp_files/383152.got.cif
#   From: 2010.05.17/outbox.cif.g08.bks.cpg/sg2_192_cif.got.tgz:383152.got - 2010.06.03 11:33:40.
