data_PCOD9080247
_publ_section_title
;
Structure prediction by ZEFSAII (Michael W. Deem and Ramdas Pophale) SiO2 
 PCOD9080247
Probable space group: P -1
;
_chemical_formula_sum "Si O2"
_cell_formula_units_Z 16
_cell_length_a 5.357497
_cell_length_b 9.329372
_cell_length_c 18.616187
_cell_angle_alpha 44.887421
_cell_angle_beta 105.737546
_cell_angle_gamma 104.344005
_cell_volume 629.917444
_symmetry_space_group_name_H-M "P -1"
_symmetry_group_IT_number 2
_symmetry_cell_setting 'triclinic'
loop_
_space_group_symop_operation_xyz
x,y,z
-x,-y,-z
loop_
_atom_site_type_symbol
_atom_site_label
_atom_site_fract_x
_atom_site_fract_y
_atom_site_fract_z
Si Si1 0.701661 0.127882 0.140859
Si Si2 0.846907 0.726549 0.354085
Si Si3 0.993522 0.667054 0.776578
Si Si4 0.575619 0.282294 0.334506
Si Si5 0.976432 0.274962 0.480748
Si Si6 0.778972 0.213275 0.961067
Si Si7 0.214815 0.920766 0.138374
Si Si8 0.648243 0.470439 0.657030
O O1 0.860521 0.255976 0.167246
O O2 0.832352 0.910562 0.231822
O O3 0.403529 0.050225 0.161755
O O4 0.671398 0.243747 0.021840
O O5 0.964954 0.517373 0.414475
O O6 0.548031 0.639382 0.376339
O O7 0.970938 0.816574 0.405577
O O8 0.718657 0.765882 0.701684
O O9 0.912435 0.428732 0.868662
O O10 0.209876 0.697084 0.719306
O O11 0.736035 0.181011 0.448135
O O12 0.526107 0.488896 0.301141
O O13 0.226625 0.311163 0.436087
O O14 0.636111 0.117932 0.912591
O O15 0.986147 0.052499 0.052944
O O16 0.160966 0.693833 0.244368
#
# Coordination Sequence:
#
# PCOD9080247 Si02
#       8
#     2   2   2   2   2   2   2   2
#     4  11  25  42  61  94 140 172 221 272 330 385
#     4   9  21  36  65 102 136 168 216 278 332 389
#     4  12  27  44  69  93 137 179 224 263 328 395
#     4  11  23  43  68  96 125 179 222 270 317 397
#     4  10  18  38  69 102 130 172 218 273 333 394
#     4  11  23  41  66  96 128 179 220 272 328 394
#     4  10  22  38  64  99 128 168 220 281 321 390
#     4  10  18  38  67  97 134 169 218 272 335 386
#
# _framework density 25.400153
#
# number of rings (size 3 to 8) (size 9 to 14) (size 15 to 20)
#    0.000    1.500    2.500    1.875    3.500    5.500 
#    0.000    1.250    0.000    0.000    0.000    0.000 
#    0.000    0.000    0.000    0.000    0.000    0.000 
#
# Total GULP energy -89108.666757 kJ/mol
# GULP energy per Si atom -5569.291672 kJ/mol
# Density = 2.534234 g / cm^3
# Si number density = 25.400153 Si / 1000 Ang^3
#
#
#
# Elastic Constant Matrix: (Units=GPa)
#
#
# Indices 1 2 3 4 5 6 
#
# 1 97.5999 29.5163 26.0875 15.2407 -1.0963 14.8351
# 2 29.5163 99.7554 24.0875 25.7644 -0.3829 43.1356
# 3 26.0875 24.0875 88.0778 17.6752 6.8505 20.2659
# 4 15.2407 25.7644 17.6752 33.0417 4.0783 15.8199
# 5 -1.0963 -0.3829 6.8505 4.0783 21.7740 8.7118
# 6 14.8351 43.1356 20.2659 15.8199 8.7118 35.7230
#
#
#
# Elastic Compliance Matrix: (Units=1/GPa)
#
#
# Indices 1 2 3 4 5 6 
#
# 1 0.012050 -0.002131 -0.002541 -0.002635 0.001985 -0.000306
# 2 -0.002131 0.025491 0.000992 -0.006259 0.013606 -0.031004
# 3 -0.002541 0.000992 0.014153 -0.004125 -0.001388 -0.006006
# 4 -0.002635 -0.006259 -0.004125 0.042302 -0.004179 -0.006722
# 5 0.001985 0.013606 -0.001388 -0.004179 0.059099 -0.029029
# 6 -0.000306 -0.031004 -0.006006 -0.006722 -0.029029 0.079021
#
#
# Mechanical properties :
#
#
# Convention : Reuss Voigt Hill
#
# Bulk Modulus (GPa) = 22.55711 49.42398 35.99054
# Shear Modulus (GPa) = 19.66529 31.82387 25.74458
#
# Velocity S-wave (km/s) = 2.78550 3.54347 3.18710
# Velocity P-wave (km/s) = 4.38695 6.02013 5.26722
#
# Compressibility (1/GPa) = 0.04433193
#
# Stress axis : x y z
#
# Youngs Moduli (GPa) = 82.98728 39.22919 70.65778
#
# Poissons Ratio (x) = 0.08361 0.17956
# Poissons Ratio (y) = 0.17687 -0.07006
# Poissons Ratio (z) = 0.21090 -0.03890
#
# Static dielectric constant tensor:
#      x y z
#    x 2.209890 -0.082320 -0.054100 
#    y -0.082320 2.019610 0.065830 
#    z -0.054100 0.065830 2.033660 
# 
# From -- ./inp_files/547796.got.cif
#   From: 2010.05.17/outbox.cif.g08.bks.cpg/sg2_274_cif.got.tgz:547796.got - 2010.06.03 11:33:40.
