data_PCOD9080514
_publ_section_title
;
Structure prediction by ZEFSAII (Michael W. Deem and Ramdas Pophale) SiO2 
 PCOD9080514
Probable space group: P -1
;
_chemical_formula_sum "Si O2"
_cell_formula_units_Z 14
_cell_length_a 16.500535
_cell_length_b 13.300958
_cell_length_c 10.235358
_cell_angle_alpha 139.528090
_cell_angle_beta 130.869718
_cell_angle_gamma 24.617795
_cell_volume 601.591038
_symmetry_space_group_name_H-M "P -1"
_symmetry_group_IT_number 2
_symmetry_cell_setting 'triclinic'
loop_
_space_group_symop_operation_xyz
x,y,z
-x,-y,-z
loop_
_atom_site_type_symbol
_atom_site_label
_atom_site_fract_x
_atom_site_fract_y
_atom_site_fract_z
Si Si1 0.049273 0.108570 0.099883
Si Si2 0.680321 0.873888 0.190378
Si Si3 0.366771 0.751255 0.893111
Si Si4 0.812664 0.252044 0.781712
Si Si5 0.689273 0.849742 0.880570
Si Si6 0.006096 0.302158 0.512512
Si Si7 0.369803 0.522789 0.452601
O O1 0.996597 0.294960 0.339375
O O2 0.274738 0.850710 0.037730
O O3 0.000000 0.000000 0.000000
O O4 0.924447 0.251663 0.976968
O O5 0.544364 0.899983 0.123014
O O6 0.516084 0.206331 0.322384
O O7 0.841743 0.750436 0.332362
O O8 0.757259 0.745970 0.999382
O O9 0.601297 0.479560 0.854638
O O10 0.298446 0.685427 0.671886
O O11 0.281463 0.010031 0.993980
O O12 0.784531 0.328013 0.675320
O O13 0.917710 0.956627 0.610572
O O14 0.802717 0.596819 0.655147
O O15 0.500000 0.500000 0.500000
#
# Coordination Sequence:
#
# PCOD9080514 Si02
#       7
#     2   2   2   2   2   2   2
#     4  10  26  41  64  98 126 169 222 258 310 379
#     4  11  22  43  66  97 133 164 208 261 331 383
#     4  11  22  44  67  95 129 168 214 265 314 376
#     4  10  21  42  67  96 128 163 217 266 314 377
#     4  11  25  40  67 100 129 166 208 265 331 374
#     4  11  23  42  63  94 133 168 211 265 314 376
#     4  10  18  39  70  95 121 163 215 263 315 372
#
# _framework density 23.271623999999999
#
# number of rings (size 3 to 8) (size 9 to 14) (size 15 to 20)
#    0.000    1.429    5.714    0.429    4.000    5.714 
#    2.571    1.429    0.000    0.000    0.000    0.000 
#    0.000    0.000    0.000    0.000    0.000    0.000 
#
# Total GULP energy -78320.844334 kJ/mol
# GULP energy per Si atom -5594.346024 kJ/mol
# Density = 2.321866 g / cm^3
# Si number density = 23.271624 Si / 1000 Ang^3
#
#
#
# Elastic Constant Matrix: (Units=GPa)
#
#
# Indices 1 2 3 4 5 6 
#
# 1 71.5067 2.5189 23.8913 12.9969 1.0585 -21.7565
# 2 2.5189 42.8825 3.7714 5.4732 1.2224 -15.0247
# 3 23.8913 3.7714 130.6177 16.5986 -23.7170 -11.8397
# 4 12.9969 5.4732 16.5986 48.3768 -10.1647 3.0415
# 5 1.0585 1.2224 -23.7170 -10.1647 36.2827 6.3310
# 6 -21.7565 -15.0247 -11.8397 3.0415 6.3310 30.7158
#
#
#
# Elastic Compliance Matrix: (Units=1/GPa)
#
#
# Indices 1 2 3 4 5 6 
#
# 1 0.023366 0.008201 -0.002995 -0.009575 -0.009491 0.022312
# 2 0.008201 0.032780 -0.000653 -0.009002 -0.008522 0.024239
# 3 -0.002995 -0.000653 0.009455 -0.001118 0.005961 0.000086
# 4 -0.009575 -0.009002 -0.001118 0.027905 0.010558 -0.016556
# 5 -0.009491 -0.008522 0.005961 0.010558 0.038030 -0.017477
# 6 0.022312 0.024239 0.000086 -0.016556 -0.017477 0.065492
#
#
# Mechanical properties :
#
#
# Convention : Reuss Voigt Hill
#
# Bulk Modulus (GPa) = 13.38562 33.93003 23.65783
# Shear Modulus (GPa) = 23.49370 37.39674 30.44522
#
# Velocity S-wave (km/s) = 3.18078 4.01305 3.62090
# Velocity P-wave (km/s) = 4.38796 6.00703 5.26016
#
# Compressibility (1/GPa) = 0.07470701
#
# Stress axis : x y z
#
# Youngs Moduli (GPa) = 42.79770 30.50656 105.76484
#
# Poissons Ratio (x) = -0.25018 0.31675
# Poissons Ratio (y) = -0.35098 0.06903
# Poissons Ratio (z) = 0.12817 0.01991
#
# Static dielectric constant tensor:
#      x y z
#    x 1.899060 -0.006380 -0.004140 
#    y -0.006380 1.922460 -0.025910 
#    z -0.004140 -0.025910 1.873580 
# 
# From -- ./inp_files/472505.got.cif
#   From: 2010.05.17/outbox.cif.g08.bks.cpg/sg2_237_cif.got.tgz:472505.got - 2010.06.03 11:33:40.
