data_PCOD9080030
_publ_section_title
;
Structure prediction by ZEFSAII (Michael W. Deem and Ramdas Pophale) SiO2 
 PCOD9080030
Probable space group: P -1
;
_chemical_formula_sum "Si O2"
_cell_formula_units_Z 16
_cell_length_a 10.975671
_cell_length_b 10.995533
_cell_length_c 16.308712
_cell_angle_alpha 33.612716
_cell_angle_beta 49.985276
_cell_angle_gamma 72.752358
_cell_volume 689.271767
_symmetry_space_group_name_H-M "P -1"
_symmetry_group_IT_number 2
_symmetry_cell_setting 'triclinic'
loop_
_space_group_symop_operation_xyz
x,y,z
-x,-y,-z
loop_
_atom_site_type_symbol
_atom_site_label
_atom_site_fract_x
_atom_site_fract_y
_atom_site_fract_z
Si Si1 0.618853 0.432695 0.312155
Si Si2 0.508839 0.161243 0.060977
Si Si3 0.824522 0.775277 0.877364
Si Si4 0.050424 0.362249 0.262352
Si Si5 0.400430 0.055306 0.350167
Si Si6 0.581390 0.405138 0.591344
Si Si7 0.789596 0.729948 0.594582
Si Si8 0.071241 0.292080 0.831995
O O1 0.454853 0.483534 0.374197
O O2 0.787391 0.613673 0.204064
O O3 0.536107 0.126330 0.536870
O O4 0.723683 0.550102 0.115837
O O5 0.311006 0.119745 0.139449
O O6 0.509000 0.203486 0.136278
O O7 0.518308 0.908510 0.186567
O O8 0.679735 0.421220 0.794797
O O9 0.848125 0.646029 0.858297
O O10 0.039808 0.026547 0.667280
O O11 0.104061 0.250856 0.377166
O O12 0.082515 0.641732 0.115425
O O13 0.820849 0.166107 0.457069
O O14 0.375172 0.224778 0.333168
O O15 0.500000 0.500000 0.500000
O O16 0.798866 0.525359 0.402912
O O17 0.000000 0.000000 0.000000
#
# Coordination Sequence:
#
# PCOD9080030 Si02
#       8
#     2   2   2   2   2   2   2   2
#     4  10  23  41  64  91 130 170 198 265 323 360
#     4  12  21  39  65  92 123 164 218 254 305 381
#     4  11  23  43  61  95 136 160 204 262 328 369
#     4  10  19  36  64  92 121 164 206 259 308 367
#     4  10  18  38  61  92 122 160 215 253 310 375
#     4  10  20  40  62  88 123 165 212 256 307 366
#     4  11  22  35  67  95 123 166 212 259 311 371
#     4  10  21  38  65  95 117 163 219 253 304 379
#
# _framework density 23.212904000000002
#
# number of rings (size 3 to 8) (size 9 to 14) (size 15 to 20)
#    0.000    1.500    6.250    1.125    3.500    5.000 
#    2.250    1.250    0.000    0.000    0.000    0.000 
#    0.000    0.000    0.000    0.000    0.000    0.000 
#
# Total GULP energy -89436.003842 kJ/mol
# GULP energy per Si atom -5589.750240 kJ/mol
# Density = 2.316007 g / cm^3
# Si number density = 23.212904 Si / 1000 Ang^3
#
#
#
# Elastic Constant Matrix: (Units=GPa)
#
#
# Indices 1 2 3 4 5 6 
#
# 1 43.0934 19.0469 18.2596 1.9334 1.7147 -12.6992
# 2 19.0469 78.5998 22.3936 -16.4417 9.1673 -31.5593
# 3 18.2596 22.3936 83.6888 -11.7461 9.2896 -0.4808
# 4 1.9334 -16.4417 -11.7461 55.6140 -5.0160 9.8490
# 5 1.7147 9.1673 9.2896 -5.0160 28.6963 0.0421
# 6 -12.6992 -31.5593 -0.4808 9.8490 0.0421 24.3285
#
#
#
# Elastic Compliance Matrix: (Units=1/GPa)
#
#
# Indices 1 2 3 4 5 6 
#
# 1 0.032670 0.002260 -0.008366 -0.006295 -0.001099 0.022370
# 2 0.002260 0.033136 -0.008279 -0.000610 -0.008212 0.044261
# 3 -0.008366 -0.008279 0.016642 0.004136 -0.001495 -0.016450
# 4 -0.006295 -0.000610 0.004136 0.021406 0.002992 -0.012667
# 5 -0.001099 -0.008212 -0.001495 0.002992 0.038562 -0.012534
# 6 0.022370 0.044261 -0.016450 -0.012667 -0.012534 0.115022
#
#
# Mechanical properties :
#
#
# Convention : Reuss Voigt Hill
#
# Bulk Modulus (GPa) = 18.63003 36.08690 27.35846
# Shear Modulus (GPa) = 16.44193 31.43988 23.94090
#
# Velocity S-wave (km/s) = 2.66430 3.68423 3.21497
# Velocity P-wave (km/s) = 4.18423 5.80326 5.05893
#
# Compressibility (1/GPa) = 0.05367679
#
# Stress axis : x y z
#
# Youngs Moduli (GPa) = 30.60942 30.17883 60.08979
#
# Poissons Ratio (x) = -0.06820 0.50270
# Poissons Ratio (y) = -0.06918 0.49751
# Poissons Ratio (z) = 0.25607 0.24986
#
# Static dielectric constant tensor:
#      x y z
#    x 1.932240 -0.009830 -0.040870 
#    y -0.009830 1.918390 -0.025860 
#    z -0.040870 -0.025860 1.914140 
# 
# From -- ./inp_files/568468.got.cif
#   From: 2010.05.17/outbox.cif.g08.bks.cpg/sg2_285_cif.got.tgz:568468.got - 2010.06.03 11:33:40.
