data_PCOD9080163
_publ_section_title
;
Structure prediction by ZEFSAII (Michael W. Deem and Ramdas Pophale) SiO2 
 PCOD9080163
Probable space group: P -1
;
_chemical_formula_sum "Si O2"
_cell_formula_units_Z 16
_cell_length_a 16.070631
_cell_length_b 26.802035
_cell_length_c 7.398634
_cell_angle_alpha 122.914527
_cell_angle_beta 64.559952
_cell_angle_gamma 163.546734
_cell_volume 699.272792
_symmetry_space_group_name_H-M "P -1"
_symmetry_group_IT_number 2
_symmetry_cell_setting 'triclinic'
loop_
_space_group_symop_operation_xyz
x,y,z
-x,-y,-z
loop_
_atom_site_type_symbol
_atom_site_label
_atom_site_fract_x
_atom_site_fract_y
_atom_site_fract_z
Si Si1 0.279320 0.304171 0.163708
Si Si2 0.974255 0.672581 0.809166
Si Si3 0.453230 0.821876 0.238899
Si Si4 0.053967 0.252685 0.712598
Si Si5 0.748563 0.747711 0.304296
Si Si6 0.174760 0.662170 0.558928
Si Si7 0.074041 0.985965 0.799014
Si Si8 0.668001 0.003852 0.047088
O O1 0.641611 0.548042 0.304390
O O2 0.186477 0.218087 0.268964
O O3 0.000571 0.178898 0.136154
O O4 0.252264 0.244035 0.894301
O O5 0.603135 0.456343 0.693081
O O6 0.022324 0.632246 0.680019
O O7 0.231151 0.865709 0.824076
O O8 0.019769 0.733489 0.079090
O O9 0.414750 0.829506 0.096148
O O10 0.746275 0.040445 0.479396
O O11 0.591532 0.840098 0.128116
O O12 0.195255 0.664312 0.328276
O O13 0.174549 0.274250 0.774045
O O14 0.004124 0.942142 0.565023
O O15 0.000000 0.500000 0.500000
O O16 0.521464 0.884247 0.767057
O O17 0.000000 0.000000 0.000000
#
# Coordination Sequence:
#
# PCOD9080163 Si02
#       8
#     2   2   2   2   2   2   2   2
#     4  10  19  35  65  94 126 157 188 262 322 361
#     4  11  21  39  69  94 120 167 215 256 311 369
#     4  10  24  40  67  93 123 167 207 262 318 366
#     4  10  18  38  65 103 127 145 200 261 322 370
#     4  10  19  36  62  96 123 155 198 256 313 368
#     4  12  28  47  60  85 132 174 215 262 304 368
#     4  10  23  37  58  93 132 163 203 244 311 396
#     4  11  21  41  69  93 122 162 213 264 309 365
#
# _framework density 22.880915999999999
#
# number of rings (size 3 to 8) (size 9 to 14) (size 15 to 20)
#    0.000    1.500    3.750    1.875    1.750    7.000 
#    0.000    0.000    0.000    0.000    0.000    0.000 
#    0.000    0.000    0.000    0.000    0.000    0.000 
#
# Total GULP energy -89361.250290 kJ/mol
# GULP energy per Si atom -5585.078143 kJ/mol
# Density = 2.282884 g / cm^3
# Si number density = 22.880916 Si / 1000 Ang^3
#
#
#
# Elastic Constant Matrix: (Units=GPa)
#
#
# Indices 1 2 3 4 5 6 
#
# 1 77.3200 43.3358 37.4776 -11.5182 -26.1734 -0.8328
# 2 43.3358 96.9342 7.0817 -20.8576 -13.5129 -9.0717
# 3 37.4776 7.0817 65.1563 -23.5430 -12.2205 2.6915
# 4 -11.5182 -20.8576 -23.5430 39.9116 3.5105 2.4529
# 5 -26.1734 -13.5129 -12.2205 3.5105 46.3608 -8.3100
# 6 -0.8328 -9.0717 2.6915 2.4529 -8.3100 30.6227
#
#
#
# Elastic Compliance Matrix: (Units=1/GPa)
#
#
# Indices 1 2 3 4 5 6 
#
# 1 0.030934 -0.012963 -0.018016 -0.009483 0.010025 0.002065
# 2 -0.012963 0.018149 0.009376 0.011048 0.000211 0.003372
# 3 -0.018016 0.009376 0.031223 0.018340 -0.000990 -0.002194
# 4 -0.009483 0.011048 0.018340 0.039080 -0.000597 -0.001889
# 5 0.010025 0.000211 -0.000990 -0.000597 0.028548 0.008217
# 6 0.002065 0.003372 -0.002194 -0.001889 0.008217 0.036285
#
#
# Mechanical properties :
#
#
# Convention : Reuss Voigt Hill
#
# Bulk Modulus (GPa) = 26.95356 46.13341 36.54349
# Shear Modulus (GPa) = 20.85144 33.48006 27.16575
#
# Velocity S-wave (km/s) = 3.02205 3.82937 3.44941
# Velocity P-wave (km/s) = 4.89720 6.30542 5.64539
#
# Compressibility (1/GPa) = 0.03710085
#
# Stress axis : x y z
#
# Youngs Moduli (GPa) = 32.32650 55.09968 32.02750
#
# Poissons Ratio (x) = 0.71427 0.57700
# Poissons Ratio (y) = 0.41905 -0.30030
# Poissons Ratio (z) = 0.58239 -0.51662
#
# Static dielectric constant tensor:
#      x y z
#    x 1.873230 -0.015810 0.008210 
#    y -0.015810 1.889620 -0.023260 
#    z 0.008210 -0.023260 1.900930 
# 
# From -- ./inp_files/320713.got.cif
#   From: 2010.05.17/outbox.cif.g08.bks.cpg/sg2_161_cif.got.tgz:320713.got - 2010.06.03 11:33:40.
