data_PCOD9080830
_publ_section_title
;
Structure prediction by ZEFSAII (Michael W. Deem and Ramdas Pophale) SiO2 
 PCOD9080830
Probable space group: P -1
;
_chemical_formula_sum "Si O2"
_cell_formula_units_Z 16
_cell_length_a 22.936086
_cell_length_b 7.931289
_cell_length_c 12.261563
_cell_angle_alpha 105.242747
_cell_angle_beta 158.772362
_cell_angle_gamma 64.218864
_cell_volume 654.074443
_symmetry_space_group_name_H-M "P -1"
_symmetry_group_IT_number 2
_symmetry_cell_setting 'triclinic'
loop_
_space_group_symop_operation_xyz
x,y,z
-x,-y,-z
loop_
_atom_site_type_symbol
_atom_site_label
_atom_site_fract_x
_atom_site_fract_y
_atom_site_fract_z
Si Si1 0.997952 0.880798 0.229118
Si Si2 0.218947 0.570417 0.403744
Si Si3 0.518215 0.437121 0.744958
Si Si4 0.015264 0.281725 0.357581
Si Si5 0.036595 0.772122 0.512765
Si Si6 0.845135 0.749684 0.637363
Si Si7 0.588020 0.646426 0.659589
Si Si8 0.633471 0.097464 0.489427
O O1 0.185765 0.746974 0.460132
O O2 0.987689 0.771878 0.301598
O O3 0.974601 0.098777 0.247704
O O4 0.823514 0.932247 0.857511
O O5 0.432938 0.424595 0.707632
O O6 0.174754 0.429092 0.376424
O O7 0.057944 0.680404 0.044324
O O8 0.493394 0.288891 0.593451
O O9 0.384924 0.686904 0.535544
O O10 0.733248 0.381287 0.104003
O O11 0.062713 0.269200 0.567131
O O12 0.150075 0.250484 0.486023
O O13 0.814381 0.496053 0.024682
O O14 0.000000 0.000000 0.500000
O O15 0.671301 0.967776 0.422657
O O16 0.500000 0.500000 0.500000
O O17 0.522070 0.814918 0.668390
#
# Coordination Sequence:
#
# PCOD9080830 Si02
#       8
#     2   2   2   2   2   2   2   2
#     4  10  19  34  55  84 114 143 182 228 280 325
#     4  10  21  35  54  81 120 148 180 230 280 325
#     4  11  18  33  60  85 110 141 186 232 276 326
#     4  11  17  33  58  82 109 142 182 227 273 329
#     4  10  21  33  56  87 113 139 182 235 283 325
#     4  10  21  35  55  84 115 148 187 226 276 325
#     4  10  15  28  53  85 107 130 178 233 270 308
#     4  10  18  33  59  87 109 143 184 233 272 329
#
# _framework density 24.462046000000001
#
# number of rings (size 3 to 8) (size 9 to 14) (size 15 to 20)
#    0.000    1.750    6.250    1.500    0.000    2.500 
#    0.000    1.250    5.500    6.750    0.000    0.000 
#    0.000    0.000    0.000    0.000    0.000    0.000 
#
# Total GULP energy -89193.500291 kJ/mol
# GULP energy per Si atom -5574.593768 kJ/mol
# Density = 2.440637 g / cm^3
# Si number density = 24.462046 Si / 1000 Ang^3
#
#
#
# Elastic Constant Matrix: (Units=GPa)
#
#
# Indices 1 2 3 4 5 6 
#
# 1 180.7198 25.6976 48.2174 -14.8613 9.7807 -17.1439
# 2 25.6976 50.1664 17.1055 -12.4258 16.5373 -9.5859
# 3 48.2174 17.1055 47.6299 -7.6840 5.0847 -4.6730
# 4 -14.8613 -12.4258 -7.6840 15.9223 -11.7865 0.1288
# 5 9.7807 16.5373 5.0847 -11.7865 30.0150 -30.6715
# 6 -17.1439 -9.5859 -4.6730 0.1288 -30.6715 3.1630
#
#
#
# Elastic Compliance Matrix: (Units=1/GPa)
#
#
# Indices 1 2 3 4 5 6 
#
# 1 0.007536 -0.000672 -0.007181 0.000721 -0.003166 -0.002525
# 2 -0.000672 0.028494 -0.006478 0.013071 -0.007290 0.001918
# 3 -0.007181 -0.006478 0.031026 0.004128 0.001223 -0.001029
# 4 0.000721 0.013071 0.004128 0.070297 -0.007549 -0.026439
# 5 -0.003166 -0.007290 0.001223 -0.007549 0.000309 -0.034137
# 6 -0.002525 0.001918 -0.001029 -0.026439 -0.034137 -0.023188
#
#
# Mechanical properties :
#
#
# Convention : Reuss Voigt Hill
#
# Bulk Modulus (GPa) = 26.04560 51.17301 38.60930
# Shear Modulus (GPa) = 32.06489 22.31977 27.19233
#
# Velocity S-wave (km/s) = 3.62443 3.02391 3.33770
# Velocity P-wave (km/s) = 5.30903 5.75820 5.53817
#
# Compressibility (1/GPa) = 0.03839421
#
# Stress axis : x y z
#
# Youngs Moduli (GPa) = 132.69469 35.09517 32.23122
#
# Poissons Ratio (x) = 0.02359 0.23146
# Poissons Ratio (y) = 0.08918 0.20878
# Poissons Ratio (z) = 0.95290 0.22733
#
# Static dielectric constant tensor:
#      x y z
#    x 2.104620 -0.037160 -0.054840 
#    y -0.037160 1.956680 -0.002250 
#    z -0.054840 -0.002250 1.962710 
# 
# From -- ./inp_files/433734.got.cif
#   From: 2010.05.17/outbox.cif.g08.bks.cpg/sg2_217_cif.got.tgz:433734.got - 2010.06.03 11:33:40.
