data_PCOD9080256
_publ_section_title
;
Structure prediction by ZEFSAII (Michael W. Deem and Ramdas Pophale) SiO2 
 PCOD9080256
Probable space group: P -1
;
_chemical_formula_sum "Si O2"
_cell_formula_units_Z 13
_cell_length_a 9.238069
_cell_length_b 9.641983
_cell_length_c 13.853999
_cell_angle_alpha 59.613488
_cell_angle_beta 146.823191
_cell_angle_gamma 130.916015
_cell_volume 507.610469
_symmetry_space_group_name_H-M "P -1"
_symmetry_group_IT_number 2
_symmetry_cell_setting 'triclinic'
loop_
_space_group_symop_operation_xyz
x,y,z
-x,-y,-z
loop_
_atom_site_type_symbol
_atom_site_label
_atom_site_fract_x
_atom_site_fract_y
_atom_site_fract_z
Si Si1 0.725858 0.715817 0.061054
Si Si2 0.295703 0.285845 0.171865
Si Si3 0.354473 0.750572 0.453898
Si Si4 0.431636 0.320410 0.733952
Si Si5 0.378526 0.976283 0.073491
Si Si6 0.193763 0.955877 0.542252
Si Si7 0.500000 0.500000 0.500000
O O1 0.052371 0.763358 0.268495
O O2 0.500000 0.500000 0.000000
O O3 0.767491 0.774488 0.951854
O O4 0.582121 0.824055 0.998524
O O5 0.391566 0.499744 0.164965
O O6 0.544171 0.255726 0.378227
O O7 0.975846 0.160937 0.088086
O O8 0.523256 0.016702 0.247011
O O9 0.653432 0.907946 0.509887
O O10 0.481183 0.146222 0.847626
O O11 0.535692 0.389815 0.656754
O O12 0.070696 0.242096 0.568122
O O13 0.689033 0.430833 0.562534
O O14 0.000000 0.000000 0.500000
#
# Coordination Sequence:
#
# PCOD9080256 Si02
#       7
#     2   2   2   2   2   2   1
#     4  12  29  49  72 104 151 198 239 303 371 437
#     4  11  25  45  74 110 140 191 248 305 353 438
#     4  11  24  43  73 103 146 190 242 299 364 422
#     4  10  22  41  77 107 144 186 249 304 354 434
#     4  11  23  47  71 102 152 191 236 298 369 432
#     4  10  20  42  72 104 141 190 235 292 363 425
#     4  10  18  38  68 106 138 188 228 296 362 410
#
# _framework density 25.610188999999998
#
# number of rings (size 3 to 8) (size 9 to 14) (size 15 to 20)
#    0.000    1.231    4.615    0.923    4.308    3.692 
#    0.000    3.846    0.000    0.000    0.000    0.000 
#    0.000    0.000    0.000    0.000    0.000    0.000 
#
# Total GULP energy -72368.923878 kJ/mol
# GULP energy per Si atom -5566.840298 kJ/mol
# Density = 2.555190 g / cm^3
# Si number density = 25.610189 Si / 1000 Ang^3
#
#
#
# Elastic Constant Matrix: (Units=GPa)
#
#
# Indices 1 2 3 4 5 6 
#
# 1 81.1822 28.0007 67.0599 -13.2870 -20.5979 -2.0103
# 2 28.0007 159.7922 43.0737 -1.9055 20.0124 -15.2077
# 3 67.0599 43.0737 176.2957 -5.7745 -9.2377 -13.7997
# 4 -13.2870 -1.9055 -5.7745 42.3404 -1.5723 8.4421
# 5 -20.5979 20.0124 -9.2377 -1.5723 16.8695 5.7600
# 6 -2.0103 -15.2077 -13.7997 8.4421 5.7600 30.6167
#
#
#
# Elastic Compliance Matrix: (Units=1/GPa)
#
#
# Indices 1 2 3 4 5 6 
#
# 1 0.091243 -0.037885 -0.020197 0.043796 0.172038 -0.066372
# 2 -0.037885 0.025254 0.005739 -0.020067 -0.086722 0.034492
# 3 -0.020197 0.005739 0.011194 -0.008670 -0.031212 0.014833
# 4 0.043796 -0.020067 -0.008670 0.046830 0.090903 -0.041014
# 5 0.172038 -0.086722 -0.031212 0.090903 0.414435 -0.148882
# 6 -0.066372 0.034492 0.014833 -0.041014 -0.148882 0.091441
#
#
# Mechanical properties :
#
#
# Convention : Reuss Voigt Hill
#
# Bulk Modulus (GPa) = 43.46813 77.05985 60.26399
# Shear Modulus (GPa) = 6.30714 36.57436 21.44075
#
# Velocity S-wave (km/s) = 1.57102 3.78314 2.89657
# Velocity P-wave (km/s) = 4.50562 7.01696 5.89654
#
# Compressibility (1/GPa) = 0.02300536
#
# Stress axis : x y z
#
# Youngs Moduli (GPa) = 10.95970 39.59734 89.32986
#
# Poissons Ratio (x) = 1.50014 1.80423
# Poissons Ratio (y) = 0.41521 -0.51266
# Poissons Ratio (z) = 0.22136 -0.22725
#
# Static dielectric constant tensor:
#      x y z
#    x 2.902760 0.238970 -0.037740 
#    y 0.238970 2.180880 -0.061660 
#    z -0.037740 -0.061660 1.998610 
# 
# From -- ./inp_files/489213.got.cif
#   From: 2010.05.17/outbox.cif.g08.bks.cpg/sg2_245_cif.got.tgz:489213.got - 2010.06.03 11:33:40.
