data_PCOD9080061
_publ_section_title
;
Structure prediction by ZEFSAII (Michael W. Deem and Ramdas Pophale) SiO2 
 PCOD9080061
Probable space group: P -1
;
_chemical_formula_sum "Si O2"
_cell_formula_units_Z 13
_cell_length_a 8.755959
_cell_length_b 18.416656
_cell_length_c 13.548206
_cell_angle_alpha 157.620665
_cell_angle_beta 49.638428
_cell_angle_gamma 135.496624
_cell_volume 582.476091
_symmetry_space_group_name_H-M "P -1"
_symmetry_group_IT_number 2
_symmetry_cell_setting 'triclinic'
loop_
_space_group_symop_operation_xyz
x,y,z
-x,-y,-z
loop_
_atom_site_type_symbol
_atom_site_label
_atom_site_fract_x
_atom_site_fract_y
_atom_site_fract_z
Si Si1 0.980132 0.263477 0.222417
Si Si2 0.500000 0.000000 0.000000
Si Si3 0.842012 0.263608 0.490170
Si Si4 0.232641 0.333001 0.020823
Si Si5 0.027861 0.698758 0.301431
Si Si6 0.798729 0.983312 0.682800
Si Si7 0.598338 0.936283 0.495872
O O1 0.755610 0.110647 0.074554
O O2 0.969585 0.223915 0.294196
O O3 0.000000 0.500000 0.500000
O O4 0.177857 0.264919 0.072525
O O5 0.404415 0.014063 0.167388
O O6 0.985561 0.340249 0.624829
O O7 0.628224 0.074864 0.380164
O O8 0.746991 0.433753 0.709092
O O9 0.416380 0.270462 0.816668
O O10 0.010798 0.190348 0.877289
O O11 0.854934 0.793664 0.460591
O O12 0.263587 0.874243 0.394025
O O13 0.000000 0.500000 0.000000
O O14 0.745682 0.961372 0.562682
#
# Coordination Sequence:
#
# PCOD9080061 Si02
#       7
#     2   1   2   2   2   2   2
#     4   9  19  35  59  88 119 154 201 250 295 362
#     4  10  18  38  62  88 112 158 206 252 284 356
#     4  11  20  36  59  88 122 149 197 255 304 355
#     4   9  19  34  58  87 113 155 198 248 292 356
#     4  11  23  38  57  88 127 157 190 252 313 354
#     4  10  20  37  62  85 114 157 208 238 298 363
#     4  11  20  36  60  88 111 159 206 243 290 365
#
# _framework density 22.318511999999998
#
# number of rings (size 3 to 8) (size 9 to 14) (size 15 to 20)
#    0.000    1.846    1.538    4.615    0.000    0.000 
#    0.000    6.923    0.000    9.231    0.000    0.000 
#    0.000    0.000    0.000    0.000    0.000    0.000 
#
# Total GULP energy -72367.445228 kJ/mol
# GULP energy per Si atom -5566.726556 kJ/mol
# Density = 2.226771 g / cm^3
# Si number density = 22.318512 Si / 1000 Ang^3
#
#
#
# Elastic Constant Matrix: (Units=GPa)
#
#
# Indices 1 2 3 4 5 6 
#
# 1 51.7092 26.7789 3.8174 -7.2098 4.9266 -30.2120
# 2 26.7789 158.7125 27.3078 -42.2918 3.2953 -26.9646
# 3 3.8174 27.3078 63.1296 -7.0921 6.7905 -17.0753
# 4 -7.2098 -42.2918 -7.0921 36.7395 -11.7158 10.7940
# 5 4.9266 3.2953 6.7905 -11.7158 23.7250 -13.2100
# 6 -30.2120 -26.9646 -17.0753 10.7940 -13.2100 37.9916
#
#
#
# Elastic Compliance Matrix: (Units=1/GPa)
#
#
# Indices 1 2 3 4 5 6 
#
# 1 0.041451 -0.002179 0.007692 -0.000895 0.010678 0.038841
# 2 -0.002179 0.011347 -0.003076 0.013631 0.008781 0.004119
# 3 0.007692 -0.003076 0.020146 -0.002274 -0.000579 0.013433
# 4 -0.000895 0.013631 -0.002274 0.049456 0.024756 0.002498
# 5 0.010678 0.008781 -0.000579 0.024756 0.068503 0.031249
# 6 0.038841 0.004119 0.013433 0.002498 0.031249 0.076326
#
#
# Mechanical properties :
#
#
# Convention : Reuss Voigt Hill
#
# Bulk Modulus (GPa) = 12.85014 43.26219 28.05616
# Shear Modulus (GPa) = 17.34351 34.06770 25.70561
#
# Velocity S-wave (km/s) = 2.79066 3.91120 3.39744
# Velocity P-wave (km/s) = 4.01918 6.31052 5.29039
#
# Compressibility (1/GPa) = 0.07782018
#
# Stress axis : x y z
#
# Youngs Moduli (GPa) = 24.12508 88.12726 49.63736
#
# Poissons Ratio (x) = 0.19200 -0.38183
# Poissons Ratio (y) = 0.05256 0.15267
# Poissons Ratio (z) = -0.18558 0.27106
#
# Static dielectric constant tensor:
#      x y z
#    x 1.841690 -0.013230 0.001510 
#    y -0.013230 1.839350 0.005200 
#    z 0.001510 0.005200 1.851030 
# 
# From -- ./inp_files/162551.got.cif
#   From: 2010.05.17/outbox.cif.g08.bks.cpg/sg2_82_cif.got.tgz:162551.got - 2010.06.03 11:33:40.
