data_PCOD9080935
_publ_section_title
;
Structure prediction by ZEFSAII (Michael W. Deem and Ramdas Pophale) SiO2 
 PCOD9080935
Probable space group: P -1
;
_chemical_formula_sum "Si O2"
_cell_formula_units_Z 16
_cell_length_a 13.549248
_cell_length_b 17.878613
_cell_length_c 13.901767
_cell_angle_alpha 54.000208
_cell_angle_beta 159.513107
_cell_angle_gamma 134.152365
_cell_volume 817.079464
_symmetry_space_group_name_H-M "P -1"
_symmetry_group_IT_number 2
_symmetry_cell_setting 'triclinic'
loop_
_space_group_symop_operation_xyz
x,y,z
-x,-y,-z
loop_
_atom_site_type_symbol
_atom_site_label
_atom_site_fract_x
_atom_site_fract_y
_atom_site_fract_z
Si Si1 0.316296 0.746397 0.742532
Si Si2 0.247054 0.025723 0.939805
Si Si3 0.710421 0.259552 0.961032
Si Si4 0.398339 0.316835 0.796675
Si Si5 0.240731 0.924538 0.201960
Si Si6 0.448884 0.398907 0.588512
Si Si7 0.513516 0.850576 0.655136
Si Si8 0.281527 0.031675 0.654587
O O1 0.333047 0.751314 0.638699
O O2 0.975800 0.733991 0.475020
O O3 0.619765 0.862090 0.967921
O O4 0.379710 0.662704 0.922339
O O5 0.911252 0.988626 0.606240
O O6 0.205071 0.937172 0.047042
O O7 0.534750 0.035664 0.125502
O O8 0.478905 0.243244 0.855010
O O9 0.692837 0.355949 0.818212
O O10 0.555783 0.154336 0.835443
O O11 0.076294 0.302519 0.299193
O O12 0.480342 0.412282 0.723264
O O13 0.368711 0.850384 0.418579
O O14 0.482232 0.048399 0.363948
O O15 0.887050 0.882406 0.958791
O O16 0.500000 0.500000 0.500000
O O17 0.000000 0.000000 0.500000
#
# Coordination Sequence:
#
# PCOD9080935 Si02
#       8
#     2   2   2   2   2   2   2   2
#     4  11  18  30  44  71  92 131 158 201 234 285
#     4  11  22  31  47  62  95 132 176 197 232 263
#     4  10  20  34  49  68  97 126 165 201 230 277
#     4  10  19  30  48  66  99 117 158 193 237 292
#     4   9  17  31  41  62  81 123 164 206 227 275
#     4  10  20  35  54  69  89 129 162 197 250 292
#     4   9  17  27  46  59  88 115 163 199 242 270
#     4  12  23  33  47  68  98 136 169 203 228 261
#
# _framework density 19.581938999999998
#
# number of rings (size 3 to 8) (size 9 to 14) (size 15 to 20)
#    0.750    1.000    1.250    5.250    0.000    4.000 
#    0.000    0.000    0.000    0.000    0.000    0.000 
#    0.000    0.000    0.000   78.750    0.000    0.000 
#
# Total GULP energy -89170.472619 kJ/mol
# GULP energy per Si atom -5573.154539 kJ/mol
# Density = 1.953737 g / cm^3
# Si number density = 19.581939 Si / 1000 Ang^3
#
#
#
# Elastic Constant Matrix: (Units=GPa)
#
#
# Indices 1 2 3 4 5 6 
#
# 1 30.2817 8.9187 0.6949 -0.3974 2.4347 19.1954
# 2 8.9187 47.9906 5.8945 -19.2525 -9.2324 21.9479
# 3 0.6949 5.8945 95.6057 -20.7746 -2.3185 8.1643
# 4 -0.3974 -19.2525 -20.7746 28.0517 8.4574 -7.4087
# 5 2.4347 -9.2324 -2.3185 8.4574 22.4042 -6.3051
# 6 19.1954 21.9479 8.1643 -7.4087 -6.3051 24.8085
#
#
#
# Elastic Compliance Matrix: (Units=1/GPa)
#
#
# Indices 1 2 3 4 5 6 
#
# 1 0.092759 0.025303 0.007063 0.005916 -0.029953 -0.102327
# 2 0.025303 0.054534 0.008111 0.029506 -0.008546 -0.063854
# 3 0.007063 0.008111 0.014018 0.013813 -0.005260 -0.014466
# 4 0.005916 0.029506 0.013813 0.066281 -0.017683 -0.019927
# 5 -0.029953 -0.008546 -0.005260 -0.017683 0.062629 0.043103
# 6 -0.102327 -0.063854 -0.014466 -0.019927 0.043103 0.185739
#
#
# Mechanical properties :
#
#
# Convention : Reuss Voigt Hill
#
# Bulk Modulus (GPa) = 4.12770 22.76603 13.44686
# Shear Modulus (GPa) = 10.50948 25.61090 18.06019
#
# Velocity S-wave (km/s) = 2.31918 3.62039 3.04021
# Velocity P-wave (km/s) = 3.04695 5.39700 4.38244
#
# Compressibility (1/GPa) = 0.24226567
#
# Stress axis : x y z
#
# Youngs Moduli (GPa) = 10.78060 18.33702 71.33933
#
# Poissons Ratio (x) = -0.46398 -0.50389
# Poissons Ratio (y) = -0.27278 -0.57862
# Poissons Ratio (z) = -0.07615 -0.14873
#
# Static dielectric constant tensor:
#      x y z
#    x 1.760730 0.063950 -0.015900 
#    y 0.063950 1.752490 -0.047890 
#    z -0.015900 -0.047890 1.696720 
# 
# From -- ./inp_files/535319.got.cif
#   From: 2010.05.17/outbox.cif.g08.bks.cpg/sg2_268_cif.got.tgz:535319.got - 2010.06.03 11:33:40.
