data_PCOD9080617
_publ_section_title
;
Structure prediction by ZEFSAII (Michael W. Deem and Ramdas Pophale) SiO2 
 PCOD9080617
Probable space group: P -1
;
_chemical_formula_sum "Si O2"
_cell_formula_units_Z 15
_cell_length_a 10.659825
_cell_length_b 10.136750
_cell_length_c 9.667044
_cell_angle_alpha 80.387511
_cell_angle_beta 42.668640
_cell_angle_gamma 64.853157
_cell_volume 622.597567
_symmetry_space_group_name_H-M "P -1"
_symmetry_group_IT_number 2
_symmetry_cell_setting 'triclinic'
loop_
_space_group_symop_operation_xyz
x,y,z
-x,-y,-z
loop_
_atom_site_type_symbol
_atom_site_label
_atom_site_fract_x
_atom_site_fract_y
_atom_site_fract_z
Si Si1 0.386285 0.920106 0.861748
Si Si2 0.575463 0.577404 0.806349
Si Si3 0.216971 0.634883 0.576618
Si Si4 0.882515 0.911587 0.181617
Si Si5 0.767945 0.656151 0.868289
Si Si6 0.970894 0.027948 0.355846
Si Si7 0.860105 0.429088 0.062236
Si Si8 0.500000 0.000000 0.000000
O O1 0.421266 0.749243 0.857867
O O2 0.330361 0.004055 0.746698
O O3 0.199358 0.000727 0.114975
O O4 0.562331 0.941095 0.797849
O O5 0.647759 0.477520 0.630211
O O6 0.757891 0.598773 0.733024
O O7 0.500000 0.500000 0.000000
O O8 0.268647 0.579909 0.701333
O O9 0.983170 0.658677 0.727656
O O10 0.195193 0.800675 0.558531
O O11 0.905044 0.931216 0.322393
O O12 0.995620 0.738320 0.078886
O O13 0.000000 0.000000 0.000000
O O14 0.746361 0.538801 0.010677
O O15 0.583180 0.821822 0.008970
O O16 0.000000 0.000000 0.500000
O O17 0.000000 0.500000 0.000000
#
# Coordination Sequence:
#
# PCOD9080617 Si02
#       8
#     2   2   2   2   2   2   2   1
#     4  10  20  40  60  88 127 172 208 269 344 380
#     4  11  25  38  61  93 137 173 219 285 341 385
#     4  11  21  42  63  97 129 175 231 272 330 416
#     4  10  20  38  65  90 130 176 217 272 340 393
#     4  10  22  39  69  90 133 176 222 274 343 405
#     4  11  22  37  67  93 126 173 230 272 328 408
#     4  10  20  38  66  99 125 172 223 275 332 405
#     4  10  18  40  66  94 122 174 214 276 336 398
#
# _framework density 24.092607999999998
#
# number of rings (size 3 to 8) (size 9 to 14) (size 15 to 20)
#    0.000    1.600    4.000    2.000    5.600    0.000 
#    0.000    5.333    0.000    5.600    0.000    0.000 
#    0.000    0.000    0.000    0.000    0.000    0.000 
#
# Total GULP energy -83588.983583 kJ/mol
# GULP energy per Si atom -5572.598906 kJ/mol
# Density = 2.403777 g / cm^3
# Si number density = 24.092608 Si / 1000 Ang^3
#
#
#
# Elastic Constant Matrix: (Units=GPa)
#
#
# Indices 1 2 3 4 5 6 
#
# 1 85.6906 33.1113 40.7239 -2.4109 36.0327 -0.9806
# 2 33.1113 226.5332 84.7187 30.6247 26.4764 -8.4134
# 3 40.7239 84.7187 144.0934 17.5031 43.1834 -2.7573
# 4 -2.4109 30.6247 17.5031 35.3367 3.1492 18.0003
# 5 36.0327 26.4764 43.1834 3.1492 40.4296 -0.7085
# 6 -0.9806 -8.4134 -2.7573 18.0003 -0.7085 36.7571
#
#
#
# Elastic Compliance Matrix: (Units=1/GPa)
#
#
# Indices 1 2 3 4 5 6 
#
# 1 0.019570 -0.001747 -0.000395 0.006158 -0.016412 -0.003240
# 2 -0.001747 0.006749 -0.002722 -0.007124 0.000684 0.004796
# 3 -0.000395 -0.002722 0.012380 -0.003845 -0.010754 0.001971
# 4 0.006158 -0.007124 -0.003845 0.050365 -0.001102 -0.026440
# 5 -0.016412 0.000684 -0.010754 -0.001102 0.050494 0.000425
# 6 -0.003240 0.004796 0.001971 -0.026440 0.000425 0.041321
#
#
# Mechanical properties :
#
#
# Convention : Reuss Voigt Hill
#
# Bulk Modulus (GPa) = 34.51850 85.93610 60.22730
# Shear Modulus (GPa) = 24.96705 42.35558 33.66132
#
# Velocity S-wave (km/s) = 3.22265 4.19744 3.74192
# Velocity P-wave (km/s) = 5.31091 7.69661 6.61225
#
# Compressibility (1/GPa) = 0.02896997
#
# Stress axis : x y z
#
# Youngs Moduli (GPa) = 51.09784 148.17012 80.77700
#
# Poissons Ratio (x) = 0.25891 0.03192
# Poissons Ratio (y) = 0.08929 0.21988
# Poissons Ratio (z) = 0.02019 0.40333
#
# Static dielectric constant tensor:
#      x y z
#    x 1.031760 -0.185980 0.378910 
#    y -0.185980 1.827160 0.044910 
#    z 0.378910 0.044910 1.762080 
# 
# From -- ./inp_files/243418.got.cif
#   From: 2010.05.17/outbox.cif.g08.bks.cpg/sg2_122_cif.got.tgz:243418.got - 2010.06.03 11:33:40.
