data_PCOD9080264
_publ_section_title
;
Structure prediction by ZEFSAII (Michael W. Deem and Ramdas Pophale) SiO2 
 PCOD9080264
Probable space group: P -1
;
_chemical_formula_sum "Si O2"
_cell_formula_units_Z 15
_cell_length_a 9.970031
_cell_length_b 13.691851
_cell_length_c 8.402347
_cell_angle_alpha 114.736998
_cell_angle_beta 46.710046
_cell_angle_gamma 121.445205
_cell_volume 708.858223
_symmetry_space_group_name_H-M "P -1"
_symmetry_group_IT_number 2
_symmetry_cell_setting 'triclinic'
loop_
_space_group_symop_operation_xyz
x,y,z
-x,-y,-z
loop_
_atom_site_type_symbol
_atom_site_label
_atom_site_fract_x
_atom_site_fract_y
_atom_site_fract_z
Si Si1 0.550954 0.446199 0.702408
Si Si2 0.409520 0.320429 0.059953
Si Si3 0.073814 0.154609 0.401729
Si Si4 0.000000 0.500000 0.500000
Si Si5 0.033831 0.938334 0.090746
Si Si6 0.611997 0.109527 0.373407
Si Si7 0.322580 0.226618 0.565087
Si Si8 0.233637 0.744356 0.344696
O O1 0.530382 0.570318 0.796855
O O2 0.778341 0.468739 0.574508
O O3 0.456096 0.358802 0.577915
O O4 0.431273 0.378400 0.908518
O O5 0.191083 0.235519 0.216014
O O6 0.560584 0.252418 0.894581
O O7 0.218279 0.199601 0.462299
O O8 0.873249 0.179432 0.604240
O O9 0.040767 0.025638 0.288221
O O10 0.906848 0.387803 0.617280
O O11 0.854351 0.821800 0.195774
O O12 0.235275 0.916991 0.884321
O O13 0.000000 0.000000 0.000000
O O14 0.459574 0.151959 0.433451
O O15 0.725747 0.206853 0.475303
O O16 0.500000 0.000000 0.500000
#
# Coordination Sequence:
#
# PCOD9080264 Si02
#       8
#     2   2   2   1   2   2   2   2
#     4  10  21  40  67  98 124 167 222 265 304 381
#     4  10  21  39  67  91 125 167 220 256 308 381
#     4  12  25  42  64  95 138 167 203 268 335 372
#     4  10  18  38  68  92 118 170 218 258 302 372
#     4  12  24  41  70  94 125 172 221 263 307 386
#     4  12  23  41  68  96 123 167 222 264 309 380
#     4  12  26  43  63 100 134 163 207 274 330 374
#     4  11  22  39  66  95 125 168 218 260 313 377
#
# _framework density 21.160792000000001
#
# number of rings (size 3 to 8) (size 9 to 14) (size 15 to 20)
#    0.000    0.800    6.667    2.000    0.000    2.133 
#    0.000    0.667    0.000    0.000    0.000    0.000 
#    0.000    0.000    0.000    0.000    0.000    0.000 
#
# Total GULP energy -83594.791776 kJ/mol
# GULP energy per Si atom -5572.986118 kJ/mol
# Density = 2.111263 g / cm^3
# Si number density = 21.160792 Si / 1000 Ang^3
#
#
#
# Elastic Constant Matrix: (Units=GPa)
#
#
# Indices 1 2 3 4 5 6 
#
# 1 106.8096 -2.8579 34.3313 30.3794 -11.8821 13.5369
# 2 -2.8579 67.5857 24.8787 9.2788 -7.0599 14.5578
# 3 34.3313 24.8787 78.0212 16.2191 -29.6935 1.2249
# 4 30.3794 9.2788 16.2191 42.1440 -6.2071 -0.1677
# 5 -11.8821 -7.0599 -29.6935 -6.2071 38.2302 9.3392
# 6 13.5369 14.5578 1.2249 -0.1677 9.3392 22.7308
#
#
#
# Elastic Compliance Matrix: (Units=1/GPa)
#
#
# Indices 1 2 3 4 5 6 
#
# 1 0.017775 0.009047 -0.006054 -0.011807 0.005023 -0.018204
# 2 0.009047 0.024721 -0.007545 -0.008290 0.005858 -0.023282
# 3 -0.006054 -0.007545 0.023637 -0.000908 0.014659 0.001135
# 4 -0.011807 -0.008290 -0.000908 0.033899 -0.003879 0.014234
# 5 0.005023 0.005858 0.014659 -0.003879 0.046023 -0.026470
# 6 -0.018204 -0.023282 0.001135 0.014234 -0.026470 0.080665
#
#
# Mechanical properties :
#
#
# Convention : Reuss Voigt Hill
#
# Bulk Modulus (GPa) = 17.53537 40.56897 29.05217
# Shear Modulus (GPa) = 19.62060 33.69195 26.65628
#
# Velocity S-wave (km/s) = 3.04832 3.99455 3.55308
# Velocity P-wave (km/s) = 4.54911 6.36307 5.53096
#
# Compressibility (1/GPa) = 0.05702758
#
# Stress axis : x y z
#
# Youngs Moduli (GPa) = 56.25933 40.45138 42.30648
#
# Poissons Ratio (x) = -0.36597 0.25614
# Poissons Ratio (y) = -0.50898 0.31922
# Poissons Ratio (z) = 0.34061 0.30522
#
# Static dielectric constant tensor:
#      x y z
#    x 1.754660 -0.018400 0.011030 
#    y -0.018400 1.697390 0.043760 
#    z 0.011030 0.043760 1.790750 
# 
# From -- ./inp_files/203433.got.cif
#   From: 2010.05.17/outbox.cif.g08.bks.cpg/sg2_102_cif.got.tgz:203433.got - 2010.06.03 11:33:40.
