data_PCOD9080151
_publ_section_title
;
Structure prediction by ZEFSAII (Michael W. Deem and Ramdas Pophale) SiO2 
 PCOD9080151
Probable space group: P -1
;
_chemical_formula_sum "Si O2"
_cell_formula_units_Z 15
_cell_length_a 25.204699
_cell_length_b 8.220504
_cell_length_c 8.653721
_cell_angle_alpha 130.322536
_cell_angle_beta 140.774232
_cell_angle_gamma 31.936068
_cell_volume 599.495612
_symmetry_space_group_name_H-M "P -1"
_symmetry_group_IT_number 2
_symmetry_cell_setting 'triclinic'
loop_
_space_group_symop_operation_xyz
x,y,z
-x,-y,-z
loop_
_atom_site_type_symbol
_atom_site_label
_atom_site_fract_x
_atom_site_fract_y
_atom_site_fract_z
Si Si1 0.244515 0.053434 0.199347
Si Si2 0.000000 0.000000 0.500000
Si Si3 0.346476 0.444237 0.176305
Si Si4 0.717398 0.679007 0.312881
Si Si5 0.184958 0.795374 0.316813
Si Si6 0.021900 0.726760 0.062330
Si Si7 0.403673 0.427007 0.793045
Si Si8 0.549218 0.231996 0.718492
O O1 0.280457 0.091519 0.467610
O O2 0.104905 0.368005 0.054997
O O3 0.286739 0.734580 0.109755
O O4 0.316339 0.032207 0.207155
O O5 0.143256 0.651278 0.593572
O O6 0.971895 0.932721 0.228963
O O7 0.262092 0.561405 0.205365
O O8 0.465722 0.334114 0.446543
O O9 0.351239 0.230493 0.946531
O O10 0.645626 0.670510 0.271956
O O11 0.110908 0.745258 0.203891
O O12 0.281212 0.725345 0.607069
O O13 0.083701 0.126080 0.208958
O O14 0.496396 0.197401 0.723325
O O15 0.456781 0.517352 0.073249
#
# Coordination Sequence:
#
# PCOD9080151 Si02
#       8
#     2   1   2   2   2   2   2   2
#     4  11  23  40  65 100 125 164 228 258 308 401
#     4  10  18  38  64  94 124 166 208 258 320 380
#     4  11  23  42  66  91 134 171 206 273 329 362
#     4  11  22  40  66  93 127 174 206 265 326 376
#     4  10  20  40  64  92 128 174 206 263 335 369
#     4  10  21  38  67  95 129 165 223 261 312 402
#     4  10  20  41  66  87 128 174 206 256 338 360
#     4  10  23  41  65  92 131 170 215 269 309 391
#
# _framework density 25.021035000000001
#
# number of rings (size 3 to 8) (size 9 to 14) (size 15 to 20)
#    0.000    1.600    5.333    0.400    0.000    1.600 
#    0.000    3.333    0.000    0.000    0.000    0.000 
#    0.000    0.000    0.000    0.000    0.000    0.000 
#
# Total GULP energy -83703.130860 kJ/mol
# GULP energy per Si atom -5580.208724 kJ/mol
# Density = 2.496409 g / cm^3
# Si number density = 25.021035 Si / 1000 Ang^3
#
#
#
# Elastic Constant Matrix: (Units=GPa)
#
#
# Indices 1 2 3 4 5 6 
#
# 1 104.9535 32.5226 5.1259 -5.4156 5.0432 -29.8417
# 2 32.5226 92.3803 25.9516 -0.7227 -2.9800 -19.9842
# 3 5.1259 25.9516 133.5841 -15.6170 -5.4828 6.1072
# 4 -5.4156 -0.7227 -15.6170 35.4237 -2.8491 -4.6558
# 5 5.0432 -2.9800 -5.4828 -2.8491 31.8833 -3.3451
# 6 -29.8417 -19.9842 6.1072 -4.6558 -3.3451 46.8412
#
#
#
# Elastic Compliance Matrix: (Units=1/GPa)
#
#
# Indices 1 2 3 4 5 6 
#
# 1 0.012623 -0.002973 0.000037 0.002694 -0.001299 0.006944
# 2 -0.002973 0.013627 -0.002743 -0.000683 0.001665 0.004328
# 3 0.000037 -0.002743 0.008576 0.003601 0.001344 -0.001810
# 4 0.002694 -0.000683 0.003601 0.031047 0.003353 0.004281
# 5 -0.001299 0.001665 0.001344 0.003353 0.032504 0.002362
# 6 0.006944 0.004328 -0.001810 0.004281 0.002362 0.028449
#
#
# Mechanical properties :
#
#
# Convention : Reuss Voigt Hill
#
# Bulk Modulus (GPa) = 42.60882 50.90200 46.75541
# Shear Modulus (GPa) = 34.24502 40.65084 37.44793
#
# Velocity S-wave (km/s) = 3.70354 4.03509 3.87286
# Velocity P-wave (km/s) = 5.94596 6.48823 6.22300
#
# Compressibility (1/GPa) = 0.02346932
#
# Stress axis : x y z
#
# Youngs Moduli (GPa) = 79.21868 73.38568 116.60172
#
# Poissons Ratio (x) = 0.21820 -0.00436
# Poissons Ratio (y) = 0.23554 0.31978
# Poissons Ratio (z) = -0.00296 0.20126
#
# Static dielectric constant tensor:
#      x y z
#    x 1.986110 0.027730 0.002620 
#    y 0.027730 1.997220 -0.073550 
#    z 0.002620 -0.073550 1.942920 
# 
# From -- ./inp_files/356551.got.cif
#   From: 2010.05.17/outbox.cif.g08.bks.cpg/sg2_179_cif.got.tgz:356551.got - 2010.06.03 11:33:40.
