data_PCOD9080020
_publ_section_title
;
Structure prediction by ZEFSAII (Michael W. Deem and Ramdas Pophale) SiO2 
 PCOD9080020
Probable space group: P -1
;
_chemical_formula_sum "Si O2"
_cell_formula_units_Z 16
_cell_length_a 15.599341
_cell_length_b 8.254344
_cell_length_c 18.026262
_cell_angle_alpha 133.570832
_cell_angle_beta 157.167618
_cell_angle_gamma 49.904189
_cell_volume 652.236626
_symmetry_space_group_name_H-M "P -1"
_symmetry_group_IT_number 2
_symmetry_cell_setting 'triclinic'
loop_
_space_group_symop_operation_xyz
x,y,z
-x,-y,-z
loop_
_atom_site_type_symbol
_atom_site_label
_atom_site_fract_x
_atom_site_fract_y
_atom_site_fract_z
Si Si1 0.125310 0.718643 0.191601
Si Si2 0.544112 0.857218 0.101433
Si Si3 0.148616 0.881165 0.485880
Si Si4 0.473097 0.486185 0.624649
Si Si5 0.578322 0.362267 0.907501
Si Si6 0.043280 0.206674 0.231762
Si Si7 0.892149 0.703282 0.523252
Si Si8 0.204072 0.255439 0.929023
O O1 0.379272 0.640943 0.359776
O O2 0.001006 0.768442 0.184988
O O3 0.086331 0.940210 0.181118
O O4 0.000000 0.500000 0.000000
O O5 0.474523 0.777981 0.103875
O O6 0.764271 0.002550 0.332709
O O7 0.563963 0.624654 0.000168
O O8 0.359686 0.031791 0.978845
O O9 0.360860 0.722040 0.583911
O O10 0.936439 0.730294 0.255270
O O11 0.099101 0.090472 0.459789
O O12 0.263712 0.333601 0.426015
O O13 0.636856 0.560913 0.847199
O O14 0.366210 0.325859 0.676168
O O15 0.809079 0.273528 0.029220
O O16 0.997342 0.274350 0.302359
O O17 0.000000 0.500000 0.500000
#
# Coordination Sequence:
#
# PCOD9080020 Si02
#       8
#     2   2   2   2   2   2   2   2
#     4  10  21  40  67  90 116 170 213 257 310 365
#     4   9  17  32  57  91 115 156 201 254 292 367
#     4  10  19  36  61  88 119 164 207 250 302 367
#     4  10  25  38  60  90 131 161 207 259 319 361
#     4  10  19  32  59  88 126 153 202 250 310 359
#     4  12  22  42  61  94 129 164 200 264 315 366
#     4  11  22  37  66  98 123 164 214 253 302 376
#     4  10  18  38  61  88 122 161 210 254 301 369
#
# _framework density 24.530975999999999
#
# number of rings (size 3 to 8) (size 9 to 14) (size 15 to 20)
#    0.000    1.750    2.500    3.375    1.750    1.500 
#    0.000    5.625    0.000   11.250    0.000    0.000 
#    0.000    0.000    0.000    0.000    0.000    0.000 
#
# Total GULP energy -89308.004585 kJ/mol
# GULP energy per Si atom -5581.750287 kJ/mol
# Density = 2.447514 g / cm^3
# Si number density = 24.530976 Si / 1000 Ang^3
#
#
#
# Elastic Constant Matrix: (Units=GPa)
#
#
# Indices 1 2 3 4 5 6 
#
# 1 23.1639 4.2123 4.1066 -4.9899 15.3134 -6.7458
# 2 4.2123 139.1823 22.1281 4.4065 3.8430 -16.0628
# 3 4.1066 22.1281 166.1851 -12.7461 4.5966 -3.8599
# 4 -4.9899 4.4065 -12.7461 35.9089 5.6665 4.4570
# 5 15.3134 3.8430 4.5966 5.6665 32.0046 3.2452
# 6 -6.7458 -16.0628 -3.8599 4.4570 3.2452 20.6943
#
#
#
# Elastic Compliance Matrix: (Units=1/GPa)
#
#
# Indices 1 2 3 4 5 6 
#
# 1 0.088770 0.002066 0.000920 0.015827 -0.049208 0.035020
# 2 0.002066 0.008286 -0.001042 -0.001683 -0.002310 0.007636
# 3 0.000920 -0.001042 0.006402 0.002761 -0.001760 0.000366
# 4 0.015827 -0.001683 0.002761 0.033471 -0.013622 -0.000705
# 5 -0.049208 -0.002310 -0.001760 -0.013622 0.060234 -0.024674
# 6 0.035020 0.007636 0.000366 -0.000705 -0.024674 0.069754
#
#
# Mechanical properties :
#
#
# Convention : Reuss Voigt Hill
#
# Bulk Modulus (GPa) = 9.31561 43.26948 26.29255
# Shear Modulus (GPa) = 16.73287 37.59384 27.16335
#
# Velocity S-wave (km/s) = 2.61456 3.91897 3.33123
# Velocity P-wave (km/s) = 3.59448 6.17695 5.05347
#
# Compressibility (1/GPa) = 0.10734669
#
# Stress axis : x y z
#
# Youngs Moduli (GPa) = 11.26501 120.68140 156.19224
#
# Poissons Ratio (x) = -0.24938 -0.14363
# Poissons Ratio (y) = -0.02328 0.16279
# Poissons Ratio (z) = -0.01036 0.12578
#
# Static dielectric constant tensor:
#      x y z
#    x 2.029590 0.005860 0.035930 
#    y 0.005860 1.910210 0.057840 
#    z 0.035930 0.057840 2.073790 
# 
# From -- ./inp_files/599788.got.cif
#   From: 2010.05.17/outbox.cif.g08.bks.cpg/sg2_300_cif.got.tgz:599788.got - 2010.06.03 11:33:40.
