data_PCOD9080972
_publ_section_title
;
Structure prediction by ZEFSAII (Michael W. Deem and Ramdas Pophale) SiO2 
 PCOD9080972
Probable space group: P -1
;
_chemical_formula_sum "Si O2"
_cell_formula_units_Z 14
_cell_length_a 11.583700
_cell_length_b 5.713391
_cell_length_c 26.470891
_cell_angle_alpha 83.366432
_cell_angle_beta 160.987888
_cell_angle_gamma 96.558291
_cell_volume 566.825287
_symmetry_space_group_name_H-M "P -1"
_symmetry_group_IT_number 2
_symmetry_cell_setting 'triclinic'
loop_
_space_group_symop_operation_xyz
x,y,z
-x,-y,-z
loop_
_atom_site_type_symbol
_atom_site_label
_atom_site_fract_x
_atom_site_fract_y
_atom_site_fract_z
Si Si1 0.999065 0.167901 0.600410
Si Si2 0.669173 0.523637 0.014060
Si Si3 0.661835 0.530434 0.644435
Si Si4 0.231744 0.171600 0.412046
Si Si5 0.451857 0.028260 0.297756
Si Si6 0.678625 0.026847 0.017026
Si Si7 0.394757 0.452311 0.686099
O O1 0.669082 0.319515 0.478865
O O2 0.823754 0.037712 0.482252
O O3 0.314527 0.344382 0.711068
O O4 0.054527 0.978042 0.671604
O O5 0.567509 0.288218 0.947494
O O6 0.079506 0.506825 0.201305
O O7 0.598798 0.785563 0.960394
O O8 0.500000 0.500000 0.000000
O O9 0.477872 0.300597 0.551562
O O10 0.862080 0.649079 0.676126
O O11 0.500000 0.000000 0.500000
O O12 0.431461 0.284026 0.253367
O O13 0.108445 0.029882 0.192706
O O14 0.450145 0.781962 0.271769
O O15 0.500000 0.000000 0.000000
O O16 0.000000 0.500000 0.500000
#
# Coordination Sequence:
#
# PCOD9080972 Si02
#       7
#     2   2   2   2   2   2   2
#     4  10  19  30  50  66 105 144 174 214 254 317
#     4  10  20  33  52  77 104 138 173 215 271 318
#     4  10  19  32  51  72 106 146 176 219 266 320
#     4   9  20  32  47  74  99 146 183 213 264 318
#     4  11  20  33  49  73 106 143 171 218 259 314
#     4  10  20  33  51  75 103 139 172 210 269 317
#     4  10  22  31  46  74 102 142 184 205 256 318
#
# _framework density 24.698968000000001
#
# number of rings (size 3 to 8) (size 9 to 14) (size 15 to 20)
#    0.000    2.000    1.429    3.429   10.000    0.000 
#    0.000    0.000    0.000    0.000    0.000    0.000 
#    0.000   27.429    0.000    0.000    0.000    0.000 
#
# Total GULP energy -78033.899322 kJ/mol
# GULP energy per Si atom -5573.849952 kJ/mol
# Density = 2.464275 g / cm^3
# Si number density = 24.698968 Si / 1000 Ang^3
#
#
#
# Elastic Constant Matrix: (Units=GPa)
#
#
# Indices 1 2 3 4 5 6 
#
# 1 92.2751 68.5143 28.2916 -0.9787 19.7324 27.6264
# 2 68.5143 256.2107 40.7481 -2.8088 0.0695 3.9866
# 3 28.2916 40.7481 66.7779 -1.8228 12.9479 7.7914
# 4 -0.9787 -2.8088 -1.8228 23.9989 4.4425 10.9210
# 5 19.7324 0.0695 12.9479 4.4425 32.3761 4.9280
# 6 27.6264 3.9866 7.7914 10.9210 4.9280 61.3413
#
#
#
# Elastic Compliance Matrix: (Units=1/GPa)
#
#
# Indices 1 2 3 4 5 6 
#
# 1 0.020065 -0.004795 -0.002308 0.006011 -0.010806 -0.008634
# 2 -0.004795 0.005508 -0.002324 -0.001342 0.003714 0.002037
# 3 -0.002308 -0.002324 0.018808 0.002770 -0.006310 -0.001185
# 4 0.006011 -0.001342 0.002770 0.048723 -0.009801 -0.010859
# 5 -0.010806 0.003714 -0.006310 -0.009801 0.040740 0.003899
# 6 -0.008634 0.002037 -0.001185 -0.010859 0.003899 0.021829
#
#
# Mechanical properties :
#
#
# Convention : Reuss Voigt Hill
#
# Bulk Modulus (GPa) = 39.17483 76.70794 57.94139
# Shear Modulus (GPa) = 27.31723 42.05723 34.68723
#
# Velocity S-wave (km/s) = 3.32928 4.13097 3.75160
# Velocity P-wave (km/s) = 5.53842 7.34015 6.50200
#
# Compressibility (1/GPa) = 0.02552659
#
# Stress axis : x y z
#
# Youngs Moduli (GPa) = 49.83833 181.57016 53.16909
#
# Poissons Ratio (x) = 0.87070 0.12271
# Poissons Ratio (y) = 0.23899 0.12354
# Poissons Ratio (z) = 0.11502 0.42189
#
# Static dielectric constant tensor:
#      x y z
#    x 1.818290 0.033470 -0.180260 
#    y 0.033470 2.080280 0.044780 
#    z -0.180260 0.044780 1.787960 
# 
# From -- ./inp_files/64304.got.cif
#   From: 2010.05.17/outbox.cif.g08.bks.cpg/sg2_33_cif.got.tgz:64304.got - 2010.06.03 11:33:40.
