data_PCOD9080622
_publ_section_title
;
Structure prediction by ZEFSAII (Michael W. Deem and Ramdas Pophale) SiO2 
 PCOD9080622
Probable space group: P -1
;
_chemical_formula_sum "Si O2"
_cell_formula_units_Z 15
_cell_length_a 9.315489
_cell_length_b 8.948535
_cell_length_c 14.938568
_cell_angle_alpha 133.271865
_cell_angle_beta 80.955399
_cell_angle_gamma 71.004799
_cell_volume 714.642662
_symmetry_space_group_name_H-M "P -1"
_symmetry_group_IT_number 2
_symmetry_cell_setting 'triclinic'
loop_
_space_group_symop_operation_xyz
x,y,z
-x,-y,-z
loop_
_atom_site_type_symbol
_atom_site_label
_atom_site_fract_x
_atom_site_fract_y
_atom_site_fract_z
Si Si1 0.839121 0.563137 0.975491
Si Si2 0.547080 0.273258 0.467141
Si Si3 0.387364 0.681241 0.324195
Si Si4 0.298101 0.273897 0.136116
Si Si5 0.045284 0.987816 0.696632
Si Si6 0.000000 0.000000 0.500000
Si Si7 0.892283 0.742466 0.676258
Si Si8 0.534714 0.093210 0.742725
O O1 0.816079 0.669286 0.920286
O O2 0.883786 0.286400 0.844185
O O3 0.644158 0.761829 0.119991
O O4 0.000000 0.500000 0.000000
O O5 0.500000 0.500000 0.500000
O O6 0.517091 0.373137 0.612598
O O7 0.762413 0.060882 0.339727
O O8 0.449365 0.142654 0.402907
O O9 0.327425 0.496315 0.235005
O O10 0.193188 0.960575 0.465489
O O11 0.488212 0.704382 0.242917
O O12 0.181426 0.294963 0.240717
O O13 0.500000 0.000000 0.000000
O O14 0.033250 0.908975 0.565410
O O15 0.022058 0.830495 0.707437
O O16 0.000000 0.500000 0.500000
O O17 0.711125 0.972340 0.736867
#
# Coordination Sequence:
#
# PCOD9080622 Si02
#       8
#     2   2   2   2   2   1   2   2
#     4  12  26  47  68  97 143 190 234 287 354 427
#     4  11  24  44  66 103 143 175 222 300 361 408
#     4  11  24  41  71  96 131 181 232 285 342 419
#     4  12  26  45  71 102 142 184 235 293 355 412
#     4  11  23  43  71  94 137 180 229 282 345 419
#     4  10  18  40  66  98 120 166 226 280 328 394
#     4  12  25  43  72 107 136 179 238 295 349 417
#     4  12  24  44  71 101 136 184 239 282 354 431
#
# _framework density 20.989511
#
# number of rings (size 3 to 8) (size 9 to 14) (size 15 to 20)
#    0.000    0.533    5.333    3.600    1.867    1.067 
#    4.800    0.667    0.000    0.000    0.000    0.000 
#    0.000    0.000    0.000    0.000    0.000    0.000 
#
# Total GULP energy -83502.853726 kJ/mol
# GULP energy per Si atom -5566.856915 kJ/mol
# Density = 2.094174 g / cm^3
# Si number density = 20.989511 Si / 1000 Ang^3
#
#
#
# Elastic Constant Matrix: (Units=GPa)
#
#
# Indices 1 2 3 4 5 6 
#
# 1 60.9681 25.5013 9.4250 -16.3286 4.4210 11.0821
# 2 25.5013 123.1512 41.4049 -34.9396 7.3844 14.2178
# 3 9.4250 41.4049 77.1851 -19.1798 -11.4845 2.7381
# 4 -16.3286 -34.9396 -19.1798 34.9348 3.6131 -8.3934
# 5 4.4210 7.3844 -11.4845 3.6131 22.2911 -0.1049
# 6 11.0821 14.2178 2.7381 -8.3934 -0.1049 41.1840
#
#
#
# Elastic Compliance Matrix: (Units=1/GPa)
#
#
# Indices 1 2 3 4 5 6 
#
# 1 0.019990 -0.001046 -0.000627 0.007668 -0.005200 -0.003427
# 2 -0.001046 0.014323 -0.006180 0.010934 -0.009503 -0.002048
# 3 -0.000627 -0.006180 0.018731 0.003048 0.011336 0.001707
# 4 0.007668 0.010934 0.003048 0.046803 -0.011143 0.003470
# 5 -0.005200 -0.009503 0.011336 -0.011143 0.056695 0.001800
# 6 -0.003427 -0.002048 0.001707 0.003470 0.001800 0.026509
#
#
# Mechanical properties :
#
#
# Convention : Reuss Voigt Hill
#
# Bulk Modulus (GPa) = 26.78187 45.99633 36.38910
# Shear Modulus (GPa) = 23.67400 32.01352 27.84376
#
# Velocity S-wave (km/s) = 3.36206 3.90964 3.64614
# Velocity P-wave (km/s) = 5.27813 6.50706 5.92455
#
# Compressibility (1/GPa) = 0.03733870
#
# Stress axis : x y z
#
# Youngs Moduli (GPa) = 50.02532 69.81884 53.38745
#
# Poissons Ratio (x) = 0.07301 0.03346
# Poissons Ratio (y) = 0.05231 0.32993
# Poissons Ratio (z) = 0.03135 0.43148
#
# Static dielectric constant tensor:
#      x y z
#    x 1.767710 0.000930 0.006180 
#    y 0.000930 1.821470 0.046210 
#    z 0.006180 0.046210 1.879820 
# 
# From -- ./inp_files/203041.got.cif
#   From: 2010.05.17/outbox.cif.g08.bks.cpg/sg2_102_cif.got.tgz:203041.got - 2010.06.03 11:33:40.
