data_PCOD9080510
_publ_section_title
;
Structure prediction by ZEFSAII (Michael W. Deem and Ramdas Pophale) SiO2 
 PCOD9080510
Probable space group: P -1
;
_chemical_formula_sum "Si O2"
_cell_formula_units_Z 14
_cell_length_a 7.277033
_cell_length_b 12.498007
_cell_length_c 8.773703
_cell_angle_alpha 106.002919
_cell_angle_beta 84.003653
_cell_angle_gamma 132.783507
_cell_volume 559.054407
_symmetry_space_group_name_H-M "P -1"
_symmetry_group_IT_number 2
_symmetry_cell_setting 'triclinic'
loop_
_space_group_symop_operation_xyz
x,y,z
-x,-y,-z
loop_
_atom_site_type_symbol
_atom_site_label
_atom_site_fract_x
_atom_site_fract_y
_atom_site_fract_z
Si Si1 0.269872 0.922728 0.601426
Si Si2 0.025680 0.484474 0.673805
Si Si3 0.833334 0.008689 0.901128
Si Si4 0.950190 0.258301 0.170578
Si Si5 0.530616 0.254970 0.785691
Si Si6 0.896839 0.842521 0.379316
Si Si7 0.461487 0.320310 0.157392
O O1 0.215740 0.812501 0.690766
O O2 0.013122 0.812177 0.483256
O O3 0.500000 0.000000 0.500000
O O4 0.345459 0.070879 0.734768
O O5 0.015286 0.599295 0.810787
O O6 0.793485 0.328329 0.716631
O O7 0.000000 0.500000 0.500000
O O8 0.291483 0.539283 0.719362
O O9 0.973372 0.104867 0.775049
O O10 0.618321 0.830537 0.818056
O O11 0.791096 0.111124 0.019284
O O12 0.000000 0.000000 0.000000
O O13 0.223418 0.307610 0.179198
O O14 0.396531 0.277758 0.678621
O O15 0.527449 0.314642 0.972965
O O16 0.000000 0.000000 0.500000
#
# Coordination Sequence:
#
# PCOD9080510 Si02
#       7
#     2   2   2   2   2   2   2
#     4  11  24  41  68 103 137 174 231 285 341 401
#     4  12  30  44  66 101 143 183 230 283 342 415
#     4  10  18  39  70 104 126 167 231 286 332 402
#     4  11  24  47  71 102 132 182 234 280 349 411
#     4  11  22  47  64  98 138 177 226 281 345 406
#     4  10  20  36  69  96 132 174 212 280 343 391
#     4  11  23  46  73  95 141 179 228 287 344 405
#
# _framework density 25.042285
#
# number of rings (size 3 to 8) (size 9 to 14) (size 15 to 20)
#    0.000    1.143    4.286    3.857    8.000    2.857 
#    2.571    0.000    0.000    0.000    0.000    0.000 
#    0.000    0.000    0.000    0.000    0.000    0.000 
#
# Total GULP energy -78179.214599 kJ/mol
# GULP energy per Si atom -5584.229614 kJ/mol
# Density = 2.498529 g / cm^3
# Si number density = 25.042285 Si / 1000 Ang^3
#
#
#
# Elastic Constant Matrix: (Units=GPa)
#
#
# Indices 1 2 3 4 5 6 
#
# 1 79.1900 9.4553 13.6654 14.4506 4.0618 19.5681
# 2 9.4553 76.5617 -5.6896 13.7700 -0.7938 15.5866
# 3 13.6654 -5.6896 75.1899 -2.7596 -3.1715 8.2142
# 4 14.4506 13.7700 -2.7596 34.9176 7.6821 -5.0293
# 5 4.0618 -0.7938 -3.1715 7.6821 41.0622 12.9804
# 6 19.5681 15.5866 8.2142 -5.0293 12.9804 47.5151
#
#
#
# Elastic Compliance Matrix: (Units=1/GPa)
#
#
# Indices 1 2 3 4 5 6 
#
# 1 0.016539 0.001239 -0.002208 -0.009326 0.002665 -0.008551
# 2 0.001239 0.016458 0.001811 -0.009120 0.004721 -0.008477
# 3 -0.002208 0.001811 0.014236 0.000476 0.002108 -0.002671
# 4 -0.009326 -0.009120 0.000476 0.040653 -0.011292 0.014138
# 5 0.002665 0.004721 0.002108 -0.011292 0.030412 -0.012514
# 6 -0.008551 -0.008477 -0.002671 0.014138 -0.012514 0.032725
#
#
# Mechanical properties :
#
#
# Convention : Reuss Voigt Hill
#
# Bulk Modulus (GPa) = 20.44264 29.53377 24.98820
# Shear Modulus (GPa) = 30.18501 38.93301 34.55901
#
# Velocity S-wave (km/s) = 3.47560 3.94723 3.71890
# Velocity P-wave (km/s) = 4.92822 5.70906 5.33295
#
# Compressibility (1/GPa) = 0.04891735
#
# Stress axis : x y z
#
# Youngs Moduli (GPa) = 60.46310 60.76113 70.24364
#
# Poissons Ratio (x) = -0.07530 0.15508
# Poissons Ratio (y) = -0.07493 -0.12719
# Poissons Ratio (z) = 0.13349 -0.11002
#
# Static dielectric constant tensor:
#      x y z
#    x 2.124840 0.012400 0.024500 
#    y 0.012400 1.968070 0.065210 
#    z 0.024500 0.065210 2.079870 
# 
# From -- ./inp_files/203078.got.cif
#   From: 2010.05.17/outbox.cif.g08.bks.cpg/sg2_102_cif.got.tgz:203078.got - 2010.06.03 11:33:40.
