data_PCOD9080823
_publ_section_title
;
Structure prediction by ZEFSAII (Michael W. Deem and Ramdas Pophale) SiO2 
 PCOD9080823
Probable space group: P -1
;
_chemical_formula_sum "Si O2"
_cell_formula_units_Z 14
_cell_length_a 8.535370
_cell_length_b 12.914996
_cell_length_c 5.404485
_cell_angle_alpha 103.568534
_cell_angle_beta 93.379594
_cell_angle_gamma 65.415633
_cell_volume 526.129577
_symmetry_space_group_name_H-M "P -1"
_symmetry_group_IT_number 2
_symmetry_cell_setting 'triclinic'
loop_
_space_group_symop_operation_xyz
x,y,z
-x,-y,-z
loop_
_atom_site_type_symbol
_atom_site_label
_atom_site_fract_x
_atom_site_fract_y
_atom_site_fract_z
Si Si1 0.579995 0.391447 0.265863
Si Si2 0.262323 0.473069 0.981550
Si Si3 0.424169 0.140152 0.635547
Si Si4 0.932048 0.198259 0.302070
Si Si5 0.888062 0.906574 0.248875
Si Si6 0.562373 0.103851 0.125735
Si Si7 0.048247 0.389418 0.617087
O O1 0.500000 0.500000 0.500000
O O2 0.673738 0.439737 0.102061
O O3 0.726092 0.275784 0.330671
O O4 0.409402 0.391601 0.132270
O O5 0.222602 0.383764 0.753673
O O6 0.094628 0.563342 0.155720
O O7 0.754406 0.034379 0.213627
O O8 0.445529 0.181272 0.383089
O O9 0.500000 0.000000 0.500000
O O10 0.543211 0.154424 0.873578
O O11 0.990235 0.146144 0.005495
O O12 0.019398 0.290113 0.407854
O O13 0.010775 0.110194 0.491636
O O14 0.763445 0.838451 0.256840
O O15 0.500000 0.000000 0.000000
O O16 0.000000 0.500000 0.500000
#
# Coordination Sequence:
#
# PCOD9080823 Si02
#       7
#     2   2   2   2   2   2   2
#     4  11  21  36  52  73  91 138 178 229 258 315
#     4  10  21  36  56  66  97 122 192 217 262 312
#     4   8  13  25  44  62  92 138 162 180 234 318
#     4  12  22  31  50  74 105 132 168 225 264 289
#     4  10  19  29  42  74 104 130 164 206 256 305
#     4   8  13  25  44  62  92 138 162 180 234 318
#     4  11  21  36  52  73  91 138 178 229 258 315
#
# _framework density 26.609417000000001
#
# number of rings (size 3 to 8) (size 9 to 14) (size 15 to 20)
#    0.000    2.286    2.857    4.286    4.000    0.000 
#    0.000    0.000    0.000    0.000    0.000    0.000 
#    0.000    0.000    0.000  231.429    0.000    0.000 
#
# Total GULP energy -78280.833828 kJ/mol
# GULP energy per Si atom -5591.488131 kJ/mol
# Density = 2.654885 g / cm^3
# Si number density = 26.609417 Si / 1000 Ang^3
#
#
#
# Elastic Constant Matrix: (Units=GPa)
#
#
# Indices 1 2 3 4 5 6 
#
# 1 60.1831 18.4873 46.6705 -9.4433 31.4151 -30.2928
# 2 18.4873 97.2496 33.7866 -7.2448 5.2409 -12.8313
# 3 46.6705 33.7866 210.2970 -15.5838 2.1290 -33.9521
# 4 -9.4433 -7.2448 -15.5838 48.5618 -21.6194 0.3265
# 5 31.4151 5.2409 2.1290 -21.6194 56.6566 -5.7353
# 6 -30.2928 -12.8313 -33.9521 0.3265 -5.7353 53.2673
#
#
#
# Elastic Compliance Matrix: (Units=1/GPa)
#
#
# Indices 1 2 3 4 5 6 
#
# 1 0.041943 -0.002689 -0.006271 -0.004520 -0.022798 0.016781
# 2 -0.002689 0.011275 -0.001027 0.001290 0.001043 0.000637
# 3 -0.006271 -0.001027 0.006608 0.002723 0.004450 0.000860
# 4 -0.004520 0.001290 0.002723 0.026287 0.012381 0.000648
# 5 -0.022798 0.001043 0.004450 0.012381 0.034116 -0.006280
# 6 0.016781 0.000637 0.000860 0.000648 -0.006280 0.028338
#
#
# Mechanical properties :
#
#
# Convention : Reuss Voigt Hill
#
# Bulk Modulus (GPa) = 25.09309 62.84648 43.96979
# Shear Modulus (GPa) = 27.49909 49.61615 38.55762
#
# Velocity S-wave (km/s) = 3.21820 4.32280 3.81073
# Velocity P-wave (km/s) = 4.82283 6.97028 5.99352
#
# Compressibility (1/GPa) = 0.03985161
#
# Stress axis : x y z
#
# Youngs Moduli (GPa) = 23.84191 88.69502 151.34245
#
# Poissons Ratio (x) = 0.23847 0.94909
# Poissons Ratio (y) = 0.06410 0.15541
# Poissons Ratio (z) = 0.14952 0.09108
#
# Static dielectric constant tensor:
#      x y z
#    x 2.183980 0.228500 0.033060 
#    y 0.228500 2.744020 -0.072920 
#    z 0.033060 -0.072920 2.086420 
# 
# From -- ./inp_files/50418.got.cif
#   From: 2010.05.17/outbox.cif.g08.bks.cpg/sg2_26_cif.got.tgz:50418.got - 2010.06.03 11:33:40.
