data_PCOD9080888
_publ_section_title
;
Structure prediction by ZEFSAII (Michael W. Deem and Ramdas Pophale) SiO2 
 PCOD9080888
Probable space group: P -1
;
_chemical_formula_sum "Si O2"
_cell_formula_units_Z 16
_cell_length_a 8.423461
_cell_length_b 17.796291
_cell_length_c 12.174631
_cell_angle_alpha 143.036437
_cell_angle_beta 80.427992
_cell_angle_gamma 72.256954
_cell_volume 730.170806
_symmetry_space_group_name_H-M "P -1"
_symmetry_group_IT_number 2
_symmetry_cell_setting 'triclinic'
loop_
_space_group_symop_operation_xyz
x,y,z
-x,-y,-z
loop_
_atom_site_type_symbol
_atom_site_label
_atom_site_fract_x
_atom_site_fract_y
_atom_site_fract_z
Si Si1 0.115028 0.968219 0.332536
Si Si2 0.477298 0.858391 0.577744
Si Si3 0.322609 0.481583 0.498369
Si Si4 0.988360 0.233518 0.953999
Si Si5 0.651180 0.124434 0.147467
Si Si6 0.650306 0.342663 0.709050
Si Si7 0.858514 0.273815 0.387981
Si Si8 0.715042 0.894433 0.436319
O O1 0.311051 0.957130 0.327218
O O2 0.907943 0.155870 0.508201
O O3 0.000000 0.000000 0.500000
O O4 0.164063 0.807973 0.083593
O O5 0.464234 0.870456 0.724802
O O6 0.475527 0.714617 0.375837
O O7 0.691406 0.805390 0.429464
O O8 0.229301 0.057604 0.788009
O O9 0.500000 0.500000 0.500000
O O10 0.469592 0.270066 0.244002
O O11 0.164637 0.602467 0.552101
O O12 0.161774 0.583377 0.745037
O O13 0.059214 0.233423 0.822086
O O14 0.759919 0.196869 0.260974
O O15 0.867943 0.915116 0.838335
O O16 0.701541 0.390292 0.648848
O O17 0.500000 0.500000 0.000000
O O18 0.500000 0.000000 0.500000
#
# Coordination Sequence:
#
# PCOD9080888 Si02
#       8
#     2   2   2   2   2   2   2   2
#     4   9  19  33  55  80 116 145 187 236 289 340
#     4   9  17  33  57  79 114 152 189 236 289 345
#     4  10  19  29  53  87 110 145 192 238 287 337
#     4   9  17  33  53  83 117 144 188 245 287 337
#     4   9  17  30  52  83 110 142 193 231 280 331
#     4  10  21  36  54  83 116 148 187 243 300 334
#     4   9  18  33  51  78 117 147 183 245 281 332
#     4   9  18  33  55  85 110 157 195 229 292 347
#
# _framework density 21.912682
#
# number of rings (size 3 to 8) (size 9 to 14) (size 15 to 20)
#    0.000    2.750    1.250    0.750    5.250    6.000 
#    0.000    2.500    0.000    0.750    3.250    3.500 
#    0.000    0.000    0.000    0.000    0.000    0.000 
#
# Total GULP energy -89279.015683 kJ/mol
# GULP energy per Si atom -5579.938480 kJ/mol
# Density = 2.186281 g / cm^3
# Si number density = 21.912682 Si / 1000 Ang^3
#
#
#
# Elastic Constant Matrix: (Units=GPa)
#
#
# Indices 1 2 3 4 5 6 
#
# 1 54.5201 19.5773 8.9840 -5.1268 -3.2322 10.6705
# 2 19.5773 121.2977 50.3643 -1.4287 -11.0911 26.5226
# 3 8.9840 50.3643 100.4650 -9.1313 -11.9065 9.9963
# 4 -5.1268 -1.4287 -9.1313 33.0432 1.8477 -9.0041
# 5 -3.2322 -11.0911 -11.9065 1.8477 8.0731 -8.6347
# 6 10.6705 26.5226 9.9963 -9.0041 -8.6347 23.2559
#
#
#
# Elastic Compliance Matrix: (Units=1/GPa)
#
#
# Indices 1 2 3 4 5 6 
#
# 1 0.020517 -0.001535 -0.000637 0.000820 -0.004288 -0.008664
# 2 -0.001535 0.014565 -0.006995 -0.006145 -0.009715 -0.018886
# 3 -0.000637 -0.006995 0.015907 0.006269 0.027018 0.013891
# 4 0.000820 -0.006145 0.006269 0.037851 0.020492 0.026201
# 5 -0.004288 -0.009715 0.027018 0.020492 0.255405 0.104197
# 6 -0.008664 -0.018886 0.013891 0.026201 0.104197 0.111375
#
#
# Mechanical properties :
#
#
# Convention : Reuss Voigt Hill
#
# Bulk Modulus (GPa) = 30.62302 48.23711 39.43007
# Shear Modulus (GPa) = 10.31271 26.03160 18.17216
#
# Velocity S-wave (km/s) = 2.17175 3.45043 2.88288
# Velocity P-wave (km/s) = 4.50489 6.15915 5.39579
#
# Compressibility (1/GPa) = 0.03265517
#
# Stress axis : x y z
#
# Youngs Moduli (GPa) = 48.74122 68.65602 62.86529
#
# Poissons Ratio (x) = 0.10538 0.04003
# Poissons Ratio (y) = 0.07481 0.43975
# Poissons Ratio (z) = 0.03104 0.48026
#
# Static dielectric constant tensor:
#      x y z
#    x 1.842480 -0.027770 -0.013660 
#    y -0.027770 1.857740 -0.023420 
#    z -0.013660 -0.023420 1.830270 
# 
# From -- ./inp_files/402321.got.cif
#   From: 2010.05.17/outbox.cif.g08.bks.cpg/sg2_202_cif.got.tgz:402321.got - 2010.06.03 11:33:40.
