data_PCOD9080612
_publ_section_title
;
Structure prediction by ZEFSAII (Michael W. Deem and Ramdas Pophale) SiO2 
 PCOD9080612
Probable space group: P -1
;
_chemical_formula_sum "Si O2"
_cell_formula_units_Z 15
_cell_length_a 14.843037
_cell_length_b 10.206132
_cell_length_c 6.582114
_cell_angle_alpha 45.283453
_cell_angle_beta 124.241659
_cell_angle_gamma 115.804527
_cell_volume 584.421806
_symmetry_space_group_name_H-M "P -1"
_symmetry_group_IT_number 2
_symmetry_cell_setting 'triclinic'
loop_
_space_group_symop_operation_xyz
x,y,z
-x,-y,-z
loop_
_atom_site_type_symbol
_atom_site_label
_atom_site_fract_x
_atom_site_fract_y
_atom_site_fract_z
Si Si1 0.169909 0.004504 0.156628
Si Si2 0.560314 0.195508 0.599176
Si Si3 0.748144 0.312087 0.934278
Si Si4 0.500000 0.500000 0.000000
Si Si5 0.982104 0.867985 0.812414
Si Si6 0.750024 0.605838 0.268714
Si Si7 0.605587 0.155287 0.254819
Si Si8 0.101013 0.509977 0.774773
O O1 0.099042 0.052713 0.210708
O O2 0.286497 0.944677 0.438351
O O3 0.189687 0.193441 0.851173
O O4 0.097710 0.861889 0.083035
O O5 0.683788 0.163098 0.863148
O O6 0.508856 0.386273 0.371587
O O7 0.568253 0.257874 0.297348
O O8 0.486228 0.007193 0.735332
O O9 0.768060 0.479795 0.623065
O O10 0.647194 0.296228 0.982689
O O11 0.855219 0.323136 0.202951
O O12 0.621915 0.609924 0.074429
O O13 0.931929 0.663002 0.932441
O O14 0.000000 0.000000 0.500000
O O15 0.799465 0.525410 0.211937
O O16 0.000000 0.500000 0.500000
#
# Coordination Sequence:
#
# PCOD9080612 Si02
#       8
#     2   2   2   1   2   2   2   2
#     4  10  21  40  64  88 129 172 208 266 329 379
#     4  10  23  40  65  93 133 170 217 261 325 382
#     4  11  22  39  63  93 127 165 216 268 316 387
#     4  10  18  40  66  90 128 176 198 262 326 380
#     4  10  22  39  63  94 124 164 222 266 317 385
#     4  10  22  40  63  93 129 170 212 263 328 390
#     4  11  22  41  64  94 130 171 213 265 320 384
#     4  11  24  42  63  93 130 169 215 271 330 382
#
# _framework density 25.666394
#
# number of rings (size 3 to 8) (size 9 to 14) (size 15 to 20)
#    0.000    1.600    1.333    3.600    0.000    2.667 
#    0.000   10.667    0.000    0.000    0.000    0.000 
#    0.000    0.000    0.000    0.000    0.000    0.000 
#
# Total GULP energy -83535.830678 kJ/mol
# GULP energy per Si atom -5569.055379 kJ/mol
# Density = 2.560798 g / cm^3
# Si number density = 25.666394 Si / 1000 Ang^3
#
#
#
# Elastic Constant Matrix: (Units=GPa)
#
#
# Indices 1 2 3 4 5 6 
#
# 1 106.3839 33.1593 30.7159 1.9660 -6.2943 28.1391
# 2 33.1593 159.2869 49.1822 0.2318 -1.4952 55.5233
# 3 30.7159 49.1822 106.9084 8.7249 -17.1535 21.3714
# 4 1.9660 0.2318 8.7249 51.7159 26.9392 5.1871
# 5 -6.2943 -1.4952 -17.1535 26.9392 50.5020 -6.4033
# 6 28.1391 55.5233 21.3714 5.1871 -6.4033 34.9088
#
#
#
# Elastic Compliance Matrix: (Units=1/GPa)
#
#
# Indices 1 2 3 4 5 6 
#
# 1 0.012942 0.003424 -0.002979 0.002942 -0.002769 -0.014998
# 2 0.003424 0.017894 -0.005224 0.008667 -0.009376 -0.031029
# 3 -0.002979 -0.005224 0.013548 -0.007073 0.008486 0.005024
# 4 0.002942 0.008667 -0.007073 0.034367 -0.022789 -0.021113
# 5 -0.002769 -0.009376 0.008486 -0.022789 0.037022 0.022126
# 6 -0.014998 -0.031029 0.005024 -0.021113 0.022126 0.094208
#
#
# Mechanical properties :
#
#
# Convention : Reuss Voigt Hill
#
# Bulk Modulus (GPa) = 28.71658 66.52157 47.61908
# Shear Modulus (GPa) = 21.63103 44.72679 33.17891
#
# Velocity S-wave (km/s) = 2.90621 4.17900 3.59931
# Velocity P-wave (km/s) = 4.74069 7.01851 5.98889
#
# Compressibility (1/GPa) = 0.03482309
#
# Stress axis : x y z
#
# Youngs Moduli (GPa) = 77.26764 55.88538 73.81427
#
# Poissons Ratio (x) = -0.19132 0.21992
# Poissons Ratio (y) = -0.26453 0.38562
# Poissons Ratio (z) = 0.23021 0.29196
#
# Static dielectric constant tensor:
#      x y z
#    x 2.380720 -0.360880 0.225190 
#    y -0.360880 2.358420 -0.109500 
#    z 0.225190 -0.109500 2.346190 
# 
# From -- ./inp_files/93089.got.cif
#   From: 2010.05.17/outbox.cif.g08.bks.cpg/sg2_47_cif.got.tgz:93089.got - 2010.06.03 11:33:40.
