data_PCOD9080616
_publ_section_title
;
Structure prediction by ZEFSAII (Michael W. Deem and Ramdas Pophale) SiO2 
 PCOD9080616
Probable space group: P -1
;
_chemical_formula_sum "Si O2"
_cell_formula_units_Z 16
_cell_length_a 11.392218
_cell_length_b 8.335550
_cell_length_c 17.885334
_cell_angle_alpha 115.479969
_cell_angle_beta 151.528573
_cell_angle_gamma 75.594279
_cell_volume 697.097822
_symmetry_space_group_name_H-M "P -1"
_symmetry_group_IT_number 2
_symmetry_cell_setting 'triclinic'
loop_
_space_group_symop_operation_xyz
x,y,z
-x,-y,-z
loop_
_atom_site_type_symbol
_atom_site_label
_atom_site_fract_x
_atom_site_fract_y
_atom_site_fract_z
Si Si1 0.969117 0.126460 0.247874
Si Si2 0.771754 0.333011 0.300638
Si Si3 0.487055 0.560539 0.420252
Si Si4 0.771581 0.152627 0.705944
Si Si5 0.304364 0.700990 0.991275
Si Si6 0.391229 0.770117 0.654611
Si Si7 0.796162 0.609797 0.244406
Si Si8 0.202814 0.888662 0.111149
O O1 0.243581 0.283967 0.418207
O O2 0.873580 0.182357 0.284068
O O3 0.787533 0.162570 0.088052
O O4 0.013648 0.926660 0.226734
O O5 0.592320 0.234078 0.247701
O O6 0.675175 0.444794 0.204376
O O7 0.000000 0.500000 0.500000
O O8 0.500000 0.500000 0.500000
O O9 0.263492 0.654455 0.301380
O O10 0.474318 0.381480 0.328183
O O11 0.806754 0.156192 0.815861
O O12 0.500000 0.000000 0.500000
O O13 0.208257 0.498283 0.857570
O O14 0.613099 0.740342 0.171377
O O15 0.190573 0.723358 0.013032
O O16 0.091112 0.704665 0.450415
O O17 0.524745 0.962123 0.727258
O O18 0.000000 0.000000 0.000000
#
# Coordination Sequence:
#
# PCOD9080616 Si02
#       8
#     2   2   2   2   2   2   2   2
#     4  10  18  40  66  92 139 175 213 278 351 394
#     4   9  17  35  64  94 130 167 225 286 325 387
#     4  11  22  39  68  98 126 174 237 276 321 417
#     4  10  23  41  67  97 129 187 222 273 351 399
#     4  10  20  39  65  95 138 181 218 278 349 393
#     4  11  22  40  68 102 130 177 235 277 330 417
#     4   9  20  38  68  97 133 185 225 274 342 402
#     4  12  26  44  69  98 149 179 221 288 347 398
#
# _framework density 22.952300999999999
#
# number of rings (size 3 to 8) (size 9 to 14) (size 15 to 20)
#    0.000    1.750    5.000    1.500    1.750    1.500 
#    0.000    5.625    5.500    0.000    0.000    0.000 
#    0.000    0.000    0.000    0.000    0.000    0.000 
#
# Total GULP energy -89470.098671 kJ/mol
# GULP energy per Si atom -5591.881167 kJ/mol
# Density = 2.290006 g / cm^3
# Si number density = 22.952301 Si / 1000 Ang^3
#
#
#
# Elastic Constant Matrix: (Units=GPa)
#
#
# Indices 1 2 3 4 5 6 
#
# 1 151.8294 70.7068 28.3738 -0.9403 -44.0631 -29.8254
# 2 70.7068 132.1150 39.7975 -24.5938 -11.4467 -28.0220
# 3 28.3738 39.7975 67.5917 -7.4180 -16.9266 -10.7082
# 4 -0.9403 -24.5938 -7.4180 34.1809 2.5339 6.8017
# 5 -44.0631 -11.4467 -16.9266 2.5339 39.5680 4.2932
# 6 -29.8254 -28.0220 -10.7082 6.8017 4.2932 41.0939
#
#
#
# Elastic Compliance Matrix: (Units=1/GPa)
#
#
# Indices 1 2 3 4 5 6 
#
# 1 0.015376 -0.007490 0.002079 -0.006887 0.015625 0.006102
# 2 -0.007490 0.015050 -0.006180 0.009349 -0.007495 0.002452
# 3 0.002079 -0.006180 0.019959 -0.001067 0.008945 0.001738
# 4 -0.006887 0.009349 -0.001067 0.036951 -0.007326 -0.004252
# 5 0.015625 -0.007495 0.008945 -0.007326 0.044241 0.005151
# 6 0.006102 0.002452 0.001738 -0.004252 0.005151 0.031054
#
#
# Mechanical properties :
#
#
# Convention : Reuss Voigt Hill
#
# Bulk Modulus (GPa) = 36.75891 69.92134 53.34012
# Shear Modulus (GPa) = 25.65662 37.14577 31.40120
#
# Velocity S-wave (km/s) = 3.34701 4.02729 3.70281
# Velocity P-wave (km/s) = 5.56658 7.22186 6.44756
#
# Compressibility (1/GPa) = 0.02720429
#
# Stress axis : x y z
#
# Youngs Moduli (GPa) = 65.03521 66.44413 50.10273
#
# Poissons Ratio (x) = 0.49763 -0.10415
# Poissons Ratio (y) = 0.48708 0.30963
# Poissons Ratio (z) = -0.13519 0.41061
#
# Static dielectric constant tensor:
#      x y z
#    x 1.843810 0.003890 0.036580 
#    y 0.003890 1.861390 0.013380 
#    z 0.036580 0.013380 1.895970 
# 
# From -- ./inp_files/566173.got.cif
#   From: 2010.05.17/outbox.cif.g08.bks.cpg/sg2_284_cif.got.tgz:566173.got - 2010.06.03 11:33:40.
