data_PCOD9080505
_publ_section_title
;
Structure prediction by ZEFSAII (Michael W. Deem and Ramdas Pophale) SiO2 
 PCOD9080505
Probable space group: P -1
;
_chemical_formula_sum "Si O2"
_cell_formula_units_Z 16
_cell_length_a 8.058835
_cell_length_b 12.159374
_cell_length_c 17.490344
_cell_angle_alpha 140.217934
_cell_angle_beta 41.968291
_cell_angle_gamma 128.048115
_cell_volume 729.302807
_symmetry_space_group_name_H-M "P -1"
_symmetry_group_IT_number 2
_symmetry_cell_setting 'triclinic'
loop_
_space_group_symop_operation_xyz
x,y,z
-x,-y,-z
loop_
_atom_site_type_symbol
_atom_site_label
_atom_site_fract_x
_atom_site_fract_y
_atom_site_fract_z
Si Si1 0.558305 0.907782 0.139327
Si Si2 0.167394 0.622352 0.178419
Si Si3 0.587732 0.553465 0.301361
Si Si4 0.766067 0.598513 0.104266
Si Si5 0.878688 0.331778 0.409335
Si Si6 0.047579 0.036593 0.827770
Si Si7 0.900650 0.642270 0.820239
Si Si8 0.353830 0.815045 0.861642
O O1 0.322439 0.804262 0.205574
O O2 0.764370 0.968860 0.166235
O O3 0.501591 0.061339 0.184255
O O4 0.685362 0.769324 0.969065
O O5 0.182884 0.545648 0.216668
O O6 0.874964 0.617743 0.256854
O O7 0.276575 0.484339 0.009360
O O8 0.412223 0.661293 0.469417
O O9 0.530747 0.349395 0.231255
O O10 0.000000 0.500000 0.500000
O O11 0.567919 0.571630 0.226180
O O12 0.849138 0.799830 0.170532
O O13 0.000000 0.500000 0.000000
O O14 0.970678 0.355683 0.304007
O O15 0.956273 0.146883 0.309203
O O16 0.775958 0.074736 0.971204
O O17 0.113194 0.724777 0.849807
#
# Coordination Sequence:
#
# PCOD9080505 Si02
#       8
#     2   2   2   2   2   2   2   2
#     4  11  19  35  69 107 118 154 226 283 307 362
#     4  10  21  36  67  99 124 163 212 274 325 360
#     4  10  24  43  60  95 135 180 198 256 334 387
#     4  10  19  39  65  92 133 165 209 263 322 372
#     4  12  27  43  62  92 136 177 213 254 323 399
#     4  11  20  40  68  97 125 168 218 271 316 369
#     4  10  19  38  65  92 128 163 216 265 321 367
#     4  10  18  39  69  95 122 166 218 277 312 356
#
# _framework density 21.938761
#
# number of rings (size 3 to 8) (size 9 to 14) (size 15 to 20)
#    0.000    1.500    7.500    1.125    1.750    2.500 
#    4.500    1.875    0.000    0.000    0.000    0.000 
#    0.000    0.000    0.000    0.000    0.000    0.000 
#
# Total GULP energy -89434.178771 kJ/mol
# GULP energy per Si atom -5589.636173 kJ/mol
# Density = 2.188883 g / cm^3
# Si number density = 21.938761 Si / 1000 Ang^3
#
#
#
# Elastic Constant Matrix: (Units=GPa)
#
#
# Indices 1 2 3 4 5 6 
#
# 1 55.5717 25.5968 23.7675 -3.7410 0.2075 -4.0903
# 2 25.5968 194.2766 40.4461 0.0204 -0.0902 -21.7852
# 3 23.7675 40.4461 100.3882 -0.1460 -4.7262 -3.4207
# 4 -3.7410 0.0204 -0.1460 41.8829 3.8209 2.6355
# 5 0.2075 -0.0902 -4.7262 3.8209 17.4230 -6.0649
# 6 -4.0903 -21.7852 -3.4207 2.6355 -6.0649 39.8915
#
#
#
# Elastic Compliance Matrix: (Units=1/GPa)
#
#
# Indices 1 2 3 4 5 6 
#
# 1 0.020822 -0.001813 -0.004264 0.001978 -0.001713 0.000388
# 2 -0.001813 0.006135 -0.001902 -0.000435 0.000726 0.003140
# 3 -0.004264 -0.001902 0.011903 -0.000661 0.003454 0.000114
# 4 0.001978 -0.000435 -0.000661 0.024825 -0.006601 -0.002735
# 5 -0.001713 0.000726 0.003454 -0.006601 0.063496 0.010607
# 6 0.000388 0.003140 0.000114 -0.002735 0.010607 0.028626
#
#
# Mechanical properties :
#
#
# Convention : Reuss Voigt Hill
#
# Bulk Modulus (GPa) = 43.66522 58.87303 51.26913
# Shear Modulus (GPa) = 27.87113 37.20121 32.53617
#
# Velocity S-wave (km/s) = 3.56814 4.12234 3.85521
# Velocity P-wave (km/s) = 6.07634 7.03929 6.57547
#
# Compressibility (1/GPa) = 0.02290152
#
# Stress axis : x y z
#
# Youngs Moduli (GPa) = 48.02723 163.00838 84.01585
#
# Poissons Ratio (x) = 0.29556 0.35821
# Poissons Ratio (y) = 0.08708 0.15978
# Poissons Ratio (z) = 0.20477 0.31001
#
# Static dielectric constant tensor:
#      x y z
#    x 1.912140 0.035910 -0.029430 
#    y 0.035910 1.838320 -0.028780 
#    z -0.029430 -0.028780 1.814660 
# 
# From -- ./inp_files/558597.got.cif
#   From: 2010.05.17/outbox.cif.g08.bks.cpg/sg2_280_cif.got.tgz:558597.got - 2010.06.03 11:33:40.
