data_PCOD9080245
_publ_section_title
;
Structure prediction by ZEFSAII (Michael W. Deem and Ramdas Pophale) SiO2 
 PCOD9080245
Probable space group: P -1
;
_chemical_formula_sum "Si O2"
_cell_formula_units_Z 16
_cell_length_a 7.829496
_cell_length_b 22.634349
_cell_length_c 11.824789
_cell_angle_alpha 42.969282
_cell_angle_beta 130.406185
_cell_angle_gamma 150.732452
_cell_volume 697.986699
_symmetry_space_group_name_H-M "P -1"
_symmetry_group_IT_number 2
_symmetry_cell_setting 'triclinic'
loop_
_space_group_symop_operation_xyz
x,y,z
-x,-y,-z
loop_
_atom_site_type_symbol
_atom_site_label
_atom_site_fract_x
_atom_site_fract_y
_atom_site_fract_z
Si Si1 0.146188 0.779134 0.977246
Si Si2 0.520666 0.719532 0.218394
Si Si3 0.073661 0.263624 0.810596
Si Si4 0.723563 0.261362 0.471976
Si Si5 0.402901 0.421558 0.397385
Si Si6 0.293974 0.279634 0.328156
Si Si7 0.242448 0.985831 0.250991
Si Si8 0.318818 0.040861 0.443367
O O1 0.837026 0.715083 0.850334
O O2 0.499943 0.918949 0.874341
O O3 0.203048 0.692190 0.122264
O O4 0.090719 0.801576 0.046399
O O5 0.685042 0.737506 0.144034
O O6 0.463378 0.616355 0.411557
O O7 0.843591 0.864864 0.214461
O O8 0.316608 0.419833 0.712997
O O9 0.787671 0.209826 0.670429
O O10 0.652568 0.334131 0.390811
O O11 0.386944 0.137487 0.424400
O O12 0.061768 0.358502 0.401678
O O13 0.311691 0.353236 0.333479
O O14 0.014096 0.120339 0.460565
O O15 0.355733 0.925746 0.433048
O O16 0.321124 0.070635 0.272681
#
# Coordination Sequence:
#
# PCOD9080245 Si02
#       8
#     2   2   2   2   2   2   2   2
#     4  11  26  40  60  98 136 166 205 258 331 384
#     4  11  21  44  66  91 129 170 212 264 316 374
#     4  11  26  42  65  98 124 171 218 264 312 371
#     4  11  21  41  68  95 124 165 220 265 309 372
#     4  11  23  45  71  89 123 171 229 262 299 370
#     4  11  24  41  65  97 128 169 211 262 318 380
#     4  10  19  38  66  94 129 171 203 260 322 381
#     4  10  18  38  67  97 124 163 217 261 312 377
#
# _framework density 22.923074
#
# number of rings (size 3 to 8) (size 9 to 14) (size 15 to 20)
#    0.000    1.250    3.750    4.500    0.000    6.000 
#    0.000    1.250    0.000    0.000    0.000    0.000 
#    0.000    0.000    0.000    0.000    0.000    0.000 
#
# Total GULP energy -89503.294998 kJ/mol
# GULP energy per Si atom -5593.955937 kJ/mol
# Density = 2.287090 g / cm^3
# Si number density = 22.923074 Si / 1000 Ang^3
#
#
#
# Elastic Constant Matrix: (Units=GPa)
#
#
# Indices 1 2 3 4 5 6 
#
# 1 124.2219 16.5500 40.8540 33.0160 -19.3689 -26.6017
# 2 16.5500 78.6379 10.2573 5.4691 -22.5429 -10.8213
# 3 40.8540 10.2573 54.2260 13.6352 -6.5256 -1.0951
# 4 33.0160 5.4691 13.6352 13.2859 -0.8165 -6.6182
# 5 -19.3689 -22.5429 -6.5256 -0.8165 45.2963 11.4990
# 6 -26.6017 -10.8213 -1.0951 -6.6182 11.4990 25.1049
#
#
#
# Elastic Compliance Matrix: (Units=1/GPa)
#
#
# Indices 1 2 3 4 5 6 
#
# 1 0.031599 0.003364 -0.006242 -0.066639 0.009897 0.012560
# 2 0.003364 0.015766 -0.001850 -0.010517 0.007834 0.003919
# 3 -0.006242 -0.001850 0.028437 -0.019054 0.003400 -0.012752
# 4 -0.066639 -0.010517 -0.019054 0.267785 -0.034265 0.010311
# 5 0.009897 0.007834 0.003400 -0.034265 0.032607 -0.009956
# 6 0.012560 0.003919 -0.012752 0.010311 -0.009956 0.061553
#
#
# Mechanical properties :
#
#
# Convention : Reuss Voigt Hill
#
# Bulk Modulus (GPa) = 15.07247 43.60093 29.33670
# Shear Modulus (GPa) = 10.65370 29.36572 20.00971
#
# Velocity S-wave (km/s) = 2.15816 3.58307 2.95771
# Velocity P-wave (km/s) = 3.57767 6.01495 4.94871
#
# Compressibility (1/GPa) = 0.06634613
#
# Stress axis : x y z
#
# Youngs Moduli (GPa) = 31.64622 63.42605 35.16528
#
# Poissons Ratio (x) = -0.21337 0.21951
# Poissons Ratio (y) = -0.10646 0.06507
# Poissons Ratio (z) = 0.19754 0.11736
#
# Static dielectric constant tensor:
#      x y z
#    x 1.915490 -0.026570 0.001510 
#    y -0.026570 1.880890 -0.022290 
#    z 0.001510 -0.022290 1.862110 
# 
# From -- ./inp_files/508442.got.cif
#   From: 2010.05.17/outbox.cif.g08.bks.cpg/sg2_255_cif.got.tgz:508442.got - 2010.06.03 11:33:40.
