data_PCOD9080429
_publ_section_title
;
Structure prediction by ZEFSAII (Michael W. Deem and Ramdas Pophale) SiO2 
 PCOD9080429
Probable space group: P -1
;
_chemical_formula_sum "Si O2"
_cell_formula_units_Z 16
_cell_length_a 24.297272
_cell_length_b 18.907011
_cell_length_c 9.151228
_cell_angle_alpha 40.940065
_cell_angle_beta 40.470982
_cell_angle_gamma 17.817724
_cell_volume 824.603453
_symmetry_space_group_name_H-M "P -1"
_symmetry_group_IT_number 2
_symmetry_cell_setting 'triclinic'
loop_
_space_group_symop_operation_xyz
x,y,z
-x,-y,-z
loop_
_atom_site_type_symbol
_atom_site_label
_atom_site_fract_x
_atom_site_fract_y
_atom_site_fract_z
Si Si1 0.170975 0.759756 0.939668
Si Si2 0.719648 0.566339 0.256529
Si Si3 0.739801 0.581560 0.682254
Si Si4 0.452322 0.613988 0.068255
Si Si5 0.146842 0.427566 0.801885
Si Si6 0.581476 0.888091 0.797214
Si Si7 0.438715 0.856093 0.624913
Si Si8 0.806422 0.245323 0.437149
O O1 0.356395 0.574898 0.943088
O O2 0.187577 0.782245 0.705117
O O3 0.160125 0.642556 0.133318
O O4 0.000000 0.000000 0.000000
O O5 0.871208 0.456227 0.222538
O O6 0.580112 0.674416 0.489786
O O7 0.770819 0.411123 0.289181
O O8 0.629729 0.763792 0.035534
O O9 0.865114 0.509428 0.433595
O O10 0.669841 0.725237 0.737842
O O11 0.560012 0.756685 0.673993
O O12 0.338038 0.667577 0.323658
O O13 0.500000 0.500000 0.000000
O O14 0.352451 0.840165 0.872783
O O15 0.359265 0.147103 0.826727
O O16 0.000000 0.500000 0.000000
O O17 0.658440 0.924362 0.576465
O O18 0.000000 0.000000 0.500000
#
# Coordination Sequence:
#
# PCOD9080429 Si02
#       8
#     2   2   2   2   2   2   2   2
#     4  11  24  43  66  93 125 170 218 270 326 379
#     4  10  20  40  63  89 123 165 205 258 311 379
#     4   9  19  38  61  87 120 157 204 254 311 376
#     4  11  22  42  66  96 127 166 215 261 323 392
#     4  10  21  38  60  93 127 158 201 251 320 378
#     4  10  18  39  65  88 119 165 204 249 312 383
#     4   9  18  34  64  88 120 159 202 246 313 378
#     4  12  25  43  64  92 130 170 219 268 323 380
#
# _framework density 19.403267
#
# number of rings (size 3 to 8) (size 9 to 14) (size 15 to 20)
#    0.000    2.000    2.500    4.125    3.500    0.000 
#    9.000    1.875    0.000    0.000    0.000    0.000 
#    0.000    0.000    0.000    0.000    0.000    0.000 
#
# Total GULP energy -89214.685450 kJ/mol
# GULP energy per Si atom -5575.917841 kJ/mol
# Density = 1.935910 g / cm^3
# Si number density = 19.403267 Si / 1000 Ang^3
#
#
#
# Elastic Constant Matrix: (Units=GPa)
#
#
# Indices 1 2 3 4 5 6 
#
# 1 93.4311 37.9183 56.5133 13.0679 8.5697 24.8003
# 2 37.9183 69.7604 45.0495 -4.0859 -10.1843 15.8054
# 3 56.5133 45.0495 163.9094 5.0557 -5.3719 5.9506
# 4 13.0679 -4.0859 5.0557 30.8044 5.2933 1.4755
# 5 8.5697 -10.1843 -5.3719 5.2933 40.5083 -1.8656
# 6 24.8003 15.8054 5.9506 1.4755 -1.8656 28.4287
#
#
#
# Elastic Compliance Matrix: (Units=1/GPa)
#
#
# Indices 1 2 3 4 5 6 
#
# 1 0.022166 -0.006819 -0.005230 -0.007591 -0.006773 -0.014502
# 2 -0.006819 0.022987 -0.003744 0.005866 0.005683 -0.005979
# 3 -0.005230 -0.003744 0.008814 -0.000233 0.001591 0.004916
# 4 -0.007591 0.005866 -0.000233 0.036722 -0.001685 0.001393
# 5 -0.006773 0.005683 0.001591 -0.001685 0.028180 0.004353
# 6 -0.014502 -0.005979 0.004916 0.001393 0.004353 0.050335
#
#
# Mechanical properties :
#
#
# Convention : Reuss Voigt Hill
#
# Bulk Modulus (GPa) = 44.68047 67.34034 56.01040
# Shear Modulus (GPa) = 24.00946 32.45627 28.23286
#
# Velocity S-wave (km/s) = 3.52148 4.09433 3.81866
# Velocity P-wave (km/s) = 6.29378 7.55860 6.95500
#
# Compressibility (1/GPa) = 0.02238114
#
# Stress axis : x y z
#
# Youngs Moduli (GPa) = 45.11399 43.50224 113.45497
#
# Poissons Ratio (x) = 0.29664 0.59334
# Poissons Ratio (y) = 0.30763 0.42483
# Poissons Ratio (z) = 0.23593 0.16289
#
# Static dielectric constant tensor:
#      x y z
#    x 1.677310 0.041150 0.015980 
#    y 0.041150 1.666770 -0.047960 
#    z 0.015980 -0.047960 1.676910 
# 
# From -- ./inp_files/354940.got.cif
#   From: 2010.05.17/outbox.cif.g08.bks.cpg/sg2_178_cif.got.tgz:354940.got - 2010.06.03 11:33:40.
