data_PCOD9080714
_publ_section_title
;
Structure prediction by ZEFSAII (Michael W. Deem and Ramdas Pophale) SiO2 
 PCOD9080714
Probable space group: P -1
;
_chemical_formula_sum "Si O2"
_cell_formula_units_Z 16
_cell_length_a 14.697319
_cell_length_b 11.579775
_cell_length_c 9.950717
_cell_angle_alpha 126.678937
_cell_angle_beta 118.199964
_cell_angle_gamma 29.643391
_cell_volume 667.114980
_symmetry_space_group_name_H-M "P -1"
_symmetry_group_IT_number 2
_symmetry_cell_setting 'triclinic'
loop_
_space_group_symop_operation_xyz
x,y,z
-x,-y,-z
loop_
_atom_site_type_symbol
_atom_site_label
_atom_site_fract_x
_atom_site_fract_y
_atom_site_fract_z
Si Si1 0.327582 0.015296 0.807690
Si Si2 0.083051 0.847652 0.591213
Si Si3 0.777874 0.330951 0.885314
Si Si4 0.061959 0.306690 0.596754
Si Si5 0.753358 0.879707 0.671682
Si Si6 0.504209 0.088942 0.878200
Si Si7 0.428257 0.606633 0.698714
Si Si8 0.714657 0.226009 0.997427
O O1 0.134423 0.246648 0.756085
O O2 0.457976 0.976969 0.794091
O O3 0.391927 0.774130 0.681948
O O4 0.343608 0.045446 0.995304
O O5 0.974252 0.075963 0.779201
O O6 0.022585 0.755013 0.513499
O O7 0.000000 0.000000 0.500000
O O8 0.306236 0.608605 0.577442
O O9 0.638775 0.380992 0.741093
O O10 0.798397 0.268128 0.013316
O O11 0.673375 0.604788 0.995190
O O12 0.230321 0.137980 0.490431
O O13 0.906678 0.596948 0.642671
O O14 0.569521 0.051420 0.747128
O O15 0.797009 0.992512 0.820813
O O16 0.312476 0.780124 0.872167
O O17 0.500000 0.500000 0.000000
#
# Coordination Sequence:
#
# PCOD9080714 Si02
#       8
#     2   2   2   2   2   2   2   2
#     4  10  21  44  64  96 132 165 220 270 332 393
#     4  12  25  43  64  98 136 180 219 261 343 399
#     4  10  22  43  69  97 130 167 228 280 319 390
#     4  11  26  42  61  97 140 175 210 273 331 406
#     4  11  22  44  66  93 136 172 218 270 330 396
#     4  10  22  43  71  98 120 172 228 273 327 388
#     4  10  22  42  69 101 126 174 224 279 325 381
#     4  10  18  41  70  94 125 169 220 284 323 373
#
# _framework density 23.983872999999999
#
# number of rings (size 3 to 8) (size 9 to 14) (size 15 to 20)
#    0.000    1.500    6.250    0.000    0.000    6.000 
#    6.750    0.000    0.000    0.000    0.000    0.000 
#    0.000    0.000    0.000    0.000    0.000    0.000 
#
# Total GULP energy -89235.786482 kJ/mol
# GULP energy per Si atom -5577.236655 kJ/mol
# Density = 2.392928 g / cm^3
# Si number density = 23.983873 Si / 1000 Ang^3
#
#
#
# Elastic Constant Matrix: (Units=GPa)
#
#
# Indices 1 2 3 4 5 6 
#
# 1 136.0420 45.7059 31.0438 -0.0541 4.4315 11.7181
# 2 45.7059 96.0893 21.8519 5.1792 20.1717 -2.7313
# 3 31.0438 21.8519 47.3113 15.5504 -5.6788 -0.3961
# 4 -0.0541 5.1792 15.5504 24.4228 -4.3857 7.3067
# 5 4.4315 20.1717 -5.6788 -4.3857 32.2252 1.6463
# 6 11.7181 -2.7313 -0.3961 7.3067 1.6463 46.7785
#
#
#
# Elastic Compliance Matrix: (Units=1/GPa)
#
#
# Indices 1 2 3 4 5 6 
#
# 1 0.010745 -0.004138 -0.007355 0.006994 0.000979 -0.004122
# 2 -0.004138 0.016040 -0.004983 -0.003030 -0.010904 0.002788
# 3 -0.007355 -0.004983 0.036562 -0.022467 0.007255 0.005115
# 4 0.006994 -0.003030 -0.022467 0.060473 0.005807 -0.011769
# 5 0.000979 -0.010904 0.007255 0.005807 0.039952 -0.003134
# 6 -0.004122 0.002788 0.005115 -0.011769 -0.003134 0.024565
#
#
# Mechanical properties :
#
#
# Convention : Reuss Voigt Hill
#
# Bulk Modulus (GPa) = 32.89918 52.96064 42.92991
# Shear Modulus (GPa) = 21.60567 32.74134 27.17350
#
# Velocity S-wave (km/s) = 3.00466 3.69879 3.36964
# Velocity P-wave (km/s) = 5.07782 6.35382 5.75132
#
# Compressibility (1/GPa) = 0.03039589
#
# Stress axis : x y z
#
# Youngs Moduli (GPa) = 93.06393 62.34325 27.35059
#
# Poissons Ratio (x) = 0.25799 0.20116
# Poissons Ratio (y) = 0.38511 0.13628
# Poissons Ratio (z) = 0.68449 0.31064
#
# Static dielectric constant tensor:
#      x y z
#    x 1.898350 -0.066370 0.031500 
#    y -0.066370 1.873550 -0.028990 
#    z 0.031500 -0.028990 1.948830 
# 
# From -- ./inp_files/451816.got.cif
#   From: 2010.05.17/outbox.cif.g08.bks.cpg/sg2_226_cif.got.tgz:451816.got - 2010.06.03 11:33:40.
