data_PCOD9080433
_publ_section_title
;
Structure prediction by ZEFSAII (Michael W. Deem and Ramdas Pophale) SiO2 
 PCOD9080433
Probable space group: P -1
;
_chemical_formula_sum "Si O2"
_cell_formula_units_Z 14
_cell_length_a 6.156969
_cell_length_b 16.918786
_cell_length_c 16.466477
_cell_angle_alpha 27.290949
_cell_angle_beta 59.106827
_cell_angle_gamma 73.109850
_cell_volume 612.087441
_symmetry_space_group_name_H-M "P -1"
_symmetry_group_IT_number 2
_symmetry_cell_setting 'triclinic'
loop_
_space_group_symop_operation_xyz
x,y,z
-x,-y,-z
loop_
_atom_site_type_symbol
_atom_site_label
_atom_site_fract_x
_atom_site_fract_y
_atom_site_fract_z
Si Si1 0.506457 0.993825 0.678961
Si Si2 0.900845 0.739239 0.072324
Si Si3 0.202079 0.236753 0.110811
Si Si4 0.685092 0.908439 0.100417
Si Si5 0.328607 0.729243 0.808380
Si Si6 0.718276 0.295311 0.488095
Si Si7 0.309712 0.414825 0.230514
O O1 0.434075 0.920059 0.668517
O O2 0.588169 0.199665 0.513787
O O3 0.759828 0.935912 0.698477
O O4 0.236369 0.852472 0.912173
O O5 0.847048 0.811614 0.929923
O O6 0.737834 0.777632 0.142054
O O7 0.797711 0.516596 0.281055
O O8 0.480240 0.428637 0.892846
O O9 0.963085 0.282560 0.157158
O O10 0.486149 0.811720 0.302593
O O11 0.500000 0.000000 0.000000
O O12 0.000000 0.000000 0.000000
O O13 0.544141 0.707509 0.725560
O O14 0.263876 0.549456 0.046443
O O15 0.017495 0.287851 0.443013
#
# Coordination Sequence:
#
# PCOD9080433 Si02
#       7
#     2   2   2   2   2   2   2
#     4  10  21  40  64  94 139 172 227 284 344 403
#     4  11  23  45  67 100 133 180 226 285 347 413
#     4  10  18  39  65  92 134 180 220 286 346 406
#     4  12  28  50  76 105 144 183 229 295 360 413
#     4   9  19  38  62  91 138 175 220 286 344 397
#     4  12  23  44  70 100 131 183 233 281 345 428
#     4  10  20  37  63  98 128 177 230 278 342 413
#
# _framework density 22.872548999999999
#
# number of rings (size 3 to 8) (size 9 to 14) (size 15 to 20)
#    0.000    1.429    5.714    1.714    0.000    1.714 
#    5.143    2.857    0.000    0.000    0.000    0.000 
#    0.000    0.000    0.000    0.000    0.000    0.000 
#
# Total GULP energy -78122.059320 kJ/mol
# GULP energy per Si atom -5580.147094 kJ/mol
# Density = 2.282049 g / cm^3
# Si number density = 22.872549 Si / 1000 Ang^3
#
#
#
# Elastic Constant Matrix: (Units=GPa)
#
#
# Indices 1 2 3 4 5 6 
#
# 1 85.2718 29.9165 37.0382 3.2116 -11.1028 -12.0700
# 2 29.9165 195.0921 60.6053 2.5840 -18.0242 -10.3216
# 3 37.0382 60.6053 87.5469 2.9784 -24.0619 -13.9571
# 4 3.2116 2.5840 2.9784 56.8148 -4.9973 -4.3571
# 5 -11.1028 -18.0242 -24.0619 -4.9973 35.2864 3.8219
# 6 -12.0700 -10.3216 -13.9571 -4.3571 3.8219 25.4480
#
#
#
# Elastic Compliance Matrix: (Units=1/GPa)
#
#
# Indices 1 2 3 4 5 6 
#
# 1 0.014746 -0.000391 -0.005227 -0.000207 0.000428 0.003869
# 2 -0.000391 0.006544 -0.004270 -0.000020 0.000297 0.000079
# 3 -0.005227 -0.004270 0.020000 0.000681 0.009316 0.005476
# 4 -0.000207 -0.000020 0.000681 0.018036 0.002622 0.002961
# 5 0.000428 0.000297 0.009316 0.002622 0.035286 0.000582
# 6 0.003869 0.000079 0.005476 0.002961 0.000582 0.044586
#
#
# Mechanical properties :
#
#
# Convention : Reuss Voigt Hill
#
# Bulk Modulus (GPa) = 46.47938 69.22563 57.85251
# Shear Modulus (GPa) = 30.09450 39.53323 34.81386
#
# Velocity S-wave (km/s) = 3.63126 4.16193 3.90562
# Velocity P-wave (km/s) = 6.16008 7.30938 6.75920
#
# Compressibility (1/GPa) = 0.02151491
#
# Stress axis : x y z
#
# Youngs Moduli (GPa) = 67.81688 152.81069 50.00045
#
# Poissons Ratio (x) = 0.05968 0.26133
# Poissons Ratio (y) = 0.02649 0.21351
# Poissons Ratio (z) = 0.35445 0.65252
#
# Static dielectric constant tensor:
#      x y z
#    x 1.974140 -0.005530 0.003630 
#    y -0.005530 1.806810 -0.015130 
#    z 0.003630 -0.015130 1.903170 
# 
# From -- ./inp_files/35383.got.cif
#   From: 2010.05.17/outbox.cif.g08.bks.cpg/sg2_18_cif.got.tgz:35383.got - 2010.06.03 11:33:40.
