data_PCOD9080368
_publ_section_title
;
Structure prediction by ZEFSAII (Michael W. Deem and Ramdas Pophale) SiO2 
 PCOD9080368
Probable space group: P -1
;
_chemical_formula_sum "Si O2"
_cell_formula_units_Z 16
_cell_length_a 14.378398
_cell_length_b 14.868666
_cell_length_c 10.767063
_cell_angle_alpha 123.741236
_cell_angle_beta 76.884547
_cell_angle_gamma 151.140430
_cell_volume 704.713621
_symmetry_space_group_name_H-M "P -1"
_symmetry_group_IT_number 2
_symmetry_cell_setting 'triclinic'
loop_
_space_group_symop_operation_xyz
x,y,z
-x,-y,-z
loop_
_atom_site_type_symbol
_atom_site_label
_atom_site_fract_x
_atom_site_fract_y
_atom_site_fract_z
Si Si1 0.586820 0.894533 0.203802
Si Si2 0.789660 0.685700 0.830680
Si Si3 0.532484 0.492860 0.344902
Si Si4 0.078487 0.882702 0.098808
Si Si5 0.984831 0.333325 0.611876
Si Si6 0.152829 0.332853 0.751627
Si Si7 0.813986 0.392790 0.760054
Si Si8 0.871323 0.538665 0.593392
O O1 0.411791 0.810038 0.235525
O O2 0.739942 0.020621 0.379261
O O3 0.404726 0.622024 0.978455
O O4 0.830335 0.177648 0.263691
O O5 0.542924 0.491839 0.716383
O O6 0.834315 0.629415 0.684379
O O7 0.836520 0.681999 0.947528
O O8 0.000000 0.000000 0.000000
O O9 0.500000 0.500000 0.500000
O O10 0.785188 0.699923 0.383737
O O11 0.317206 0.172626 0.171424
O O12 0.064440 0.907290 0.263422
O O13 0.033732 0.707953 0.973176
O O14 0.900622 0.361050 0.708692
O O15 0.092647 0.372572 0.716108
O O16 0.175522 0.545460 0.598707
O O17 0.741255 0.348729 0.605891
#
# Coordination Sequence:
#
# PCOD9080368 Si02
#       8
#     2   2   2   2   2   2   2   2
#     4   9  21  36  61  83 120 161 194 241 297 342
#     4   9  17  36  62  81 112 154 194 242 298 344
#     4  11  23  41  63  88 120 154 197 252 309 352
#     4   9  22  39  61  89 116 157 200 247 292 363
#     4  10  22  37  61  89 124 163 194 248 293 347
#     4  11  22  43  58  90 128 151 203 249 291 356
#     4  10  18  39  62  86 123 158 201 239 295 357
#     4   9  19  36  57  89 117 152 206 243 289 359
#
# _framework density 22.704256999999998
#
# number of rings (size 3 to 8) (size 9 to 14) (size 15 to 20)
#    0.750    1.500    0.000    3.750    0.000    3.000 
#    9.000    6.250    0.000    0.000    0.000    0.000 
#    0.000    0.000    0.000    0.000    0.000    0.000 
#
# Total GULP energy -89189.874036 kJ/mol
# GULP energy per Si atom -5574.367127 kJ/mol
# Density = 2.265258 g / cm^3
# Si number density = 22.704257 Si / 1000 Ang^3
#
#
#
# Elastic Constant Matrix: (Units=GPa)
#
#
# Indices 1 2 3 4 5 6 
#
# 1 111.1782 40.5817 -2.2535 -8.1623 -17.8884 8.4299
# 2 40.5817 82.1003 7.4526 -23.4720 -14.7377 19.1180
# 3 -2.2535 7.4526 47.7809 3.1658 -10.6154 -6.0549
# 4 -8.1623 -23.4720 3.1658 30.7314 2.6898 -6.0050
# 5 -17.8884 -14.7377 -10.6154 2.6898 27.3791 -11.8339
# 6 8.4299 19.1180 -6.0549 -6.0050 -11.8339 17.0552
#
#
#
# Elastic Compliance Matrix: (Units=1/GPa)
#
#
# Indices 1 2 3 4 5 6 
#
# 1 0.013085 -0.008566 0.006556 -0.002230 0.012457 0.013320
# 2 -0.008566 0.027530 -0.012655 0.014391 -0.011939 -0.034335
# 3 0.006556 -0.012655 0.035734 -0.005940 0.030310 0.042571
# 4 -0.002230 0.014391 -0.005940 0.043092 -0.001567 -0.003053
# 5 0.012457 -0.011939 0.030310 -0.001567 0.082385 0.074599
# 6 0.013320 -0.034335 0.042571 -0.003053 0.074599 0.156337
#
#
# Mechanical properties :
#
#
# Convention : Reuss Voigt Hill
#
# Bulk Modulus (GPa) = 21.26795 36.95787 29.11291
# Shear Modulus (GPa) = 12.40188 28.05171 20.22680
#
# Velocity S-wave (km/s) = 2.33970 3.51882 2.98800
# Velocity P-wave (km/s) = 4.08493 5.72911 4.97541
#
# Compressibility (1/GPa) = 0.04701910
#
# Stress axis : x y z
#
# Youngs Moduli (GPa) = 76.42462 36.32435 27.98453
#
# Poissons Ratio (x) = 0.31116 -0.18348
# Poissons Ratio (y) = 0.65467 0.35414
# Poissons Ratio (z) = -0.50107 0.45968
#
# Static dielectric constant tensor:
#      x y z
#    x 1.818440 -0.008890 -0.024590 
#    y -0.008890 1.872720 0.039240 
#    z -0.024590 0.039240 1.952690 
# 
# From -- ./inp_files/453979.got.cif
#   From: 2010.05.17/outbox.cif.g08.bks.cpg/sg2_227_cif.got.tgz:453979.got - 2010.06.03 11:33:40.
