data_PCOD9080153
_publ_section_title
;
Structure prediction by ZEFSAII (Michael W. Deem and Ramdas Pophale) SiO2 
 PCOD9080153
Probable space group: P -1
;
_chemical_formula_sum "Si O2"
_cell_formula_units_Z 15
_cell_length_a 16.706162
_cell_length_b 11.731993
_cell_length_c 8.742015
_cell_angle_alpha 142.339715
_cell_angle_beta 47.471522
_cell_angle_gamma 139.244518
_cell_volume 670.805198
_symmetry_space_group_name_H-M "P -1"
_symmetry_group_IT_number 2
_symmetry_cell_setting 'triclinic'
loop_
_space_group_symop_operation_xyz
x,y,z
-x,-y,-z
loop_
_atom_site_type_symbol
_atom_site_label
_atom_site_fract_x
_atom_site_fract_y
_atom_site_fract_z
Si Si1 0.875464 0.967630 0.048136
Si Si2 0.564876 0.850828 0.075010
Si Si3 0.771168 0.241619 0.370186
Si Si4 0.813370 0.845678 0.655341
Si Si5 0.281656 0.573405 0.847349
Si Si6 0.500000 0.000000 0.000000
Si Si7 0.124973 0.722728 0.066546
Si Si8 0.694377 0.534840 0.955055
O O1 0.872132 0.896294 0.800938
O O2 0.753962 0.779141 0.087565
O O3 0.859892 0.177172 0.281265
O O4 0.000000 0.000000 0.000000
O O5 0.452709 0.627960 0.043341
O O6 0.635220 0.028899 0.304382
O O7 0.673873 0.813496 0.822749
O O8 0.517771 0.946024 0.100855
O O9 0.817917 0.278885 0.174872
O O10 0.761423 0.434462 0.659468
O O11 0.794857 0.630067 0.377168
O O12 0.884569 0.061712 0.691347
O O13 0.422076 0.737651 0.789772
O O14 0.219554 0.726432 0.076931
O O15 0.275783 0.483279 0.926602
O O16 0.000000 0.500000 0.000000
#
# Coordination Sequence:
#
# PCOD9080153 Si02
#       8
#     2   2   2   2   2   1   2   2
#     4  10  24  44  62  92 129 169 220 265 317 385
#     4   9  20  41  66  97 126 164 216 261 330 388
#     4  10  22  44  66  92 131 170 206 271 328 382
#     4  10  23  44  69  92 132 172 214 273 327 379
#     4  11  23  41  65  99 129 169 220 266 325 381
#     4  10  18  38  64  94 130 158 206 272 312 384
#     4  10  22  43  68  91 122 171 226 265 322 385
#     4  11  24  39  64  98 131 169 211 262 322 396
#
# _framework density 22.361186
#
# number of rings (size 3 to 8) (size 9 to 14) (size 15 to 20)
#    0.000    2.133    2.667    1.200    3.733    6.400 
#    9.600    0.000    0.000    0.000    0.000    0.000 
#    0.000    0.000    0.000    0.000    0.000    0.000 
#
# Total GULP energy -83544.042889 kJ/mol
# GULP energy per Si atom -5569.602859 kJ/mol
# Density = 2.231029 g / cm^3
# Si number density = 22.361186 Si / 1000 Ang^3
#
#
#
# Elastic Constant Matrix: (Units=GPa)
#
#
# Indices 1 2 3 4 5 6 
#
# 1 62.3477 7.8671 6.6987 5.3664 -2.5862 -16.4811
# 2 7.8671 104.5086 12.0168 15.7754 -2.9530 0.0225
# 3 6.6987 12.0168 31.0310 12.5093 -0.0586 1.7869
# 4 5.3664 15.7754 12.5093 25.1750 2.0574 -4.6996
# 5 -2.5862 -2.9530 -0.0586 2.0574 15.3322 -0.1426
# 6 -16.4811 0.0225 1.7869 -4.6996 -0.1426 23.5262
#
#
#
# Elastic Compliance Matrix: (Units=1/GPa)
#
#
# Indices 1 2 3 4 5 6 
#
# 1 0.020834 -0.001082 -0.005616 0.001634 0.003208 0.015369
# 2 -0.001082 0.010859 -0.001204 -0.006570 0.002768 -0.001972
# 3 -0.005616 -0.001204 0.043420 -0.021938 0.001823 -0.011603
# 4 0.001634 -0.006570 -0.021938 0.057772 -0.008693 0.014306
# 5 0.003208 0.002768 0.001823 -0.008693 0.067477 0.000779
# 6 0.015369 -0.001972 -0.011603 0.014306 0.000779 0.057018
#
#
# Mechanical properties :
#
#
# Convention : Reuss Voigt Hill
#
# Bulk Modulus (GPa) = 16.86120 27.89473 22.37796
# Shear Modulus (GPa) = 17.06753 24.22700 20.64726
#
# Velocity S-wave (km/s) = 2.76572 3.29514 3.04197
# Velocity P-wave (km/s) = 4.21375 5.19412 4.72941
#
# Compressibility (1/GPa) = 0.05930777
#
# Stress axis : x y z
#
# Youngs Moduli (GPa) = 47.99850 92.09095 23.03089
#
# Poissons Ratio (x) = 0.09964 0.12935
# Poissons Ratio (y) = 0.05193 0.02774
# Poissons Ratio (z) = 0.26957 0.11090
#
# Static dielectric constant tensor:
#      x y z
#    x 1.870160 0.044390 -0.037270 
#    y 0.044390 1.864410 -0.012290 
#    z -0.037270 -0.012290 1.801120 
# 
# From -- ./inp_files/331403.got.cif
#   From: 2010.05.17/outbox.cif.g08.bks.cpg/sg2_166_cif.got.tgz:331403.got - 2010.06.03 11:33:40.
