data_PCOD9080261
_publ_section_title
;
Structure prediction by ZEFSAII (Michael W. Deem and Ramdas Pophale) SiO2 
 PCOD9080261
Probable space group: P -1
;
_chemical_formula_sum "Si O2"
_cell_formula_units_Z 16
_cell_length_a 14.185021
_cell_length_b 8.712702
_cell_length_c 5.745159
_cell_angle_alpha 94.695087
_cell_angle_beta 82.449240
_cell_angle_gamma 70.004777
_cell_volume 655.302356
_symmetry_space_group_name_H-M "P -1"
_symmetry_group_IT_number 2
_symmetry_cell_setting 'triclinic'
loop_
_space_group_symop_operation_xyz
x,y,z
-x,-y,-z
loop_
_atom_site_type_symbol
_atom_site_label
_atom_site_fract_x
_atom_site_fract_y
_atom_site_fract_z
Si Si1 0.314115 0.765160 0.288988
Si Si2 0.095030 0.888283 0.605702
Si Si3 0.429485 0.424561 0.368563
Si Si4 0.430260 0.916910 0.640773
Si Si5 0.901058 0.786372 0.146917
Si Si6 0.725910 0.922218 0.924772
Si Si7 0.250575 0.326825 0.488512
Si Si8 0.068175 0.599081 0.408835
O O1 0.200848 0.805974 0.427972
O O2 0.374526 0.570188 0.220286
O O3 0.373530 0.837241 0.466392
O O4 0.293030 0.886849 0.093249
O O5 0.064591 0.729213 0.633237
O O6 0.111529 0.021996 0.785028
O O7 0.000000 0.000000 0.500000
O O8 0.500000 0.500000 0.500000
O O9 0.500685 0.240909 0.247219
O O10 0.339346 0.393595 0.544277
O O11 0.500000 0.000000 0.500000
O O12 0.348812 0.060047 0.833936
O O13 0.843671 0.810635 0.922466
O O14 0.827179 0.716976 0.318206
O O15 0.014352 0.684879 0.195532
O O16 0.698762 0.836439 0.701264
O O17 0.181680 0.469986 0.354294
O O18 0.000000 0.500000 0.500000
#
# Coordination Sequence:
#
# PCOD9080261 Si02
#       8
#     2   2   2   2   2   2   2   2
#     4  11  22  42  64  92 127 163 211 263 315 374
#     4  10  18  38  68  89 126 169 209 252 312 376
#     4  10  23  41  65  89 121 168 210 263 319 371
#     4  11  24  44  67  91 123 165 213 265 322 379
#     4  10  21  40  64  97 124 170 211 253 320 377
#     4  12  23  38  67  93 131 163 213 261 319 380
#     4  11  21  40  66  92 131 166 209 265 314 373
#     4   9  20  37  67  92 129 172 206 256 315 375
#
# _framework density 24.416211000000001
#
# number of rings (size 3 to 8) (size 9 to 14) (size 15 to 20)
#    0.000    1.500    3.750    1.500    0.000    3.000 
#    0.000   10.000    0.000    0.000    0.000    0.000 
#    0.000    0.000    0.000    0.000    0.000    0.000 
#
# Total GULP energy -89153.110223 kJ/mol
# GULP energy per Si atom -5572.069389 kJ/mol
# Density = 2.436064 g / cm^3
# Si number density = 24.416211 Si / 1000 Ang^3
#
#
#
# Elastic Constant Matrix: (Units=GPa)
#
#
# Indices 1 2 3 4 5 6 
#
# 1 146.4795 38.8328 11.3698 -8.9524 1.6512 8.7124
# 2 38.8328 146.2150 5.3330 -22.2454 6.4413 -9.8028
# 3 11.3698 5.3330 17.6192 -15.1094 6.4812 0.7457
# 4 -8.9524 -22.2454 -15.1094 24.1349 -6.6141 7.1060
# 5 1.6512 6.4413 6.4812 -6.6141 22.7306 -7.7486
# 6 8.7124 -9.8028 0.7457 7.1060 -7.7486 67.9507
#
#
#
# Elastic Compliance Matrix: (Units=1/GPa)
#
#
# Indices 1 2 3 4 5 6 
#
# 1 0.007908 -0.002495 -0.008025 -0.003883 0.001031 -0.000762
# 2 -0.002495 0.009401 0.012289 0.015036 -0.001688 -0.000224
# 3 -0.008025 0.012289 0.154941 0.103101 -0.021202 -0.012098
# 4 -0.003883 0.015036 0.103101 0.121200 -0.001984 -0.011365
# 5 0.001031 -0.001688 -0.021202 -0.001984 0.051905 0.005983
# 6 -0.000762 -0.000224 -0.012098 -0.011365 0.005983 0.016786
#
#
# Mechanical properties :
#
#
# Convention : Reuss Voigt Hill
#
# Bulk Modulus (GPa) = 5.68868 46.82056 26.25462
# Shear Modulus (GPa) = 11.98478 39.94846 25.96662
#
# Velocity S-wave (km/s) = 2.21793 4.04932 3.26467
# Velocity P-wave (km/s) = 2.98226 6.40939 4.99871
#
# Compressibility (1/GPa) = 0.17578758
#
# Stress axis : x y z
#
# Youngs Moduli (GPa) = 126.46180 106.37713 6.45408
#
# Poissons Ratio (x) = 0.26538 0.05179
# Poissons Ratio (y) = 0.31549 -0.07931
# Poissons Ratio (z) = 1.01481 -1.30725
#
# Static dielectric constant tensor:
#      x y z
#    x 2.011700 0.000730 0.017550 
#    y 0.000730 2.005650 -0.042460 
#    z 0.017550 -0.042460 1.967810 
# 
# From -- ./inp_files/90070.got.cif
#   From: 2010.05.17/outbox.cif.g08.bks.cpg/sg2_46_cif.got.tgz:90070.got - 2010.06.03 11:33:40.
