data_PCOD9080183
_publ_section_title
;
Structure prediction by ZEFSAII (Michael W. Deem and Ramdas Pophale) SiO2 
 PCOD9080183
Probable space group: P -1
;
_chemical_formula_sum "Si O2"
_cell_formula_units_Z 14
_cell_length_a 9.175788
_cell_length_b 12.490001
_cell_length_c 8.726729
_cell_angle_alpha 96.935438
_cell_angle_beta 98.476827
_cell_angle_gamma 38.381054
_cell_volume 614.164829
_symmetry_space_group_name_H-M "P -1"
_symmetry_group_IT_number 2
_symmetry_cell_setting 'triclinic'
loop_
_space_group_symop_operation_xyz
x,y,z
-x,-y,-z
loop_
_atom_site_type_symbol
_atom_site_label
_atom_site_fract_x
_atom_site_fract_y
_atom_site_fract_z
Si Si1 0.175240 0.379980 0.650459
Si Si2 0.611805 0.607394 0.077110
Si Si3 0.311858 0.927615 0.471651
Si Si4 0.204344 0.953376 0.941710
Si Si5 0.127246 0.174467 0.743265
Si Si6 0.372491 0.562995 0.226904
Si Si7 0.201266 0.794082 0.630477
O O1 0.184344 0.472781 0.789939
O O2 0.439892 0.214334 0.597291
O O3 0.125898 0.300954 0.727853
O O4 0.000000 0.500000 0.500000
O O5 0.436652 0.628491 0.145777
O O6 0.449489 0.802185 0.042689
O O7 0.677757 0.505024 0.915596
O O8 0.262337 0.833089 0.500772
O O9 0.308129 0.013001 0.627936
O O10 0.066047 0.095599 0.377412
O O11 0.231418 0.867530 0.778541
O O12 0.158578 0.101458 0.903113
O O13 0.000000 0.000000 0.000000
O O14 0.859693 0.291546 0.683666
O O15 0.600286 0.405300 0.334150
#
# Coordination Sequence:
#
# PCOD9080183 Si02
#       7
#     2   2   2   2   2   2   2
#     4  12  27  45  63  94 139 180 211 263 328 400
#     4  10  23  41  66  95 131 169 218 272 323 379
#     4  10  22  41  62  96 131 175 216 266 322 383
#     4  10  18  38  65  93 127 159 218 279 315 375
#     4  11  24  40  66  98 135 171 218 260 330 397
#     4  10  21  41  67 102 120 170 223 273 324 367
#     4   9  20  35  66  96 125 166 217 274 316 376
#
# _framework density 22.795183999999999
#
# number of rings (size 3 to 8) (size 9 to 14) (size 15 to 20)
#    0.000    1.714    1.429    2.143    6.000    1.714 
#    0.000    0.000    0.000    0.000    0.000    0.000 
#    0.000    0.000    0.000    0.000    0.000    0.000 
#
# Total GULP energy -78125.659360 kJ/mol
# GULP energy per Si atom -5580.404240 kJ/mol
# Density = 2.274330 g / cm^3
# Si number density = 22.795184 Si / 1000 Ang^3
#
#
#
# Elastic Constant Matrix: (Units=GPa)
#
#
# Indices 1 2 3 4 5 6 
#
# 1 99.0107 31.0502 34.7912 -5.6948 -10.7872 8.3643
# 2 31.0502 104.1773 29.6451 -31.2751 -13.1077 -0.6930
# 3 34.7912 29.6451 80.2938 -13.5801 11.8143 -0.9137
# 4 -5.6948 -31.2751 -13.5801 40.3772 -3.9610 -2.4066
# 5 -10.7872 -13.1077 11.8143 -3.9610 34.7088 0.2388
# 6 8.3643 -0.6930 -0.9137 -2.4066 0.2388 35.6788
#
#
#
# Elastic Compliance Matrix: (Units=1/GPa)
#
#
# Indices 1 2 3 4 5 6 
#
# 1 0.013784 -0.002088 -0.006299 -0.001465 0.005497 -0.003569
# 2 -0.002088 0.015885 -0.004192 0.011476 0.008077 0.001411
# 3 -0.006299 -0.004192 0.018383 0.001219 -0.009673 0.002013
# 4 -0.001465 0.011476 0.001219 0.034758 0.007410 0.002893
# 5 0.005497 0.008077 -0.009673 0.007410 0.037716 -0.001132
# 6 -0.003569 0.001411 0.002013 0.002893 -0.001132 0.029146
#
#
# Mechanical properties :
#
#
# Convention : Reuss Voigt Hill
#
# Bulk Modulus (GPa) = 43.67622 52.71719 48.19670
# Shear Modulus (GPa) = 27.40302 34.68599 31.04451
#
# Velocity S-wave (km/s) = 3.47095 3.90505 3.69438
# Velocity P-wave (km/s) = 5.93845 6.59615 6.27592
#
# Compressibility (1/GPa) = 0.02289575
#
# Stress axis : x y z
#
# Youngs Moduli (GPa) = 72.54674 62.95253 54.39665
#
# Poissons Ratio (x) = 0.13144 0.34265
# Poissons Ratio (y) = 0.15147 0.22801
# Poissons Ratio (z) = 0.45697 0.26387
#
# Static dielectric constant tensor:
#      x y z
#    x 1.845660 0.026570 0.008460 
#    y 0.026570 1.887080 -0.023560 
#    z 0.008460 -0.023560 1.955400 
# 
# From -- ./inp_files/183847.got.cif
#   From: 2010.05.17/outbox.cif.g08.bks.cpg/sg2_92_cif.got.tgz:183847.got - 2010.06.03 11:33:40.
