data_PCOD9080479
_publ_section_title
;
Structure prediction by ZEFSAII (Michael W. Deem and Ramdas Pophale) SiO2 
 PCOD9080479
Probable space group: P -1
;
_chemical_formula_sum "Si O2"
_cell_formula_units_Z 16
_cell_length_a 21.033854
_cell_length_b 17.600097
_cell_length_c 10.617479
_cell_angle_alpha 150.517335
_cell_angle_beta 31.854495
_cell_angle_gamma 159.344457
_cell_volume 668.496573
_symmetry_space_group_name_H-M "P -1"
_symmetry_group_IT_number 2
_symmetry_cell_setting 'triclinic'
loop_
_space_group_symop_operation_xyz
x,y,z
-x,-y,-z
loop_
_atom_site_type_symbol
_atom_site_label
_atom_site_fract_x
_atom_site_fract_y
_atom_site_fract_z
Si Si1 0.410289 0.245787 0.300445
Si Si2 0.511629 0.425404 0.739207
Si Si3 0.129393 0.031048 0.665427
Si Si4 0.576537 0.196072 0.446808
Si Si5 0.293451 0.681691 0.069761
Si Si6 0.361422 0.147645 0.957696
Si Si7 0.976361 0.575835 0.381831
Si Si8 0.020579 0.269853 0.131825
O O1 0.500000 0.500000 0.500000
O O2 0.215802 0.073752 0.446508
O O3 0.393633 0.154735 0.060037
O O4 0.550173 0.276865 0.191650
O O5 0.307959 0.216790 0.723283
O O6 0.588245 0.334298 0.516047
O O7 0.629485 0.657857 0.794169
O O8 0.500000 0.500000 0.000000
O O9 0.039418 0.112532 0.924294
O O10 0.009400 0.773079 0.544313
O O11 0.778308 0.322889 0.309272
O O12 0.409608 0.925986 0.297444
O O13 0.518135 0.221933 0.714046
O O14 0.182810 0.471156 0.053537
O O15 0.144913 0.621540 0.144348
O O16 0.169140 0.903086 0.874413
O O17 0.977021 0.614920 0.586373
#
# Coordination Sequence:
#
# PCOD9080479 Si02
#       8
#     2   2   2   2   2   2   2   2
#     4  12  26  48  69  98 145 199 232 282 353 432
#     4  10  18  39  68 102 136 178 229 286 348 406
#     4  12  24  47  69 102 146 191 235 284 348 429
#     4  11  24  44  74 109 142 180 234 303 364 403
#     4  12  26  47  72 110 142 184 236 297 362 412
#     4  11  23  42  73 104 144 186 237 293 351 418
#     4  12  25  45  73 107 144 178 237 299 359 413
#     4  12  24  42  73 111 141 178 239 302 352 417
#
# _framework density 23.934303
#
# number of rings (size 3 to 8) (size 9 to 14) (size 15 to 20)
#    0.000    0.500    5.000    4.500    1.750    2.000 
#    0.000    0.625    0.000    0.000    0.000    0.000 
#    0.000    0.000    0.000    0.000    0.000    0.000 
#
# Total GULP energy -89642.667368 kJ/mol
# GULP energy per Si atom -5602.666710 kJ/mol
# Density = 2.387983 g / cm^3
# Si number density = 23.934303 Si / 1000 Ang^3
#
#
#
# Elastic Constant Matrix: (Units=GPa)
#
#
# Indices 1 2 3 4 5 6 
#
# 1 89.7996 31.2872 14.2004 6.5820 -19.1974 17.3547
# 2 31.2872 117.6016 10.3472 18.8177 -7.4137 17.3351
# 3 14.2004 10.3472 66.2840 1.3588 -30.8976 5.2664
# 4 6.5820 18.8177 1.3588 35.4962 -1.1203 -10.3170
# 5 -19.1974 -7.4137 -30.8976 -1.1203 32.7448 -9.6094
# 6 17.3547 17.3351 5.2664 -10.3170 -9.6094 46.9367
#
#
#
# Elastic Compliance Matrix: (Units=1/GPa)
#
#
# Indices 1 2 3 4 5 6 
#
# 1 0.014343 -0.002624 0.001430 -0.002018 0.008135 -0.003273
# 2 -0.002624 0.011006 -0.001713 -0.006770 -0.002323 -0.004866
# 3 0.001430 -0.001713 0.027524 0.001292 0.027315 0.002892
# 4 -0.002018 -0.006770 0.001292 0.035541 0.003109 0.011550
# 5 0.008135 -0.002323 0.027315 0.003109 0.063126 0.008392
# 6 -0.003273 -0.004866 0.002892 0.011550 0.008392 0.028245
#
#
# Mechanical properties :
#
#
# Convention : Reuss Voigt Hill
#
# Bulk Modulus (GPa) = 21.24931 42.81720 32.03326
# Shear Modulus (GPa) = 24.84025 37.55889 31.19957
#
# Velocity S-wave (km/s) = 3.22507 3.96567 3.61439
# Velocity P-wave (km/s) = 4.77132 6.23675 5.55259
#
# Compressibility (1/GPa) = 0.04706034
#
# Stress axis : x y z
#
# Youngs Moduli (GPa) = 69.71831 90.85716 36.33206
#
# Poissons Ratio (x) = 0.23837 -0.05196
# Poissons Ratio (y) = 0.18291 0.06225
# Poissons Ratio (z) = -0.09971 0.15566
#
# Static dielectric constant tensor:
#      x y z
#    x 1.939240 -0.025150 -0.057750 
#    y -0.025150 1.870610 -0.006770 
#    z -0.057750 -0.006770 1.956980 
# 
# From -- ./inp_files/472472.got.cif
#   From: 2010.05.17/outbox.cif.g08.bks.cpg/sg2_237_cif.got.tgz:472472.got - 2010.06.03 11:33:40.
