data_PCOD9080384
_publ_section_title
;
Structure prediction by ZEFSAII (Michael W. Deem and Ramdas Pophale) SiO2 
 PCOD9080384
Probable space group: P -1
;
_chemical_formula_sum "Si O2"
_cell_formula_units_Z 14
_cell_length_a 9.922338
_cell_length_b 13.142918
_cell_length_c 8.217361
_cell_angle_alpha 136.345866
_cell_angle_beta 71.668439
_cell_angle_gamma 99.231923
_cell_volume 698.504288
_symmetry_space_group_name_H-M "P -1"
_symmetry_group_IT_number 2
_symmetry_cell_setting 'triclinic'
loop_
_space_group_symop_operation_xyz
x,y,z
-x,-y,-z
loop_
_atom_site_type_symbol
_atom_site_label
_atom_site_fract_x
_atom_site_fract_y
_atom_site_fract_z
Si Si1 0.559522 0.131253 0.231271
Si Si2 0.332858 0.657393 0.842520
Si Si3 0.837080 0.041152 0.653914
Si Si4 0.854107 0.426109 0.442474
Si Si5 0.605500 0.869056 0.386761
Si Si6 0.136494 0.921808 0.942750
Si Si7 0.421827 0.437055 0.112357
O O1 0.595363 0.255597 0.231915
O O2 0.455024 0.180575 0.473796
O O3 0.710202 0.075595 0.196335
O O4 0.500000 0.000000 0.000000
O O5 0.226378 0.551402 0.675991
O O6 0.238138 0.788767 0.130159
O O7 0.459065 0.577145 0.807756
O O8 0.748419 0.939032 0.459761
O O9 0.834538 0.011637 0.814269
O O10 0.000000 0.000000 0.500000
O O11 0.890610 0.249338 0.228331
O O12 0.000000 0.500000 0.500000
O O13 0.727548 0.473066 0.673826
O O14 0.615968 0.728412 0.104063
O O15 0.500000 0.000000 0.500000
O O16 0.000000 0.000000 0.000000
O O17 0.500000 0.500000 0.000000
#
# Coordination Sequence:
#
# PCOD9080384 Si02
#       7
#     2   2   2   2   2   2   2
#     4  10  18  39  62  96 123 157 219 255 309 374
#     4  10  22  44  66  88 130 174 209 264 312 388
#     4  10  22  39  61  96 130 159 208 268 319 362
#     4  10  24  44  64  92 127 172 217 254 323 387
#     4  12  23  39  67  98 124 166 215 265 313 378
#     4  10  23  40  64  90 123 165 209 262 308 378
#     4  12  25  43  66  96 133 170 210 270 323 379
#
# _framework density 20.042826999999999
#
# number of rings (size 3 to 8) (size 9 to 14) (size 15 to 20)
#    0.000    1.714    4.286    2.143    6.000    2.286 
#    2.571    0.714    0.000    0.000    0.000    0.000 
#    0.000    0.000    0.000    0.000    0.000    0.000 
#
# Total GULP energy -78112.817737 kJ/mol
# GULP energy per Si atom -5579.486981 kJ/mol
# Density = 1.999721 g / cm^3
# Si number density = 20.042827 Si / 1000 Ang^3
#
#
#
# Elastic Constant Matrix: (Units=GPa)
#
#
# Indices 1 2 3 4 5 6 
#
# 1 202.1474 49.4243 39.4504 5.3947 13.6594 8.1237
# 2 49.4243 57.8212 16.4363 -1.6275 -1.6820 -4.6342
# 3 39.4504 16.4363 76.3978 4.6081 9.3816 6.1738
# 4 5.3947 -1.6275 4.6081 22.4672 11.6605 -1.5753
# 5 13.6594 -1.6820 9.3816 11.6605 45.4382 3.0323
# 6 8.1237 -4.6342 6.1738 -1.5753 3.0323 37.1874
#
#
#
# Elastic Compliance Matrix: (Units=1/GPa)
#
#
# Indices 1 2 3 4 5 6 
#
# 1 0.006886 -0.005539 -0.001976 -0.001001 -0.001491 -0.001787
# 2 -0.005539 0.023381 -0.002970 0.002861 0.002105 0.004566
# 3 -0.001976 -0.002970 0.015310 -0.002011 -0.002001 -0.002402
# 4 -0.001001 0.002861 -0.002011 0.052353 -0.012892 0.004178
# 5 -0.001491 0.002105 -0.002001 -0.012892 0.026374 -0.001777
# 6 -0.001787 0.004566 -0.002402 0.004178 -0.001777 0.028571
#
#
# Mechanical properties :
#
#
# Convention : Reuss Voigt Hill
#
# Bulk Modulus (GPa) = 40.63955 60.77651 50.70803
# Shear Modulus (GPa) = 27.46516 36.42225 31.94371
#
# Velocity S-wave (km/s) = 3.70580 4.26751 3.99654
# Velocity P-wave (km/s) = 6.21539 7.39401 6.83017
#
# Compressibility (1/GPa) = 0.02460657
#
# Stress axis : x y z
#
# Youngs Moduli (GPa) = 145.21886 42.76893 65.31697
#
# Poissons Ratio (x) = 0.23690 0.12909
# Poissons Ratio (y) = 0.80439 0.19400
# Poissons Ratio (z) = 0.28700 0.12703
#
# Static dielectric constant tensor:
#      x y z
#    x 2.360630 0.869080 -0.426260 
#    y 0.869080 2.941060 -0.588400 
#    z -0.426260 -0.588400 2.056300 
# 
# From -- ./inp_files/209178.got.cif
#   From: 2010.05.17/outbox.cif.g08.bks.cpg/sg2_105_cif.got.tgz:209178.got - 2010.06.03 11:33:40.
