data_PCOD9080084
_publ_section_title
;
Structure prediction by ZEFSAII (Michael W. Deem and Ramdas Pophale) SiO2 
 PCOD9080084
Probable space group: P -1
;
_chemical_formula_sum "Si O2"
_cell_formula_units_Z 14
_cell_length_a 8.355078
_cell_length_b 14.395332
_cell_length_c 7.725828
_cell_angle_alpha 104.453097
_cell_angle_beta 99.649916
_cell_angle_gamma 40.753215
_cell_volume 587.059719
_symmetry_space_group_name_H-M "P -1"
_symmetry_group_IT_number 2
_symmetry_cell_setting 'triclinic'
loop_
_space_group_symop_operation_xyz
x,y,z
-x,-y,-z
loop_
_atom_site_type_symbol
_atom_site_label
_atom_site_fract_x
_atom_site_fract_y
_atom_site_fract_z
Si Si1 0.647252 0.979223 0.859427
Si Si2 0.884898 0.270373 0.675531
Si Si3 0.779420 0.455245 0.444090
Si Si4 0.281897 0.857992 0.932551
Si Si5 0.305287 0.179641 0.523213
Si Si6 0.376330 0.795743 0.523271
Si Si7 0.208841 0.685557 0.927007
O O1 0.627931 0.934748 0.652479
O O2 0.932437 0.836406 0.891668
O O3 0.500000 0.000000 0.000000
O O4 0.581002 0.120619 0.925857
O O5 0.742391 0.391299 0.556569
O O6 0.836308 0.179067 0.583833
O O7 0.157730 0.193208 0.660673
O O8 0.795684 0.331914 0.879502
O O9 0.606672 0.622171 0.510573
O O10 0.729862 0.430371 0.237010
O O11 0.073123 0.340092 0.466325
O O12 0.304432 0.862767 0.733114
O O13 0.358590 0.716013 0.926534
O O14 0.000000 0.000000 0.000000
O O15 0.525577 0.158953 0.551289
#
# Coordination Sequence:
#
# PCOD9080084 Si02
#       7
#     2   2   2   2   2   2   2
#     4  10  18  38  63  85 116 161 200 249 300 358
#     4  10  22  39  60  90 127 156 200 252 302 359
#     4   9  21  39  62  90 124 161 198 251 303 358
#     4  10  20  36  62  87 115 159 206 242 301 361
#     4   9  21  38  62  87 126 152 206 252 296 354
#     4  12  19  39  65  88 122 166 202 242 312 359
#     4  10  21  40  61  88 124 157 198 256 302 353
#
# _framework density 23.847657999999999
#
# number of rings (size 3 to 8) (size 9 to 14) (size 15 to 20)
#    0.857    1.143    2.857    1.714    0.000    0.571 
#    2.571    7.857    0.000    0.000    0.000    0.000 
#    0.000    0.000    0.000    0.000    0.000    0.000 
#
# Total GULP energy -78194.752194 kJ/mol
# GULP energy per Si atom -5585.339442 kJ/mol
# Density = 2.379338 g / cm^3
# Si number density = 23.847658 Si / 1000 Ang^3
#
#
#
# Elastic Constant Matrix: (Units=GPa)
#
#
# Indices 1 2 3 4 5 6 
#
# 1 156.7385 19.0813 46.2519 -7.1205 -12.9704 29.3040
# 2 19.0813 53.3674 9.1111 3.6003 -0.8769 -4.0491
# 3 46.2519 9.1111 175.5923 -18.4574 -13.2419 12.6496
# 4 -7.1205 3.6003 -18.4574 36.6038 4.6738 -5.0221
# 5 -12.9704 -0.8769 -13.2419 4.6738 27.8708 2.2643
# 6 29.3040 -4.0491 12.6496 -5.0221 2.2643 32.7477
#
#
#
# Elastic Compliance Matrix: (Units=1/GPa)
#
#
# Indices 1 2 3 4 5 6 
#
# 1 0.009120 -0.003590 -0.001314 -0.000232 0.004230 -0.008425
# 2 -0.003590 0.020745 -0.000903 -0.002186 -0.001560 0.005899
# 3 -0.001314 -0.000903 0.006625 0.002732 0.002149 -0.001225
# 4 -0.000232 -0.002186 0.002732 0.029919 -0.004201 0.003761
# 5 0.004230 -0.001560 0.002149 -0.004201 0.040194 -0.008232
# 6 -0.008425 0.005899 -0.001225 0.003761 -0.008232 0.040424
#
#
# Mechanical properties :
#
#
# Convention : Reuss Voigt Hill
#
# Bulk Modulus (GPa) = 40.20111 59.39854 49.79982
# Shear Modulus (GPa) = 29.95188 40.19472 35.07330
#
# Velocity S-wave (km/s) = 3.54781 4.10991 3.83916
# Velocity P-wave (km/s) = 5.80316 6.89082 6.37025
#
# Compressibility (1/GPa) = 0.02487494
#
# Stress axis : x y z
#
# Youngs Moduli (GPa) = 109.65370 48.20351 150.93229
#
# Poissons Ratio (x) = 0.17307 0.19837
# Poissons Ratio (y) = 0.39370 0.13631
# Poissons Ratio (z) = 0.14412 0.04353
#
# Static dielectric constant tensor:
#      x y z
#    x 1.966400 -0.068060 0.045710 
#    y -0.068060 1.983330 -0.022000 
#    z 0.045710 -0.022000 1.844100 
# 
# From -- ./inp_files/203089.got.cif
#   From: 2010.05.17/outbox.cif.g08.bks.cpg/sg2_102_cif.got.tgz:203089.got - 2010.06.03 11:33:40.
