data_PCOD9080199
_publ_section_title
;
Structure prediction by ZEFSAII (Michael W. Deem and Ramdas Pophale) SiO2 
 PCOD9080199
Probable space group: P -1
;
_chemical_formula_sum "Si O2"
_cell_formula_units_Z 14
_cell_length_a 21.579750
_cell_length_b 9.742949
_cell_length_c 11.283325
_cell_angle_alpha 38.472702
_cell_angle_beta 156.370132
_cell_angle_gamma 145.154342
_cell_volume 538.300594
_symmetry_space_group_name_H-M "P -1"
_symmetry_group_IT_number 2
_symmetry_cell_setting 'triclinic'
loop_
_space_group_symop_operation_xyz
x,y,z
-x,-y,-z
loop_
_atom_site_type_symbol
_atom_site_label
_atom_site_fract_x
_atom_site_fract_y
_atom_site_fract_z
Si Si1 0.656340 0.706530 0.201712
Si Si2 0.319035 0.857486 0.211548
Si Si3 0.987479 0.751216 0.858013
Si Si4 0.507102 0.679493 0.499758
Si Si5 0.928214 0.288166 0.710669
Si Si6 0.438539 0.853689 0.871650
Si Si7 0.134117 0.196830 0.953122
O O1 0.819825 0.656265 0.549053
O O2 0.500000 0.500000 0.000000
O O3 0.709260 0.951757 0.053649
O O4 0.569459 0.740505 0.146785
O O5 0.157847 0.780115 0.068682
O O6 0.355191 0.651281 0.341356
O O7 0.500000 0.000000 0.500000
O O8 0.998821 0.629238 0.086659
O O9 0.006145 0.018720 0.753949
O O10 0.500000 0.500000 0.500000
O O11 0.537727 0.942206 0.323150
O O12 0.681082 0.700705 0.849847
O O13 0.066227 0.361256 0.798535
O O14 0.760663 0.324741 0.360371
O O15 0.857968 0.993989 0.803088
O O16 0.500000 0.000000 0.000000
#
# Coordination Sequence:
#
# PCOD9080199 Si02
#       7
#     2   2   2   2   2   2   2
#     4  11  25  40  60  95 126 160 210 261 310 368
#     4  11  21  43  64  88 127 166 205 252 314 380
#     4  10  18  38  66  85 123 172 202 252 316 370
#     4  10  21  37  60  92 119 159 207 251 303 367
#     4   8  16  33  59  87 113 160 203 241 301 370
#     4  10  20  38  61  87 123 157 201 252 308 358
#     4   8  15  32  60  86 115 154 204 241 305 357
#
# _framework density 26.007774000000001
#
# number of rings (size 3 to 8) (size 9 to 14) (size 15 to 20)
#    0.857    1.429    1.429    2.143    2.000    1.143 
#    2.571    1.429    0.000    2.571    0.000    0.000 
#    0.000    0.000    0.000    0.000    0.000    0.000 
#
# Total GULP energy -78169.128939 kJ/mol
# GULP energy per Si atom -5583.509210 kJ/mol
# Density = 2.594858 g / cm^3
# Si number density = 26.007774 Si / 1000 Ang^3
#
#
#
# Elastic Constant Matrix: (Units=GPa)
#
#
# Indices 1 2 3 4 5 6 
#
# 1 156.8226 45.9636 92.6049 9.2217 47.1658 -8.4290
# 2 45.9636 79.2944 55.8816 23.6031 18.7301 -23.6795
# 3 92.6049 55.8816 196.0403 24.7970 22.1570 9.9242
# 4 9.2217 23.6031 24.7970 57.1820 7.3669 0.8319
# 5 47.1658 18.7301 22.1570 7.3669 55.5960 -2.9612
# 6 -8.4290 -23.6795 9.9242 0.8319 -2.9612 42.1457
#
#
#
# Elastic Compliance Matrix: (Units=1/GPa)
#
#
# Indices 1 2 3 4 5 6 
#
# 1 0.011965 -0.001858 -0.004555 0.001798 -0.007850 0.001834
# 2 -0.001858 0.025146 -0.005798 -0.007424 -0.002798 0.015072
# 3 -0.004555 -0.005798 0.009118 -0.000993 0.001988 -0.006156
# 4 0.001798 -0.007424 -0.000993 0.020962 -0.001624 -0.004106
# 5 -0.007850 -0.002798 0.001988 -0.001624 0.024915 -0.001827
# 6 0.001834 0.015072 -0.006156 -0.004106 -0.001827 0.033964
#
#
# Mechanical properties :
#
#
# Convention : Reuss Voigt Hill
#
# Bulk Modulus (GPa) = 45.85829 91.22862 68.54346
# Shear Modulus (GPa) = 31.69329 46.83188 39.26259
#
# Velocity S-wave (km/s) = 3.49464 4.24805 3.88963
# Velocity P-wave (km/s) = 5.82702 7.69512 6.82529
#
# Compressibility (1/GPa) = 0.02180631
#
# Stress axis : x y z
#
# Youngs Moduli (GPa) = 83.57701 39.76770 109.67268
#
# Poissons Ratio (x) = 0.07390 0.49959
# Poissons Ratio (y) = 0.15532 0.63585
# Poissons Ratio (z) = 0.38072 0.23056
#
# Static dielectric constant tensor:
#      x y z
#    x 2.260410 0.056790 -0.036980 
#    y 0.056790 2.206290 -0.023310 
#    z -0.036980 -0.023310 2.039320 
# 
# From -- ./inp_files/469795.got.cif
#   From: 2010.05.17/outbox.cif.g08.bks.cpg/sg2_235_cif.got.tgz:469795.got - 2010.06.03 11:33:40.
