data_PCOD9080299
_publ_section_title
;
Structure prediction by ZEFSAII (Michael W. Deem and Ramdas Pophale) SiO2 
 PCOD9080299
Probable space group: P -1
;
_chemical_formula_sum "Si O2"
_cell_formula_units_Z 15
_cell_length_a 12.199759
_cell_length_b 8.949134
_cell_length_c 8.908648
_cell_angle_alpha 103.605857
_cell_angle_beta 101.362623
_cell_angle_gamma 44.469640
_cell_volume 661.624274
_symmetry_space_group_name_H-M "P -1"
_symmetry_group_IT_number 2
_symmetry_cell_setting 'triclinic'
loop_
_space_group_symop_operation_xyz
x,y,z
-x,-y,-z
loop_
_atom_site_type_symbol
_atom_site_label
_atom_site_fract_x
_atom_site_fract_y
_atom_site_fract_z
Si Si1 0.842370 0.236177 0.573469
Si Si2 0.674576 0.648885 0.033838
Si Si3 0.510471 0.904522 0.752238
Si Si4 0.207836 0.365881 0.423655
Si Si5 0.940710 0.417798 0.261004
Si Si6 0.500000 0.500000 0.000000
Si Si7 0.009519 0.986434 0.821916
Si Si8 0.677114 0.216521 0.279741
O O1 0.846583 0.412775 0.590858
O O2 0.703131 0.298310 0.452174
O O3 0.000000 0.000000 0.500000
O O4 0.851799 0.188515 0.741063
O O5 0.851141 0.511406 0.101692
O O6 0.564713 0.866763 0.155336
O O7 0.635177 0.730942 0.872738
O O8 0.623292 0.526838 0.032775
O O9 0.610980 0.823347 0.610600
O O10 0.383494 0.891177 0.711572
O O11 0.163323 0.400521 0.594937
O O12 0.108799 0.334337 0.299700
O O13 0.954843 0.224606 0.259033
O O14 0.436058 0.607720 0.836889
O O15 0.152882 0.953279 0.795782
O O16 0.000000 0.000000 0.000000
#
# Coordination Sequence:
#
# PCOD9080299 Si02
#       8
#     2   2   2   2   2   1   2   2
#     4  10  21  42  66  96 133 172 220 273 329 389
#     4  10  22  42  63  93 132 173 213 272 329 390
#     4  10  25  41  65  95 129 176 217 263 336 400
#     4  11  24  43  65  98 129 172 221 269 330 399
#     4  11  24  43  66  94 136 168 219 281 325 387
#     4  10  18  38  70  88 134 172 210 270 330 384
#     4  11  24  41  67 101 127 176 224 275 331 390
#     4  10  21  41  65  94 135 172 214 274 325 394
#
# _framework density 22.671476999999999
#
# number of rings (size 3 to 8) (size 9 to 14) (size 15 to 20)
#    0.000    1.600    4.000    0.000    5.600    4.800 
#    0.000    2.667    0.000    0.000    0.000    0.000 
#    0.000    0.000    0.000    0.000    0.000    0.000 
#
# Total GULP energy -83606.819260 kJ/mol
# GULP energy per Si atom -5573.787951 kJ/mol
# Density = 2.261988 g / cm^3
# Si number density = 22.671477 Si / 1000 Ang^3
#
#
#
# Elastic Constant Matrix: (Units=GPa)
#
#
# Indices 1 2 3 4 5 6 
#
# 1 135.4171 16.8946 49.7451 13.6583 13.7450 -12.2247
# 2 16.8946 45.0268 13.9128 -9.3533 0.9874 -4.7836
# 3 49.7451 13.9128 87.2995 -29.4766 18.0855 -4.6371
# 4 13.6583 -9.3533 -29.4766 35.7546 -11.3188 4.3347
# 5 13.7450 0.9874 18.0855 -11.3188 35.9471 1.4894
# 6 -12.2247 -4.7836 -4.6371 4.3347 1.4894 9.1597
#
#
#
# Elastic Compliance Matrix: (Units=1/GPa)
#
#
# Indices 1 2 3 4 5 6 
#
# 1 0.023290 -0.005716 -0.019822 -0.034679 -0.011199 0.036296
# 2 -0.005716 0.026139 0.002412 0.012197 0.004062 0.000810
# 3 -0.019822 0.002412 0.033717 0.040872 0.004588 -0.028214
# 4 -0.034679 0.012197 0.040872 0.094186 0.024829 -0.067831
# 5 -0.011199 0.004062 0.004588 0.024829 0.038682 -0.028542
# 6 0.036296 0.000810 -0.028214 -0.067831 -0.028542 0.180496
#
#
# Mechanical properties :
#
#
# Convention : Reuss Voigt Hill
#
# Bulk Modulus (GPa) = 27.10512 47.64981 37.37746
# Shear Modulus (GPa) = 10.98757 28.65167 19.81962
#
# Velocity S-wave (km/s) = 2.20385 3.55882 2.95991
# Velocity P-wave (km/s) = 4.29622 6.16036 5.31072
#
# Compressibility (1/GPa) = 0.03689340
#
# Stress axis : x y z
#
# Youngs Moduli (GPa) = 42.93636 38.25633 29.65903
#
# Poissons Ratio (x) = 0.21869 0.58789
# Poissons Ratio (y) = 0.24544 -0.07152
# Poissons Ratio (z) = 0.85107 -0.09226
#
# Static dielectric constant tensor:
#      x y z
#    x 1.808740 -0.045050 -0.008550 
#    y -0.045050 1.843260 -0.002960 
#    z -0.008550 -0.002960 1.908860 
# 
# From -- ./inp_files/153837.got.cif
#   From: 2010.05.17/outbox.cif.g08.bks.cpg/sg2_77_cif.got.tgz:153837.got - 2010.06.03 11:33:40.
