data_PCOD9080711
_publ_section_title
;
Structure prediction by ZEFSAII (Michael W. Deem and Ramdas Pophale) SiO2 
 PCOD9080711
Probable space group: P -1
;
_chemical_formula_sum "Si O2"
_cell_formula_units_Z 12
_cell_length_a 7.335059
_cell_length_b 7.757435
_cell_length_c 12.496011
_cell_angle_alpha 61.582981
_cell_angle_beta 78.488790
_cell_angle_gamma 113.577023
_cell_volume 501.649282
_symmetry_space_group_name_H-M "P -1"
_symmetry_group_IT_number 2
_symmetry_cell_setting 'triclinic'
loop_
_space_group_symop_operation_xyz
x,y,z
-x,-y,-z
loop_
_atom_site_type_symbol
_atom_site_label
_atom_site_fract_x
_atom_site_fract_y
_atom_site_fract_z
Si Si1 0.248571 0.957114 0.566159
Si Si2 0.943093 0.155280 0.606606
Si Si3 0.260607 0.132514 0.891673
Si Si4 0.109745 0.758381 0.861875
Si Si5 0.656209 0.479945 0.402415
Si Si6 0.323488 0.221402 0.088153
O O1 0.146465 0.827847 0.502890
O O2 0.197669 0.786461 0.723547
O O3 0.505486 0.199769 0.469138
O O4 0.097220 0.060087 0.584303
O O5 0.102859 0.378382 0.602770
O O6 0.720575 0.957205 0.759072
O O7 0.320258 0.364495 0.749916
O O8 0.290602 0.967636 0.857967
O O9 0.380637 0.173456 0.978753
O O10 0.000000 0.000000 0.000000
O O11 0.914991 0.805739 0.872373
O O12 0.000000 0.500000 0.000000
O O13 0.500000 0.500000 0.500000
O O14 0.500000 0.500000 0.000000
#
# Coordination Sequence:
#
# PCOD9080711 Si02
#       6
#     2   2   2   2   2   2
#     4   9  17  29  50  78 104 135 181 227 271 310
#     4   9  16  28  48  79 103 129 179 237 260 303
#     4  10  17  32  53  80 108 141 179 223 275 319
#     4  10  20  36  53  79 114 146 178 221 279 338
#     4  10  15  28  50  79 105 133 184 232 264 312
#     4  10  19  33  56  82 107 140 186 230 273 320
#
# _framework density 23.921095999999999
#
# number of rings (size 3 to 8) (size 9 to 14) (size 15 to 20)
#    0.000    2.333    6.667    1.000    0.000    1.333 
#    0.000    0.833    0.000   10.000    0.000    0.000 
#    0.000    0.000    0.000    0.000    0.000    0.000 
#
# Total GULP energy -66942.626606 kJ/mol
# GULP energy per Si atom -5578.552217 kJ/mol
# Density = 2.386665 g / cm^3
# Si number density = 23.921096 Si / 1000 Ang^3
#
#
#
# Elastic Constant Matrix: (Units=GPa)
#
#
# Indices 1 2 3 4 5 6 
#
# 1 49.7861 -2.8768 20.2930 9.5328 -4.8840 3.6758
# 2 -2.8768 152.4158 96.1088 4.0688 14.1896 23.4955
# 3 20.2930 96.1088 238.9258 14.3645 1.6555 18.2953
# 4 9.5328 4.0688 14.3645 46.9159 5.3342 4.5101
# 5 -4.8840 14.1896 1.6555 5.3342 24.6032 -3.6736
# 6 3.6758 23.4955 18.2953 4.5101 -3.6736 27.3933
#
#
#
# Elastic Compliance Matrix: (Units=1/GPa)
#
#
# Indices 1 2 3 4 5 6 
#
# 1 0.022508 0.001877 -0.002296 -0.004337 0.004209 -0.001818
# 2 0.001877 0.011034 -0.004005 0.001511 -0.007284 -0.008266
# 3 -0.002296 -0.004005 0.006043 -0.001248 0.001740 0.000146
# 4 -0.004337 0.001511 -0.001248 0.023763 -0.007517 -0.004801
# 5 0.004209 -0.007284 0.001740 -0.007517 0.049036 0.012334
# 6 -0.001818 -0.008266 0.000146 -0.004801 0.012334 0.046186
#
#
# Mechanical properties :
#
#
# Convention : Reuss Voigt Hill
#
# Bulk Modulus (GPa) = 32.53481 74.24196 53.38838
# Shear Modulus (GPa) = 28.14295 41.62266 34.88281
#
# Velocity S-wave (km/s) = 3.43372 4.17585 3.82284
# Velocity P-wave (km/s) = 5.41766 7.37251 6.46935
#
# Compressibility (1/GPa) = 0.03073631
#
# Stress axis : x y z
#
# Youngs Moduli (GPa) = 44.42928 90.62847 165.47152
#
# Poissons Ratio (x) = -0.17008 0.37989
# Poissons Ratio (y) = -0.08338 0.66276
# Poissons Ratio (z) = 0.10200 0.36299
#
# Static dielectric constant tensor:
#      x y z
#    x 2.004620 -0.037150 0.035440 
#    y -0.037150 2.009580 0.013420 
#    z 0.035440 0.013420 1.903640 
# 
# From -- ./inp_files/172637.got.cif
#   From: 2010.05.17/outbox.cif.g08.bks.cpg/sg2_87_cif.got.tgz:172637.got - 2010.06.03 11:33:40.
