data_PCOD9080515
_publ_section_title
;
Structure prediction by ZEFSAII (Michael W. Deem and Ramdas Pophale) SiO2 
 PCOD9080515
Probable space group: P -1
;
_chemical_formula_sum "Si O2"
_cell_formula_units_Z 16
_cell_length_a 11.949559
_cell_length_b 19.466857
_cell_length_c 9.295713
_cell_angle_alpha 75.658606
_cell_angle_beta 49.530729
_cell_angle_gamma 35.512907
_cell_volume 738.202751
_symmetry_space_group_name_H-M "P -1"
_symmetry_group_IT_number 2
_symmetry_cell_setting 'triclinic'
loop_
_space_group_symop_operation_xyz
x,y,z
-x,-y,-z
loop_
_atom_site_type_symbol
_atom_site_label
_atom_site_fract_x
_atom_site_fract_y
_atom_site_fract_z
Si Si1 0.815575 0.924087 0.420962
Si Si2 0.445193 0.129682 0.881838
Si Si3 0.566568 0.062720 0.258650
Si Si4 0.960631 0.392288 0.483934
Si Si5 0.136820 0.408339 0.080895
Si Si6 0.092785 0.141377 0.152785
Si Si7 0.375368 0.589417 0.413231
Si Si8 0.436117 0.409364 0.998484
O O1 0.639534 0.922700 0.580062
O O2 0.190571 0.751076 0.192022
O O3 0.711468 0.013340 0.599028
O O4 0.671821 0.026671 0.352482
O O5 0.604096 0.024888 0.940697
O O6 0.322998 0.258852 0.952531
O O7 0.172240 0.190231 0.033313
O O8 0.328268 0.224140 0.312884
O O9 0.896452 0.905311 0.980271
O O10 0.854018 0.366772 0.501922
O O11 0.908612 0.474999 0.363492
O O12 0.762557 0.489588 0.744453
O O13 0.340931 0.377617 0.015512
O O14 0.000000 0.500000 0.000000
O O15 0.811970 0.263261 0.439195
O O16 0.500000 0.500000 0.500000
O O17 0.612861 0.512314 0.129832
#
# Coordination Sequence:
#
# PCOD9080515 Si02
#       8
#     2   2   2   2   2   2   2   2
#     4  10  22  40  65 106 132 170 222 286 344 396
#     4  10  19  41  69  90 130 175 230 276 326 404
#     4  10  21  38  72 100 133 174 221 279 349 400
#     4  12  24  47  69  96 139 187 226 280 344 410
#     4  12  27  47  69  97 137 192 230 273 348 416
#     4  10  18  39  70  95 127 169 232 277 329 396
#     4  12  24  40  70 106 136 174 228 291 337 392
#     4  12  27  43  65 104 142 176 229 285 342 405
#
# _framework density 21.674261000000001
#
# number of rings (size 3 to 8) (size 9 to 14) (size 15 to 20)
#    0.000    1.000    5.000    2.250    3.500    1.500 
#    0.000    0.625    0.000    0.000    0.000    0.000 
#    0.000    0.000    0.000    0.000    0.000    0.000 
#
# Total GULP energy -89249.428377 kJ/mol
# GULP energy per Si atom -5578.089274 kJ/mol
# Density = 2.162493 g / cm^3
# Si number density = 21.674261 Si / 1000 Ang^3
#
#
#
# Elastic Constant Matrix: (Units=GPa)
#
#
# Indices 1 2 3 4 5 6 
#
# 1 56.1407 31.9154 32.6773 -0.1384 20.9007 -10.6265
# 2 31.9154 121.3077 45.3458 -10.4243 20.4860 -14.4514
# 3 32.6773 45.3458 145.3050 -2.9494 40.2124 -10.6260
# 4 -0.1384 -10.4243 -2.9494 35.9675 0.4241 6.0945
# 5 20.9007 20.4860 40.2124 0.4241 27.6682 -7.1129
# 6 -10.6265 -14.4514 -10.6260 6.0945 -7.1129 22.3178
#
#
#
# Elastic Compliance Matrix: (Units=1/GPa)
#
#
# Indices 1 2 3 4 5 6 
#
# 1 0.027092 -0.003870 -0.000079 -0.001811 -0.015977 0.005759
# 2 -0.003870 0.010789 -0.001720 0.002472 -0.001814 0.003072
# 3 -0.000079 -0.001720 0.011853 0.000811 -0.016130 -0.000870
# 4 -0.001811 0.002472 0.000811 0.030060 -0.004273 -0.008446
# 5 -0.015977 -0.001814 -0.016130 -0.004273 0.075301 0.008704
# 6 0.005759 0.003072 -0.000870 -0.008446 0.008704 0.054205
#
#
# Mechanical properties :
#
#
# Convention : Reuss Voigt Hill
#
# Bulk Modulus (GPa) = 26.04367 60.29226 43.16797
# Shear Modulus (GPa) = 21.41902 31.37835 26.39868
#
# Velocity S-wave (km/s) = 3.14701 3.80902 3.49373
# Velocity P-wave (km/s) = 5.02463 6.87188 6.01954
#
# Compressibility (1/GPa) = 0.03839705
#
# Stress axis : x y z
#
# Youngs Moduli (GPa) = 36.91133 92.68530 84.36349
#
# Poissons Ratio (x) = 0.35866 0.00667
# Poissons Ratio (y) = 0.14283 0.14511
# Poissons Ratio (z) = 0.00292 0.15942
#
# Static dielectric constant tensor:
#      x y z
#    x 1.783130 -0.003990 -0.025820 
#    y -0.003990 1.821330 -0.024850 
#    z -0.025820 -0.024850 1.875730 
# 
# From -- ./inp_files/279364.got.cif
#   From: 2010.05.17/outbox.cif.g08.bks.cpg/sg2_140_cif.got.tgz:279364.got - 2010.06.03 11:33:40.
