data_PCOD9080839
_publ_section_title
;
Structure prediction by ZEFSAII (Michael W. Deem and Ramdas Pophale) SiO2 
 PCOD9080839
Probable space group: P -1
;
_chemical_formula_sum "Si O2"
_cell_formula_units_Z 14
_cell_length_a 9.430403
_cell_length_b 16.175107
_cell_length_c 10.711903
_cell_angle_alpha 36.899170
_cell_angle_beta 41.650313
_cell_angle_gamma 46.339840
_cell_volume 634.096528
_symmetry_space_group_name_H-M "P -1"
_symmetry_group_IT_number 2
_symmetry_cell_setting 'triclinic'
loop_
_space_group_symop_operation_xyz
x,y,z
-x,-y,-z
loop_
_atom_site_type_symbol
_atom_site_label
_atom_site_fract_x
_atom_site_fract_y
_atom_site_fract_z
Si Si1 0.671433 0.378891 0.164329
Si Si2 0.759000 0.498429 0.548296
Si Si3 0.818939 0.613493 0.904005
Si Si4 0.064913 0.709501 0.135179
Si Si5 0.422117 0.325635 0.771929
Si Si6 0.130115 0.802283 0.507416
Si Si7 0.755425 0.917138 0.932602
O O1 0.423485 0.424873 0.322597
O O2 0.795028 0.274603 0.317331
O O3 0.754140 0.525216 0.939974
O O4 0.738284 0.304118 0.078538
O O5 0.846096 0.336906 0.729759
O O6 0.663658 0.537365 0.425431
O O7 0.948290 0.583461 0.329219
O O8 0.924841 0.746943 0.656365
O O9 0.613281 0.647359 0.091870
O O10 0.000000 0.500000 0.000000
O O11 0.876452 0.849656 0.061519
O O12 0.663346 0.252228 0.654976
O O13 0.261799 0.219014 0.974003
O O14 0.110729 0.968798 0.334493
O O15 0.500000 0.000000 0.000000
#
# Coordination Sequence:
#
# PCOD9080839 Si02
#       7
#     2   2   2   2   2   2   2
#     4  10  20  31  48  76 100 123 160 196 238 290
#     4   9  18  32  49  71  98 127 158 197 240 279
#     4  10  19  29  46  74  98 123 157 192 239 289
#     4  10  19  32  51  73  98 126 158 197 241 285
#     4   9  18  31  48  73  98 120 156 199 239 282
#     4   9  18  30  46  69  98 126 152 195 243 278
#     4   9  17  31  49  72  99 124 159 199 239 285
#
# _framework density 22.078658999999998
#
# number of rings (size 3 to 8) (size 9 to 14) (size 15 to 20)
#    0.000    2.571    0.000    4.714    0.000    8.571 
#    0.000    0.000    0.000    0.857    0.000   37.000 
#    0.000    1.143    0.000    0.000    0.000    0.000 
#
# Total GULP energy -78058.143216 kJ/mol
# GULP energy per Si atom -5575.581658 kJ/mol
# Density = 2.202841 g / cm^3
# Si number density = 22.078659 Si / 1000 Ang^3
#
#
#
# Elastic Constant Matrix: (Units=GPa)
#
#
# Indices 1 2 3 4 5 6 
#
# 1 57.4244 23.3886 32.5575 -6.2049 6.7463 -10.5167
# 2 23.3886 72.0878 43.3008 7.6683 9.8035 -12.9546
# 3 32.5575 43.3008 128.8611 -12.9198 -11.7175 -2.8349
# 4 -6.2049 7.6683 -12.9198 42.8811 -11.3036 -2.6589
# 5 6.7463 9.8035 -11.7175 -11.3036 35.6833 -9.1709
# 6 -10.5167 -12.9546 -2.8349 -2.6589 -9.1709 26.7111
#
#
#
# Elastic Compliance Matrix: (Units=1/GPa)
#
#
# Indices 1 2 3 4 5 6 
#
# 1 0.023116 -0.003593 -0.004485 0.002366 -0.002498 0.006261
# 2 -0.003593 0.023773 -0.008978 -0.010060 -0.010847 0.004437
# 3 -0.004485 -0.008978 0.013589 0.007685 0.010096 -0.000447
# 4 0.002366 -0.010060 0.007685 0.032524 0.016638 0.005818
# 5 -0.002498 -0.010847 0.010096 0.016638 0.042949 0.011230
# 6 0.006261 0.004437 -0.000447 0.005818 0.011230 0.046442
#
#
# Mechanical properties :
#
#
# Convention : Reuss Voigt Hill
#
# Bulk Modulus (GPa) = 37.92728 50.76300 44.34514
# Shear Modulus (GPa) = 22.19332 31.66351 26.92842
#
# Velocity S-wave (km/s) = 3.17392 3.79109 3.49615
# Velocity P-wave (km/s) = 5.53599 6.49653 6.03540
#
# Compressibility (1/GPa) = 0.02636625
#
# Stress axis : x y z
#
# Youngs Moduli (GPa) = 43.25971 42.06462 73.58809
#
# Poissons Ratio (x) = 0.15112 0.33008
# Poissons Ratio (y) = 0.15541 0.66068
# Poissons Ratio (z) = 0.19404 0.37766
#
# Static dielectric constant tensor:
#      x y z
#    x 1.916610 -0.001750 -0.007320 
#    y -0.001750 1.844350 0.006940 
#    z -0.007320 0.006940 1.856770 
# 
# From -- ./inp_files/429841.got.cif
#   From: 2010.05.17/outbox.cif.g08.bks.cpg/sg2_215_cif.got.tgz:429841.got - 2010.06.03 11:33:40.
