data_PCOD9080273
_publ_section_title
;
Structure prediction by ZEFSAII (Michael W. Deem and Ramdas Pophale) SiO2 
 PCOD9080273
Probable space group: P -1
;
_chemical_formula_sum "Si O2"
_cell_formula_units_Z 13
_cell_length_a 9.104977
_cell_length_b 13.293327
_cell_length_c 22.062194
_cell_angle_alpha 21.130790
_cell_angle_beta 145.485409
_cell_angle_gamma 149.672733
_cell_volume 483.456850
_symmetry_space_group_name_H-M "P -1"
_symmetry_group_IT_number 2
_symmetry_cell_setting 'triclinic'
loop_
_space_group_symop_operation_xyz
x,y,z
-x,-y,-z
loop_
_atom_site_type_symbol
_atom_site_label
_atom_site_fract_x
_atom_site_fract_y
_atom_site_fract_z
Si Si1 0.329953 0.770949 0.949936
Si Si2 0.500000 0.000000 0.500000
Si Si3 0.147792 0.783165 0.694834
Si Si4 0.213378 0.427033 0.813572
Si Si5 0.182342 0.255183 0.667258
Si Si6 0.153452 0.829268 0.284309
Si Si7 0.304890 0.464395 0.225775
O O1 0.540806 0.687028 0.029045
O O2 0.437332 0.770600 0.056206
O O3 0.000000 0.500000 0.000000
O O4 0.296829 0.082408 0.756669
O O5 0.361443 0.775892 0.639053
O O6 0.684279 0.806538 0.658094
O O7 0.071561 0.484485 0.793031
O O8 0.007255 0.642815 0.790829
O O9 0.498250 0.982185 0.706438
O O10 0.000000 0.000000 0.500000
O O11 0.996378 0.201944 0.814136
O O12 0.049660 0.457769 0.474769
O O13 0.470295 0.485995 0.671863
O O14 0.964793 0.064899 0.755820
#
# Coordination Sequence:
#
# PCOD9080273 Si02
#       7
#     2   1   2   2   2   2   2
#     4  11  25  43  71  99 133 181 232 284 336 404
#     4  10  18  38  68  96 126 166 228 276 322 382
#     4  12  24  44  66 103 145 175 220 284 355 400
#     4  11  24  42  67 103 135 178 229 283 337 408
#     4  11  22  43  71 102 129 177 238 279 338 400
#     4  11  24  41  74 103 133 179 226 288 334 409
#     4  11  23  43  69  96 139 175 221 287 331 409
#
# _framework density 26.889681
#
# number of rings (size 3 to 8) (size 9 to 14) (size 15 to 20)
#    0.000    0.923    6.154    1.385    6.462    0.615 
#    2.769    3.846    0.000    0.000    0.000    0.000 
#    0.000    0.000    0.000    0.000    0.000    0.000 
#
# Total GULP energy -72568.006604 kJ/mol
# GULP energy per Si atom -5582.154354 kJ/mol
# Density = 2.682848 g / cm^3
# Si number density = 26.889681 Si / 1000 Ang^3
#
#
#
# Elastic Constant Matrix: (Units=GPa)
#
#
# Indices 1 2 3 4 5 6 
#
# 1 113.8322 17.6141 9.5435 1.6681 31.9377 16.8202
# 2 17.6141 103.6053 1.8691 32.8504 17.7088 0.8637
# 3 9.5435 1.8691 108.4904 9.9145 33.1152 -6.9914
# 4 1.6681 32.8504 9.9145 34.3819 13.0621 -1.5435
# 5 31.9377 17.7088 33.1152 13.0621 40.7110 1.6637
# 6 16.8202 0.8637 -6.9914 -1.5435 1.6637 40.8183
#
#
#
# Elastic Compliance Matrix: (Units=1/GPa)
#
#
# Indices 1 2 3 4 5 6 
#
# 1 0.012911 -0.001621 0.001959 0.004881 -0.012409 -0.004260
# 2 -0.001621 0.014550 0.001818 -0.013494 -0.002217 0.000252
# 3 0.001959 0.001818 0.013125 -0.000639 -0.012877 0.001903
# 4 0.004881 -0.013494 -0.000639 0.046668 -0.012430 0.000436
# 5 -0.012409 -0.002217 -0.012877 -0.012430 0.049706 0.000459
# 6 -0.004260 0.000252 0.001903 0.000436 0.000459 0.026573
#
#
# Mechanical properties :
#
#
# Convention : Reuss Voigt Hill
#
# Bulk Modulus (GPa) = 22.27252 42.66460 32.46856
# Shear Modulus (GPa) = 28.70461 42.97565 35.84013
#
# Velocity S-wave (km/s) = 3.27080 4.00211 3.65479
# Velocity P-wave (km/s) = 4.75027 6.10384 5.46909
#
# Compressibility (1/GPa) = 0.04489837
#
# Stress axis : x y z
#
# Youngs Moduli (GPa) = 77.45304 68.72681 76.18891
#
# Poissons Ratio (x) = 0.11144 -0.14928
# Poissons Ratio (y) = 0.12559 -0.13851
# Poissons Ratio (z) = -0.15176 -0.12494
#
# Static dielectric constant tensor:
#      x y z
#    x 2.098020 -0.034200 -0.060370 
#    y -0.034200 2.365130 -0.013620 
#    z -0.060370 -0.013620 2.103910 
# 
# From -- ./inp_files/201447.got.cif
#   From: 2010.05.17/outbox.cif.g08.bks.cpg/sg2_101_cif.got.tgz:201447.got - 2010.06.03 11:33:40.
