data_PCOD9080822
_publ_section_title
;
Structure prediction by ZEFSAII (Michael W. Deem and Ramdas Pophale) SiO2 
 PCOD9080822
Probable space group: P -1
;
_chemical_formula_sum "Si O2"
_cell_formula_units_Z 16
_cell_length_a 5.342364
_cell_length_b 12.399246
_cell_length_c 10.823901
_cell_angle_alpha 107.756020
_cell_angle_beta 68.363074
_cell_angle_gamma 98.176903
_cell_volume 634.361988
_symmetry_space_group_name_H-M "P -1"
_symmetry_group_IT_number 2
_symmetry_cell_setting 'triclinic'
loop_
_space_group_symop_operation_xyz
x,y,z
-x,-y,-z
loop_
_atom_site_type_symbol
_atom_site_label
_atom_site_fract_x
_atom_site_fract_y
_atom_site_fract_z
Si Si1 0.755324 0.371592 0.380869
Si Si2 0.787582 0.687101 0.227645
Si Si3 0.766404 0.959278 0.624756
Si Si4 0.177210 0.871767 0.699186
Si Si5 0.865540 0.620840 0.451719
Si Si6 0.435569 0.852936 0.071749
Si Si7 0.344238 0.607216 0.109145
Si Si8 0.057050 0.109090 0.921223
O O1 0.819588 0.248509 0.275277
O O2 0.881645 0.490679 0.351850
O O3 0.432454 0.380212 0.434435
O O4 0.891134 0.364268 0.490930
O O5 0.838280 0.705978 0.370863
O O6 0.491711 0.639241 0.225318
O O7 0.854999 0.797668 0.168762
O O8 0.025870 0.598289 0.136197
O O9 0.486343 0.901423 0.604519
O O10 0.932055 0.870892 0.645277
O O11 0.673480 0.065633 0.768036
O O12 0.000000 0.000000 0.500000
O O13 0.121480 0.986979 0.819061
O O14 0.409489 0.722263 0.063723
O O15 0.745407 0.871294 0.996135
O O16 0.254268 0.879285 0.999054
O O17 0.500000 0.500000 0.000000
#
# Coordination Sequence:
#
# PCOD9080822 Si02
#       8
#     2   2   2   2   2   2   2   2
#     4  10  21  34  49  68  94 131 176 213 235 277
#     4  10  19  33  50  68  97 128 156 195 249 301
#     4  10  19  29  42  65  96 126 156 193 241 295
#     4  10  19  29  43  64  91 120 160 197 234 277
#     4  10  21  36  49  66  95 134 172 206 247 282
#     4   8  16  28  40  59  92 121 145 181 229 283
#     4  10  19  31  49  73  98 124 159 200 247 302
#     4   8  16  28  42  63  89 117 151 187 235 287
#
# _framework density 25.222192
#
# number of rings (size 3 to 8) (size 9 to 14) (size 15 to 20)
#    0.000    2.500    0.000    2.250    0.000    9.000 
#    0.000    0.000    0.000    0.000    0.000    0.000 
#    0.000   54.000    0.000    0.000    0.000    0.000 
#
# Total GULP energy -89138.451834 kJ/mol
# GULP energy per Si atom -5571.153240 kJ/mol
# Density = 2.516478 g / cm^3
# Si number density = 25.222192 Si / 1000 Ang^3
#
#
#
# Elastic Constant Matrix: (Units=GPa)
#
#
# Indices 1 2 3 4 5 6 
#
# 1 185.7873 19.0227 17.8736 2.2693 -19.1747 -15.8281
# 2 19.0227 126.6846 50.2045 23.9068 -7.9242 -31.7825
# 3 17.8736 50.2045 62.7155 17.1704 -10.7476 -3.8060
# 4 2.2693 23.9068 17.1704 43.8628 -10.8844 -2.9980
# 5 -19.1747 -7.9242 -10.7476 -10.8844 31.0879 7.8627
# 6 -15.8281 -31.7825 -3.8060 -2.9980 7.8627 28.8288
#
#
#
# Elastic Compliance Matrix: (Units=1/GPa)
#
#
# Indices 1 2 3 4 5 6 
#
# 1 0.006032 0.000525 -0.001743 0.000994 0.002844 0.002988
# 2 0.000525 0.019116 -0.013903 -0.005246 -0.006711 0.020812
# 3 -0.001743 -0.013903 0.028776 -0.002583 0.008218 -0.014995
# 4 0.000994 -0.005246 -0.002583 0.028678 0.009753 -0.005257
# 5 0.002844 -0.006711 0.008218 0.009753 0.042332 -0.015283
# 6 0.002988 0.020812 -0.014995 -0.005257 -0.015283 0.060914
#
#
# Mechanical properties :
#
#
# Convention : Reuss Voigt Hill
#
# Bulk Modulus (GPa) = 42.22351 61.04322 51.63337
# Shear Modulus (GPa) = 22.32292 39.96167 31.14230
#
# Velocity S-wave (km/s) = 2.97821 3.98475 3.51767
# Velocity P-wave (km/s) = 5.34820 6.73986 6.08395
#
# Compressibility (1/GPa) = 0.02368349
#
# Stress axis : x y z
#
# Youngs Moduli (GPa) = 165.77131 52.31236 34.75070
#
# Poissons Ratio (x) = -0.02745 0.06056
# Poissons Ratio (y) = -0.08699 0.48313
# Poissons Ratio (z) = 0.28889 0.72728
#
# Static dielectric constant tensor:
#      x y z
#    x 2.092690 0.034690 0.020830 
#    y 0.034690 1.962980 -0.008040 
#    z 0.020830 -0.008040 2.071850 
# 
# From -- ./inp_files/108480.got.cif
#   From: 2010.05.17/outbox.cif.g08.bks.cpg/sg2_55_cif.got.tgz:108480.got - 2010.06.03 11:33:40.
