data_PCOD9080110
_publ_section_title
;
Structure prediction by ZEFSAII (Michael W. Deem and Ramdas Pophale) SiO2 
 PCOD9080110
Probable space group: P -1
;
_chemical_formula_sum "Si O2"
_cell_formula_units_Z 13
_cell_length_a 7.509257
_cell_length_b 13.079028
_cell_length_c 11.524232
_cell_angle_alpha 35.224187
_cell_angle_beta 112.433332
_cell_angle_gamma 90.543109
_cell_volume 497.065427
_symmetry_space_group_name_H-M "P -1"
_symmetry_group_IT_number 2
_symmetry_cell_setting 'triclinic'
loop_
_space_group_symop_operation_xyz
x,y,z
-x,-y,-z
loop_
_atom_site_type_symbol
_atom_site_label
_atom_site_fract_x
_atom_site_fract_y
_atom_site_fract_z
Si Si1 0.952510 0.062594 0.077287
Si Si2 0.422545 0.796059 0.938731
Si Si3 0.731610 0.847317 0.126196
Si Si4 0.000000 0.000000 0.500000
Si Si5 0.884499 0.511105 0.672803
Si Si6 0.523707 0.330245 0.387345
Si Si7 0.830627 0.486915 0.057398
O O1 0.860419 0.967909 0.048093
O O2 0.219084 0.881403 0.342871
O O3 0.791117 0.100092 0.115743
O O4 0.904019 0.297163 0.835922
O O5 0.625419 0.820924 0.007838
O O6 0.521893 0.544763 0.198018
O O7 0.272078 0.924419 0.670703
O O8 0.864227 0.639813 0.434092
O O9 0.500000 0.000000 0.000000
O O10 0.105907 0.751682 0.717519
O O11 0.654458 0.641445 0.580152
O O12 0.098722 0.469342 0.842685
O O13 0.417833 0.350158 0.215313
O O14 0.000000 0.500000 0.000000
#
# Coordination Sequence:
#
# PCOD9080110 Si02
#       7
#     2   2   2   1   2   2   2
#     4  10  21  39  61  89 121 153 197 247 287 344
#     4   9  20  38  60  84 116 153 193 241 295 350
#     4  10  21  39  61  85 120 158 193 242 296 348
#     4  10  18  38  64  82 110 154 192 236 294 346
#     4  10  21  40  61  86 121 161 195 236 298 352
#     4   9  20  38  61  88 119 156 199 245 289 344
#     4   9  18  34  58  85 114 152 196 236 286 345
#
# _framework density 26.153500000000001
#
# number of rings (size 3 to 8) (size 9 to 14) (size 15 to 20)
#    0.000    2.462    0.000    2.769    0.000    6.769 
#    0.000   26.154    0.000    0.000    0.000    0.000 
#    0.000    0.000    0.000    0.000    0.000    0.000 
#
# Total GULP energy -72570.787889 kJ/mol
# GULP energy per Si atom -5582.368299 kJ/mol
# Density = 2.609397 g / cm^3
# Si number density = 26.153500 Si / 1000 Ang^3
#
#
#
# Elastic Constant Matrix: (Units=GPa)
#
#
# Indices 1 2 3 4 5 6 
#
# 1 123.9069 83.6400 56.1502 4.8083 1.5104 25.3471
# 2 83.6400 175.7260 89.0749 6.0153 22.2281 26.3697
# 3 56.1502 89.0749 174.3218 16.8801 8.3020 21.2901
# 4 4.8083 6.0153 16.8801 33.8032 9.5265 12.1513
# 5 1.5104 22.2281 8.3020 9.5265 20.6695 -6.1490
# 6 25.3471 26.3697 21.2901 12.1513 -6.1490 53.3274
#
#
#
# Elastic Compliance Matrix: (Units=1/GPa)
#
#
# Indices 1 2 3 4 5 6 
#
# 1 0.013016 -0.006180 -0.000988 -0.001405 0.006235 -0.001697
# 2 -0.006180 0.013616 -0.004134 0.007691 -0.017846 -0.005955
# 3 -0.000988 -0.004134 0.008367 -0.004466 0.003389 0.000582
# 4 -0.001405 0.007691 -0.004466 0.045066 -0.031689 -0.015275
# 5 0.006235 -0.017846 0.003389 -0.031689 0.086829 0.021741
# 6 -0.001697 -0.005955 0.000582 -0.015275 0.021741 0.028258
#
#
# Mechanical properties :
#
#
# Convention : Reuss Voigt Hill
#
# Bulk Modulus (GPa) = 80.68530 103.52055 92.10293
# Shear Modulus (GPa) = 22.53389 37.89933 30.21661
#
# Velocity S-wave (km/s) = 2.93849 3.81085 3.40274
# Velocity P-wave (km/s) = 6.51388 7.68318 7.12257
#
# Compressibility (1/GPa) = 0.01239383
#
# Stress axis : x y z
#
# Youngs Moduli (GPa) = 76.83000 73.44513 119.51293
#
# Poissons Ratio (x) = 0.45390 0.11810
# Poissons Ratio (y) = 0.47482 0.49408
# Poissons Ratio (z) = 0.07592 0.30363
#
# Static dielectric constant tensor:
#      x y z
#    x 2.147290 -0.097430 -0.053590 
#    y -0.097430 2.132050 0.040070 
#    z -0.053590 0.040070 2.108570 
# 
# From -- ./inp_files/501485.got.cif
#   From: 2010.05.17/outbox.cif.g08.bks.cpg/sg2_251_cif.got.tgz:501485.got - 2010.06.03 11:33:40.
