data_PCOD9080220
_publ_section_title
;
Structure prediction by ZEFSAII (Michael W. Deem and Ramdas Pophale) SiO2 
 PCOD9080220
Probable space group: P -1
;
_chemical_formula_sum "Si O2"
_cell_formula_units_Z 14
_cell_length_a 14.750165
_cell_length_b 21.109664
_cell_length_c 12.669288
_cell_angle_alpha 28.048563
_cell_angle_beta 148.991068
_cell_angle_gamma 160.221077
_cell_volume 618.863234
_symmetry_space_group_name_H-M "P -1"
_symmetry_group_IT_number 2
_symmetry_cell_setting 'triclinic'
loop_
_space_group_symop_operation_xyz
x,y,z
-x,-y,-z
loop_
_atom_site_type_symbol
_atom_site_label
_atom_site_fract_x
_atom_site_fract_y
_atom_site_fract_z
Si Si1 0.685588 0.501982 0.119534
Si Si2 0.546271 0.843450 0.944064
Si Si3 0.995910 0.783263 0.805429
Si Si4 0.973269 0.497687 0.815928
Si Si5 0.709428 0.765353 0.038768
Si Si6 0.010656 0.687375 0.373501
Si Si7 0.364001 0.197220 0.680186
O O1 0.889156 0.571139 0.310936
O O2 0.500000 0.500000 0.000000
O O3 0.843491 0.659570 0.946015
O O4 0.461922 0.278468 0.167039
O O5 0.226426 0.687790 0.862112
O O6 0.719528 0.066386 0.739237
O O7 0.554310 0.718619 0.057876
O O8 0.689942 0.887781 0.130886
O O9 0.800727 0.765127 0.568553
O O10 0.064910 0.685134 0.960234
O O11 0.258361 0.024263 0.745488
O O12 0.051858 0.593377 0.635801
O O13 0.687787 0.398834 0.703341
O O14 0.787302 0.657547 0.248257
O O15 0.000000 0.000000 0.000000
#
# Coordination Sequence:
#
# PCOD9080220 Si02
#       7
#     2   2   2   2   2   2   2
#     4  10  18  38  66  94 128 169 215 269 325 383
#     4  11  22  43  67  97 138 174 217 276 337 385
#     4  11  24  46  70  94 131 176 226 273 326 396
#     4  12  25  43  68  99 135 172 224 274 330 396
#     4   9  19  37  63  97 131 167 218 264 326 398
#     4  10  22  41  67  98 135 170 221 276 327 391
#     4  11  25  46  69  94 133 177 222 275 326 395
#
# _framework density 22.622122999999998
#
# number of rings (size 3 to 8) (size 9 to 14) (size 15 to 20)
#    0.000    1.429    2.857    3.000    0.000    1.143 
#    2.571    0.000    0.000    0.000    0.000    0.000 
#    0.000    0.000    0.000    0.000    0.000    0.000 
#
# Total GULP energy -78189.329036 kJ/mol
# GULP energy per Si atom -5584.952074 kJ/mol
# Density = 2.257063 g / cm^3
# Si number density = 22.622123 Si / 1000 Ang^3
#
#
#
# Elastic Constant Matrix: (Units=GPa)
#
#
# Indices 1 2 3 4 5 6 
#
# 1 39.5587 10.8886 11.5502 10.4114 6.2988 -3.5544
# 2 10.8886 104.3004 26.2705 24.7020 0.2711 -18.4311
# 3 11.5502 26.2705 113.4904 9.6607 -4.5050 -19.3426
# 4 10.4114 24.7020 9.6607 31.4554 -0.7176 -6.4927
# 5 6.2988 0.2711 -4.5050 -0.7176 34.0207 5.2623
# 6 -3.5544 -18.4311 -19.3426 -6.4927 5.2623 38.7288
#
#
#
# Elastic Compliance Matrix: (Units=1/GPa)
#
#
# Indices 1 2 3 4 5 6 
#
# 1 0.029364 -0.000253 -0.002288 -0.008795 -0.006043 0.000778
# 2 -0.000253 0.012762 -0.001557 -0.008666 -0.001057 0.003963
# 3 -0.002288 -0.001557 0.010142 -0.000302 0.001169 0.003905
# 4 -0.008795 -0.008666 -0.000302 0.041992 0.002288 0.001647
# 5 -0.006043 -0.001057 0.001169 0.002288 0.031398 -0.004357
# 6 0.000778 0.003963 0.003905 0.001647 -0.004357 0.030596
#
#
# Mechanical properties :
#
#
# Convention : Reuss Voigt Hill
#
# Bulk Modulus (GPa) = 22.69081 39.41869 31.05475
# Shear Modulus (GPa) = 27.91085 34.75031 31.33058
#
# Velocity S-wave (km/s) = 3.51634 3.92359 3.72553
# Velocity P-wave (km/s) = 5.15154 6.16350 5.68010
#
# Compressibility (1/GPa) = 0.04407070
#
# Stress axis : x y z
#
# Youngs Moduli (GPa) = 34.05583 78.35884 98.59698
#
# Poissons Ratio (x) = 0.01981 0.22564
# Poissons Ratio (y) = 0.00861 0.15353
# Poissons Ratio (z) = 0.07794 0.12202
#
# Static dielectric constant tensor:
#      x y z
#    x 1.875440 0.016830 0.003420 
#    y 0.016830 1.875530 0.008190 
#    z 0.003420 0.008190 1.833640 
# 
# From -- ./inp_files/244288.got.cif
#   From: 2010.05.17/outbox.cif.g08.bks.cpg/sg2_123_cif.got.tgz:244288.got - 2010.06.03 11:33:40.
