data_PCOD9080333
_publ_section_title
;
Structure prediction by ZEFSAII (Michael W. Deem and Ramdas Pophale) SiO2 
 PCOD9080333
Probable space group: P -1
;
_chemical_formula_sum "Si O2"
_cell_formula_units_Z 16
_cell_length_a 10.497536
_cell_length_b 10.032833
_cell_length_c 13.167516
_cell_angle_alpha 101.738295
_cell_angle_beta 144.003664
_cell_angle_gamma 99.468930
_cell_volume 654.626304
_symmetry_space_group_name_H-M "P -1"
_symmetry_group_IT_number 2
_symmetry_cell_setting 'triclinic'
loop_
_space_group_symop_operation_xyz
x,y,z
-x,-y,-z
loop_
_atom_site_type_symbol
_atom_site_label
_atom_site_fract_x
_atom_site_fract_y
_atom_site_fract_z
Si Si1 0.640739 0.912331 0.496858
Si Si2 0.298958 0.320690 0.631683
Si Si3 0.834105 0.776704 0.037229
Si Si4 0.352135 0.430514 0.285502
Si Si5 0.701173 0.175718 0.450938
Si Si6 0.851308 0.386959 0.750180
Si Si7 0.702900 0.076490 0.233065
Si Si8 0.727684 0.766893 0.186329
O O1 0.690069 0.830473 0.422401
O O2 0.415610 0.756911 0.389446
O O3 0.551735 0.025972 0.412192
O O4 0.914899 0.035723 0.751686
O O5 0.453957 0.454639 0.664071
O O6 0.405333 0.358259 0.822759
O O7 0.987839 0.244584 0.418580
O O8 0.646928 0.731797 0.009203
O O9 0.941194 0.658291 0.102238
O O10 0.749473 0.745293 0.859414
O O11 0.500000 0.500000 0.500000
O O12 0.107209 0.447897 0.153742
O O13 0.781133 0.346953 0.579220
O O14 0.579963 0.116170 0.253703
O O15 0.981180 0.195968 0.622547
O O16 0.741383 0.928959 0.253254
O O17 0.500000 0.000000 0.000000
#
# Coordination Sequence:
#
# PCOD9080333 Si02
#       8
#     2   2   2   2   2   2   2   2
#     4   9  15  32  61  85 107 134 189 238 269 321
#     4  10  18  39  58  80 112 153 187 223 285 332
#     4  10  19  35  61  84 108 146 192 233 274 327
#     4  11  25  40  52  76 125 161 181 228 280 336
#     4   9  15  30  55  81 110 138 171 229 281 317
#     4   9  19  35  58  84 104 144 196 230 270 324
#     4  11  19  31  54  91 115 133 176 240 289 330
#     4   9  17  34  63  82 110 136 186 237 276 333
#
# _framework density 24.441423
#
# number of rings (size 3 to 8) (size 9 to 14) (size 15 to 20)
#    0.000    2.500    3.750    2.625    0.000    1.500 
#    4.500    2.500    0.000    7.500    0.000    0.000 
#    0.000    0.000    0.000    0.000    0.000    0.000 
#
# Total GULP energy -89116.986840 kJ/mol
# GULP energy per Si atom -5569.811677 kJ/mol
# Density = 2.438579 g / cm^3
# Si number density = 24.441423 Si / 1000 Ang^3
#
#
#
# Elastic Constant Matrix: (Units=GPa)
#
#
# Indices 1 2 3 4 5 6 
#
# 1 112.7062 20.1384 33.9480 8.3569 -47.6292 -5.3756
# 2 20.1384 40.6518 4.5354 6.6203 -4.4322 9.3049
# 3 33.9480 4.5354 110.0600 -6.3569 -47.8786 5.2833
# 4 8.3569 6.6203 -6.3569 26.8579 -4.3807 -6.4771
# 5 -47.6292 -4.4322 -47.8786 -4.3807 55.2724 8.0432
# 6 -5.3756 9.3049 5.2833 -6.4771 8.0432 32.3951
#
#
#
# Elastic Compliance Matrix: (Units=1/GPa)
#
#
# Indices 1 2 3 4 5 6 
#
# 1 0.015589 -0.006410 0.001557 -0.000457 0.014150 0.000570
# 2 -0.006410 0.031606 -0.000313 -0.008977 -0.002326 -0.011308
# 3 0.001557 -0.000313 0.016459 0.004891 0.016766 -0.005521
# 4 -0.000457 -0.008977 0.004891 0.043813 0.005263 0.009158
# 5 0.014150 -0.002326 0.016766 0.005263 0.046525 -0.010217
# 6 0.000570 -0.011308 -0.005521 0.009158 -0.010217 0.039480
#
#
# Mechanical properties :
#
#
# Convention : Reuss Voigt Hill
#
# Bulk Modulus (GPa) = 18.75321 42.29574 30.52447
# Shear Modulus (GPa) = 22.56540 36.55816 29.56178
#
# Velocity S-wave (km/s) = 3.04179 3.87168 3.48155
# Velocity P-wave (km/s) = 4.47504 6.10975 5.35514
#
# Compressibility (1/GPa) = 0.05332420
#
# Stress axis : x y z
#
# Youngs Moduli (GPa) = 64.14588 31.63952 60.75534
#
# Poissons Ratio (x) = 0.20280 -0.09461
# Poissons Ratio (y) = 0.41116 0.01900
# Poissons Ratio (z) = -0.09989 0.00990
#
# Static dielectric constant tensor:
#      x y z
#    x 2.017270 -0.022950 -0.025910 
#    y -0.022950 2.037120 -0.075960 
#    z -0.025910 -0.075960 2.132330 
# 
# From -- ./inp_files/426085.got.cif
#   From: 2010.05.17/outbox.cif.g08.bks.cpg/sg2_214_cif.got.tgz:426085.got - 2010.06.03 11:33:40.
