data_PCOD9080378
_publ_section_title
;
Structure prediction by ZEFSAII (Michael W. Deem and Ramdas Pophale) SiO2 
 PCOD9080378
Probable space group: P -1
;
_chemical_formula_sum "Si O2"
_cell_formula_units_Z 16
_cell_length_a 24.951495
_cell_length_b 19.192466
_cell_length_c 6.713482
_cell_angle_alpha 74.755380
_cell_angle_beta 66.145900
_cell_angle_gamma 16.688797
_cell_volume 743.601984
_symmetry_space_group_name_H-M "P -1"
_symmetry_group_IT_number 2
_symmetry_cell_setting 'triclinic'
loop_
_space_group_symop_operation_xyz
x,y,z
-x,-y,-z
loop_
_atom_site_type_symbol
_atom_site_label
_atom_site_fract_x
_atom_site_fract_y
_atom_site_fract_z
Si Si1 0.074730 0.563499 0.892486
Si Si2 0.531276 0.696019 0.253708
Si Si3 0.769234 0.688240 0.546313
Si Si4 0.729625 0.239094 0.729680
Si Si5 0.852129 0.934393 0.640297
Si Si6 0.890452 0.159775 0.245800
Si Si7 0.259485 0.414612 0.119910
Si Si8 0.805595 0.806265 0.432277
O O1 0.220895 0.349559 0.666861
O O2 0.920776 0.801455 0.820283
O O3 0.946196 0.654030 0.137865
O O4 0.190064 0.474396 0.956792
O O5 0.384334 0.811603 0.276856
O O6 0.752161 0.396222 0.227502
O O7 0.377330 0.913850 0.491142
O O8 0.583734 0.702573 0.032250
O O9 0.643979 0.773392 0.787053
O O10 0.698097 0.855097 0.555632
O O11 0.020505 0.391470 0.494557
O O12 0.827010 0.046884 0.654721
O O13 0.728943 0.294339 0.499845
O O14 0.500000 0.500000 0.000000
O O15 0.905704 0.064106 0.748343
O O16 0.042520 0.694793 0.366466
O O17 0.000000 0.000000 0.000000
#
# Coordination Sequence:
#
# PCOD9080378 Si02
#       8
#     2   2   2   2   2   2   2   2
#     4  10  18  39  62  89 126 167 214 261 317 375
#     4  12  23  41  66  93 128 169 212 262 319 375
#     4   9  19  39  62  88 130 168 213 264 318 374
#     4  11  26  45  71  98 128 172 216 263 328 395
#     4  11  23  42  63  93 127 169 209 259 320 379
#     4  11  26  47  67 101 136 167 212 273 324 388
#     4  10  22  40  61  92 129 167 213 268 313 375
#     4  10  20  37  62  95 124 168 215 263 318 376
#
# _framework density 21.516886
#
# number of rings (size 3 to 8) (size 9 to 14) (size 15 to 20)
#    0.000    1.500    3.750    2.625    1.750    4.500 
#    4.500    0.625    0.000    0.000    0.000    0.000 
#    0.000    0.000    0.000    0.000    0.000    0.000 
#
# Total GULP energy -89422.695365 kJ/mol
# GULP energy per Si atom -5588.918460 kJ/mol
# Density = 2.146791 g / cm^3
# Si number density = 21.516886 Si / 1000 Ang^3
#
#
#
# Elastic Constant Matrix: (Units=GPa)
#
#
# Indices 1 2 3 4 5 6 
#
# 1 97.5405 3.2214 44.2050 -8.7660 0.9529 19.2363
# 2 3.2214 48.4152 23.8401 1.4724 11.1239 14.8991
# 3 44.2050 23.8401 115.6988 -8.7649 3.4579 -7.2756
# 4 -8.7660 1.4724 -8.7649 21.2999 -0.5494 -0.7523
# 5 0.9529 11.1239 3.4579 -0.5494 43.7379 3.8014
# 6 19.2363 14.8991 -7.2756 -0.7523 3.8014 31.7359
#
#
#
# Elastic Compliance Matrix: (Units=1/GPa)
#
#
# Indices 1 2 3 4 5 6 
#
# 1 0.017819 0.008731 -0.009497 0.002213 -0.000354 -0.016982
# 2 0.008731 0.035014 -0.012241 -0.004867 -0.006110 -0.023920
# 3 -0.009497 -0.012241 0.016035 0.004093 0.000784 0.015182
# 4 0.002213 -0.004867 0.004093 0.050015 0.001241 0.002919
# 5 -0.000354 -0.006110 0.000784 0.001241 0.024346 0.000376
# 6 -0.016982 -0.023920 0.015182 0.002919 0.000376 0.056538
#
#
# Mechanical properties :
#
#
# Convention : Reuss Voigt Hill
#
# Bulk Modulus (GPa) = 23.33466 44.90972 34.12219
# Shear Modulus (GPa) = 20.82757 32.04725 26.43741
#
# Velocity S-wave (km/s) = 3.11459 3.86346 3.50906
# Velocity P-wave (km/s) = 4.87879 6.38897 5.68425
#
# Compressibility (1/GPa) = 0.04285470
#
# Stress axis : x y z
#
# Youngs Moduli (GPa) = 56.11933 28.55990 62.36292
#
# Poissons Ratio (x) = -0.24935 0.59225
# Poissons Ratio (y) = -0.48996 0.76337
# Poissons Ratio (z) = 0.53296 0.34960
#
# Static dielectric constant tensor:
#      x y z
#    x 1.771890 -0.010430 -0.019620 
#    y -0.010430 1.781720 0.008290 
#    z -0.019620 0.008290 1.799300 
# 
# From -- ./inp_files/122846.got.cif
#   From: 2010.05.17/outbox.cif.g08.bks.cpg/sg2_62_cif.got.tgz:122846.got - 2010.06.03 11:33:40.
