data_PCOD9080749
_publ_section_title
;
Structure prediction by ZEFSAII (Michael W. Deem and Ramdas Pophale) SiO2 
 PCOD9080749
Probable space group: P -1
;
_chemical_formula_sum "Si O2"
_cell_formula_units_Z 16
_cell_length_a 10.439476
_cell_length_b 19.080546
_cell_length_c 12.421529
_cell_angle_alpha 25.809687
_cell_angle_beta 54.094151
_cell_angle_gamma 43.950948
_cell_volume 731.924547
_symmetry_space_group_name_H-M "P -1"
_symmetry_group_IT_number 2
_symmetry_cell_setting 'triclinic'
loop_
_space_group_symop_operation_xyz
x,y,z
-x,-y,-z
loop_
_atom_site_type_symbol
_atom_site_label
_atom_site_fract_x
_atom_site_fract_y
_atom_site_fract_z
Si Si1 0.696213 0.170996 0.428497
Si Si2 0.440179 0.851240 0.259874
Si Si3 0.336251 0.616920 0.503879
Si Si4 0.161768 0.502822 0.355504
Si Si5 0.702222 0.735720 0.587646
Si Si6 0.950395 0.888400 0.263553
Si Si7 0.611542 0.559257 0.044773
Si Si8 0.167766 0.863149 0.816054
O O1 0.711050 0.076881 0.667213
O O2 0.511703 0.183297 0.453987
O O3 0.650258 0.382644 0.191988
O O4 0.844517 0.088759 0.371155
O O5 0.352943 0.796136 0.282174
O O6 0.632705 0.650176 0.480757
O O7 0.500000 0.000000 0.000000
O O8 0.500000 0.500000 0.500000
O O9 0.349564 0.513582 0.752110
O O10 0.139752 0.679142 0.460429
O O11 0.177528 0.432297 0.323860
O O12 0.000000 0.500000 0.500000
O O13 0.107885 0.718063 0.078933
O O14 0.768122 0.881626 0.340166
O O15 0.723469 0.648139 0.816821
O O16 0.925121 0.965752 0.290657
O O17 0.000000 0.000000 0.000000
O O18 0.392574 0.727610 0.914507
#
# Coordination Sequence:
#
# PCOD9080749 Si02
#       8
#     2   2   2   2   2   2   2   2
#     4   9  18  38  68  92 119 158 205 260 304 366
#     4  10  23  41  62  94 120 158 210 254 302 361
#     4  11  25  45  61  84 127 174 199 246 319 373
#     4  11  21  36  68  91 119 163 209 250 301 363
#     4  10  20  38  63  91 120 161 205 252 303 367
#     4  12  28  39  58  92 135 160 204 261 304 365
#     4  10  18  42  69  87 119 159 214 251 305 373
#     4  11  19  40  64  95 118 161 206 254 311 355
#
# _framework density 21.860178000000001
#
# number of rings (size 3 to 8) (size 9 to 14) (size 15 to 20)
#    0.000    1.500    5.000    2.250    7.000    2.500 
#    2.250    3.750    0.000    0.000    0.000    0.000 
#    0.000    0.000    0.000    0.000    0.000    0.000 
#
# Total GULP energy -89316.728855 kJ/mol
# GULP energy per Si atom -5582.295553 kJ/mol
# Density = 2.181042 g / cm^3
# Si number density = 21.860178 Si / 1000 Ang^3
#
#
#
# Elastic Constant Matrix: (Units=GPa)
#
#
# Indices 1 2 3 4 5 6 
#
# 1 54.7494 4.9880 19.9036 12.3391 -3.3636 -6.5746
# 2 4.9880 79.5264 2.9864 24.2563 -5.7731 -4.0333
# 3 19.9036 2.9864 77.4722 30.1912 -12.9494 -7.1583
# 4 12.3391 24.2563 30.1912 37.6090 -6.1315 -6.6560
# 5 -3.3636 -5.7731 -12.9494 -6.1315 36.9419 7.7857
# 6 -6.5746 -4.0333 -7.1583 -6.6560 7.7857 22.0257
#
#
#
# Elastic Compliance Matrix: (Units=1/GPa)
#
#
# Indices 1 2 3 4 5 6 
#
# 1 0.020845 -0.000089 -0.003931 -0.003006 -0.000908 0.004341
# 2 -0.000089 0.017173 0.005653 -0.015304 0.002212 -0.000451
# 3 -0.003931 0.005653 0.022032 -0.019313 0.005179 -0.000645
# 4 -0.003006 -0.015304 -0.019313 0.053867 -0.001969 0.006998
# 5 -0.000908 0.002212 0.005179 -0.001969 0.030863 -0.009687
# 6 0.004341 -0.000451 -0.000645 0.006998 -0.009687 0.051944
#
#
# Mechanical properties :
#
#
# Convention : Reuss Voigt Hill
#
# Bulk Modulus (GPa) = 15.79361 29.72265 22.75813
# Shear Modulus (GPa) = 23.30300 31.57333 27.43817
#
# Velocity S-wave (km/s) = 3.26851 3.80456 3.54668
# Velocity P-wave (km/s) = 4.63516 5.73810 5.21587
#
# Compressibility (1/GPa) = 0.06331673
#
# Stress axis : x y z
#
# Youngs Moduli (GPa) = 47.97264 58.22962 45.38802
#
# Poissons Ratio (x) = 0.00517 0.17843
# Poissons Ratio (y) = 0.00426 -0.25658
# Poissons Ratio (z) = 0.18859 -0.32917
#
# Static dielectric constant tensor:
#      x y z
#    x 1.913580 -0.023030 0.052400 
#    y -0.023030 1.805280 0.011540 
#    z 0.052400 0.011540 1.836570 
# 
# From -- ./inp_files/402655.got.cif
#   From: 2010.05.17/outbox.cif.g08.bks.cpg/sg2_202_cif.got.tgz:402655.got - 2010.06.03 11:33:40.
