data_PCOD9080445
_publ_section_title
;
Structure prediction by ZEFSAII (Michael W. Deem and Ramdas Pophale) SiO2 
 PCOD9080445
Probable space group: P -1
;
_chemical_formula_sum "Si O2"
_cell_formula_units_Z 10
_cell_length_a 14.450224
_cell_length_b 8.770471
_cell_length_c 5.469713
_cell_angle_alpha 60.029605
_cell_angle_beta 57.611527
_cell_angle_gamma 47.042926
_cell_volume 418.136506
_symmetry_space_group_name_H-M "P -1"
_symmetry_group_IT_number 2
_symmetry_cell_setting 'triclinic'
loop_
_space_group_symop_operation_xyz
x,y,z
-x,-y,-z
loop_
_atom_site_type_symbol
_atom_site_label
_atom_site_fract_x
_atom_site_fract_y
_atom_site_fract_z
Si Si1 0.455860 0.331904 0.177939
Si Si2 0.144520 0.285510 0.434208
Si Si3 0.863955 0.056531 0.539118
Si Si4 0.279006 0.116393 0.881911
Si Si5 0.370274 0.487384 0.674147
O O1 0.405419 0.330656 0.521276
O O2 0.570613 0.088730 0.145999
O O3 0.500000 0.500000 0.000000
O O4 0.357942 0.423927 0.013419
O O5 0.233526 0.229989 0.593648
O O6 0.000000 0.500000 0.500000
O O7 0.119187 0.100491 0.574513
O O8 0.217531 0.267676 0.087852
O O9 0.760715 0.293299 0.400258
O O10 0.000000 0.000000 0.500000
O O11 0.794549 0.007536 0.890478
O O12 0.500000 0.500000 0.500000
#
# Coordination Sequence:
#
# PCOD9080445 Si02
#       5
#     2   2   2   2   2
#     4  10  15  28  48  72  99 125 167 212 248 290
#     4  10  20  35  51  73 105 140 174 208 251 302
#     4  10  22  33  51  82 111 132 164 213 262 305
#     4  10  19  32  53  78 102 131 176 214 249 298
#     4  10  17  29  48  72 103 130 164 203 254 301
#
# _framework density 23.915633
#
# number of rings (size 3 to 8) (size 9 to 14) (size 15 to 20)
#    1.200    0.800    4.000    4.200    0.000    0.800 
#    0.000    0.000    0.000    0.000    0.000   15.400 
#    0.000    0.000    0.000    0.000    0.000    0.000 
#
# Total GULP energy -55827.342379 kJ/mol
# GULP energy per Si atom -5582.734238 kJ/mol
# Density = 2.386120 g / cm^3
# Si number density = 23.915633 Si / 1000 Ang^3
#
#
#
# Elastic Constant Matrix: (Units=GPa)
#
#
# Indices 1 2 3 4 5 6 
#
# 1 133.0966 26.9282 38.9594 -3.2513 32.3974 -10.2066
# 2 26.9282 125.2672 47.1198 27.1555 3.9656 -16.9913
# 3 38.9594 47.1198 160.5534 -3.2197 48.4554 -11.9950
# 4 -3.2513 27.1555 -3.2197 43.5031 2.7142 6.5652
# 5 32.3974 3.9656 48.4554 2.7142 46.6251 1.6378
# 6 -10.2066 -16.9913 -11.9950 6.5652 1.6378 40.2925
#
#
#
# Elastic Compliance Matrix: (Units=1/GPa)
#
#
# Indices 1 2 3 4 5 6 
#
# 1 0.009843 -0.002559 0.000864 0.002644 -0.007728 0.001555
# 2 -0.002559 0.012903 -0.004862 -0.009694 0.006134 0.004676
# 3 0.000864 -0.004862 0.011340 0.004508 -0.012281 0.001309
# 4 0.002644 -0.009694 0.004508 0.031055 -0.007265 -0.006841
# 5 -0.007728 0.006134 -0.012281 -0.007265 0.039603 -0.003453
# 6 0.001555 0.004676 0.001309 -0.006841 -0.003453 0.028829
#
#
# Mechanical properties :
#
#
# Convention : Reuss Voigt Hill
#
# Bulk Modulus (GPa) = 47.67980 71.65912 59.66946
# Shear Modulus (GPa) = 32.53540 46.47812 39.50676
#
# Velocity S-wave (km/s) = 3.69239 4.41321 4.06879
# Velocity P-wave (km/s) = 6.17724 7.48311 6.86131
#
# Compressibility (1/GPa) = 0.02097324
#
# Stress axis : x y z
#
# Youngs Moduli (GPa) = 101.59412 77.49850 88.18070
#
# Poissons Ratio (x) = 0.19829 -0.07619
# Poissons Ratio (y) = 0.25994 0.42876
# Poissons Ratio (z) = -0.08778 0.37682
#
# Static dielectric constant tensor:
#      x y z
#    x 1.846690 0.147260 -0.028260 
#    y 0.147260 1.969440 -0.092060 
#    z -0.028260 -0.092060 1.973270 
# 
# From -- ./inp_files/87323.got.cif
#   From: 2010.05.17/outbox.cif.g08.bks.cpg/sg2_44_cif.got.tgz:87323.got - 2010.06.03 11:33:40.
