data_PCOD9080803
_publ_section_title
;
Structure prediction by ZEFSAII (Michael W. Deem and Ramdas Pophale) SiO2 
 PCOD9080803
Probable space group: P -1
;
_chemical_formula_sum "Si O2"
_cell_formula_units_Z 16
_cell_length_a 9.698827
_cell_length_b 8.799296
_cell_length_c 8.923579
_cell_angle_alpha 114.086572
_cell_angle_beta 95.791882
_cell_angle_gamma 105.629318
_cell_volume 650.003487
_symmetry_space_group_name_H-M "P -1"
_symmetry_group_IT_number 2
_symmetry_cell_setting 'triclinic'
loop_
_space_group_symop_operation_xyz
x,y,z
-x,-y,-z
loop_
_atom_site_type_symbol
_atom_site_label
_atom_site_fract_x
_atom_site_fract_y
_atom_site_fract_z
Si Si1 0.445656 0.753787 0.115372
Si Si2 0.035185 0.687822 0.501156
Si Si3 0.739997 0.651145 0.607027
Si Si4 0.889051 0.747758 0.139883
Si Si5 0.856848 0.012806 0.897014
Si Si6 0.809880 0.418884 0.776469
Si Si7 0.633974 0.559514 0.242352
Si Si8 0.274185 0.971638 0.827285
O O1 0.304665 0.729488 0.193723
O O2 0.532744 0.656740 0.192547
O O3 0.554994 0.947110 0.162417
O O4 0.409207 0.633959 0.913418
O O5 0.072286 0.648515 0.320548
O O6 0.000000 0.500000 0.500000
O O7 0.900594 0.735728 0.576498
O O8 0.183155 0.830130 0.640107
O O9 0.737293 0.824625 0.763324
O O10 0.739898 0.501702 0.667091
O O11 0.631940 0.570609 0.424975
O O12 0.800692 0.662247 0.244974
O O13 0.785317 0.861588 0.122117
O O14 0.875934 0.587257 0.960372
O O15 0.055678 0.879213 0.191788
O O16 0.776089 0.102504 0.041437
O O17 0.000000 0.000000 0.000000
#
# Coordination Sequence:
#
# PCOD9080803 Si02
#       8
#     2   2   2   2   2   2   2   2
#     4   9  20  38  51  76 110 149 182 209 279 315
#     4  10  20  33  54  85 108 139 175 223 275 321
#     4  11  19  32  54  87 110 133 185 227 268 310
#     4   9  16  33  52  77 107 141 173 216 276 313
#     4  10  15  28  52  78 107 136 173 219 268 320
#     4  10  19  34  56  78 110 146 180 214 262 330
#     4   9  20  33  55  80 112 141 175 235 261 314
#     4  10  17  33  57  76 105 145 180 215 266 323
#
# _framework density 24.615252999999999
#
# number of rings (size 3 to 8) (size 9 to 14) (size 15 to 20)
#    0.000    2.250    5.000    1.500    0.000    1.500 
#    0.000    2.500    0.000    3.000    3.250    0.000 
#    0.000    0.000    0.000    0.000    0.000    0.000 
#
# Total GULP energy -89317.180670 kJ/mol
# GULP energy per Si atom -5582.323792 kJ/mol
# Density = 2.455923 g / cm^3
# Si number density = 24.615253 Si / 1000 Ang^3
#
#
#
# Elastic Constant Matrix: (Units=GPa)
#
#
# Indices 1 2 3 4 5 6 
#
# 1 72.0380 20.5989 5.7395 5.9415 -13.7929 12.6553
# 2 20.5989 94.1793 24.2156 -13.9823 1.2627 24.6901
# 3 5.7395 24.2156 102.3199 -13.0252 -6.5334 -8.5695
# 4 5.9415 -13.9823 -13.0252 24.5274 -0.4823 3.3456
# 5 -13.7929 1.2627 -6.5334 -0.4823 34.8032 -9.4448
# 6 12.6553 24.6901 -8.5695 3.3456 -9.4448 34.0701
#
#
#
# Elastic Compliance Matrix: (Units=1/GPa)
#
#
# Indices 1 2 3 4 5 6 
#
# 1 0.017159 -0.004578 -0.000369 -0.006743 0.006628 -0.000649
# 2 -0.004578 0.018935 -0.004622 0.011541 -0.007672 -0.016444
# 3 -0.000369 -0.004622 0.012173 0.002986 0.004375 0.007468
# 4 -0.006743 0.011541 0.002986 0.052053 -0.004955 -0.011593
# 5 0.006628 -0.007672 0.004375 -0.004955 0.036400 0.014775
# 6 -0.000649 -0.016444 0.007468 -0.011593 0.014775 0.048622
#
#
# Mechanical properties :
#
#
# Convention : Reuss Voigt Hill
#
# Bulk Modulus (GPa) = 34.33019 41.07168 37.70093
# Shear Modulus (GPa) = 23.34374 33.21236 28.27805
#
# Velocity S-wave (km/s) = 3.08286 3.67721 3.39308
# Velocity P-wave (km/s) = 5.16227 5.89499 5.54075
#
# Compressibility (1/GPa) = 0.02912888
#
# Stress axis : x y z
#
# Youngs Moduli (GPa) = 58.27766 52.81181 82.15015
#
# Poissons Ratio (x) = 0.24177 0.03029
# Poissons Ratio (y) = 0.26680 0.37974
# Poissons Ratio (z) = 0.02149 0.24412
#
# Static dielectric constant tensor:
#      x y z
#    x 2.008980 0.000610 0.083830 
#    y 0.000610 1.970190 -0.106730 
#    z 0.083830 -0.106730 1.938190 
# 
# From -- ./inp_files/260621.got.cif
#   From: 2010.05.17/outbox.cif.g08.bks.cpg/sg2_131_cif.got.tgz:260621.got - 2010.06.03 11:33:40.
