data_PCOD9080996
_publ_section_title
;
Structure prediction by ZEFSAII (Michael W. Deem and Ramdas Pophale) SiO2 
 PCOD9080996
Probable space group: P -1
;
_chemical_formula_sum "Si O2"
_cell_formula_units_Z 14
_cell_length_a 29.054290
_cell_length_b 11.627643
_cell_length_c 17.462919
_cell_angle_alpha 35.062863
_cell_angle_beta 20.768744
_cell_angle_gamma 24.463040
_cell_volume 844.730620
_symmetry_space_group_name_H-M "P -1"
_symmetry_group_IT_number 2
_symmetry_cell_setting 'triclinic'
loop_
_space_group_symop_operation_xyz
x,y,z
-x,-y,-z
loop_
_atom_site_type_symbol
_atom_site_label
_atom_site_fract_x
_atom_site_fract_y
_atom_site_fract_z
Si Si1 0.935631 0.373881 0.122582
Si Si2 0.517314 0.263701 0.137662
Si Si3 0.160535 0.393003 0.027856
Si Si4 0.734125 0.817112 0.477993
Si Si5 0.424210 0.382365 0.721946
Si Si6 0.446549 0.290605 0.408603
Si Si7 0.697783 0.195221 0.195725
O O1 0.772463 0.455724 0.380066
O O2 0.859124 0.521124 0.077522
O O3 0.000000 0.500000 0.000000
O O4 0.106935 0.040780 0.021756
O O5 0.348365 0.304649 0.352799
O O6 0.513568 0.274924 0.229162
O O7 0.500000 0.500000 0.000000
O O8 0.705023 0.945321 0.994099
O O9 0.953508 0.580617 0.277981
O O10 0.266521 0.449335 0.879752
O O11 0.602631 0.041392 0.628694
O O12 0.699605 0.011064 0.355543
O O13 0.500000 0.500000 0.500000
O O14 0.340064 0.556856 0.836563
O O15 0.541125 0.318630 0.311214
O O16 0.500000 0.000000 0.500000
#
# Coordination Sequence:
#
# PCOD9080996 Si02
#       7
#     2   2   2   2   2   2   2
#     4  11  18  28  50  76 102 134 169 207 260 309
#     4  11  22  35  52  78 106 137 176 215 257 312
#     4  10  19  33  52  73 107 142 170 215 262 303
#     4   9  18  33  52  75 105 139 172 213 257 310
#     4   9  18  30  47  78 110 135 171 212 260 310
#     4  12  18  33  53  73 106 137 165 211 267 305
#     4  10  19  30  51  80 105 132 171 212 256 311
#
# _framework density 16.573331
#
# number of rings (size 3 to 8) (size 9 to 14) (size 15 to 20)
#    0.000    1.714    4.286    2.571    0.000    6.857 
#    0.000    0.000    0.000    3.429    0.000    6.000 
#    0.000    0.000    0.000    0.000    0.000    0.000 
#
# Total GULP energy -78053.275226 kJ/mol
# GULP energy per Si atom -5575.233945 kJ/mol
# Density = 1.653561 g / cm^3
# Si number density = 16.573331 Si / 1000 Ang^3
#
#
#
# Elastic Constant Matrix: (Units=GPa)
#
#
# Indices 1 2 3 4 5 6 
#
# 1 122.5751 58.0869 49.8646 10.6776 -16.6966 25.4452
# 2 58.0869 67.1253 56.0088 12.1452 -7.7565 12.8056
# 3 49.8646 56.0088 92.4615 26.4941 -16.0450 5.9187
# 4 10.6776 12.1452 26.4941 34.1817 -2.6503 7.0768
# 5 -16.6966 -7.7565 -16.0450 -2.6503 29.0916 2.3858
# 6 25.4452 12.8056 5.9187 7.0768 2.3858 23.8573
#
#
#
# Elastic Compliance Matrix: (Units=1/GPa)
#
#
# Indices 1 2 3 4 5 6 
#
# 1 0.017803 -0.011052 -0.001510 0.003130 0.007905 -0.014400
# 2 -0.011052 0.042425 -0.022249 0.006553 -0.006148 -0.006794
# 3 -0.001510 -0.022249 0.030630 -0.016875 0.007722 0.010187
# 4 0.003130 0.006553 -0.016875 0.042099 -0.000691 -0.015088
# 5 0.007905 -0.006148 0.007722 -0.000691 0.042376 -0.011079
# 6 -0.014400 -0.006794 0.010187 -0.015088 -0.011079 0.063978
#
#
# Mechanical properties :
#
#
# Convention : Reuss Voigt Hill
#
# Bulk Modulus (GPa) = 47.08641 67.78695 57.43668
# Shear Modulus (GPa) = 15.82217 25.30623 20.56420
#
# Velocity S-wave (km/s) = 3.09314 3.91183 3.52632
# Velocity P-wave (km/s) = 6.42100 7.83538 7.16319
#
# Compressibility (1/GPa) = 0.02123755
#
# Stress axis : x y z
#
# Youngs Moduli (GPa) = 56.16919 23.57076 32.64766
#
# Poissons Ratio (x) = 0.26050 0.04930
# Poissons Ratio (y) = 0.62078 0.72637
# Poissons Ratio (z) = 0.08482 0.52442
#
# Static dielectric constant tensor:
#      x y z
#    x 1.565370 0.023470 0.008770 
#    y 0.023470 1.563520 0.041030 
#    z 0.008770 0.041030 1.578150 
# 
# From -- ./inp_files/257232.got.cif
#   From: 2010.05.17/outbox.cif.g08.bks.cpg/sg2_129_cif.got.tgz:257232.got - 2010.06.03 11:33:40.
