data_PCOD9080143
_publ_section_title
;
Structure prediction by ZEFSAII (Michael W. Deem and Ramdas Pophale) SiO2 
 PCOD9080143
Probable space group: P -1
;
_chemical_formula_sum "Si O2"
_cell_formula_units_Z 16
_cell_length_a 12.985496
_cell_length_b 7.838697
_cell_length_c 8.371291
_cell_angle_alpha 93.984364
_cell_angle_beta 128.661278
_cell_angle_gamma 106.469132
_cell_volume 602.483040
_symmetry_space_group_name_H-M "P -1"
_symmetry_group_IT_number 2
_symmetry_cell_setting 'triclinic'
loop_
_space_group_symop_operation_xyz
x,y,z
-x,-y,-z
loop_
_atom_site_type_symbol
_atom_site_label
_atom_site_fract_x
_atom_site_fract_y
_atom_site_fract_z
Si Si1 0.665951 0.693313 0.842436
Si Si2 0.424420 0.401763 0.754573
Si Si3 0.771779 0.898028 0.639109
Si Si4 0.120434 0.631288 0.835065
Si Si5 0.488371 0.934870 0.805079
Si Si6 0.337774 0.842817 0.268371
Si Si7 0.060068 0.000185 0.735315
Si Si8 0.793547 0.407629 0.441658
O O1 0.554628 0.482428 0.758150
O O2 0.713493 0.735298 0.708168
O O3 0.566925 0.801044 0.813484
O O4 0.810252 0.796228 0.092556
O O5 0.338006 0.179391 0.623886
O O6 0.292695 0.463501 0.605642
O O7 0.500000 0.500000 0.000000
O O8 0.931632 0.959383 0.733966
O O9 0.756189 0.061989 0.733912
O O10 0.112829 0.833849 0.804080
O O11 0.180454 0.588470 0.723607
O O12 0.952121 0.483955 0.676005
O O13 0.208038 0.638097 0.084521
O O14 0.318693 0.793550 0.609834
O O15 0.598825 0.126390 0.845598
O O16 0.500000 0.000000 0.000000
O O17 0.500000 0.000000 0.500000
O O18 0.000000 0.000000 0.500000
#
# Coordination Sequence:
#
# PCOD9080143 Si02
#       8
#     2   2   2   2   2   2   2   2
#     4  10  22  37  60  90 125 173 207 268 332 381
#     4  11  23  38  64  99 127 170 226 275 322 392
#     4  11  23  42  62  89 135 168 217 269 340 393
#     4  11  22  43  62  96 132 170 217 269 339 383
#     4  10  18  38  64  91 123 169 221 260 315 388
#     4  11  25  41  66  95 128 175 218 271 333 394
#     4  12  23  40  66  96 128 170 224 273 325 397
#     4  10  22  38  68  90 132 172 213 273 328 379
#
# _framework density 26.556761000000002
#
# number of rings (size 3 to 8) (size 9 to 14) (size 15 to 20)
#    0.000    1.250    5.000    1.500    1.750    2.000 
#    0.000    0.625    0.000    0.000    0.000    0.000 
#    0.000    0.000    0.000    0.000    0.000    0.000 
#
# Total GULP energy -89217.285265 kJ/mol
# GULP energy per Si atom -5576.080329 kJ/mol
# Density = 2.649632 g / cm^3
# Si number density = 26.556761 Si / 1000 Ang^3
#
#
#
# Elastic Constant Matrix: (Units=GPa)
#
#
# Indices 1 2 3 4 5 6 
#
# 1 193.8864 27.5516 46.1824 -1.3413 16.0177 13.9900
# 2 27.5516 64.4445 8.0158 11.9347 13.5629 5.5712
# 3 46.1824 8.0158 193.0046 28.3126 9.9591 9.6056
# 4 -1.3413 11.9347 28.3126 44.7261 14.5316 3.0950
# 5 16.0177 13.5629 9.9591 14.5316 47.3304 9.0576
# 6 13.9900 5.5712 9.6056 3.0950 9.0576 35.9940
#
#
#
# Elastic Compliance Matrix: (Units=1/GPa)
#
#
# Indices 1 2 3 4 5 6 
#
# 1 0.006120 -0.002427 -0.001569 0.002415 -0.001517 -0.001410
# 2 -0.002427 0.017967 0.000657 -0.004250 -0.002989 -0.000895
# 3 -0.001569 0.000657 0.006169 -0.004233 0.000518 -0.000904
# 4 0.002415 -0.004250 -0.004233 0.028684 -0.007571 0.000287
# 5 -0.001517 -0.002989 0.000518 -0.007571 0.025649 -0.004889
# 6 -0.001410 -0.000895 -0.000904 0.000287 -0.004889 0.029916
#
#
# Mechanical properties :
#
#
# Convention : Reuss Voigt Hill
#
# Bulk Modulus (GPa) = 42.41668 68.31503 55.36586
# Shear Modulus (GPa) = 38.74657 50.24914 44.49786
#
# Velocity S-wave (km/s) = 3.82384 4.35459 4.09782
# Velocity P-wave (km/s) = 5.95839 7.14586 6.57897
#
# Compressibility (1/GPa) = 0.02357563
#
# Stress axis : x y z
#
# Youngs Moduli (GPa) = 163.39240 55.65809 162.10817
#
# Poissons Ratio (x) = 0.13511 0.25443
# Poissons Ratio (y) = 0.39663 -0.10648
# Poissons Ratio (z) = 0.25644 -0.03656
#
# Static dielectric constant tensor:
#      x y z
#    x 1.978970 -0.073170 0.020420 
#    y -0.073170 2.292980 -0.182710 
#    z 0.020420 -0.182710 2.300240 
# 
# From -- ./inp_files/259670.got.cif
#   From: 2010.05.17/outbox.cif.g08.bks.cpg/sg2_130_cif.got.tgz:259670.got - 2010.06.03 11:33:40.
