data_PCOD9080707
_publ_section_title
;
Structure prediction by ZEFSAII (Michael W. Deem and Ramdas Pophale) SiO2 
 PCOD9080707
Probable space group: P -1
;
_chemical_formula_sum "Si O2"
_cell_formula_units_Z 14
_cell_length_a 7.756621
_cell_length_b 21.030839
_cell_length_c 9.644152
_cell_angle_alpha 36.730019
_cell_angle_beta 105.381150
_cell_angle_gamma 130.584617
_cell_volume 590.035505
_symmetry_space_group_name_H-M "P -1"
_symmetry_group_IT_number 2
_symmetry_cell_setting 'triclinic'
loop_
_space_group_symop_operation_xyz
x,y,z
-x,-y,-z
loop_
_atom_site_type_symbol
_atom_site_label
_atom_site_fract_x
_atom_site_fract_y
_atom_site_fract_z
Si Si1 0.101410 0.653771 0.678463
Si Si2 0.607338 0.458575 0.489632
Si Si3 0.836378 0.278970 0.723635
Si Si4 0.007476 0.125317 0.913649
Si Si5 0.082938 0.089129 0.506655
Si Si6 0.713255 0.043101 0.708645
Si Si7 0.500283 0.452483 0.931446
O O1 0.233624 0.695263 0.482420
O O2 0.274570 0.822627 0.502585
O O3 0.808980 0.581691 0.717194
O O4 0.000000 0.500000 0.000000
O O5 0.500000 0.500000 0.500000
O O6 0.339990 0.265938 0.742839
O O7 0.889689 0.545209 0.462073
O O8 0.668020 0.546871 0.205977
O O9 0.915390 0.194944 0.840557
O O10 0.585106 0.144398 0.008569
O O11 0.885999 0.073532 0.823748
O O12 0.892209 0.984754 0.237113
O O13 0.863516 0.075304 0.544118
O O14 0.365445 0.277140 0.213479
O O15 0.000000 0.000000 0.500000
O O16 0.500000 0.500000 0.000000
#
# Coordination Sequence:
#
# PCOD9080707 Si02
#       7
#     2   2   2   2   2   2   2
#     4  11  23  42  71 105 139 179 231 288 350 407
#     4  10  18  41  67  95 133 182 227 279 337 412
#     4  10  22  41  71 101 139 178 228 290 351 404
#     4  10  20  41  70  97 132 182 236 272 339 421
#     4  12  26  41  68 105 140 178 232 291 344 404
#     4  11  23  46  66 104 137 184 230 282 344 419
#     4  12  23  44  71 101 136 183 238 283 338 409
#
# _framework density 23.727385000000002
#
# number of rings (size 3 to 8) (size 9 to 14) (size 15 to 20)
#    0.000    1.143    5.714    3.857    4.000    0.000 
#    0.000    5.000    0.000    0.000    0.000    0.000 
#    0.000    0.000    0.000    0.000    0.000    0.000 
#
# Total GULP energy -78307.399166 kJ/mol
# GULP energy per Si atom -5593.385655 kJ/mol
# Density = 2.367338 g / cm^3
# Si number density = 23.727385 Si / 1000 Ang^3
#
#
#
# Elastic Constant Matrix: (Units=GPa)
#
#
# Indices 1 2 3 4 5 6 
#
# 1 61.3775 21.0898 12.4277 -2.3577 -4.2587 -10.7446
# 2 21.0898 102.5742 1.9535 -0.6371 -12.6875 -9.6587
# 3 12.4277 1.9535 97.7963 -5.7154 -16.6047 -1.0864
# 4 -2.3577 -0.6371 -5.7154 41.5254 12.4932 -14.5872
# 5 -4.2587 -12.6875 -16.6047 12.4932 39.0130 -6.1798
# 6 -10.7446 -9.6587 -1.0864 -14.5872 -6.1798 20.1965
#
#
#
# Elastic Compliance Matrix: (Units=1/GPa)
#
#
# Indices 1 2 3 4 5 6 
#
# 1 0.020237 -0.002702 -0.001894 0.005296 0.000965 0.013493
# 2 -0.002702 0.011431 0.001007 0.000967 0.004518 0.006164
# 3 -0.001894 0.001007 0.011373 0.000699 0.005077 0.002144
# 4 0.005296 0.000967 0.000699 0.035929 -0.005969 0.027441
# 5 0.000965 0.004518 0.005077 -0.005969 0.032646 0.008625
# 6 0.013493 0.006164 0.002144 0.027441 0.008625 0.082213
#
#
# Mechanical properties :
#
#
# Convention : Reuss Voigt Hill
#
# Bulk Modulus (GPa) = 27.88489 36.96558 32.42524
# Shear Modulus (GPa) = 23.47855 35.23210 29.35533
#
# Velocity S-wave (km/s) = 3.14906 3.85758 3.52119
# Velocity P-wave (km/s) = 4.99999 5.95436 5.49792
#
# Compressibility (1/GPa) = 0.03586171
#
# Stress axis : x y z
#
# Youngs Moduli (GPa) = 49.41441 87.48432 87.93053
#
# Poissons Ratio (x) = 0.23638 0.16657
# Poissons Ratio (y) = 0.13352 -0.08855
# Poissons Ratio (z) = 0.09361 -0.08810
#
# Static dielectric constant tensor:
#      x y z
#    x 1.940640 -0.002430 0.021880 
#    y -0.002430 1.876840 -0.009040 
#    z 0.021880 -0.009040 1.890060 
# 
# From -- ./inp_files/218682.got.cif
#   From: 2010.05.17/outbox.cif.g08.bks.cpg/sg2_110_cif.got.tgz:218682.got - 2010.06.03 11:33:40.
