data_PCOD9080048
_publ_section_title
;
Structure prediction by ZEFSAII (Michael W. Deem and Ramdas Pophale) SiO2 
 PCOD9080048
Probable space group: P -1
;
_chemical_formula_sum "Si O2"
_cell_formula_units_Z 15
_cell_length_a 17.606157
_cell_length_b 7.841032
_cell_length_c 11.050124
_cell_angle_alpha 26.660614
_cell_angle_beta 126.349476
_cell_angle_gamma 120.200612
_cell_volume 549.795404
_symmetry_space_group_name_H-M "P -1"
_symmetry_group_IT_number 2
_symmetry_cell_setting 'triclinic'
loop_
_space_group_symop_operation_xyz
x,y,z
-x,-y,-z
loop_
_atom_site_type_symbol
_atom_site_label
_atom_site_fract_x
_atom_site_fract_y
_atom_site_fract_z
Si Si1 0.969034 0.695754 0.064143
Si Si2 0.736769 0.311394 0.950365
Si Si3 0.645117 0.544848 0.314972
Si Si4 0.190926 0.721903 0.487736
Si Si5 0.586084 0.739703 0.396549
Si Si6 0.656705 0.481020 0.036181
Si Si7 0.930669 0.945388 0.286155
Si Si8 0.500000 0.500000 0.000000
O O1 0.864755 0.868215 0.820450
O O2 0.030443 0.769327 0.956130
O O3 0.991935 0.287949 0.408008
O O4 0.000000 0.000000 0.000000
O O5 0.691291 0.421529 0.969024
O O6 0.689500 0.950385 0.074471
O O7 0.846748 0.170966 0.138578
O O8 0.691816 0.634692 0.613687
O O9 0.741929 0.272850 0.571134
O O10 0.592179 0.676059 0.301841
O O11 0.579519 0.397120 0.245426
O O12 0.255131 0.617393 0.730765
O O13 0.118125 0.395660 0.613015
O O14 0.500000 0.500000 0.500000
O O15 0.571350 0.168634 0.164994
O O16 0.584675 0.799996 0.822452
#
# Coordination Sequence:
#
# PCOD9080048 Si02
#       8
#     2   2   2   2   2   2   2   1
#     4  10  20  38  65  99 127 167 213 265 320 381
#     4  10  22  39  60  86 122 167 209 253 314 386
#     4   9  20  37  61  83 121 158 202 261 308 383
#     4   9  19  39  59  92 123 162 205 268 319 367
#     4  11  22  38  61  88 117 168 210 250 316 382
#     4  10  22  40  59  87 126 161 205 266 317 379
#     4  10  22  39  69  94 127 172 214 263 316 383
#     4  10  18  38  62  84 118 154 202 256 328 362
#
# _framework density 27.282878
#
# number of rings (size 3 to 8) (size 9 to 14) (size 15 to 20)
#    0.000    2.133    0.000    3.200    7.467    2.133 
#    7.200   14.667    0.000    0.000    0.000    0.000 
#    0.000    0.000    0.000    0.000    0.000    0.000 
#
# Total GULP energy -83715.261099 kJ/mol
# GULP energy per Si atom -5581.017407 kJ/mol
# Density = 2.722078 g / cm^3
# Si number density = 27.282878 Si / 1000 Ang^3
#
#
#
# Elastic Constant Matrix: (Units=GPa)
#
#
# Indices 1 2 3 4 5 6 
#
# 1 146.4269 16.8479 15.7192 15.5760 4.2812 -24.5869
# 2 16.8479 133.7077 6.7340 4.1047 -1.4882 -31.0132
# 3 15.7192 6.7340 84.2161 17.3151 17.3727 -9.6956
# 4 15.5760 4.1047 17.3151 41.5812 -4.6208 4.8456
# 5 4.2812 -1.4882 17.3727 -4.6208 46.6911 6.9294
# 6 -24.5869 -31.0132 -9.6956 4.8456 6.9294 36.2980
#
#
#
# Elastic Compliance Matrix: (Units=1/GPa)
#
#
# Indices 1 2 3 4 5 6 
#
# 1 0.008567 0.000828 0.000796 -0.004842 -0.002705 0.007886
# 2 0.000828 0.009711 0.001309 -0.003211 -0.002060 0.010029
# 3 0.000796 0.001309 0.016214 -0.009122 -0.008271 0.008785
# 4 -0.004842 -0.003211 -0.009122 0.032691 0.009133 -0.014568
# 5 -0.002705 -0.002060 -0.008271 0.009133 0.027399 -0.012251
# 6 0.007886 0.010029 0.008785 -0.014568 -0.012251 0.048090
#
#
# Mechanical properties :
#
#
# Convention : Reuss Voigt Hill
#
# Bulk Modulus (GPa) = 24.77862 49.21697 36.99780
# Shear Modulus (GPa) = 33.27593 46.58404 39.92999
#
# Velocity S-wave (km/s) = 3.49616 4.13661 3.82979
# Velocity P-wave (km/s) = 5.03977 6.39484 5.75732
#
# Compressibility (1/GPa) = 0.04035737
#
# Stress axis : x y z
#
# Youngs Moduli (GPa) = 116.72897 102.97957 61.67495
#
# Poissons Ratio (x) = -0.08527 -0.04910
# Poissons Ratio (y) = -0.09666 -0.08072
# Poissons Ratio (z) = -0.09293 -0.13478
#
# Static dielectric constant tensor:
#      x y z
#    x 2.480040 -0.038170 -0.018150 
#    y -0.038170 2.285020 -0.257070 
#    z -0.018150 -0.257070 2.470720 
# 
# From -- ./inp_files/36397.got.cif
#   From: 2010.05.17/outbox.cif.g08.bks.cpg/sg2_19_cif.got.tgz:36397.got - 2010.06.03 11:33:40.
