data_PCOD9080348
_publ_section_title
;
Structure prediction by ZEFSAII (Michael W. Deem and Ramdas Pophale) SiO2 
 PCOD9080348
Probable space group: P -1
;
_chemical_formula_sum "Si O2"
_cell_formula_units_Z 16
_cell_length_a 16.305128
_cell_length_b 11.831270
_cell_length_c 8.481955
_cell_angle_alpha 62.273492
_cell_angle_beta 106.913094
_cell_angle_gamma 150.713043
_cell_volume 683.142005
_symmetry_space_group_name_H-M "P -1"
_symmetry_group_IT_number 2
_symmetry_cell_setting 'triclinic'
loop_
_space_group_symop_operation_xyz
x,y,z
-x,-y,-z
loop_
_atom_site_type_symbol
_atom_site_label
_atom_site_fract_x
_atom_site_fract_y
_atom_site_fract_z
Si Si1 0.663446 0.717924 0.330624
Si Si2 0.436013 0.282499 0.036244
Si Si3 0.444201 0.688427 0.507927
Si Si4 0.668272 0.254247 0.825041
Si Si5 0.468584 0.849260 0.747230
Si Si6 0.856294 0.433951 0.115467
Si Si7 0.843388 0.126246 0.374657
Si Si8 0.076552 0.738482 0.337401
O O1 0.500000 0.500000 0.500000
O O2 0.669448 0.585166 0.345129
O O3 0.826940 0.985303 0.341699
O O4 0.623584 0.767691 0.140551
O O5 0.570982 0.340629 0.074631
O O6 0.278418 0.024135 0.222141
O O7 0.500000 0.500000 0.000000
O O8 0.363181 0.650749 0.333976
O O9 0.451258 0.795580 0.588415
O O10 0.641223 0.897463 0.453746
O O11 0.648918 0.130622 0.747324
O O12 0.825145 0.443501 0.913466
O O13 0.500000 0.000000 0.000000
O O14 0.325951 0.767421 0.770826
O O15 0.892652 0.329357 0.201788
O O16 0.986954 0.660029 0.172813
O O17 0.944109 0.220366 0.530356
O O18 0.000000 0.500000 0.500000
#
# Coordination Sequence:
#
# PCOD9080348 Si02
#       8
#     2   2   2   2   2   2   2   2
#     4  10  22  35  61  94 127 163 221 273 318 374
#     4  12  22  41  68  97 129 171 227 268 316 396
#     4  11  19  35  59  95 123 163 219 273 313 375
#     4  10  20  33  57  88 129 162 212 264 323 378
#     4  11  21  35  65  97 122 166 223 273 316 385
#     4  10  22  39  60  92 130 168 209 267 338 384
#     4  10  18  39  60  88 126 170 210 269 323 381
#     4  10  23  43  66  94 139 172 214 269 335 392
#
# _framework density 23.421192000000001
#
# number of rings (size 3 to 8) (size 9 to 14) (size 15 to 20)
#    0.000    1.500    5.000    1.875    5.250    0.000 
#    0.000    7.500    0.000    1.500    0.000    0.000 
#    0.000    0.000    0.000    0.000    0.000    0.000 
#
# Total GULP energy -89206.399316 kJ/mol
# GULP energy per Si atom -5575.399957 kJ/mol
# Density = 2.336788 g / cm^3
# Si number density = 23.421192 Si / 1000 Ang^3
#
#
#
# Elastic Constant Matrix: (Units=GPa)
#
#
# Indices 1 2 3 4 5 6 
#
# 1 60.4565 27.7593 18.8219 -3.9770 4.0063 -7.3350
# 2 27.7593 126.1348 43.5889 34.1477 -0.8419 -13.8117
# 3 18.8219 43.5889 137.7024 29.0973 15.3035 2.6183
# 4 -3.9770 34.1477 29.0973 55.9529 4.5371 -3.1295
# 5 4.0063 -0.8419 15.3035 4.5371 27.9193 2.2241
# 6 -7.3350 -13.8117 2.6183 -3.1295 2.2241 29.6869
#
#
#
# Elastic Compliance Matrix: (Units=1/GPa)
#
#
# Indices 1 2 3 4 5 6 
#
# 1 0.020641 -0.005040 -0.002252 0.006188 -0.003191 0.003845
# 2 -0.005040 0.011968 -0.002107 -0.006611 0.003028 0.003585
# 3 -0.002252 -0.002107 0.009512 -0.003619 -0.004171 -0.002445
# 4 0.006188 -0.006611 -0.003619 0.024580 -0.003226 0.001605
# 5 -0.003191 0.003028 -0.004171 -0.003226 0.039361 -0.002301
# 6 0.003845 0.003585 -0.002445 0.001605 -0.002301 0.036860
#
#
# Mechanical properties :
#
#
# Convention : Reuss Voigt Hill
#
# Bulk Modulus (GPa) = 42.87663 56.07043 49.47353
# Shear Modulus (GPa) = 29.49961 38.32004 33.90983
#
# Velocity S-wave (km/s) = 3.55283 4.04929 3.80916
# Velocity P-wave (km/s) = 5.93099 6.77159 6.36518
#
# Compressibility (1/GPa) = 0.02332273
#
# Stress axis : x y z
#
# Youngs Moduli (GPa) = 48.44703 83.55625 105.13480
#
# Poissons Ratio (x) = 0.42111 0.23676
# Poissons Ratio (y) = 0.24417 0.22154
# Poissons Ratio (z) = 0.10910 0.17607
#
# Static dielectric constant tensor:
#      x y z
#    x 1.951560 0.029720 -0.054000 
#    y 0.029720 1.999120 0.003260 
#    z -0.054000 0.003260 1.947800 
# 
# From -- ./inp_files/331744.got.cif
#   From: 2010.05.17/outbox.cif.g08.bks.cpg/sg2_166_cif.got.tgz:331744.got - 2010.06.03 11:33:40.
