data_PCOD9080294
_publ_section_title
;
Structure prediction by ZEFSAII (Michael W. Deem and Ramdas Pophale) SiO2 
 PCOD9080294
Probable space group: P -1
;
_chemical_formula_sum "Si O2"
_cell_formula_units_Z 14
_cell_length_a 8.980544
_cell_length_b 18.081998
_cell_length_c 16.004558
_cell_angle_alpha 157.262880
_cell_angle_beta 40.862284
_cell_angle_gamma 139.875475
_cell_volume 633.597865
_symmetry_space_group_name_H-M "P -1"
_symmetry_group_IT_number 2
_symmetry_cell_setting 'triclinic'
loop_
_space_group_symop_operation_xyz
x,y,z
-x,-y,-z
loop_
_atom_site_type_symbol
_atom_site_label
_atom_site_fract_x
_atom_site_fract_y
_atom_site_fract_z
Si Si1 0.180011 0.935867 0.658528
Si Si2 0.417266 0.927779 0.868124
Si Si3 0.057587 0.304778 0.808535
Si Si4 0.157600 0.192237 0.183543
Si Si5 0.100317 0.032760 0.358152
Si Si6 0.123463 0.316649 0.160179
Si Si7 0.546993 0.376435 0.771013
O O1 0.386656 0.827426 0.446447
O O2 0.980302 0.802253 0.666441
O O3 0.055169 0.971671 0.663129
O O4 0.246614 0.146740 0.897811
O O5 0.627457 0.860199 0.665799
O O6 0.159075 0.774461 0.822330
O O7 0.500000 0.000000 0.000000
O O8 0.386120 0.122563 0.036559
O O9 0.011427 0.153800 0.593451
O O10 0.325567 0.345558 0.770674
O O11 0.918410 0.185084 0.822441
O O12 0.000000 0.500000 0.000000
O O13 0.185352 0.359331 0.276134
O O14 0.000000 0.000000 0.000000
O O15 0.228954 0.496267 0.242231
O O16 0.500000 0.500000 0.000000
#
# Coordination Sequence:
#
# PCOD9080294 Si02
#       7
#     2   2   2   2   2   2   2
#     4  10  21  43  66  95 126 172 215 260 330 379
#     4  10  18  38  69  97 124 170 213 261 327 378
#     4  11  28  45  64  97 128 172 222 266 319 385
#     4   8  18  35  61  95 126 157 209 257 318 382
#     4  11  23  44  70  91 132 171 215 268 322 382
#     4  10  23  41  66  99 132 166 211 269 321 385
#     4  12  27  43  65  94 133 173 219 266 316 389
#
# _framework density 22.096036000000002
#
# number of rings (size 3 to 8) (size 9 to 14) (size 15 to 20)
#    0.000    2.000    2.857    1.714    8.000    4.000 
#    0.000    0.714    0.000    0.000    0.000    0.000 
#    0.000    0.000    0.000    0.000    0.000    0.000 
#
# Total GULP energy -78120.875111 kJ/mol
# GULP energy per Si atom -5580.062508 kJ/mol
# Density = 2.204574 g / cm^3
# Si number density = 22.096036 Si / 1000 Ang^3
#
#
#
# Elastic Constant Matrix: (Units=GPa)
#
#
# Indices 1 2 3 4 5 6 
#
# 1 162.7009 41.4287 39.8913 -7.0717 -8.3627 -25.5513
# 2 41.4287 104.9923 12.6894 1.1642 -9.7170 -12.5930
# 3 39.8913 12.6894 77.2758 1.1146 -25.0684 -12.8280
# 4 -7.0717 1.1642 1.1146 22.4668 -3.1844 -0.7362
# 5 -8.3627 -9.7170 -25.0684 -3.1844 37.2545 -8.0443
# 6 -25.5513 -12.5930 -12.8280 -0.7362 -8.0443 38.8649
#
#
#
# Elastic Compliance Matrix: (Units=1/GPa)
#
#
# Indices 1 2 3 4 5 6 
#
# 1 0.008286 -0.002466 -0.003304 0.003024 0.000034 0.003623
# 2 -0.002466 0.011084 0.001202 -0.000775 0.003756 0.003129
# 3 -0.003304 0.001202 0.020811 0.000318 0.015390 0.008278
# 4 0.003024 -0.000775 0.000318 0.046391 0.005488 0.003856
# 5 0.000034 0.003756 0.015390 0.005488 0.041915 0.015099
# 6 0.003623 0.003129 0.008278 0.003856 0.015099 0.035056
#
#
# Mechanical properties :
#
#
# Convention : Reuss Voigt Hill
#
# Bulk Modulus (GPa) = 32.21086 59.22088 45.71587
# Shear Modulus (GPa) = 27.31836 36.44789 31.88312
#
# Velocity S-wave (km/s) = 3.51999 4.06584 3.80272
# Velocity P-wave (km/s) = 5.57940 6.99293 6.32577
#
# Compressibility (1/GPa) = 0.03104543
#
# Stress axis : x y z
#
# Youngs Moduli (GPa) = 120.68076 90.22084 48.05194
#
# Poissons Ratio (x) = 0.22251 0.15875
# Poissons Ratio (y) = 0.29763 -0.05776
# Poissons Ratio (z) = 0.39869 -0.10845
#
# Static dielectric constant tensor:
#      x y z
#    x 1.799350 -0.049000 -0.040380 
#    y -0.049000 1.894370 0.021700 
#    z -0.040380 0.021700 1.865390 
# 
# From -- ./inp_files/562703.got.cif
#   From: 2010.05.17/outbox.cif.g08.bks.cpg/sg2_282_cif.got.tgz:562703.got - 2010.06.03 11:33:40.
