data_PCOD9080296
_publ_section_title
;
Structure prediction by ZEFSAII (Michael W. Deem and Ramdas Pophale) SiO2 
 PCOD9080296
Probable space group: P -1
;
_chemical_formula_sum "Si O2"
_cell_formula_units_Z 16
_cell_length_a 14.739956
_cell_length_b 10.760561
_cell_length_c 7.928191
_cell_angle_alpha 119.011536
_cell_angle_beta 48.307152
_cell_angle_gamma 138.064691
_cell_volume 627.401361
_symmetry_space_group_name_H-M "P -1"
_symmetry_group_IT_number 2
_symmetry_cell_setting 'triclinic'
loop_
_space_group_symop_operation_xyz
x,y,z
-x,-y,-z
loop_
_atom_site_type_symbol
_atom_site_label
_atom_site_fract_x
_atom_site_fract_y
_atom_site_fract_z
Si Si1 0.853381 0.336051 0.689497
Si Si2 0.569071 0.746047 0.264209
Si Si3 0.875565 0.066843 0.313342
Si Si4 0.498479 0.840757 0.064277
Si Si5 0.912963 0.846328 0.365153
Si Si6 0.014586 0.659335 0.928344
Si Si7 0.369817 0.831411 0.681025
Si Si8 0.547484 0.602563 0.685476
O O1 0.845417 0.159747 0.560957
O O2 0.688802 0.270276 0.773731
O O3 0.000000 0.500000 0.500000
O O4 0.895244 0.441260 0.886206
O O5 0.564078 0.798412 0.114266
O O6 0.416933 0.703294 0.518057
O O7 0.559006 0.568895 0.167314
O O8 0.719970 0.915489 0.293990
O O9 0.990771 0.237872 0.157405
O O10 0.930734 0.961585 0.255504
O O11 0.588694 0.058362 0.121485
O O12 0.526383 0.754955 0.820417
O O13 0.730676 0.707962 0.552299
O O14 0.000000 0.000000 0.500000
O O15 0.971816 0.731803 0.181197
O O16 0.193228 0.734997 0.775935
O O17 0.500000 0.000000 0.500000
O O18 0.500000 0.500000 0.500000
#
# Coordination Sequence:
#
# PCOD9080296 Si02
#       8
#     2   2   2   2   2   2   2   2
#     4  10  21  37  66 105 128 153 208 279 328 367
#     4  11  21  41  71  97 123 163 222 268 311 375
#     4  11  21  43  69  96 124 167 214 269 319 378
#     4  11  21  40  68  96 125 167 218 261 315 381
#     4  12  28  45  62  92 138 176 210 260 321 382
#     4  11  22  43  69  96 130 164 211 268 324 379
#     4  10  18  38  69  99 122 157 213 273 317 370
#     4  12  26  44  61  92 136 176 214 257 311 379
#
# _framework density 25.502019000000001
#
# number of rings (size 3 to 8) (size 9 to 14) (size 15 to 20)
#    0.000    1.000    5.000    4.500    0.000    3.000 
#    0.000    7.500    0.000    0.000    0.000    0.000 
#    0.000    0.000    0.000    0.000    0.000    0.000 
#
# Total GULP energy -89585.558289 kJ/mol
# GULP energy per Si atom -5599.097393 kJ/mol
# Density = 2.544398 g / cm^3
# Si number density = 25.502019 Si / 1000 Ang^3
#
#
#
# Elastic Constant Matrix: (Units=GPa)
#
#
# Indices 1 2 3 4 5 6 
#
# 1 101.9706 41.0959 21.3917 10.5875 0.8189 13.1425
# 2 41.0959 146.4371 33.5568 30.8681 -1.0151 19.8363
# 3 21.3917 33.5568 124.7019 47.9338 -8.4833 15.6799
# 4 10.5875 30.8681 47.9338 48.1806 1.5632 8.2968
# 5 0.8189 -1.0151 -8.4833 1.5632 35.2075 4.1798
# 6 13.1425 19.8363 15.6799 8.2968 4.1798 60.6412
#
#
#
# Elastic Compliance Matrix: (Units=1/GPa)
#
#
# Indices 1 2 3 4 5 6 
#
# 1 0.011338 -0.002907 -0.001450 0.001045 -0.000597 -0.001233
# 2 -0.002907 0.008886 0.000357 -0.005140 0.000843 -0.001724
# 3 -0.001450 0.000357 0.013902 -0.013562 0.004213 -0.001832
# 4 0.001045 -0.005140 -0.013562 0.037445 -0.005126 0.000192
# 5 -0.000597 0.000843 0.004213 -0.005126 0.029993 -0.002602
# 6 -0.001233 -0.001724 -0.001832 0.000192 -0.002602 0.017948
#
#
# Mechanical properties :
#
#
# Convention : Reuss Voigt Hill
#
# Bulk Modulus (GPa) = 38.27577 62.79981 50.53779
# Shear Modulus (GPa) = 36.70566 47.27686 41.99126
#
# Velocity S-wave (km/s) = 3.79796 4.31030 4.06222
# Velocity P-wave (km/s) = 5.85441 7.03211 6.47011
#
# Compressibility (1/GPa) = 0.02612619
#
# Stress axis : x y z
#
# Youngs Moduli (GPa) = 88.20137 112.54141 71.93318
#
# Poissons Ratio (x) = 0.32715 0.10430
# Poissons Ratio (y) = 0.25640 -0.02571
# Poissons Ratio (z) = 0.12789 -0.04023
#
# Static dielectric constant tensor:
#      x y z
#    x 2.012090 -0.053410 0.077720 
#    y -0.053410 1.990320 -0.007080 
#    z 0.077720 -0.007080 2.144820 
# 
# From -- ./inp_files/186612.got.cif
#   From: 2010.05.17/outbox.cif.g08.bks.cpg/sg2_94_cif.got.tgz:186612.got - 2010.06.03 11:33:40.
