data_PCOD9080477
_publ_section_title
;
Structure prediction by ZEFSAII (Michael W. Deem and Ramdas Pophale) SiO2 
 PCOD9080477
Probable space group: P -1
;
_chemical_formula_sum "Si O2"
_cell_formula_units_Z 12
_cell_length_a 10.927001
_cell_length_b 11.393676
_cell_length_c 7.245405
_cell_angle_alpha 87.778098
_cell_angle_beta 90.385882
_cell_angle_gamma 145.118355
_cell_volume 514.979371
_symmetry_space_group_name_H-M "P -1"
_symmetry_group_IT_number 2
_symmetry_cell_setting 'triclinic'
loop_
_space_group_symop_operation_xyz
x,y,z
-x,-y,-z
loop_
_atom_site_type_symbol
_atom_site_label
_atom_site_fract_x
_atom_site_fract_y
_atom_site_fract_z
Si Si1 0.294133 0.252897 0.039177
Si Si2 0.492868 0.113114 0.611558
Si Si3 0.493118 0.367400 0.405087
Si Si4 0.895111 0.685123 0.126314
Si Si5 0.787698 0.388699 0.922907
Si Si6 0.332839 0.020066 0.985586
O O1 0.306296 0.235145 0.257519
O O2 0.333984 0.160996 0.948991
O O3 0.500000 0.500000 0.000000
O O4 0.112309 0.186292 0.944518
O O5 0.457155 0.212764 0.511436
O O6 0.714618 0.303736 0.720267
O O7 0.427667 0.820821 0.956113
O O8 0.500000 0.000000 0.500000
O O9 0.500000 0.500000 0.500000
O O10 0.726042 0.535913 0.296555
O O11 0.143014 0.843023 0.135134
O O12 0.814328 0.546226 0.959103
O O13 0.685395 0.041740 0.218500
O O14 0.000000 0.500000 0.000000
#
# Coordination Sequence:
#
# PCOD9080477 Si02
#       6
#     2   2   2   2   2   2
#     4  10  18  39  67  98 140 184 234 288 359 438
#     4  10  23  45  70 103 147 184 239 305 357 417
#     4  11  21  40  71 103 143 183 233 304 366 411
#     4  11  22  41  71 101 137 192 238 290 355 441
#     4  10  23  45  70  94 137 196 243 280 353 433
#     4  10  22  43  70  97 137 188 252 277 351 441
#
# _framework density 23.301905000000001
#
# number of rings (size 3 to 8) (size 9 to 14) (size 15 to 20)
#    1.000    0.667    3.333    3.500    0.000    3.333 
#    0.000   10.000    0.000    1.000    0.000    0.000 
#    0.000    0.000    0.000    0.000    0.000    0.000 
#
# Total GULP energy -66837.837967 kJ/mol
# GULP energy per Si atom -5569.819831 kJ/mol
# Density = 2.324887 g / cm^3
# Si number density = 23.301905 Si / 1000 Ang^3
#
#
#
# Elastic Constant Matrix: (Units=GPa)
#
#
# Indices 1 2 3 4 5 6 
#
# 1 123.5394 27.6809 53.3460 -6.1727 -0.3838 1.9602
# 2 27.6809 88.8948 28.8279 0.9998 -14.1042 -40.5968
# 3 53.3460 28.8279 84.7244 5.8685 0.7846 -25.7509
# 4 -6.1727 0.9998 5.8685 49.7132 -12.0018 -6.8267
# 5 -0.3838 -14.1042 0.7846 -12.0018 47.5675 -0.6800
# 6 1.9602 -40.5968 -25.7509 -6.8267 -0.6800 74.7687
#
#
#
# Elastic Compliance Matrix: (Units=1/GPa)
#
#
# Indices 1 2 3 4 5 6 
#
# 1 0.012716 -0.003615 -0.008431 0.001850 -0.000435 -0.005035
# 2 -0.003615 0.018158 -0.001122 0.002127 0.006050 0.009817
# 3 -0.008431 -0.001122 0.019548 -0.002823 -0.001349 0.006074
# 4 0.001850 0.002127 -0.002823 0.022489 0.006399 0.002246
# 5 -0.000435 0.006050 -0.001349 0.006399 0.024502 0.003639
# 6 -0.005035 0.009817 0.006074 0.002246 0.003639 0.021167
#
#
# Mechanical properties :
#
#
# Convention : Reuss Voigt Hill
#
# Bulk Modulus (GPa) = 41.51821 57.42979 49.47400
# Shear Modulus (GPa) = 32.69185 46.89678 39.79432
#
# Velocity S-wave (km/s) = 3.74969 4.49104 4.13700
# Velocity P-wave (km/s) = 6.05005 7.18276 6.64060
#
# Compressibility (1/GPa) = 0.02408582
#
# Stress axis : x y z
#
# Youngs Moduli (GPa) = 78.64008 55.07258 51.15742
#
# Poissons Ratio (x) = 0.19907 0.43131
# Poissons Ratio (y) = 0.28426 0.05740
# Poissons Ratio (z) = 0.66302 0.06179
#
# Static dielectric constant tensor:
#      x y z
#    x 2.016970 0.013600 0.003780 
#    y 0.013600 1.983620 -0.005260 
#    z 0.003780 -0.005260 1.892060 
# 
# From -- ./inp_files/238552.got.cif
#   From: 2010.05.17/outbox.cif.g08.bks.cpg/sg2_120_cif.got.tgz:238552.got - 2010.06.03 11:33:40.
