data_PCOD9080881
_publ_section_title
;
Structure prediction by ZEFSAII (Michael W. Deem and Ramdas Pophale) SiO2 
 PCOD9080881
Probable space group: P -1
;
_chemical_formula_sum "Si O2"
_cell_formula_units_Z 14
_cell_length_a 7.350421
_cell_length_b 14.955799
_cell_length_c 8.335799
_cell_angle_alpha 69.268701
_cell_angle_beta 110.482747
_cell_angle_gamma 143.639621
_cell_volume 504.613836
_symmetry_space_group_name_H-M "P -1"
_symmetry_group_IT_number 2
_symmetry_cell_setting 'triclinic'
loop_
_space_group_symop_operation_xyz
x,y,z
-x,-y,-z
loop_
_atom_site_type_symbol
_atom_site_label
_atom_site_fract_x
_atom_site_fract_y
_atom_site_fract_z
Si Si1 0.151688 0.040418 0.273031
Si Si2 0.772424 0.284446 0.436074
Si Si3 0.494949 0.457775 0.241568
Si Si4 0.057063 0.869616 0.654816
Si Si5 0.990954 0.202295 0.758140
Si Si6 0.146567 0.757457 0.979608
Si Si7 0.868149 0.410534 0.718393
O O1 0.984487 0.074616 0.241234
O O2 0.488338 0.797228 0.723062
O O3 0.151022 0.975146 0.476234
O O4 0.017765 0.914710 0.185238
O O5 0.076825 0.455635 0.356201
O O6 0.829087 0.197318 0.563175
O O7 0.702320 0.308601 0.571235
O O8 0.270465 0.305980 0.378404
O O9 0.669222 0.619829 0.249023
O O10 0.223849 0.382755 0.082014
O O11 0.216761 0.499686 0.745332
O O12 0.262197 0.862550 0.796316
O O13 0.829560 0.176533 0.887925
O O14 0.253278 0.691480 0.098398
#
# Coordination Sequence:
#
# PCOD9080881 Si02
#       7
#     2   2   2   2   2   2   2
#     4  11  20  32  46  75 103 125 150 200 241 287
#     4   9  17  29  47  73  97 122 157 201 231 276
#     4   8  15  31  50  70  93 123 161 194 227 284
#     4   9  20  33  50  66 102 131 153 186 250 289
#     4  10  19  29  52  76  94 121 165 199 237 264
#     4   8  16  32  50  73  92 125 162 196 233 280
#     4   9  14  27  53  72  85 124 169 194 227 275
#
# _framework density 27.743988999999999
#
# number of rings (size 3 to 8) (size 9 to 14) (size 15 to 20)
#    0.857    2.286    1.429    2.143    0.000    1.143 
#    0.000    2.857    0.000    0.857    0.000    0.000 
#    0.000    2.571    0.000    0.000    0.000    0.000 
#
# Total GULP energy -78145.133921 kJ/mol
# GULP energy per Si atom -5581.795280 kJ/mol
# Density = 2.768084 g / cm^3
# Si number density = 27.743989 Si / 1000 Ang^3
#
#
#
# Elastic Constant Matrix: (Units=GPa)
#
#
# Indices 1 2 3 4 5 6 
#
# 1 48.8516 13.8832 3.2886 9.1359 6.5156 -3.4903
# 2 13.8832 149.8912 -14.0414 2.2403 5.9072 -1.3875
# 3 3.2886 -14.0414 98.8365 -29.5566 10.4141 -8.7061
# 4 9.1359 2.2403 -29.5566 35.9637 -4.0044 14.9412
# 5 6.5156 5.9072 10.4141 -4.0044 27.2564 -2.6837
# 6 -3.4903 -1.3875 -8.7061 14.9412 -2.6837 42.8963
#
#
#
# Elastic Compliance Matrix: (Units=1/GPa)
#
#
# Indices 1 2 3 4 5 6 
#
# 1 0.024592 -0.002192 -0.003657 -0.011759 -0.005246 0.004955
# 2 -0.002192 0.007061 0.001620 0.001365 -0.001443 -0.000187
# 3 -0.003657 0.001620 0.014629 0.013371 -0.003313 -0.002141
# 4 -0.011759 0.001365 0.013371 0.048179 0.003028 -0.014791
# 5 -0.005246 -0.001443 -0.003313 0.003028 0.039996 0.000302
# 6 0.004955 -0.000187 -0.002141 -0.014791 0.000302 0.028445
#
#
# Mechanical properties :
#
#
# Convention : Reuss Voigt Hill
#
# Bulk Modulus (GPa) = 26.43829 33.76000 30.09914
# Shear Modulus (GPa) = 27.17881 40.85320 34.01601
#
# Velocity S-wave (km/s) = 3.13330 3.84149 3.50532
# Velocity P-wave (km/s) = 4.75817 5.64543 5.22068
#
# Compressibility (1/GPa) = 0.03782393
#
# Stress axis : x y z
#
# Youngs Moduli (GPa) = 40.66348 141.62267 68.35968
#
# Poissons Ratio (x) = 0.31043 0.24998
# Poissons Ratio (y) = 0.08913 -0.11074
# Poissons Ratio (z) = 0.14870 -0.22942
#
# Static dielectric constant tensor:
#      x y z
#    x 2.182910 0.013020 -0.104300 
#    y 0.013020 2.222390 -0.041720 
#    z -0.104300 -0.041720 2.255590 
# 
# From -- ./inp_files/264741.got.cif
#   From: 2010.05.17/outbox.cif.g08.bks.cpg/sg2_133_cif.got.tgz:264741.got - 2010.06.03 11:33:40.
