data_PCOD9080523
_publ_section_title
;
Structure prediction by ZEFSAII (Michael W. Deem and Ramdas Pophale) SiO2 
 PCOD9080523
Probable space group: P -1
;
_chemical_formula_sum "Si O2"
_cell_formula_units_Z 14
_cell_length_a 16.406832
_cell_length_b 12.451054
_cell_length_c 9.126273
_cell_angle_alpha 131.153515
_cell_angle_beta 57.743271
_cell_angle_gamma 154.598234
_cell_volume 591.412189
_symmetry_space_group_name_H-M "P -1"
_symmetry_group_IT_number 2
_symmetry_cell_setting 'triclinic'
loop_
_space_group_symop_operation_xyz
x,y,z
-x,-y,-z
loop_
_atom_site_type_symbol
_atom_site_label
_atom_site_fract_x
_atom_site_fract_y
_atom_site_fract_z
Si Si1 0.104403 0.800282 0.762435
Si Si2 0.763597 0.553980 0.913555
Si Si3 0.337379 0.347955 0.130984
Si Si4 0.620580 0.090023 0.329231
Si Si5 0.682651 0.884669 0.468780
Si Si6 0.460411 0.820676 0.766736
Si Si7 0.180472 0.228924 0.641781
O O1 0.186512 0.750157 0.675565
O O2 0.883410 0.563967 0.776578
O O3 0.187322 0.938865 0.644185
O O4 0.202849 0.038506 0.995796
O O5 0.767599 0.658855 0.860110
O O6 0.539556 0.227390 0.863778
O O7 0.847454 0.748549 0.145245
O O8 0.463891 0.564592 0.338244
O O9 0.500000 0.500000 0.000000
O O10 0.652137 0.254223 0.329529
O O11 0.500000 0.000000 0.500000
O O12 0.657006 0.002151 0.679170
O O13 0.752726 0.847893 0.471180
O O14 0.339943 0.541588 0.707307
O O15 0.500000 0.000000 0.000000
O O16 0.000000 0.000000 0.500000
#
# Coordination Sequence:
#
# PCOD9080523 Si02
#       7
#     2   2   2   2   2   2   2
#     4  11  23  39  75 112 141 184 244 322 363 425
#     4  12  23  43  72 114 146 185 252 309 369 438
#     4  10  18  39  73 104 140 180 244 311 359 420
#     4  12  24  48  71 104 149 197 246 299 381 442
#     4  11  23  46  73 106 141 199 254 294 376 436
#     4  12  27  48  74 100 152 204 243 300 375 456
#     4  12  28  47  70 107 151 199 250 300 366 456
#
# _framework density 23.672152000000001
#
# number of rings (size 3 to 8) (size 9 to 14) (size 15 to 20)
#    0.000    0.571    8.571    0.857    2.000    2.857 
#    2.571    1.429    0.000    0.000    0.000    0.000 
#    0.000    0.000    0.000    0.000    0.000    0.000 
#
# Total GULP energy -78341.227326 kJ/mol
# GULP energy per Si atom -5595.801952 kJ/mol
# Density = 2.361827 g / cm^3
# Si number density = 23.672152 Si / 1000 Ang^3
#
#
#
# Elastic Constant Matrix: (Units=GPa)
#
#
# Indices 1 2 3 4 5 6 
#
# 1 228.1484 32.8495 41.7026 -19.6407 -9.6171 11.2174
# 2 32.8495 52.9238 7.7193 -3.2413 -3.1153 10.2792
# 3 41.7026 7.7193 126.6886 -2.9806 -2.3448 18.0912
# 4 -19.6407 -3.2413 -2.9806 26.8801 8.2817 -2.2463
# 5 -9.6171 -3.1153 -2.3448 8.2817 42.6906 -4.3854
# 6 11.2174 10.2792 18.0912 -2.2463 -4.3854 42.1618
#
#
#
# Elastic Compliance Matrix: (Units=1/GPa)
#
#
# Indices 1 2 3 4 5 6 
#
# 1 0.005374 -0.002920 -0.001528 0.003330 0.000282 0.000145
# 2 -0.002920 0.021576 0.000307 -0.000024 0.000469 -0.004568
# 3 -0.001528 0.000307 0.008868 -0.000350 -0.000127 -0.003505
# 4 0.003330 -0.000024 -0.000350 0.041913 -0.007325 0.000741
# 5 0.000282 0.000469 -0.000127 -0.007325 0.025151 0.002091
# 6 0.000145 -0.004568 -0.003505 0.000741 0.002091 0.026554
#
#
# Mechanical properties :
#
#
# Convention : Reuss Voigt Hill
#
# Bulk Modulus (GPa) = 36.31738 63.58929 49.95333
# Shear Modulus (GPa) = 34.03715 44.04579 39.04147
#
# Velocity S-wave (km/s) = 3.79602 4.31821 4.06551
# Velocity P-wave (km/s) = 5.88117 7.19607 6.57159
#
# Compressibility (1/GPa) = 0.02753503
#
# Stress axis : x y z
#
# Youngs Moduli (GPa) = 186.06514 46.34712 112.76909
#
# Poissons Ratio (x) = 0.13536 0.17234
# Poissons Ratio (y) = 0.54340 -0.03463
# Poissons Ratio (z) = 0.28436 -0.01423
#
# Static dielectric constant tensor:
#      x y z
#    x 1.883430 -0.008640 0.012230 
#    y -0.008640 1.966750 0.019930 
#    z 0.012230 0.019930 1.969360 
# 
# From -- ./inp_files/308488.got.cif
#   From: 2010.05.17/outbox.cif.g08.bks.cpg/sg2_155_cif.got.tgz:308488.got - 2010.06.03 11:33:40.
