data_PCOD9080810
_publ_section_title
;
Structure prediction by ZEFSAII (Michael W. Deem and Ramdas Pophale) SiO2 
 PCOD9080810
Probable space group: P -1
;
_chemical_formula_sum "Si O2"
_cell_formula_units_Z 12
_cell_length_a 19.784161
_cell_length_b 10.163408
_cell_length_c 8.075015
_cell_angle_alpha 120.074624
_cell_angle_beta 59.691650
_cell_angle_gamma 160.323449
_cell_volume 470.102720
_symmetry_space_group_name_H-M "P -1"
_symmetry_group_IT_number 2
_symmetry_cell_setting 'triclinic'
loop_
_space_group_symop_operation_xyz
x,y,z
-x,-y,-z
loop_
_atom_site_type_symbol
_atom_site_label
_atom_site_fract_x
_atom_site_fract_y
_atom_site_fract_z
Si Si1 0.775250 0.499235 0.125794
Si Si2 0.968840 0.260726 0.589788
Si Si3 0.029242 0.404114 0.227750
Si Si4 0.731254 0.467480 0.512291
Si Si5 0.582851 0.712305 0.702484
Si Si6 0.639236 0.439405 0.941955
O O1 0.787390 0.619921 0.353614
O O2 0.571918 0.034469 0.106221
O O3 0.950289 0.689611 0.992145
O O4 0.752487 0.559481 0.028976
O O5 0.950734 0.213469 0.382713
O O6 0.120633 0.409834 0.564946
O O7 0.062480 0.598825 0.715651
O O8 0.738111 0.869486 0.690313
O O9 0.262348 0.873157 0.272986
O O10 0.744167 0.599265 0.737511
O O11 0.500000 0.000000 0.500000
O O12 0.500000 0.500000 0.500000
O O13 0.418648 0.494126 0.887359
#
# Coordination Sequence:
#
# PCOD9080810 Si02
#       6
#     2   2   2   2   2   2
#     4   9  16  28  51  76 101 132 159 212 265 283
#     4   9  17  31  50  77 106 124 173 214 239 307
#     4   8  16  30  53  76 102 126 171 215 243 301
#     4  10  19  28  50  80 103 130 163 214 260 293
#     4   9  18  32  54  74  99 143 167 199 259 299
#     4   9  17  31  48  75 103 124 176 210 239 310
#
# _framework density 25.526336000000001
#
# number of rings (size 3 to 8) (size 9 to 14) (size 15 to 20)
#    1.000    2.000    1.667    0.000    2.333    0.667 
#    0.000    0.833    0.000    2.000    0.000    0.000 
#    0.000    0.000    0.000    0.000    0.000    0.000 
#
# Total GULP energy -67054.026277 kJ/mol
# GULP energy per Si atom -5587.835523 kJ/mol
# Density = 2.546824 g / cm^3
# Si number density = 25.526336 Si / 1000 Ang^3
#
#
#
# Elastic Constant Matrix: (Units=GPa)
#
#
# Indices 1 2 3 4 5 6 
#
# 1 101.8778 36.0719 78.4990 -11.0131 -5.1428 22.9405
# 2 36.0719 100.6607 48.4138 -5.6851 -16.9965 15.6711
# 3 78.4990 48.4138 264.6560 -21.2882 -9.2565 21.0587
# 4 -11.0131 -5.6851 -21.2882 43.3069 3.5870 -14.4439
# 5 -5.1428 -16.9965 -9.2565 3.5870 30.5301 -7.5154
# 6 22.9405 15.6711 21.0587 -14.4439 -7.5154 42.8695
#
#
#
# Elastic Compliance Matrix: (Units=1/GPa)
#
#
# Indices 1 2 3 4 5 6 
#
# 1 0.014646 -0.003041 -0.003419 0.000000 -0.001572 -0.005322
# 2 -0.003041 0.012804 -0.001156 -0.000715 0.005934 -0.001686
# 3 -0.003419 -0.001156 0.005114 0.001578 0.000222 0.000311
# 4 0.000000 -0.000715 0.001578 0.026617 -0.001009 0.008277
# 5 -0.001572 0.005934 0.000222 -0.001009 0.037145 0.004735
# 6 -0.005322 -0.001686 0.000311 0.008277 0.004735 0.030257
#
#
# Mechanical properties :
#
#
# Convention : Reuss Voigt Hill
#
# Bulk Modulus (GPa) = 57.69774 88.12932 72.91353
# Shear Modulus (GPa) = 33.87685 43.62195 38.74940
#
# Velocity S-wave (km/s) = 3.64694 4.13837 3.90040
# Velocity P-wave (km/s) = 6.35498 7.57856 6.99358
#
# Compressibility (1/GPa) = 0.01733170
#
# Stress axis : x y z
#
# Youngs Moduli (GPa) = 68.27785 78.09915 195.53521
#
# Poissons Ratio (x) = 0.23749 0.66862
# Poissons Ratio (y) = 0.20762 0.22606
# Poissons Ratio (z) = 0.23347 0.09029
#
# Static dielectric constant tensor:
#      x y z
#    x 1.999430 -0.012920 -0.057920 
#    y -0.012920 2.074410 -0.003380 
#    z -0.057920 -0.003380 2.001850 
# 
# From -- ./inp_files/247080.got.cif
#   From: 2010.05.17/outbox.cif.g08.bks.cpg/sg2_124_cif.got.tgz:247080.got - 2010.06.03 11:33:40.
