data_PCOD9080860
_publ_section_title
;
Structure prediction by ZEFSAII (Michael W. Deem and Ramdas Pophale) SiO2 
 PCOD9080860
Probable space group: P -1
;
_chemical_formula_sum "Si O2"
_cell_formula_units_Z 16
_cell_length_a 8.634181
_cell_length_b 10.483826
_cell_length_c 12.508310
_cell_angle_alpha 60.924057
_cell_angle_beta 142.482705
_cell_angle_gamma 97.284341
_cell_volume 526.689652
_symmetry_space_group_name_H-M "P -1"
_symmetry_group_IT_number 2
_symmetry_cell_setting 'triclinic'
loop_
_space_group_symop_operation_xyz
x,y,z
-x,-y,-z
loop_
_atom_site_type_symbol
_atom_site_label
_atom_site_fract_x
_atom_site_fract_y
_atom_site_fract_z
Si Si1 0.597497 0.086920 0.346396
Si Si2 0.850016 0.372813 0.149632
Si Si3 0.545668 0.143326 0.052742
Si Si4 0.943716 0.402606 0.886126
Si Si5 0.615318 0.138894 0.628179
Si Si6 0.220019 0.658236 0.649095
Si Si7 0.851716 0.370573 0.605238
Si Si8 0.747488 0.158746 0.938820
O O1 0.810031 0.160645 0.464579
O O2 0.622185 0.924053 0.485333
O O3 0.636889 0.053761 0.254718
O O4 0.266555 0.236144 0.127312
O O5 0.033605 0.428856 0.149993
O O6 0.960368 0.339769 0.347026
O O7 0.736680 0.241877 0.118942
O O8 0.549783 0.548730 0.913532
O O9 0.199289 0.247345 0.838320
O O10 0.579782 0.111788 0.955760
O O11 0.831910 0.436486 0.687469
O O12 0.750760 0.335645 0.869662
O O13 0.644115 0.152544 0.765330
O O14 0.633259 0.292580 0.523819
O O15 0.921488 0.987424 0.818226
O O16 0.196735 0.566570 0.569045
#
# Coordination Sequence:
#
# PCOD9080860 Si02
#       8
#     2   2   2   2   2   2   2   2
#     4   8  16  31  49  71  97 127 163 195 234 288
#     4   9  18  32  50  71  98 130 160 202 245 280
#     4  10  19  29  49  78  99 126 166 199 236 286
#     4   8  16  31  49  71  97 127 163 195 234 288
#     4   9  18  32  50  71  98 130 160 202 245 280
#     4   9  17  31  51  74  99 127 163 199 238 292
#     4  10  19  29  49  78  99 126 166 199 236 286
#     4   9  17  31  51  74  99 127 163 199 238 292
#
# _framework density 30.378419999999998
#
# number of rings (size 3 to 8) (size 9 to 14) (size 15 to 20)
#    0.000    3.000    0.000    4.500    0.000    5.000 
#    0.000    0.000    0.000   31.500    0.000    0.000 
#    0.000    0.000    0.000    0.000    0.000    0.000 
#
# Total GULP energy -89431.042519 kJ/mol
# GULP energy per Si atom -5589.440157 kJ/mol
# Density = 3.030928 g / cm^3
# Si number density = 30.378420 Si / 1000 Ang^3
#
#
#
# Elastic Constant Matrix: (Units=GPa)
#
#
# Indices 1 2 3 4 5 6 
#
# 1 191.1830 30.3183 51.2545 2.8915 -12.6670 31.2624
# 2 30.3183 96.8166 27.2294 -24.3351 -12.1463 38.8550
# 3 51.2545 27.2294 70.8772 -0.5700 -22.3503 0.2416
# 4 2.8915 -24.3351 -0.5700 42.3452 -2.2402 -17.9008
# 5 -12.6670 -12.1463 -22.3503 -2.2402 71.9897 -1.3981
# 6 31.2624 38.8550 0.2416 -17.9008 -1.3981 73.3798
#
#
#
# Elastic Compliance Matrix: (Units=1/GPa)
#
#
# Indices 1 2 3 4 5 6 
#
# 1 0.007276 0.000157 -0.005495 -0.002064 -0.000535 -0.003679
# 2 0.000157 0.016675 -0.006128 0.006465 0.000998 -0.007280
# 3 -0.005495 -0.006128 0.021967 -0.000246 0.004919 0.005548
# 4 -0.002064 0.006465 -0.000246 0.029541 0.001662 0.004695
# 5 -0.000535 0.000998 0.004919 0.001662 0.015552 0.000385
# 6 -0.003679 -0.007280 0.005548 0.004695 0.000385 0.020184
#
#
# Mechanical properties :
#
#
# Convention : Reuss Voigt Hill
#
# Bulk Modulus (GPa) = 43.50328 64.05345 53.77837
# Shear Modulus (GPa) = 35.26358 54.21457 44.73907
#
# Velocity S-wave (km/s) = 3.41076 4.22908 3.84177
# Velocity P-wave (km/s) = 5.46467 6.70655 6.11721
#
# Compressibility (1/GPa) = 0.02298677
#
# Stress axis : x y z
#
# Youngs Moduli (GPa) = 137.43671 59.96960 45.52234
#
# Poissons Ratio (x) = -0.00944 0.25014
# Poissons Ratio (y) = -0.02164 0.27898
# Poissons Ratio (z) = 0.75519 0.36752
#
# Static dielectric constant tensor:
#      x y z
#    x 2.277680 -0.061950 0.026480 
#    y -0.061950 2.546410 -0.030370 
#    z 0.026480 -0.030370 2.369870 
# 
# From -- ./inp_files/392386.got.cif
#   From: 2010.05.17/outbox.cif.g08.bks.cpg/sg2_197_cif.got.tgz:392386.got - 2010.06.03 11:33:40.
