data_PCOD9080029
_publ_section_title
;
Structure prediction by ZEFSAII (Michael W. Deem and Ramdas Pophale) SiO2 
 PCOD9080029
Probable space group: P -1
;
_chemical_formula_sum "Si O2"
_cell_formula_units_Z 16
_cell_length_a 14.025848
_cell_length_b 9.667422
_cell_length_c 12.066559
_cell_angle_alpha 64.364489
_cell_angle_beta 147.525384
_cell_angle_gamma 100.948933
_cell_volume 738.413078
_symmetry_space_group_name_H-M "P -1"
_symmetry_group_IT_number 2
_symmetry_cell_setting 'triclinic'
loop_
_space_group_symop_operation_xyz
x,y,z
-x,-y,-z
loop_
_atom_site_type_symbol
_atom_site_label
_atom_site_fract_x
_atom_site_fract_y
_atom_site_fract_z
Si Si1 0.863252 0.787179 0.634117
Si Si2 0.025387 0.242389 0.004755
Si Si3 0.755236 0.141023 0.656390
Si Si4 0.035788 0.038012 0.646680
Si Si5 0.959264 0.500036 0.254967
Si Si6 0.541203 0.008161 0.905995
Si Si7 0.173803 0.665285 0.536846
Si Si8 0.551586 0.703704 0.867666
O O1 0.931243 0.710470 0.846581
O O2 0.972948 0.672201 0.681175
O O3 0.638235 0.846306 0.371939
O O4 0.915965 0.950157 0.626865
O O5 0.169701 0.054450 0.189824
O O6 0.816835 0.225626 0.792352
O O7 0.051165 0.370553 0.898915
O O8 0.871837 0.199582 0.655445
O O9 0.543850 0.210852 0.373061
O O10 0.257912 0.969516 0.915544
O O11 0.000000 0.000000 0.500000
O O12 0.952069 0.231892 0.522800
O O13 0.116315 0.517888 0.487773
O O14 0.755912 0.567497 0.092110
O O15 0.557826 0.842859 0.911664
O O16 0.500000 0.000000 0.000000
O O17 0.394695 0.631139 0.780209
#
# Coordination Sequence:
#
# PCOD9080029 Si02
#       8
#     2   2   2   2   2   2   2   2
#     4  12  24  44  59  98 132 159 212 264 310 373
#     4  10  18  38  61  91 130 170 200 256 310 363
#     4   8  17  33  63  86 119 160 214 248 285 359
#     4  12  22  41  70  90 117 164 213 268 312 356
#     4  11  24  36  65  92 136 170 194 254 328 370
#     4  12  23  41  70  94 117 163 220 261 309 371
#     4   9  18  39  60  89 125 160 206 256 301 365
#     4  10  19  40  62  93 123 165 216 253 296 382
#
# _framework density 21.668087
#
# number of rings (size 3 to 8) (size 9 to 14) (size 15 to 20)
#    0.750    0.750    6.250    0.375    0.000    1.500 
#    2.250    3.125    0.000    3.000    0.000    0.000 
#    0.000    0.000    0.000    0.000    0.000    0.000 
#
# Total GULP energy -89282.027234 kJ/mol
# GULP energy per Si atom -5580.126702 kJ/mol
# Density = 2.161877 g / cm^3
# Si number density = 21.668087 Si / 1000 Ang^3
#
#
#
# Elastic Constant Matrix: (Units=GPa)
#
#
# Indices 1 2 3 4 5 6 
#
# 1 41.6691 12.6766 21.2694 8.7742 -0.8413 -10.6829
# 2 12.6766 107.4535 50.4907 11.0380 3.3755 -28.3069
# 3 21.2694 50.4907 120.2900 24.2560 6.6984 -9.4252
# 4 8.7742 11.0380 24.2560 35.9536 2.0389 -5.0843
# 5 -0.8413 3.3755 6.6984 2.0389 37.2002 -1.5487
# 6 -10.6829 -28.3069 -9.4252 -5.0843 -1.5487 36.3199
#
#
#
# Elastic Compliance Matrix: (Units=1/GPa)
#
#
# Indices 1 2 3 4 5 6 
#
# 1 0.028605 0.000934 -0.004265 -0.003414 0.001835 0.007635
# 2 0.000934 0.014411 -0.005527 0.000505 0.000103 0.010147
# 3 -0.004265 -0.005527 0.012438 -0.006020 -0.001640 -0.003247
# 4 -0.003414 0.000505 -0.006020 0.032935 -0.000744 0.002406
# 5 0.001835 0.000103 -0.001640 -0.000744 0.027302 0.001255
# 6 0.007635 0.010147 -0.003247 0.002406 0.001255 0.037235
#
#
# Mechanical properties :
#
#
# Convention : Reuss Voigt Hill
#
# Bulk Modulus (GPa) = 26.49843 48.69846 37.59844
# Shear Modulus (GPa) = 27.28926 34.22645 30.75786
#
# Velocity S-wave (km/s) = 3.55268 3.97870 3.77171
# Velocity P-wave (km/s) = 5.39301 6.60532 6.02971
#
# Compressibility (1/GPa) = 0.03773809
#
# Stress axis : x y z
#
# Youngs Moduli (GPa) = 34.95879 69.39123 80.39887
#
# Poissons Ratio (x) = -0.06482 0.34294
# Poissons Ratio (y) = -0.03265 0.44434
# Poissons Ratio (z) = 0.14911 0.38350
#
# Static dielectric constant tensor:
#      x y z
#    x 2.327790 -0.071250 -0.480990 
#    y -0.071250 1.761250 0.076260 
#    z -0.480990 0.076260 2.171300 
# 
# From -- ./inp_files/447564.got.cif
#   From: 2010.05.17/outbox.cif.g08.bks.cpg/sg2_224_cif.got.tgz:447564.got - 2010.06.03 11:33:40.
