data_PCOD9080217
_publ_section_title
;
Structure prediction by ZEFSAII (Michael W. Deem and Ramdas Pophale) SiO2 
 PCOD9080217
Probable space group: P -1
;
_chemical_formula_sum "Si O2"
_cell_formula_units_Z 16
_cell_length_a 13.427401
_cell_length_b 9.184832
_cell_length_c 7.563696
_cell_angle_alpha 91.728917
_cell_angle_beta 58.426877
_cell_angle_gamma 57.936131
_cell_volume 609.094271
_symmetry_space_group_name_H-M "P -1"
_symmetry_group_IT_number 2
_symmetry_cell_setting 'triclinic'
loop_
_space_group_symop_operation_xyz
x,y,z
-x,-y,-z
loop_
_atom_site_type_symbol
_atom_site_label
_atom_site_fract_x
_atom_site_fract_y
_atom_site_fract_z
Si Si1 0.517989 0.137384 0.760972
Si Si2 0.110637 0.197531 0.945771
Si Si3 0.038825 0.915915 0.703857
Si Si4 0.812902 0.698722 0.796051
Si Si5 0.791501 0.035298 0.672162
Si Si6 0.393409 0.766194 0.660226
Si Si7 0.695832 0.449747 0.471021
Si Si8 0.214458 0.313402 0.555310
O O1 0.515923 0.232111 0.586866
O O2 0.612984 0.170079 0.802843
O O3 0.623662 0.906803 0.627833
O O4 0.353907 0.221807 0.984823
O O5 0.119364 0.276570 0.759041
O O6 0.272589 0.987118 0.825311
O O7 0.097297 0.335458 0.110125
O O8 0.000132 0.148521 0.088910
O O9 0.188490 0.702865 0.493377
O O10 0.885119 0.047050 0.735717
O O11 0.119849 0.004449 0.596671
O O12 0.819760 0.851350 0.705608
O O13 0.845110 0.588254 0.579760
O O14 0.518922 0.623806 0.683285
O O15 0.316803 0.676837 0.659218
O O16 0.758769 0.557268 0.361541
#
# Coordination Sequence:
#
# PCOD9080217 Si02
#       8
#     2   2   2   2   2   2   2   2
#     4  10  18  38  66  92 120 170 222 260 306 388
#     4  10  22  42  69  94 122 176 226 256 309 395
#     4  10  21  38  65  88 130 171 211 263 320 381
#     4  10  20  37  67  95 123 161 224 268 307 372
#     4   9  18  36  60  89 119 165 216 259 301 379
#     4  10  22  39  65  95 127 170 214 267 320 379
#     4  11  22  39  60  94 141 161 202 276 335 370
#     4  10  21  37  63  95 126 168 208 267 321 378
#
# _framework density 26.268512999999999
#
# number of rings (size 3 to 8) (size 9 to 14) (size 15 to 20)
#    0.000    2.000    1.250    3.000    0.000    4.000 
#    0.000    6.250   24.750    0.000    0.000    0.000 
#    0.000    0.000    0.000    0.000    0.000    0.000 
#
# Total GULP energy -89075.338112 kJ/mol
# GULP energy per Si atom -5567.208632 kJ/mol
# Density = 2.620872 g / cm^3
# Si number density = 26.268513 Si / 1000 Ang^3
#
#
#
# Elastic Constant Matrix: (Units=GPa)
#
#
# Indices 1 2 3 4 5 6 
#
# 1 112.8275 62.9706 46.0736 -13.7281 -24.2922 10.8023
# 2 62.9706 118.3674 60.5294 -6.6373 -2.5530 8.0810
# 3 46.0736 60.5294 147.7063 -28.4242 -10.0884 21.7599
# 4 -13.7281 -6.6373 -28.4242 40.0696 10.8475 -16.7052
# 5 -24.2922 -2.5530 -10.0884 10.8475 36.8759 -6.1877
# 6 10.8023 8.0810 21.7599 -16.7052 -6.1877 51.1787
#
#
#
# Elastic Compliance Matrix: (Units=1/GPa)
#
#
# Indices 1 2 3 4 5 6 
#
# 1 0.015553 -0.007530 -0.000938 0.000795 0.009179 -0.000326
# 2 -0.007530 0.014420 -0.004244 -0.002008 -0.004547 -0.000088
# 3 -0.000938 -0.004244 0.010093 0.005458 -0.000032 -0.001645
# 4 0.000795 -0.002008 0.005458 0.033975 -0.006757 0.008101
# 5 0.009179 -0.004547 -0.000032 -0.006757 0.034966 0.000816
# 6 -0.000326 -0.000088 -0.001645 0.008101 0.000816 0.023065
#
#
# Mechanical properties :
#
#
# Convention : Reuss Voigt Hill
#
# Bulk Modulus (GPa) = 68.29939 79.78317 74.04128
# Shear Modulus (GPa) = 30.79316 39.58001 35.18658
#
# Velocity S-wave (km/s) = 3.42752 3.88590 3.66388
# Velocity P-wave (km/s) = 6.45916 7.11138 6.79310
#
# Compressibility (1/GPa) = 0.01464142
#
# Stress axis : x y z
#
# Youngs Moduli (GPa) = 64.29804 69.34921 99.08312
#
# Poissons Ratio (x) = 0.52217 0.09291
# Poissons Ratio (y) = 0.48413 0.42055
# Poissons Ratio (z) = 0.06030 0.29435
#
# Static dielectric constant tensor:
#      x y z
#    x 2.404620 -0.043400 0.125180 
#    y -0.043400 2.057410 0.051120 
#    z 0.125180 0.051120 2.187320 
# 
# From -- ./inp_files/295406.got.cif
#   From: 2010.05.17/outbox.cif.g08.bks.cpg/sg2_148_cif.got.tgz:295406.got - 2010.06.03 11:33:40.
