data_PCOD9080758
_publ_section_title
;
Structure prediction by ZEFSAII (Michael W. Deem and Ramdas Pophale) SiO2 
 PCOD9080758
Probable space group: P -1
;
_chemical_formula_sum "Si O2"
_cell_formula_units_Z 12
_cell_length_a 15.073054
_cell_length_b 9.565147
_cell_length_c 9.170553
_cell_angle_alpha 107.647854
_cell_angle_beta 27.901214
_cell_angle_gamma 107.764025
_cell_volume 587.539191
_symmetry_space_group_name_H-M "P -1"
_symmetry_group_IT_number 2
_symmetry_cell_setting 'triclinic'
loop_
_space_group_symop_operation_xyz
x,y,z
-x,-y,-z
loop_
_atom_site_type_symbol
_atom_site_label
_atom_site_fract_x
_atom_site_fract_y
_atom_site_fract_z
Si Si1 0.938046 0.968525 0.748600
Si Si2 0.705557 0.687200 0.115092
Si Si3 0.672934 0.115130 0.823822
Si Si4 0.954797 0.501505 0.895760
Si Si5 0.208577 0.545333 0.289463
Si Si6 0.315068 0.793178 0.831681
O O1 0.140986 0.960120 0.524954
O O2 0.827374 0.809901 0.882293
O O3 0.000000 0.000000 0.500000
O O4 0.804571 0.088947 0.039858
O O5 0.514509 0.753114 0.466179
O O6 0.835050 0.631605 0.042829
O O7 0.658733 0.550057 0.030295
O O8 0.709083 0.285249 0.774647
O O9 0.657671 0.136374 0.026587
O O10 0.500000 0.000000 0.000000
O O11 0.153253 0.501580 0.520158
O O12 0.822758 0.354706 0.003357
O O13 0.000000 0.500000 0.000000
O O14 0.000000 0.500000 0.500000
#
# Coordination Sequence:
#
# PCOD9080758 Si02
#       6
#     2   2   2   2   2   2
#     4  10  21  42  66  98 134 178 222 275 337 407
#     4  11  21  43  75  94 135 184 225 278 343 404
#     4  11  22  41  71 101 135 179 227 278 343 402
#     4  11  23  42  69 100 136 176 231 282 338 402
#     4  10  18  42  73  92 132 186 225 272 346 399
#     4  11  23  42  68 101 138 177 228 281 340 404
#
# _framework density 20.424171000000001
#
# number of rings (size 3 to 8) (size 9 to 14) (size 15 to 20)
#    0.000    1.333    6.667    2.000    0.000    1.333 
#    9.000    2.500    0.000    0.000    0.000    0.000 
#    0.000    0.000    0.000    0.000    0.000    0.000 
#
# Total GULP energy -66863.361739 kJ/mol
# GULP energy per Si atom -5571.946812 kJ/mol
# Density = 2.037768 g / cm^3
# Si number density = 20.424171 Si / 1000 Ang^3
#
#
#
# Elastic Constant Matrix: (Units=GPa)
#
#
# Indices 1 2 3 4 5 6 
#
# 1 72.6783 59.0149 63.1794 -1.0613 12.3874 5.6162
# 2 59.0149 141.6833 50.0898 -14.4177 -16.2963 -0.8337
# 3 63.1794 50.0898 123.2435 19.7540 -0.7951 1.3523
# 4 -1.0613 -14.4177 19.7540 42.5946 -0.4850 -8.1564
# 5 12.3874 -16.2963 -0.7951 -0.4850 25.7734 -5.9205
# 6 5.6162 -0.8337 1.3523 -8.1564 -5.9205 32.6567
#
#
#
# Elastic Compliance Matrix: (Units=1/GPa)
#
#
# Indices 1 2 3 4 5 6 
#
# 1 0.064097 -0.024804 -0.022775 -0.000713 -0.051869 -0.020295
# 2 -0.024804 0.020119 0.003456 0.007083 0.027499 0.011391
# 3 -0.022775 0.003456 0.019653 -0.007596 0.014496 0.003922
# 4 -0.000713 0.007083 -0.007596 0.031339 0.007426 0.009792
# 5 -0.051869 0.027499 0.014496 0.007426 0.087861 0.026805
# 6 -0.020295 0.011391 0.003922 0.009792 0.026805 0.041545
#
#
# Mechanical properties :
#
#
# Convention : Reuss Voigt Hill
#
# Bulk Modulus (GPa) = 64.01369 75.79704 69.90536
# Shear Modulus (GPa) = 13.96379 31.22635 22.59507
#
# Velocity S-wave (km/s) = 2.61758 3.91435 3.32970
# Velocity P-wave (km/s) = 6.36756 7.59088 7.00597
#
# Compressibility (1/GPa) = 0.01562166
#
# Stress axis : x y z
#
# Youngs Moduli (GPa) = 15.60127 49.70527 50.88311
#
# Poissons Ratio (x) = 1.23290 1.15887
# Poissons Ratio (y) = 0.38698 -0.17585
# Poissons Ratio (z) = 0.35532 -0.17178
#
# Static dielectric constant tensor:
#      x y z
#    x 1.767260 -0.086320 0.015610 
#    y -0.086320 1.756660 0.040700 
#    z 0.015610 0.040700 1.741430 
# 
# From -- ./inp_files/157577.got.cif
#   From: 2010.05.17/outbox.cif.g08.bks.cpg/sg2_79_cif.got.tgz:157577.got - 2010.06.03 11:33:40.
