data_PCOD9080053
_publ_section_title
;
Structure prediction by ZEFSAII (Michael W. Deem and Ramdas Pophale) SiO2 
 PCOD9080053
Probable space group: P -1
;
_chemical_formula_sum "Si O2"
_cell_formula_units_Z 16
_cell_length_a 9.827729
_cell_length_b 9.326056
_cell_length_c 10.394467
_cell_angle_alpha 123.760933
_cell_angle_beta 63.880377
_cell_angle_gamma 102.235314
_cell_volume 710.465993
_symmetry_space_group_name_H-M "P -1"
_symmetry_group_IT_number 2
_symmetry_cell_setting 'triclinic'
loop_
_space_group_symop_operation_xyz
x,y,z
-x,-y,-z
loop_
_atom_site_type_symbol
_atom_site_label
_atom_site_fract_x
_atom_site_fract_y
_atom_site_fract_z
Si Si1 0.543615 0.192938 0.712248
Si Si2 0.116129 0.350763 0.329218
Si Si3 0.177668 0.980503 0.410817
Si Si4 0.543535 0.209213 0.437617
Si Si5 0.420492 0.261775 0.067615
Si Si6 0.286966 0.899340 0.033563
Si Si7 0.245878 0.331866 0.538450
Si Si8 0.139507 0.718055 0.784567
O O1 0.504893 0.269197 0.628316
O O2 0.726662 0.166843 0.626196
O O3 0.484967 0.996379 0.654811
O O4 0.474471 0.286157 0.911808
O O5 0.279320 0.392203 0.222864
O O6 0.170067 0.278009 0.408583
O O7 0.000000 0.500000 0.500000
O O8 0.015930 0.253949 0.217341
O O9 0.220382 0.162638 0.547983
O O10 0.236092 0.939584 0.220633
O O11 0.000000 0.000000 0.500000
O O12 0.427612 0.317100 0.447024
O O13 0.715617 0.236832 0.340158
O O14 0.348122 0.072813 0.028847
O O15 0.571858 0.240921 0.080660
O O16 0.157733 0.825393 0.960737
O O17 0.170428 0.513806 0.699550
#
# Coordination Sequence:
#
# PCOD9080053 Si02
#       8
#     2   2   2   2   2   2   2   2
#     4   9  20  35  59  92 120 159 202 254 304 352
#     4  10  22  37  59  88 122 160 200 253 311 355
#     4  10  21  39  65  89 122 161 200 252 313 368
#     4  10  19  36  59  90 123 155 206 250 298 367
#     4  10  18  38  62  84 127 155 208 249 305 360
#     4  10  20  37  66  92 113 163 206 256 298 357
#     4  10  21  40  60  85 120 169 195 244 313 365
#     4  11  22  36  61  95 119 154 213 251 300 362
#
# _framework density 22.520430999999999
#
# number of rings (size 3 to 8) (size 9 to 14) (size 15 to 20)
#    0.000    2.000    2.500    1.125    1.750    1.500 
#    6.750    0.625    2.750    4.500    0.000    0.000 
#    0.000    0.000    0.000    0.000    0.000    0.000 
#
# Total GULP energy -89142.766286 kJ/mol
# GULP energy per Si atom -5571.422893 kJ/mol
# Density = 2.246917 g / cm^3
# Si number density = 22.520431 Si / 1000 Ang^3
#
#
#
# Elastic Constant Matrix: (Units=GPa)
#
#
# Indices 1 2 3 4 5 6 
#
# 1 147.0435 14.6815 30.0513 0.3168 -8.2077 -4.3282
# 2 14.6815 30.0234 10.8990 11.1159 -3.9828 -1.2184
# 3 30.0513 10.8990 61.0696 0.3170 -17.2228 -13.0178
# 4 0.3168 11.1159 0.3170 22.2027 8.0050 1.4487
# 5 -8.2077 -3.9828 -17.2228 8.0050 47.0939 -4.0892
# 6 -4.3282 -1.2184 -13.0178 1.4487 -4.0892 27.4721
#
#
#
# Elastic Compliance Matrix: (Units=1/GPa)
#
#
# Indices 1 2 3 4 5 6 
#
# 1 0.007807 -0.003322 -0.003613 0.001885 -0.000633 -0.000823
# 2 -0.003322 0.047020 -0.004475 -0.025815 0.006300 0.001740
# 3 -0.003613 -0.004475 0.024170 -0.002186 0.009260 0.012179
# 4 0.001885 -0.025815 -0.002186 0.063526 -0.014089 -0.007331
# 5 -0.000633 0.006300 0.009260 -0.014089 0.028265 0.009518
# 6 -0.000823 0.001740 0.012179 -0.007331 0.009518 0.043923
#
#
# Mechanical properties :
#
#
# Convention : Reuss Voigt Hill
#
# Bulk Modulus (GPa) = 17.80051 38.82225 28.31138
# Shear Modulus (GPa) = 19.51168 31.52072 25.51620
#
# Velocity S-wave (km/s) = 2.94666 3.74525 3.36969
# Velocity P-wave (km/s) = 4.41570 5.99822 5.26674
#
# Compressibility (1/GPa) = 0.05617816
#
# Stress axis : x y z
#
# Youngs Moduli (GPa) = 128.08937 21.26744 41.37283
#
# Poissons Ratio (x) = 0.07064 0.14947
# Poissons Ratio (y) = 0.42546 0.18516
# Poissons Ratio (z) = 0.46276 0.09518
#
# Static dielectric constant tensor:
#      x y z
#    x 1.929440 0.014440 0.009190 
#    y 0.014440 1.965200 0.016610 
#    z 0.009190 0.016610 1.873020 
# 
# From -- ./inp_files/391284.got.cif
#   From: 2010.05.17/outbox.cif.g08.bks.cpg/sg2_196_cif.got.tgz:391284.got - 2010.06.03 11:33:40.
