data_PCOD9080124
_publ_section_title
;
Structure prediction by ZEFSAII (Michael W. Deem and Ramdas Pophale) SiO2 
 PCOD9080124
Probable space group: P -1
;
_chemical_formula_sum "Si O2"
_cell_formula_units_Z 14
_cell_length_a 18.974458
_cell_length_b 7.099260
_cell_length_c 5.104617
_cell_angle_alpha 117.975795
_cell_angle_beta 59.561964
_cell_angle_gamma 119.474830
_cell_volume 493.484520
_symmetry_space_group_name_H-M "P -1"
_symmetry_group_IT_number 2
_symmetry_cell_setting 'triclinic'
loop_
_space_group_symop_operation_xyz
x,y,z
-x,-y,-z
loop_
_atom_site_type_symbol
_atom_site_label
_atom_site_fract_x
_atom_site_fract_y
_atom_site_fract_z
Si Si1 0.780303 0.427747 0.859121
Si Si2 0.498231 0.678981 0.396858
Si Si3 0.092717 0.965229 0.120573
Si Si4 0.039572 0.381715 0.564313
Si Si5 0.340766 0.501541 0.245044
Si Si6 0.640944 0.093084 0.195191
Si Si7 0.804495 0.825994 0.412441
O O1 0.857812 0.475588 0.537761
O O2 0.708543 0.536351 0.959284
O O3 0.722536 0.178388 0.900534
O O4 0.823032 0.596786 0.130094
O O5 0.500000 0.500000 0.500000
O O6 0.441061 0.582533 0.179911
O O7 0.439962 0.831602 0.714646
O O8 0.593072 0.848217 0.248982
O O9 0.960055 0.862124 0.711657
O O10 0.161128 0.007140 0.785475
O O11 0.025350 0.717146 0.133562
O O12 0.855295 0.945900 0.651334
O O13 0.000000 0.500000 0.500000
O O14 0.322787 0.729863 0.522018
O O15 0.293992 0.292838 0.385964
#
# Coordination Sequence:
#
# PCOD9080124 Si02
#       7
#     2   2   2   2   2   2   2
#     4  10  19  37  63  85 119 165 207 248 312 368
#     4   9  18  37  58  88 120 155 202 249 303 369
#     4  10  22  40  64  85 126 163 208 256 313 362
#     4  10  22  41  61  91 123 161 212 262 304 363
#     4   9  17  35  62  83 120 160 194 249 304 362
#     4   8  19  36  60  80 119 161 195 245 311 362
#     4  10  18  38  64  88 117 169 205 245 309 372
#
# _framework density 28.369682999999998
#
# number of rings (size 3 to 8) (size 9 to 14) (size 15 to 20)
#    0.857    1.714    2.857    0.000    0.000    5.714 
#    2.571    8.571    0.000    0.000    0.000    0.000 
#    0.000    0.000    0.000    0.000    0.000    0.000 
#
# Total GULP energy -78190.239650 kJ/mol
# GULP energy per Si atom -5585.017118 kJ/mol
# Density = 2.830511 g / cm^3
# Si number density = 28.369683 Si / 1000 Ang^3
#
#
#
# Elastic Constant Matrix: (Units=GPa)
#
#
# Indices 1 2 3 4 5 6 
#
# 1 128.3170 49.5050 56.0426 -26.2167 11.0895 5.7019
# 2 49.5050 265.8761 70.2680 -64.7706 9.7854 7.7958
# 3 56.0426 70.2680 156.4847 -57.5806 14.5639 24.8688
# 4 -26.2167 -64.7706 -57.5806 62.9592 15.8117 -5.9958
# 5 11.0895 9.7854 14.5639 15.8117 49.9516 -15.2889
# 6 5.7019 7.7958 24.8688 -5.9958 -15.2889 49.6765
#
#
#
# Elastic Compliance Matrix: (Units=1/GPa)
#
#
# Indices 1 2 3 4 5 6 
#
# 1 0.009575 -0.000707 -0.002315 0.001595 -0.001883 -0.000216
# 2 -0.000707 0.005589 0.001092 0.007320 -0.004100 -0.001721
# 3 -0.002315 0.001092 0.015427 0.016458 -0.012292 -0.009425
# 4 0.001595 0.007320 0.016458 0.044073 -0.024110 -0.011672
# 5 -0.001883 -0.004100 -0.012292 -0.024110 0.037218 0.015558
# 6 -0.000216 -0.001721 -0.009425 -0.011672 0.015558 0.028523
#
#
# Mechanical properties :
#
#
# Convention : Reuss Voigt Hill
#
# Bulk Modulus (GPa) = 37.40970 100.25656 68.83313
# Shear Modulus (GPa) = 32.64201 57.50826 45.07513
#
# Velocity S-wave (km/s) = 3.39572 4.50722 3.99036
# Velocity P-wave (km/s) = 5.34693 7.90587 6.74879
#
# Compressibility (1/GPa) = 0.02673104
#
# Stress axis : x y z
#
# Youngs Moduli (GPa) = 104.43488 178.93376 64.82067
#
# Poissons Ratio (x) = 0.12646 0.15008
# Poissons Ratio (y) = 0.07381 -0.07079
# Poissons Ratio (z) = 0.24181 -0.19541
#
# Static dielectric constant tensor:
#      x y z
#    x 2.258510 -0.096570 -0.141910 
#    y -0.096570 2.216860 0.112960 
#    z -0.141910 0.112960 2.410630 
# 
# From -- ./inp_files/91302.got.cif
#   From: 2010.05.17/outbox.cif.g08.bks.cpg/sg2_46_cif.got.tgz:91302.got - 2010.06.03 11:33:40.
