data_PCOD9080335
_publ_section_title
;
Structure prediction by ZEFSAII (Michael W. Deem and Ramdas Pophale) SiO2 
 PCOD9080335
Probable space group: P -1
;
_chemical_formula_sum "Si O2"
_cell_formula_units_Z 16
_cell_length_a 8.272231
_cell_length_b 24.199801
_cell_length_c 19.260369
_cell_angle_alpha 160.380149
_cell_angle_beta 139.695821
_cell_angle_gamma 33.036621
_cell_volume 698.072607
_symmetry_space_group_name_H-M "P -1"
_symmetry_group_IT_number 2
_symmetry_cell_setting 'triclinic'
loop_
_space_group_symop_operation_xyz
x,y,z
-x,-y,-z
loop_
_atom_site_type_symbol
_atom_site_label
_atom_site_fract_x
_atom_site_fract_y
_atom_site_fract_z
Si Si1 0.775729 0.862716 0.241426
Si Si2 0.664792 0.285316 0.672913
Si Si3 0.690160 0.379868 0.488114
Si Si4 0.150274 0.644343 0.709695
Si Si5 0.783801 0.018040 0.864237
Si Si6 0.205989 0.130036 0.008898
Si Si7 0.986235 0.403796 0.132353
Si Si8 0.460305 0.190941 0.364602
O O1 0.021513 0.743881 0.240676
O O2 0.703514 0.084059 0.476604
O O3 0.457220 0.887681 0.166005
O O4 0.923465 0.741630 0.075078
O O5 0.370985 0.474376 0.832604
O O6 0.577223 0.289795 0.569809
O O7 0.500000 0.500000 0.500000
O O8 0.449572 0.444679 0.547097
O O9 0.899224 0.153222 0.265426
O O10 0.911873 0.444333 0.661744
O O11 0.058175 0.733803 0.862649
O O12 0.860002 0.662692 0.603263
O O13 0.196524 0.813125 0.892669
O O14 0.645115 0.928068 0.762753
O O15 0.159345 0.287791 0.122234
O O16 0.500000 0.000000 0.000000
O O17 0.267861 0.957584 0.772354
#
# Coordination Sequence:
#
# PCOD9080335 Si02
#       8
#     2   2   2   2   2   2   2   2
#     4  10  20  36  61  90 115 146 194 259 294 328
#     4  10  20  35  60  93 112 143 203 253 292 331
#     4  12  23  33  58  91 113 153 197 237 292 348
#     4  11  22  38  55  84 127 156 184 234 294 357
#     4  11  20  36  61  85 117 149 194 241 295 339
#     4  10  23  37  58  83 122 169 187 226 295 356
#     4  12  20  39  60  87 121 154 196 242 292 348
#     4  10  18  39  58  86 114 151 195 242 290 338
#
# _framework density 22.920252999999999
#
# number of rings (size 3 to 8) (size 9 to 14) (size 15 to 20)
#    0.000    1.250    7.500    0.750    3.500    0.000 
#    2.250    1.875    0.000    1.500    0.000    0.000 
#    0.000    0.000    0.000    0.000    0.000    0.000 
#
# Total GULP energy -89311.805220 kJ/mol
# GULP energy per Si atom -5581.987826 kJ/mol
# Density = 2.286809 g / cm^3
# Si number density = 22.920253 Si / 1000 Ang^3
#
#
#
# Elastic Constant Matrix: (Units=GPa)
#
#
# Indices 1 2 3 4 5 6 
#
# 1 75.9003 25.8075 35.5160 3.5280 -29.2949 -6.4984
# 2 25.8075 158.6580 41.1913 -1.9757 -9.8146 -19.6197
# 3 35.5160 41.1913 105.6247 25.0185 -34.4012 -10.6297
# 4 3.5280 -1.9757 25.0185 34.2749 -9.7963 -8.7534
# 5 -29.2949 -9.8146 -34.4012 -9.7963 42.2453 9.5375
# 6 -6.4984 -19.6197 -10.6297 -8.7534 9.5375 25.1490
#
#
#
# Elastic Compliance Matrix: (Units=1/GPa)
#
#
# Indices 1 2 3 4 5 6 
#
# 1 0.019378 -0.001763 -0.002868 0.003083 0.011613 -0.000912
# 2 -0.001763 0.008391 -0.004062 0.004559 -0.003138 0.007151
# 3 -0.002868 -0.004062 0.017289 -0.010855 0.009531 -0.003995
# 4 0.003083 0.004559 -0.010855 0.040742 0.000719 0.013674
# 5 0.011613 -0.003138 0.009531 0.000719 0.041375 -0.010860
# 6 -0.000912 0.007151 -0.003995 0.013674 -0.010860 0.052295
#
#
# Mechanical properties :
#
#
# Convention : Reuss Voigt Hill
#
# Bulk Modulus (GPa) = 36.13746 60.57920 48.35833
# Shear Modulus (GPa) = 24.26233 36.17838 30.22036
#
# Velocity S-wave (km/s) = 3.25707 3.97728 3.63505
# Velocity P-wave (km/s) = 5.47225 6.89779 6.22595
#
# Compressibility (1/GPa) = 0.02767212
#
# Stress axis : x y z
#
# Youngs Moduli (GPa) = 51.60598 119.17301 57.83976
#
# Poissons Ratio (x) = 0.21015 0.16587
# Poissons Ratio (y) = 0.09100 0.23493
# Poissons Ratio (z) = 0.14799 0.48405
#
# Static dielectric constant tensor:
#      x y z
#    x 1.957810 0.065500 0.064130 
#    y 0.065500 1.911760 0.043140 
#    z 0.064130 0.043140 1.872190 
# 
# From -- ./inp_files/592109.got.cif
#   From: 2010.05.17/outbox.cif.g08.bks.cpg/sg2_297_cif.got.tgz:592109.got - 2010.06.03 11:33:40.
