data_PCOD9080813
_publ_section_title
;
Structure prediction by ZEFSAII (Michael W. Deem and Ramdas Pophale) SiO2 
 PCOD9080813
Probable space group: P -1
;
_chemical_formula_sum "Si O2"
_cell_formula_units_Z 12
_cell_length_a 14.434818
_cell_length_b 12.409461
_cell_length_c 8.582048
_cell_angle_alpha 52.515800
_cell_angle_beta 124.666106
_cell_angle_gamma 156.548924
_cell_volume 485.197537
_symmetry_space_group_name_H-M "P -1"
_symmetry_group_IT_number 2
_symmetry_cell_setting 'triclinic'
loop_
_space_group_symop_operation_xyz
x,y,z
-x,-y,-z
loop_
_atom_site_type_symbol
_atom_site_label
_atom_site_fract_x
_atom_site_fract_y
_atom_site_fract_z
Si Si1 0.210223 0.127468 0.419159
Si Si2 0.701566 0.315179 0.360116
Si Si3 0.025688 0.570841 0.712921
Si Si4 0.337587 0.949747 0.947085
Si Si5 0.443484 0.591079 0.041291
Si Si6 0.703727 0.641291 0.366082
O O1 0.236139 0.284466 0.186990
O O2 0.450949 0.303098 0.446623
O O3 0.252716 0.228237 0.546223
O O4 0.938387 0.805062 0.427640
O O5 0.908090 0.522189 0.499448
O O6 0.803835 0.360846 0.258788
O O7 0.500000 0.000000 0.500000
O O8 0.613236 0.373539 0.189743
O O9 0.167551 0.807494 0.766613
O O10 0.825709 0.282476 0.869753
O O11 0.476539 0.220173 0.913665
O O12 0.500000 0.000000 0.000000
O O13 0.649619 0.697190 0.132351
#
# Coordination Sequence:
#
# PCOD9080813 Si02
#       6
#     2   2   2   2   2   2
#     4   8  16  29  46  73 101 124 162 217 261 302
#     4  11  20  34  46  73  99 139 174 213 249 301
#     4  10  22  32  50  64 106 138 174 214 254 292
#     4  11  20  34  46  73  99 139 174 213 249 301
#     4  10  19  28  52  70 102 136 171 208 256 304
#     4   8  16  29  46  73 101 124 162 217 261 302
#
# _framework density 24.732194
#
# number of rings (size 3 to 8) (size 9 to 14) (size 15 to 20)
#    1.000    1.333    3.333    0.000    2.333    0.000 
#    0.000    0.000    0.000    0.000    0.000    4.667 
#    0.000   26.667    0.000    1.333    0.000    0.000 
#
# Total GULP energy -67008.252810 kJ/mol
# GULP energy per Si atom -5584.021068 kJ/mol
# Density = 2.467590 g / cm^3
# Si number density = 24.732194 Si / 1000 Ang^3
#
#
#
# Elastic Constant Matrix: (Units=GPa)
#
#
# Indices 1 2 3 4 5 6 
#
# 1 81.7308 41.4220 10.7684 -1.8052 -0.4367 14.4511
# 2 41.4220 122.6861 19.7616 4.9238 5.1328 52.1245
# 3 10.7684 19.7616 137.3663 30.4887 11.0021 18.7536
# 4 -1.8052 4.9238 30.4887 54.0122 7.1207 -4.5753
# 5 -0.4367 5.1328 11.0021 7.1207 35.5597 7.1054
# 6 14.4511 52.1245 18.7536 -4.5753 7.1054 30.4892
#
#
#
# Elastic Compliance Matrix: (Units=1/GPa)
#
#
# Indices 1 2 3 4 5 6 
#
# 1 0.015632 -0.010233 -0.002207 0.003850 -0.000861 0.012222
# 2 -0.010233 0.047833 0.009221 -0.018888 0.011506 -0.088112
# 3 -0.002207 0.009221 0.011309 -0.009520 0.001747 -0.023510
# 4 0.003850 -0.018888 -0.009520 0.030567 -0.008995 0.043005
# 5 -0.000861 0.011506 0.001747 -0.008995 0.033610 -0.029519
# 6 0.012222 -0.088112 -0.023510 0.043005 -0.029519 0.205436
#
#
# Mechanical properties :
#
#
# Convention : Reuss Voigt Hill
#
# Bulk Modulus (GPa) = 14.63397 53.96523 34.29960
# Shear Modulus (GPa) = 13.38318 42.00097 27.69208
#
# Velocity S-wave (km/s) = 2.32873 4.12543 3.34979
# Velocity P-wave (km/s) = 3.62774 6.67529 5.37215
#
# Compressibility (1/GPa) = 0.06833414
#
# Stress axis : x y z
#
# Youngs Moduli (GPa) = 63.97184 20.90623 88.42561
#
# Poissons Ratio (x) = 0.21394 0.19519
# Poissons Ratio (y) = 0.65464 -0.81537
# Poissons Ratio (z) = 0.14121 -0.19278
#
# Static dielectric constant tensor:
#      x y z
#    x 1.937520 -0.009930 0.019170 
#    y -0.009930 1.931120 0.020690 
#    z 0.019170 0.020690 1.994640 
# 
# From -- ./inp_files/33279.got.cif
#   From: 2010.05.17/outbox.cif.g08.bks.cpg/sg2_17_cif.got.tgz:33279.got - 2010.06.03 11:33:40.
