data_PCOD9080392
_publ_section_title
;
Structure prediction by ZEFSAII (Michael W. Deem and Ramdas Pophale) SiO2 
 PCOD9080392
Probable space group: P -1
;
_chemical_formula_sum "Si O2"
_cell_formula_units_Z 16
_cell_length_a 10.080608
_cell_length_b 11.994124
_cell_length_c 19.335557
_cell_angle_alpha 142.213049
_cell_angle_beta 134.463775
_cell_angle_gamma 72.360815
_cell_volume 837.897688
_symmetry_space_group_name_H-M "P -1"
_symmetry_group_IT_number 2
_symmetry_cell_setting 'triclinic'
loop_
_space_group_symop_operation_xyz
x,y,z
-x,-y,-z
loop_
_atom_site_type_symbol
_atom_site_label
_atom_site_fract_x
_atom_site_fract_y
_atom_site_fract_z
Si Si1 0.946571 0.390132 0.821926
Si Si2 0.308541 0.623786 0.649886
Si Si3 0.346004 0.272074 0.291709
Si Si4 0.372668 0.624945 0.194051
Si Si5 0.121445 0.022174 0.482376
Si Si6 0.025985 0.813889 0.621594
Si Si7 0.002576 0.183472 0.012372
Si Si8 0.334474 0.206051 0.031598
O O1 0.722244 0.293878 0.740704
O O2 0.931445 0.210842 0.677921
O O3 0.988764 0.604904 0.904883
O O4 0.161108 0.484294 0.996477
O O5 0.497241 0.708490 0.702884
O O6 0.134377 0.675015 0.582778
O O7 0.188967 0.364003 0.496550
O O8 0.444953 0.759474 0.835398
O O9 0.500000 0.500000 0.500000
O O10 0.127719 0.242104 0.160944
O O11 0.243743 0.045806 0.185581
O O12 0.604726 0.813015 0.334596
O O13 0.412330 0.448116 0.153442
O O14 0.000000 0.000000 0.500000
O O15 0.040462 0.115163 0.437053
O O16 0.209191 0.029647 0.838361
O O17 0.146429 0.144790 0.991336
#
# Coordination Sequence:
#
# PCOD9080392 Si02
#       8
#     2   2   2   2   2   2   2   2
#     4  10  22  42  65  91 120 166 213 259 305 374
#     4  10  22  37  61  89 117 160 204 249 300 370
#     4  10  20  38  59  89 124 156 190 255 311 359
#     4  10  21  41  66  89 119 161 216 255 307 370
#     4  12  26  42  60  94 133 168 206 262 322 378
#     4  11  22  39  60  87 121 160 207 247 304 373
#     4   9  21  36  60  92 119 149 207 251 305 365
#     4  10  18  39  63  86 115 156 203 255 301 358
#
# _framework density 19.095410000000001
#
# number of rings (size 3 to 8) (size 9 to 14) (size 15 to 20)
#    0.000    1.750    2.500    1.500    0.000    3.500 
#    2.250    1.250    0.000    0.000    0.000    0.000 
#    0.000    0.000    0.000    0.000    0.000    0.000 
#
# Total GULP energy -89211.701098 kJ/mol
# GULP energy per Si atom -5575.731319 kJ/mol
# Density = 1.905195 g / cm^3
# Si number density = 19.095410 Si / 1000 Ang^3
#
#
#
# Elastic Constant Matrix: (Units=GPa)
#
#
# Indices 1 2 3 4 5 6 
#
# 1 80.1154 23.5526 31.6623 23.4164 6.6878 10.5352
# 2 23.5526 59.4410 2.5533 9.0914 14.4539 -1.0766
# 3 31.6623 2.5533 83.8204 16.7952 8.6635 7.5000
# 4 23.4164 9.0914 16.7952 21.7728 3.5075 7.3058
# 5 6.6878 14.4539 8.6635 3.5075 31.1964 3.1053
# 6 10.5352 -1.0766 7.5000 7.3058 3.1053 22.1343
#
#
#
# Elastic Compliance Matrix: (Units=1/GPa)
#
#
# Indices 1 2 3 4 5 6 
#
# 1 0.020975 -0.006254 -0.004465 -0.015474 0.001770 -0.003916
# 2 -0.006254 0.022586 0.003299 -0.005735 -0.010018 0.006256
# 3 -0.004465 0.003299 0.015507 -0.007967 -0.004004 0.000223
# 4 -0.015474 -0.005735 -0.007967 0.076126 0.001171 -0.015505
# 5 0.001770 -0.010018 -0.004004 0.001171 0.037862 -0.005672
# 6 -0.003916 0.006256 0.000223 -0.015505 -0.005672 0.053185
#
#
# Mechanical properties :
#
#
# Convention : Reuss Voigt Hill
#
# Bulk Modulus (GPa) = 22.60944 37.65702 30.13323
# Shear Modulus (GPa) = 19.54486 26.06130 22.80308
#
# Velocity S-wave (km/s) = 3.20275 3.69832 3.45942
# Velocity P-wave (km/s) = 5.05398 6.16442 5.63661
#
# Compressibility (1/GPa) = 0.04422931
#
# Stress axis : x y z
#
# Youngs Moduli (GPa) = 47.67576 44.27468 64.48890
#
# Poissons Ratio (x) = 0.27689 0.28792
# Poissons Ratio (y) = 0.29816 -0.21276
# Poissons Ratio (z) = 0.21285 -0.14607
#
# Static dielectric constant tensor:
#      x y z
#    x 1.668430 0.011270 0.016670 
#    y 0.011270 1.695550 -0.020650 
#    z 0.016670 -0.020650 1.694360 
# 
# From -- ./inp_files/367510.got.cif
#   From: 2010.05.17/outbox.cif.g08.bks.cpg/sg2_184_cif.got.tgz:367510.got - 2010.06.03 11:33:40.
