data_PCOD9080862
_publ_section_title
;
Structure prediction by ZEFSAII (Michael W. Deem and Ramdas Pophale) SiO2 
 PCOD9080862
Probable space group: P -1
;
_chemical_formula_sum "Si O2"
_cell_formula_units_Z 16
_cell_length_a 6.718144
_cell_length_b 13.785732
_cell_length_c 28.285629
_cell_angle_alpha 19.984870
_cell_angle_beta 125.693669
_cell_angle_gamma 117.716138
_cell_volume 693.681763
_symmetry_space_group_name_H-M "P -1"
_symmetry_group_IT_number 2
_symmetry_cell_setting 'triclinic'
loop_
_space_group_symop_operation_xyz
x,y,z
-x,-y,-z
loop_
_atom_site_type_symbol
_atom_site_label
_atom_site_fract_x
_atom_site_fract_y
_atom_site_fract_z
Si Si1 0.719804 0.695381 0.171050
Si Si2 0.611746 0.609968 0.860086
Si Si3 0.055050 0.653276 0.805433
Si Si4 0.117104 0.206296 0.100145
Si Si5 0.196843 0.900902 0.505443
Si Si6 0.274900 0.737001 0.257553
Si Si7 0.150915 0.190674 0.960600
Si Si8 0.363818 0.093873 0.533739
O O1 0.653707 0.444114 0.307693
O O2 0.764567 0.623466 0.154051
O O3 0.979030 0.745528 0.203882
O O4 0.500000 0.000000 0.000000
O O5 0.341001 0.619820 0.840650
O O6 0.742602 0.777857 0.838909
O O7 0.558966 0.798655 0.718086
O O8 0.810581 0.281197 0.031448
O O9 0.975050 0.413222 0.871921
O O10 0.107036 0.506417 0.931268
O O11 0.871287 0.966831 0.617077
O O12 0.259302 0.912890 0.224258
O O13 0.915628 0.906370 0.484567
O O14 0.320920 0.081799 0.476854
O O15 0.416632 0.390382 0.425883
O O16 0.348684 0.945715 0.132629
O O17 0.000000 0.000000 0.000000
#
# Coordination Sequence:
#
# PCOD9080862 Si02
#       8
#     2   2   2   2   2   2   2   2
#     4  10  19  29  49  79 110 144 178 215 271 333
#     4  10  21  37  59  79 110 146 189 234 275 317
#     4  10  19  36  61  76 111 151 181 223 279 328
#     4  10  22  37  55  86 108 140 197 235 264 322
#     4   9  17  31  52  81 108 141 180 217 271 341
#     4   9  19  33  51  75 109 141 182 227 270 321
#     4   9  17  31  49  74 108 143 173 218 266 325
#     4   9  17  33  56  78 108 148 177 219 283 326
#
# _framework density 23.065332000000001
#
# number of rings (size 3 to 8) (size 9 to 14) (size 15 to 20)
#    0.000    2.500    0.000    4.125    3.500    0.500 
#    2.250    0.625    0.000    0.000    0.000   10.500 
#    0.000    0.000    0.000    0.000    0.000    0.000 
#
# Total GULP energy -89234.897495 kJ/mol
# GULP energy per Si atom -5577.181093 kJ/mol
# Density = 2.301283 g / cm^3
# Si number density = 23.065332 Si / 1000 Ang^3
#
#
#
# Elastic Constant Matrix: (Units=GPa)
#
#
# Indices 1 2 3 4 5 6 
#
# 1 53.1111 15.7562 13.5630 8.5129 -14.8149 0.1425
# 2 15.7562 92.5214 32.4921 -2.1270 -9.0644 -19.9633
# 3 13.5630 32.4921 104.5097 -11.1178 -8.6402 6.9611
# 4 8.5129 -2.1270 -11.1178 35.6961 -3.6583 0.4274
# 5 -14.8149 -9.0644 -8.6402 -3.6583 36.5230 2.3647
# 6 0.1425 -19.9633 6.9611 0.4274 2.3647 29.8024
#
#
#
# Elastic Compliance Matrix: (Units=1/GPa)
#
#
# Indices 1 2 3 4 5 6 
#
# 1 0.023312 -0.003209 -0.001804 -0.005481 0.007838 -0.002383
# 2 -0.003209 0.015788 -0.005224 0.000002 0.000620 0.011762
# 3 -0.001804 -0.005224 0.012467 0.004263 0.001776 -0.006605
# 4 -0.005481 0.000002 0.004263 0.030871 0.001979 -0.001568
# 5 0.007838 0.000620 0.001776 0.001979 0.031498 -0.002565
# 6 -0.002383 0.011762 -0.006605 -0.001568 -0.002565 0.043213
#
#
# Mechanical properties :
#
#
# Convention : Reuss Voigt Hill
#
# Bulk Modulus (GPa) = 32.16104 41.52941 36.84523
# Shear Modulus (GPa) = 26.59750 32.95969 29.77860
#
# Velocity S-wave (km/s) = 3.39947 3.78427 3.59702
# Velocity P-wave (km/s) = 5.42054 6.09414 5.76718
#
# Compressibility (1/GPa) = 0.03109352
#
# Stress axis : x y z
#
# Youngs Moduli (GPa) = 42.89560 63.33928 80.21157
#
# Poissons Ratio (x) = 0.20323 0.14472
# Poissons Ratio (y) = 0.13764 0.41904
# Poissons Ratio (z) = 0.07739 0.33089
#
# Static dielectric constant tensor:
#      x y z
#    x 2.043130 -0.012300 -0.002250 
#    y -0.012300 1.877060 -0.048830 
#    z -0.002250 -0.048830 1.944740 
# 
# From -- ./inp_files/622541.got.cif
#   From: 2010.05.17/outbox.cif.g08.bks.cpg/sg2_312_cif.got.tgz:622541.got - 2010.06.03 11:33:40.
