data_PCOD9080957
_publ_section_title
;
Structure prediction by ZEFSAII (Michael W. Deem and Ramdas Pophale) SiO2 
 PCOD9080957
Probable space group: P -1
;
_chemical_formula_sum "Si O2"
_cell_formula_units_Z 16
_cell_length_a 9.116150
_cell_length_b 22.556209
_cell_length_c 8.538667
_cell_angle_alpha 33.344549
_cell_angle_beta 44.033286
_cell_angle_gamma 37.735653
_cell_volume 581.727346
_symmetry_space_group_name_H-M "P -1"
_symmetry_group_IT_number 2
_symmetry_cell_setting 'triclinic'
loop_
_space_group_symop_operation_xyz
x,y,z
-x,-y,-z
loop_
_atom_site_type_symbol
_atom_site_label
_atom_site_fract_x
_atom_site_fract_y
_atom_site_fract_z
Si Si1 0.367130 0.130291 0.964091
Si Si2 0.424001 0.577697 0.573549
Si Si3 0.390240 0.723659 0.556736
Si Si4 0.149698 0.052066 0.581230
Si Si5 0.631910 0.644965 0.855485
Si Si6 0.886157 0.755913 0.617738
Si Si7 0.069098 0.445729 0.744014
Si Si8 0.916334 0.944489 0.831612
O O1 0.402512 0.245495 0.729781
O O2 0.308874 0.066388 0.292827
O O3 0.635450 0.041200 0.882094
O O4 0.138813 0.162639 0.951818
O O5 0.419362 0.603910 0.709118
O O6 0.671779 0.574731 0.357240
O O7 0.156647 0.687036 0.487158
O O8 0.442978 0.448152 0.803429
O O9 0.128325 0.836341 0.467552
O O10 0.421731 0.717508 0.730982
O O11 0.108692 0.935205 0.837681
O O12 0.213726 0.099237 0.587081
O O13 0.702394 0.730411 0.713571
O O14 0.867817 0.551796 0.777876
O O15 0.920813 0.680075 0.921620
O O16 0.000000 0.500000 0.500000
O O17 0.000000 0.000000 0.500000
#
# Coordination Sequence:
#
# PCOD9080957 Si02
#       8
#     2   2   2   2   2   2   2   2
#     4   9  16  29  51  79 103 123 168 211 243 303
#     4  10  20  35  52  69  98 136 180 217 252 303
#     4  10  19  30  49  74  98 133 171 212 254 297
#     4   9  18  31  52  74 100 136 166 206 252 307
#     4  11  23  35  48  74 106 138 173 220 262 300
#     4  10  23  36  49  74 107 135 173 216 262 302
#     4  11  21  33  55  73  93 137 185 218 256 302
#     4   8  15  29  50  81 106 125 156 211 257 289
#
# _framework density 27.504293000000001
#
# number of rings (size 3 to 8) (size 9 to 14) (size 15 to 20)
#    0.000    2.250    1.250    2.625    3.500    2.000 
#    0.000    0.000    0.000    0.750    0.000   29.750 
#    0.000    0.000    0.000    0.000    0.000    0.000 
#
# Total GULP energy -89336.570583 kJ/mol
# GULP energy per Si atom -5583.535661 kJ/mol
# Density = 2.744169 g / cm^3
# Si number density = 27.504293 Si / 1000 Ang^3
#
#
#
# Elastic Constant Matrix: (Units=GPa)
#
#
# Indices 1 2 3 4 5 6 
#
# 1 138.2942 34.1418 47.0257 -43.6981 -43.8115 35.6422
# 2 34.1418 42.6578 19.6706 0.3537 -21.5789 9.4827
# 3 47.0257 19.6706 136.2096 7.3656 -34.9567 4.4491
# 4 -43.6981 0.3537 7.3656 27.2337 4.3312 -18.4396
# 5 -43.8115 -21.5789 -34.9567 4.3312 58.0842 -11.8303
# 6 35.6422 9.4827 4.4491 -18.4396 -11.8303 49.9044
#
#
#
# Elastic Compliance Matrix: (Units=1/GPa)
#
#
# Indices 1 2 3 4 5 6 
#
# 1 0.045216 -0.026022 -0.013258 0.078386 0.011750 0.005582
# 2 -0.026022 0.045168 0.006195 -0.050163 0.002912 -0.008395
# 3 -0.013258 0.006195 0.012959 -0.026705 0.001614 -0.002349
# 4 0.078386 -0.050163 -0.026705 0.187449 0.016359 0.029069
# 5 0.011750 0.002912 0.001614 0.016359 0.027626 0.003504
# 6 0.005582 -0.008395 -0.002349 0.029069 0.003504 0.029428
#
#
# Mechanical properties :
#
#
# Convention : Reuss Voigt Hill
#
# Bulk Modulus (GPa) = 26.90147 57.64865 42.27506
# Shear Modulus (GPa) = 11.72592 41.46602 26.59597
#
# Velocity S-wave (km/s) = 2.06702 3.88702 3.11300
# Velocity P-wave (km/s) = 3.93685 6.41487 5.32210
#
# Compressibility (1/GPa) = 0.03717269
#
# Stress axis : x y z
#
# Youngs Moduli (GPa) = 22.11625 22.13967 77.16573
#
# Poissons Ratio (x) = 0.57612 1.02306
# Poissons Ratio (y) = 0.57551 -0.47806
# Poissons Ratio (z) = 0.29322 -0.13716
#
# Static dielectric constant tensor:
#      x y z
#    x 2.218260 0.159360 0.067990 
#    y 0.159360 2.284380 0.006740 
#    z 0.067990 0.006740 2.165930 
# 
# From -- ./inp_files/220444.got.cif
#   From: 2010.05.17/outbox.cif.g08.bks.cpg/sg2_111_cif.got.tgz:220444.got - 2010.06.03 11:33:40.
