data_PCOD9080018
_publ_section_title
;
Structure prediction by ZEFSAII (Michael W. Deem and Ramdas Pophale) SiO2 
 PCOD9080018
Probable space group: P -1
;
_chemical_formula_sum "Si O2"
_cell_formula_units_Z 14
_cell_length_a 12.208748
_cell_length_b 10.302558
_cell_length_c 12.654989
_cell_angle_alpha 35.367745
_cell_angle_beta 146.117034
_cell_angle_gamma 136.092538
_cell_volume 508.963309
_symmetry_space_group_name_H-M "P -1"
_symmetry_group_IT_number 2
_symmetry_cell_setting 'triclinic'
loop_
_space_group_symop_operation_xyz
x,y,z
-x,-y,-z
loop_
_atom_site_type_symbol
_atom_site_label
_atom_site_fract_x
_atom_site_fract_y
_atom_site_fract_z
Si Si1 0.190230 0.785338 0.145841
Si Si2 0.042753 0.399725 0.419592
Si Si3 0.555869 0.771041 0.147688
Si Si4 0.334854 0.150908 0.183926
Si Si5 0.163795 0.020795 0.365497
Si Si6 0.236146 0.477214 0.213250
Si Si7 0.691126 0.547293 0.213689
O O1 0.029084 0.590139 0.196391
O O2 0.311071 0.640295 0.262531
O O3 0.308201 0.924585 0.241448
O O4 0.062211 0.942262 0.872054
O O5 0.148832 0.507660 0.537779
O O6 0.865400 0.217596 0.438824
O O7 0.226223 0.270702 0.608537
O O8 0.376587 0.581544 0.162573
O O9 0.500000 0.000000 0.000000
O O10 0.273368 0.077069 0.302829
O O11 0.220535 0.320309 0.907167
O O12 0.422156 0.269678 0.933478
O O13 0.242034 0.211519 0.386462
O O14 0.540309 0.318562 0.233585
O O15 0.000000 0.500000 0.000000
#
# Coordination Sequence:
#
# PCOD9080018 Si02
#       7
#     2   2   2   2   2   2   2
#     4  11  23  37  64  92 122 162 204 248 306 358
#     4  10  23  39  60  94 125 157 204 252 302 362
#     4  10  18  38  61  87 120 161 196 254 300 353
#     4  11  20  40  66  88 122 165 205 245 307 359
#     4  11  21  42  63  86 127 164 201 253 297 360
#     4  10  21  38  61  88 120 159 202 252 303 353
#     4   9  21  38  61  93 119 158 206 250 301 364
#
# _framework density 27.506898
#
# number of rings (size 3 to 8) (size 9 to 14) (size 15 to 20)
#    0.857    0.857    2.857    3.000    0.000    2.286 
#    0.000    0.000    3.143    0.000    0.000    0.000 
#    0.000    0.000    0.000    0.000    0.000    0.000 
#
# Total GULP energy -78243.229650 kJ/mol
# GULP energy per Si atom -5588.802118 kJ/mol
# Density = 2.744429 g / cm^3
# Si number density = 27.506898 Si / 1000 Ang^3
#
#
#
# Elastic Constant Matrix: (Units=GPa)
#
#
# Indices 1 2 3 4 5 6 
#
# 1 173.0836 50.0760 17.4544 -16.9294 -11.9152 3.7455
# 2 50.0760 180.0947 23.4082 -33.0626 6.3530 -16.3131
# 3 17.4544 23.4082 102.9163 -20.7722 -19.6705 7.9601
# 4 -16.9294 -33.0626 -20.7722 43.6146 16.3838 -8.7060
# 5 -11.9152 6.3530 -19.6705 16.3838 41.8755 -7.0369
# 6 3.7455 -16.3131 7.9601 -8.7060 -7.0369 51.9124
#
#
#
# Elastic Compliance Matrix: (Units=1/GPa)
#
#
# Indices 1 2 3 4 5 6 
#
# 1 0.006504 -0.001885 -0.000235 0.000140 0.001845 -0.000752
# 2 -0.001885 0.008018 -0.001190 0.007169 -0.004541 0.003425
# 3 -0.000235 -0.001190 0.011463 0.002640 0.004282 -0.001091
# 4 0.000140 0.007169 0.002640 0.035678 -0.012743 0.006094
# 5 0.001845 -0.004541 0.004282 -0.012743 0.032090 -0.000004
# 6 -0.000752 0.003425 -0.001091 0.006094 -0.000004 0.021583
#
#
# Mechanical properties :
#
#
# Convention : Reuss Voigt Hill
#
# Bulk Modulus (GPa) = 51.64198 70.88574 61.26386
# Shear Modulus (GPa) = 38.93765 51.82424 45.38094
#
# Velocity S-wave (km/s) = 3.76647 4.34527 4.06618
# Velocity P-wave (km/s) = 6.14248 7.14152 6.66075
#
# Compressibility (1/GPa) = 0.01936409
#
# Stress axis : x y z
#
# Youngs Moduli (GPa) = 153.75869 124.71799 87.23916
#
# Poissons Ratio (x) = 0.23513 0.02051
# Poissons Ratio (y) = 0.28988 0.10380
# Poissons Ratio (z) = 0.03615 0.14839
#
# Static dielectric constant tensor:
#      x y z
#    x 2.229130 -0.014960 0.130900 
#    y -0.014960 2.131550 0.015770 
#    z 0.130900 0.015770 2.232160 
# 
# From -- ./inp_files/530897.got.cif
#   From: 2010.05.17/outbox.cif.g08.bks.cpg/sg2_266_cif.got.tgz:530897.got - 2010.06.03 11:33:40.
