data_PCOD9080910
_publ_section_title
;
Structure prediction by ZEFSAII (Michael W. Deem and Ramdas Pophale) SiO2 
 PCOD9080910
Probable space group: P -1
;
_chemical_formula_sum "Si O2"
_cell_formula_units_Z 16
_cell_length_a 10.518932
_cell_length_b 36.102356
_cell_length_c 5.314755
_cell_angle_alpha 46.980509
_cell_angle_beta 60.595861
_cell_angle_gamma 29.517655
_cell_volume 696.843849
_symmetry_space_group_name_H-M "P -1"
_symmetry_group_IT_number 2
_symmetry_cell_setting 'triclinic'
loop_
_space_group_symop_operation_xyz
x,y,z
-x,-y,-z
loop_
_atom_site_type_symbol
_atom_site_label
_atom_site_fract_x
_atom_site_fract_y
_atom_site_fract_z
Si Si1 0.151389 0.109756 0.083787
Si Si2 0.328965 0.808416 0.342461
Si Si3 0.558327 0.301612 0.607719
Si Si4 0.108024 0.497153 0.160417
Si Si5 0.205519 0.325853 0.115218
Si Si6 0.371090 0.099262 0.415386
Si Si7 0.372062 0.195852 0.252875
Si Si8 0.114584 0.993277 0.167301
O O1 0.246168 0.113402 0.217856
O O2 0.311188 0.009347 0.397912
O O3 0.249573 0.107260 0.742136
O O4 0.827670 0.207346 0.931163
O O5 0.380197 0.735396 0.561585
O O6 0.517764 0.768015 0.574454
O O7 0.447367 0.811185 0.000631
O O8 0.015783 0.913142 0.163936
O O9 0.431732 0.394087 0.319327
O O10 0.311273 0.338237 0.766075
O O11 0.000000 0.500000 0.500000
O O12 0.000000 0.500000 0.000000
O O13 0.998471 0.586489 0.900647
O O14 0.139854 0.293634 0.175923
O O15 0.311860 0.175354 0.177982
O O16 0.566993 0.105398 0.660861
O O17 0.000000 0.000000 0.500000
O O18 0.000000 0.000000 0.000000
#
# Coordination Sequence:
#
# PCOD9080910 Si02
#       8
#     2   2   2   2   2   2   2   2
#     4  10  23  41  60  82 109 153 200 236 274 325
#     4  10  19  32  53  83 114 145 179 225 288 347
#     4  10  21  36  58  84 115 148 187 239 284 338
#     4  10  20  35  55  84 118 147 183 228 287 346
#     4  10  20  34  56  87 117 146 181 229 293 348
#     4  10  23  41  59  82 112 152 199 237 271 328
#     4  10  21  35  53  81 115 151 181 233 284 339
#     4  10  19  30  45  74 109 139 172 210 267 334
#
# _framework density 22.960667000000001
#
# number of rings (size 3 to 8) (size 9 to 14) (size 15 to 20)
#    0.000    2.000    2.500    0.750    3.500    1.000 
#    2.250    0.000    0.000    1.500    0.000    0.000 
#    0.000    0.000    0.000    0.000    0.000    0.000 
#
# Total GULP energy -89189.161843 kJ/mol
# GULP energy per Si atom -5574.322615 kJ/mol
# Density = 2.290841 g / cm^3
# Si number density = 22.960667 Si / 1000 Ang^3
#
#
#
# Elastic Constant Matrix: (Units=GPa)
#
#
# Indices 1 2 3 4 5 6 
#
# 1 88.9705 56.4253 19.3895 -9.7140 4.1013 38.8980
# 2 56.4253 143.3754 43.0173 -22.4884 -12.0862 44.4337
# 3 19.3895 43.0173 65.4939 -3.6807 10.1527 14.6105
# 4 -9.7140 -22.4884 -3.6807 50.0285 13.2837 -4.3601
# 5 4.1013 -12.0862 10.1527 13.2837 29.7767 1.2864
# 6 38.8980 44.4337 14.6105 -4.3601 1.2864 42.7151
#
#
#
# Elastic Compliance Matrix: (Units=1/GPa)
#
#
# Indices 1 2 3 4 5 6 
#
# 1 0.020245 -0.003730 0.000554 0.002350 -0.004920 -0.014357
# 2 -0.003730 0.014687 -0.007659 0.002252 0.008483 -0.009287
# 3 0.000554 -0.007659 0.021846 0.001294 -0.011231 0.000461
# 4 0.002350 0.002252 0.001294 0.024164 -0.010538 -0.002142
# 5 -0.004920 0.008483 -0.011231 -0.010538 0.046363 -0.002975
# 6 -0.014357 -0.009287 0.000461 -0.002142 -0.002975 0.045859
#
#
# Mechanical properties :
#
#
# Convention : Reuss Voigt Hill
#
# Bulk Modulus (GPa) = 28.48393 59.50044 43.99219
# Shear Modulus (GPa) = 24.20859 36.43790 30.32325
#
# Velocity S-wave (km/s) = 3.25060 3.98800 3.63803
# Velocity P-wave (km/s) = 5.14985 6.86847 6.07029
#
# Compressibility (1/GPa) = 0.03510751
#
# Stress axis : x y z
#
# Youngs Moduli (GPa) = 49.39510 68.08555 45.77446
#
# Poissons Ratio (x) = 0.25399 -0.02536
# Poissons Ratio (y) = 0.18426 0.35060
# Poissons Ratio (z) = -0.02737 0.52148
#
# Static dielectric constant tensor:
#      x y z
#    x 1.885300 0.056570 -0.022920 
#    y 0.056570 2.146510 0.065070 
#    z -0.022920 0.065070 2.028610 
# 
# From -- ./inp_files/56810.got.cif
#   From: 2010.05.17/outbox.cif.g08.bks.cpg/sg2_29_cif.got.tgz:56810.got - 2010.06.03 11:33:40.
