data_PCOD9080728
_publ_section_title
;
Structure prediction by ZEFSAII (Michael W. Deem and Ramdas Pophale) SiO2 
 PCOD9080728
Probable space group: P -1
;
_chemical_formula_sum "Si O2"
_cell_formula_units_Z 14
_cell_length_a 23.429165
_cell_length_b 6.520273
_cell_length_c 9.628774
_cell_angle_alpha 127.703210
_cell_angle_beta 44.183222
_cell_angle_gamma 96.920388
_cell_volume 662.566140
_symmetry_space_group_name_H-M "P -1"
_symmetry_group_IT_number 2
_symmetry_cell_setting 'triclinic'
loop_
_space_group_symop_operation_xyz
x,y,z
-x,-y,-z
loop_
_atom_site_type_symbol
_atom_site_label
_atom_site_fract_x
_atom_site_fract_y
_atom_site_fract_z
Si Si1 0.615422 0.354928 0.224160
Si Si2 0.270944 0.545203 0.698867
Si Si3 0.095411 0.321759 0.619284
Si Si4 0.737202 0.622877 0.639312
Si Si5 0.073911 0.622552 0.185781
Si Si6 0.158109 0.262176 0.162323
Si Si7 0.751064 0.349827 0.777607
O O1 0.500000 0.500000 0.500000
O O2 0.654238 0.479886 0.327192
O O3 0.648753 0.432155 0.055611
O O4 0.679318 0.971000 0.954895
O O5 0.314570 0.325687 0.396904
O O6 0.182592 0.532728 0.914777
O O7 0.219842 0.894225 0.868465
O O8 0.147826 0.496307 0.640223
O O9 0.116655 0.283511 0.398560
O O10 0.978830 0.456414 0.874464
O O11 0.161244 0.986457 0.446473
O O12 0.743399 0.378821 0.636963
O O13 0.085616 0.449492 0.237972
O O14 0.000000 0.000000 0.500000
O O15 0.222609 0.406977 0.121725
#
# Coordination Sequence:
#
# PCOD9080728 Si02
#       7
#     2   2   2   2   2   2   2
#     4  11  23  45  71  91 118 159 208 259 317 379
#     4  12  24  40  62  95 126 168 205 257 312 365
#     4  10  20  36  60  88 125 168 209 253 290 355
#     4  10  24  42  61  93 133 157 206 256 310 373
#     4  12  20  34  63  94 125 171 218 247 301 358
#     4  11  18  35  62  89 123 165 209 250 303 360
#     4  10  18  42  62  87 126 164 199 260 308 360
#
# _framework density 21.129966
#
# number of rings (size 3 to 8) (size 9 to 14) (size 15 to 20)
#    0.000    1.143    8.571    0.429    0.000    4.000 
#    0.000    2.143    0.000    0.000    0.000    0.000 
#    0.000    0.000    0.000    0.000    0.000    0.000 
#
# Total GULP energy -78111.249050 kJ/mol
# GULP energy per Si atom -5579.374932 kJ/mol
# Density = 2.108187 g / cm^3
# Si number density = 21.129966 Si / 1000 Ang^3
#
#
#
# Elastic Constant Matrix: (Units=GPa)
#
#
# Indices 1 2 3 4 5 6 
#
# 1 124.5474 21.2482 54.4626 -24.9112 -5.2169 -7.1869
# 2 21.2482 112.7025 35.4863 -34.2289 -7.5770 -11.8082
# 3 54.4626 35.4863 78.4678 -30.8412 -23.0742 -5.2573
# 4 -24.9112 -34.2289 -30.8412 27.1441 4.9849 3.1243
# 5 -5.2169 -7.5770 -23.0742 4.9849 37.0090 -8.2404
# 6 -7.1869 -11.8082 -5.2573 3.1243 -8.2404 27.5192
#
#
#
# Elastic Compliance Matrix: (Units=1/GPa)
#
#
# Indices 1 2 3 4 5 6 
#
# 1 0.012225 0.001347 -0.008775 0.003590 -0.003836 0.000538
# 2 0.001347 0.015357 0.001738 0.021409 0.002799 0.005681
# 3 -0.008775 0.001738 0.036535 0.031198 0.019411 0.007704
# 4 0.003590 0.021409 0.031198 0.099208 0.012912 0.008687
# 5 -0.003836 0.002799 0.019411 0.012912 0.040671 0.014620
# 6 0.000538 0.005681 0.007704 0.008687 0.014620 0.043780
#
#
# Mechanical properties :
#
#
# Convention : Reuss Voigt Hill
#
# Bulk Modulus (GPa) = 18.96186 59.79021 39.37603
# Shear Modulus (GPa) = 18.06784 31.96917 25.01851
#
# Velocity S-wave (km/s) = 2.92735 3.89392 3.44471
# Velocity P-wave (km/s) = 4.51877 6.96955 5.87341
#
# Compressibility (1/GPa) = 0.05273744
#
# Stress axis : x y z
#
# Youngs Moduli (GPa) = 81.80026 65.11644 27.37115
#
# Poissons Ratio (x) = -0.08771 0.24018
# Poissons Ratio (y) = -0.11019 -0.04758
# Poissons Ratio (z) = 0.71779 -0.11318
#
# Static dielectric constant tensor:
#      x y z
#    x 1.830660 0.012510 0.031430 
#    y 0.012510 1.756850 -0.022040 
#    z 0.031430 -0.022040 1.827670 
# 
# From -- ./inp_files/46037.got.cif
#   From: 2010.05.17/outbox.cif.g08.bks.cpg/sg2_24_cif.got.tgz:46037.got - 2010.06.03 11:33:40.
