data_PCOD9080380
_publ_section_title
;
Structure prediction by ZEFSAII (Michael W. Deem and Ramdas Pophale) SiO2 
 PCOD9080380
Probable space group: P -1
;
_chemical_formula_sum "Si O2"
_cell_formula_units_Z 14
_cell_length_a 15.929148
_cell_length_b 9.801007
_cell_length_c 8.228806
_cell_angle_alpha 107.106867
_cell_angle_beta 97.157358
_cell_angle_gamma 36.345895
_cell_volume 713.246763
_symmetry_space_group_name_H-M "P -1"
_symmetry_group_IT_number 2
_symmetry_cell_setting 'triclinic'
loop_
_space_group_symop_operation_xyz
x,y,z
-x,-y,-z
loop_
_atom_site_type_symbol
_atom_site_label
_atom_site_fract_x
_atom_site_fract_y
_atom_site_fract_z
Si Si1 0.937595 0.498680 0.830290
Si Si2 0.377730 0.575338 0.582805
Si Si3 0.596866 0.989124 0.945250
Si Si4 0.368219 0.752546 0.961228
Si Si5 0.156941 0.160119 0.330630
Si Si6 0.443770 0.921578 0.409210
Si Si7 0.922173 0.953972 0.466230
O O1 0.944738 0.590006 0.703285
O O2 0.016332 0.241298 0.722564
O O3 0.764931 0.713037 0.885997
O O4 0.000000 0.500000 0.000000
O O5 0.500000 0.500000 0.500000
O O6 0.326056 0.707267 0.790173
O O7 0.450831 0.326323 0.555158
O O8 0.241818 0.774760 0.505188
O O9 0.541336 0.098037 0.788722
O O10 0.589439 0.155233 0.082226
O O11 0.500000 0.000000 0.000000
O O12 0.500000 0.500000 0.000000
O O13 0.247487 0.958254 0.136755
O O14 0.077638 0.146019 0.408242
O O15 0.278265 0.083889 0.438348
O O16 0.500000 0.000000 0.500000
O O17 0.000000 0.000000 0.500000
#
# Coordination Sequence:
#
# PCOD9080380 Si02
#       7
#     2   2   2   2   2   2   2
#     4  10  23  46  65  90 130 176 217 253 328 396
#     4  12  23  41  68  94 128 170 213 268 319 383
#     4  10  23  39  65  94 123 163 210 269 308 379
#     4  10  18  39  62  93 122 161 211 261 323 364
#     4  10  22  44  66  88 132 174 209 270 317 386
#     4  10  22  39  63  97 125 163 219 261 316 378
#     4  12  26  42  64 100 131 172 214 272 326 380
#
# _framework density 19.628550000000001
#
# number of rings (size 3 to 8) (size 9 to 14) (size 15 to 20)
#    0.000    1.714    4.286    2.143    6.000    2.286 
#    2.571    1.429    0.000    0.000    0.000    0.000 
#    0.000    0.000    0.000    0.000    0.000    0.000 
#
# Total GULP energy -78027.580630 kJ/mol
# GULP energy per Si atom -5573.398616 kJ/mol
# Density = 1.958387 g / cm^3
# Si number density = 19.628550 Si / 1000 Ang^3
#
#
#
# Elastic Constant Matrix: (Units=GPa)
#
#
# Indices 1 2 3 4 5 6 
#
# 1 153.8621 59.0051 36.0352 6.5258 -5.0358 25.3259
# 2 59.0051 137.3256 17.5707 3.4864 0.4508 17.8997
# 3 36.0352 17.5707 54.4440 6.5109 8.9501 10.4946
# 4 6.5258 3.4864 6.5109 28.1943 7.3176 4.1240
# 5 -5.0358 0.4508 8.9501 7.3176 29.1083 3.8540
# 6 25.3259 17.8997 10.4946 4.1240 3.8540 34.8256
#
#
#
# Elastic Compliance Matrix: (Units=1/GPa)
#
#
# Indices 1 2 3 4 5 6 
#
# 1 0.009749 -0.002941 -0.005222 -0.001143 0.004199 -0.004334
# 2 -0.002941 0.008900 -0.000459 0.000078 -0.000223 -0.002282
# 3 -0.005222 -0.000459 0.023838 -0.002001 -0.007446 -0.002089
# 4 -0.001143 0.000078 -0.002001 0.038859 -0.009061 -0.002205
# 5 0.004199 -0.000223 -0.007446 -0.009061 0.040191 -0.004070
# 6 -0.004334 -0.002282 -0.002089 -0.002205 -0.004070 0.034381
#
#
# Mechanical properties :
#
#
# Convention : Reuss Voigt Hill
#
# Bulk Modulus (GPa) = 39.61190 63.42820 51.52005
# Shear Modulus (GPa) = 27.53664 33.96034 30.74849
#
# Velocity S-wave (km/s) = 3.74958 4.16402 3.96222
# Velocity P-wave (km/s) = 6.24262 7.45004 6.87290
#
# Compressibility (1/GPa) = 0.02524494
#
# Stress axis : x y z
#
# Youngs Moduli (GPa) = 102.57027 112.35353 41.94983
#
# Poissons Ratio (x) = 0.33040 0.21906
# Poissons Ratio (y) = 0.30163 0.01924
# Poissons Ratio (z) = 0.53562 0.05154
#
# Static dielectric constant tensor:
#      x y z
#    x 1.670410 0.070450 -0.061260 
#    y 0.070450 1.673760 0.058200 
#    z -0.061260 0.058200 1.677000 
# 
# From -- ./inp_files/296143.got.cif
#   From: 2010.05.17/outbox.cif.g08.bks.cpg/sg2_149_cif.got.tgz:296143.got - 2010.06.03 11:33:40.
