data_PCOD9080638
_publ_section_title
;
Structure prediction by ZEFSAII (Michael W. Deem and Ramdas Pophale) SiO2 
 PCOD9080638
Probable space group: P -1
;
_chemical_formula_sum "Si O2"
_cell_formula_units_Z 15
_cell_length_a 11.847958
_cell_length_b 8.900874
_cell_length_c 11.869712
_cell_angle_alpha 133.469841
_cell_angle_beta 110.619906
_cell_angle_gamma 53.739965
_cell_volume 729.299701
_symmetry_space_group_name_H-M "P -1"
_symmetry_group_IT_number 2
_symmetry_cell_setting 'triclinic'
loop_
_space_group_symop_operation_xyz
x,y,z
-x,-y,-z
loop_
_atom_site_type_symbol
_atom_site_label
_atom_site_fract_x
_atom_site_fract_y
_atom_site_fract_z
Si Si1 0.316588 0.269976 0.243362
Si Si2 0.615026 0.071862 0.543381
Si Si3 0.387952 0.104947 0.771192
Si Si4 0.846219 0.723235 0.035566
Si Si5 0.267042 0.746244 0.743858
Si Si6 0.500000 0.500000 0.500000
Si Si7 0.560032 0.534893 0.151948
Si Si8 0.835188 0.629353 0.522672
O O1 0.372946 0.453962 0.377732
O O2 0.224703 0.284762 0.328042
O O3 0.464514 0.014923 0.174254
O O4 0.228238 0.303728 0.116836
O O5 0.601614 0.105546 0.420165
O O6 0.760514 0.857417 0.529784
O O7 0.500000 0.000000 0.500000
O O8 0.562931 0.309216 0.720699
O O9 0.259747 0.224086 0.871199
O O10 0.372333 0.308386 0.784375
O O11 0.846257 0.973274 0.160842
O O12 0.000000 0.500000 0.000000
O O13 0.391562 0.655311 0.649402
O O14 0.332316 0.704355 0.869671
O O15 0.210793 0.563156 0.622154
O O16 0.500000 0.500000 0.000000
O O17 0.000000 0.500000 0.500000
#
# Coordination Sequence:
#
# PCOD9080638 Si02
#       8
#     2   2   2   2   2   1   2   2
#     4  11  22  44  71 102 136 184 232 287 354 409
#     4  10  18  40  67  97 134 168 227 287 338 408
#     4  11  21  44  68  96 134 183 227 290 342 410
#     4  12  29  46  66  99 150 190 229 290 366 422
#     4  11  23  45  68 103 135 181 233 287 350 416
#     4  10  22  40  74 104 128 176 242 290 332 420
#     4  11  22  36  69 108 130 164 234 288 343 407
#     4  11  23  42  71 102 140 184 225 289 356 423
#
# _framework density 20.567677
#
# number of rings (size 3 to 8) (size 9 to 14) (size 15 to 20)
#    0.000    1.067    6.667    2.000    3.733    0.000 
#    2.400    4.000    0.000    0.000    0.000    0.000 
#    0.000    0.000    0.000    0.000    0.000    0.000 
#
# Total GULP energy -83527.113176 kJ/mol
# GULP energy per Si atom -5568.474212 kJ/mol
# Density = 2.052086 g / cm^3
# Si number density = 20.567677 Si / 1000 Ang^3
#
#
#
# Elastic Constant Matrix: (Units=GPa)
#
#
# Indices 1 2 3 4 5 6 
#
# 1 83.5509 37.4605 24.6224 -11.7857 -22.4854 -20.3172
# 2 37.4605 146.2154 50.1723 -4.9437 -21.8093 -26.4997
# 3 24.6224 50.1723 117.4546 -24.9127 -19.1257 -8.5725
# 4 -11.7857 -4.9437 -24.9127 43.0813 4.3837 -5.8284
# 5 -22.4854 -21.8093 -19.1257 4.3837 21.5020 11.4216
# 6 -20.3172 -26.4997 -8.5725 -5.8284 11.4216 36.1781
#
#
#
# Elastic Compliance Matrix: (Units=1/GPa)
#
#
# Indices 1 2 3 4 5 6 
#
# 1 0.018301 -0.001608 0.000485 0.004402 0.014141 0.005460
# 2 -0.001608 0.009515 -0.003094 -0.000894 0.003176 0.004187
# 3 0.000485 -0.003094 0.012147 0.006018 0.007163 -0.000408
# 4 0.004402 -0.000894 0.006018 0.029054 -0.001301 0.008335
# 5 0.014141 0.003176 0.007163 -0.001301 0.077987 -0.012865
# 6 0.005460 0.004187 -0.000408 0.008335 -0.012865 0.039082
#
#
# Mechanical properties :
#
#
# Convention : Reuss Voigt Hill
#
# Bulk Modulus (GPa) = 31.71629 63.52571 47.62100
# Shear Modulus (GPa) = 24.38675 35.81665 30.10170
#
# Velocity S-wave (km/s) = 3.44711 4.17754 3.82978
# Velocity P-wave (km/s) = 5.59440 7.36358 6.53910
#
# Compressibility (1/GPa) = 0.03152954
#
# Stress axis : x y z
#
# Youngs Moduli (GPa) = 54.64206 105.09457 82.32404
#
# Poissons Ratio (x) = 0.16894 -0.03994
# Poissons Ratio (y) = 0.08784 0.25475
# Poissons Ratio (z) = -0.02651 0.32521
#
# Static dielectric constant tensor:
#      x y z
#    x 1.737970 0.035290 0.051620 
#    y 0.035290 1.634550 -0.013300 
#    z 0.051620 -0.013300 1.837580 
# 
# From -- ./inp_files/239711.got.cif
#   From: 2010.05.17/outbox.cif.g08.bks.cpg/sg2_120_cif.got.tgz:239711.got - 2010.06.03 11:33:40.
