data_PCOD9080423
_publ_section_title
;
Structure prediction by ZEFSAII (Michael W. Deem and Ramdas Pophale) SiO2 
 PCOD9080423
Probable space group: P -1
;
_chemical_formula_sum "Si O2"
_cell_formula_units_Z 16
_cell_length_a 9.269678
_cell_length_b 16.154561
_cell_length_c 10.251976
_cell_angle_alpha 52.567189
_cell_angle_beta 134.161284
_cell_angle_gamma 140.454657
_cell_volume 692.775870
_symmetry_space_group_name_H-M "P -1"
_symmetry_group_IT_number 2
_symmetry_cell_setting 'triclinic'
loop_
_space_group_symop_operation_xyz
x,y,z
-x,-y,-z
loop_
_atom_site_type_symbol
_atom_site_label
_atom_site_fract_x
_atom_site_fract_y
_atom_site_fract_z
Si Si1 0.717977 0.783965 0.666677
Si Si2 0.267985 0.949348 0.998109
Si Si3 0.307075 0.531251 0.817037
Si Si4 0.293934 0.342631 0.490597
Si Si5 0.184910 0.696806 0.685709
Si Si6 0.222467 0.166000 0.854941
Si Si7 0.643850 0.937919 0.650392
Si Si8 0.028073 0.739105 0.263378
O O1 0.481442 0.657080 0.714024
O O2 0.694554 0.725416 0.566052
O O3 0.675059 0.891909 0.573926
O O4 0.997753 0.854599 0.839329
O O5 0.318566 0.080682 0.962081
O O6 0.229561 0.857198 0.182029
O O7 0.500000 0.000000 0.000000
O O8 0.184795 0.572054 0.804821
O O9 0.075168 0.398634 0.732718
O O10 0.500000 0.500000 0.000000
O O11 0.500000 0.500000 0.500000
O O12 0.305908 0.265452 0.691432
O O13 0.019644 0.314093 0.340906
O O14 0.481487 0.818264 0.764718
O O15 0.114991 0.726273 0.472591
O O16 0.200315 0.247571 0.877198
O O17 0.921495 0.045270 0.774792
O O18 0.500000 0.000000 0.500000
#
# Coordination Sequence:
#
# PCOD9080423 Si02
#       8
#     2   2   2   2   2   2   2   2
#     4  10  23  40  64  96 127 169 212 268 328 379
#     4  11  25  40  59  95 134 169 212 261 332 386
#     4  11  22  43  66  91 126 165 219 268 316 378
#     4  11  23  43  65  95 136 166 214 273 328 384
#     4  10  23  39  68  98 118 169 221 261 319 386
#     4  10  23  41  62  94 126 170 217 262 319 383
#     4  10  18  39  64  92 125 156 217 261 311 374
#     4  11  21  41  67  89 128 169 219 266 312 388
#
# _framework density 23.095493000000001
#
# number of rings (size 3 to 8) (size 9 to 14) (size 15 to 20)
#    0.000    1.500    3.750    2.250    0.000    8.000 
#    2.250    0.625    0.000    0.000    0.000    0.000 
#    0.000    0.000    0.000    0.000    0.000    0.000 
#
# Total GULP energy -89198.190874 kJ/mol
# GULP energy per Si atom -5574.886930 kJ/mol
# Density = 2.304293 g / cm^3
# Si number density = 23.095493 Si / 1000 Ang^3
#
#
#
# Elastic Constant Matrix: (Units=GPa)
#
#
# Indices 1 2 3 4 5 6 
#
# 1 162.6563 39.4631 27.0606 -4.2336 16.2023 -22.6747
# 2 39.4631 122.8168 14.1176 -20.2073 0.3466 -26.4805
# 3 27.0606 14.1176 44.0712 -4.9758 16.1670 -1.4900
# 4 -4.2336 -20.2073 -4.9758 24.0411 -4.8899 3.4323
# 5 16.2023 0.3466 16.1670 -4.8899 37.3924 -4.0955
# 6 -22.6747 -26.4805 -1.4900 3.4323 -4.0955 42.3796
#
#
#
# Elastic Compliance Matrix: (Units=1/GPa)
#
#
# Indices 1 2 3 4 5 6 
#
# 1 0.007691 -0.001673 -0.003671 -0.001556 -0.001614 0.002910
# 2 -0.001673 0.011752 -0.002882 0.008881 0.003679 0.005983
# 3 -0.003671 -0.002882 0.030174 0.001363 -0.011682 -0.003943
# 4 -0.001556 0.008881 0.001363 0.050243 0.006720 0.001345
# 5 -0.001614 0.003679 -0.011682 0.006720 0.033748 0.003741
# 6 0.002910 0.005983 -0.003943 0.001345 0.003741 0.029006
#
#
# Mechanical properties :
#
#
# Convention : Reuss Voigt Hill
#
# Bulk Modulus (GPa) = 30.15305 54.53632 42.34469
# Shear Modulus (GPa) = 26.29915 37.35617 31.82766
#
# Velocity S-wave (km/s) = 3.37814 4.02614 3.71629
# Velocity P-wave (km/s) = 5.31977 6.72887 6.06538
#
# Compressibility (1/GPa) = 0.03316414
#
# Stress axis : x y z
#
# Youngs Moduli (GPa) = 130.02829 85.09368 33.14113
#
# Poissons Ratio (x) = 0.14236 0.12167
# Poissons Ratio (y) = 0.21754 0.09551
# Poissons Ratio (z) = 0.47738 0.24522
#
# Static dielectric constant tensor:
#      x y z
#    x 1.852100 0.007640 0.021670 
#    y 0.007640 1.894100 0.063650 
#    z 0.021670 0.063650 2.039080 
# 
# From -- ./inp_files/398664.got.cif
#   From: 2010.05.17/outbox.cif.g08.bks.cpg/sg2_200_cif.got.tgz:398664.got - 2010.06.03 11:33:40.
