data_PCOD9080559
_publ_section_title
;
Structure prediction by ZEFSAII (Michael W. Deem and Ramdas Pophale) SiO2 
 PCOD9080559
Probable space group: P -1
;
_chemical_formula_sum "Si O2"
_cell_formula_units_Z 13
_cell_length_a 20.765336
_cell_length_b 15.350206
_cell_length_c 12.182467
_cell_angle_alpha 29.262476
_cell_angle_beta 38.285493
_cell_angle_gamma 17.137300
_cell_volume 526.339096
_symmetry_space_group_name_H-M "P -1"
_symmetry_group_IT_number 2
_symmetry_cell_setting 'triclinic'
loop_
_space_group_symop_operation_xyz
x,y,z
-x,-y,-z
loop_
_atom_site_type_symbol
_atom_site_label
_atom_site_fract_x
_atom_site_fract_y
_atom_site_fract_z
Si Si1 0.000000 0.500000 0.500000
Si Si2 0.849800 0.345310 0.578858
Si Si3 0.523030 0.753605 0.229742
Si Si4 0.213366 0.067925 0.469728
Si Si5 0.767487 0.474753 0.783999
Si Si6 0.261857 0.780215 0.282779
Si Si7 0.400407 0.941417 0.945981
O O1 0.070905 0.397385 0.386388
O O2 0.150718 0.452884 0.373986
O O3 0.693094 0.568911 0.652543
O O4 0.883959 0.107514 0.732907
O O5 0.073259 0.105828 0.586868
O O6 0.726226 0.673792 0.301040
O O7 0.721901 0.349147 0.480065
O O8 0.290244 0.037455 0.286739
O O9 0.525617 0.705703 0.151464
O O10 0.500000 0.000000 0.000000
O O11 0.465956 0.647121 0.650285
O O12 0.575752 0.694553 0.881694
O O13 0.000000 0.000000 0.000000
O O14 0.223261 0.049164 0.047127
#
# Coordination Sequence:
#
# PCOD9080559 Si02
#       7
#     1   2   2   2   2   2   2
#     4  10  18  40  62  92 122 166 212 256 314 370
#     4  11  23  42  65  98 129 169 218 266 326 379
#     4  10  20  42  68  93 130 178 211 264 325 381
#     4   9  22  39  65  92 133 169 214 262 321 381
#     4  11  25  41  68  96 132 170 218 270 325 389
#     4  10  23  43  64  96 131 172 212 269 321 382
#     4  12  22  40  67  95 131 172 219 265 323 386
#
# _framework density 24.698906000000001
#
# number of rings (size 3 to 8) (size 9 to 14) (size 15 to 20)
#    0.923    0.615    1.538    4.615    0.000    4.923 
#    0.000    3.846    0.000    0.000    0.000    0.000 
#    0.000    0.000    0.000    0.000    0.000    0.000 
#
# Total GULP energy -72418.563045 kJ/mol
# GULP energy per Si atom -5570.658696 kJ/mol
# Density = 2.464269 g / cm^3
# Si number density = 24.698906 Si / 1000 Ang^3
#
#
#
# Elastic Constant Matrix: (Units=GPa)
#
#
# Indices 1 2 3 4 5 6 
#
# 1 141.3123 20.7060 21.0042 19.6707 1.4766 12.2674
# 2 20.7060 68.8062 26.2049 19.0010 11.2544 8.6455
# 3 21.0042 26.2049 86.2492 24.3238 -0.8143 8.9860
# 4 19.6707 19.0010 24.3238 36.6325 2.1627 8.3714
# 5 1.4766 11.2544 -0.8143 2.1627 39.8377 12.6049
# 6 12.2674 8.6455 8.9860 8.3714 12.6049 35.4108
#
#
#
# Elastic Compliance Matrix: (Units=1/GPa)
#
#
# Indices 1 2 3 4 5 6 
#
# 1 0.007895 -0.001287 -0.000526 -0.002835 0.000818 -0.001908
# 2 -0.001287 0.018904 -0.003684 -0.006386 -0.005044 0.000070
# 3 -0.000526 -0.003684 0.015204 -0.007627 0.002359 -0.001813
# 4 -0.002835 -0.006386 -0.007627 0.038270 0.001264 -0.005020
# 5 0.000818 -0.005044 0.002359 0.001264 0.029818 -0.010564
# 6 -0.001908 0.000070 -0.001813 -0.005020 -0.010564 0.034291
#
#
# Mechanical properties :
#
#
# Convention : Reuss Voigt Hill
#
# Bulk Modulus (GPa) = 32.24794 48.02201 40.13497
# Shear Modulus (GPa) = 30.17300 37.60636 33.88968
#
# Velocity S-wave (km/s) = 3.49898 3.90627 3.70822
# Velocity P-wave (km/s) = 5.42297 6.31114 5.88384
#
# Compressibility (1/GPa) = 0.03100974
#
# Stress axis : x y z
#
# Youngs Moduli (GPa) = 126.66301 52.90008 65.77322
#
# Poissons Ratio (x) = 0.06807 0.03457
# Poissons Ratio (y) = 0.16298 0.24231
# Poissons Ratio (z) = 0.06657 0.19488
#
# Static dielectric constant tensor:
#      x y z
#    x 1.918300 -0.011680 0.056080 
#    y -0.011680 2.001140 -0.050390 
#    z 0.056080 -0.050390 2.059490 
# 
# From -- ./inp_files/471858.got.cif
#   From: 2010.05.17/outbox.cif.g08.bks.cpg/sg2_236_cif.got.tgz:471858.got - 2010.06.03 11:33:40.
