data_PCOD9080209
_publ_section_title
;
Structure prediction by ZEFSAII (Michael W. Deem and Ramdas Pophale) SiO2 
 PCOD9080209
Probable space group: P -1
;
_chemical_formula_sum "Si O2"
_cell_formula_units_Z 13
_cell_length_a 8.183997
_cell_length_b 9.302025
_cell_length_c 10.822919
_cell_angle_alpha 60.510084
_cell_angle_beta 137.609476
_cell_angle_gamma 125.038448
_cell_volume 451.314676
_symmetry_space_group_name_H-M "P -1"
_symmetry_group_IT_number 2
_symmetry_cell_setting 'triclinic'
loop_
_space_group_symop_operation_xyz
x,y,z
-x,-y,-z
loop_
_atom_site_type_symbol
_atom_site_label
_atom_site_fract_x
_atom_site_fract_y
_atom_site_fract_z
Si Si1 0.651757 0.377726 0.267850
Si Si2 0.862248 0.105082 0.628320
Si Si3 0.513138 0.898858 0.891234
Si Si4 0.925813 0.342398 0.781548
Si Si5 0.591229 0.696444 0.607697
Si Si6 0.000000 0.000000 0.500000
Si Si7 0.130361 0.750875 0.940705
O O1 0.804040 0.275813 0.473160
O O2 0.444411 0.228930 0.133330
O O3 0.508641 0.432699 0.276759
O O4 0.845338 0.511626 0.226439
O O5 0.909457 0.163896 0.773675
O O6 0.658189 0.902186 0.599170
O O7 0.048485 0.091976 0.625421
O O8 0.292282 0.972231 0.684294
O O9 0.761554 0.056578 0.011478
O O10 0.371706 0.773037 0.979551
O O11 0.638911 0.353148 0.596581
O O12 0.961238 0.363510 0.939205
O O13 0.881974 0.714832 0.726185
#
# Coordination Sequence:
#
# PCOD9080209 Si02
#       7
#     2   2   2   2   2   1   2
#     4  10  22  40  67  91 133 167 210 253 324 381
#     4  10  19  36  67  93 120 162 215 259 308 363
#     4  10  22  42  63  98 123 166 211 269 310 372
#     4  11  23  41  64  95 131 169 204 261 317 387
#     4  11  21  41  67  96 120 165 217 267 307 367
#     4  10  18  38  66  90 124 156 204 270 308 358
#     4  11  24  40  67  97 126 162 221 259 319 366
#
# _framework density 28.804736999999999
#
# number of rings (size 3 to 8) (size 9 to 14) (size 15 to 20)
#    0.000    1.538    1.538    6.462    0.000    3.692 
#    0.000    2.308    6.769    0.000    0.000    0.000 
#    0.000    0.000    0.000    0.000    0.000    0.000 
#
# Total GULP energy -72403.843969 kJ/mol
# GULP energy per Si atom -5569.526459 kJ/mol
# Density = 2.873918 g / cm^3
# Si number density = 28.804737 Si / 1000 Ang^3
#
#
#
# Elastic Constant Matrix: (Units=GPa)
#
#
# Indices 1 2 3 4 5 6 
#
# 1 93.2291 -0.8017 11.4151 -3.9198 -24.1812 16.7846
# 2 -0.8017 103.1529 13.1159 3.2982 5.7047 19.2392
# 3 11.4151 13.1159 152.5533 26.1191 14.3446 -4.8261
# 4 -3.9198 3.2982 26.1191 45.5878 1.7059 -8.5131
# 5 -24.1812 5.7047 14.3446 1.7059 50.1024 5.5642
# 6 16.7846 19.2392 -4.8261 -8.5131 5.5642 55.7901
#
#
#
# Elastic Compliance Matrix: (Units=1/GPa)
#
#
# Indices 1 2 3 4 5 6 
#
# 1 0.014063 0.000920 -0.002235 0.001128 0.007879 -0.005355
# 2 0.000920 0.010629 -0.000957 -0.000919 0.000002 -0.004166
# 3 -0.002235 -0.000957 0.007881 -0.004264 -0.003231 0.001356
# 4 0.001128 -0.000919 -0.004264 0.025150 0.000638 0.003383
# 5 0.007879 0.000002 -0.003231 0.000638 0.025228 -0.005069
# 6 -0.005355 -0.004166 0.001356 0.003383 -0.005069 0.022111
#
#
# Mechanical properties :
#
#
# Convention : Reuss Voigt Hill
#
# Bulk Modulus (GPa) = 35.67537 44.04377 39.85957
# Shear Modulus (GPa) = 42.03449 51.97647 47.00548
#
# Velocity S-wave (km/s) = 3.82421 4.25248 4.04402
# Velocity P-wave (km/s) = 5.64903 6.27974 5.97272
#
# Compressibility (1/GPa) = 0.02803054
#
# Stress axis : x y z
#
# Youngs Moduli (GPa) = 71.10915 94.07803 126.87958
#
# Poissons Ratio (x) = -0.08660 0.28355
# Poissons Ratio (y) = -0.06545 0.12146
# Poissons Ratio (z) = 0.15892 0.09006
#
# Static dielectric constant tensor:
#      x y z
#    x 2.382850 -0.007230 0.040640 
#    y -0.007230 2.464920 -0.208200 
#    z 0.040640 -0.208200 2.527540 
# 
# From -- ./inp_files/373305.got.cif
#   From: 2010.05.17/outbox.cif.g08.bks.cpg/sg2_187_cif.got.tgz:373305.got - 2010.06.03 11:33:40.
