data_PCOD9080591
_publ_section_title
;
Structure prediction by ZEFSAII (Michael W. Deem and Ramdas Pophale) SiO2 
 PCOD9080591
Probable space group: P -1
;
_chemical_formula_sum "Si O2"
_cell_formula_units_Z 16
_cell_length_a 14.600266
_cell_length_b 9.849917
_cell_length_c 7.809734
_cell_angle_alpha 48.116192
_cell_angle_beta 120.411027
_cell_angle_gamma 102.738882
_cell_volume 708.960466
_symmetry_space_group_name_H-M "P -1"
_symmetry_group_IT_number 2
_symmetry_cell_setting 'triclinic'
loop_
_space_group_symop_operation_xyz
x,y,z
-x,-y,-z
loop_
_atom_site_type_symbol
_atom_site_label
_atom_site_fract_x
_atom_site_fract_y
_atom_site_fract_z
Si Si1 0.899488 0.478610 0.047946
Si Si2 0.901093 0.796286 0.044476
Si Si3 0.946685 0.113982 0.608286
Si Si4 0.187336 0.014343 0.877496
Si Si5 0.510244 0.630652 0.195644
Si Si6 0.295050 0.244045 0.516561
Si Si7 0.464747 0.998900 0.660986
Si Si8 0.614696 0.262782 0.686904
O O1 0.905696 0.605446 0.114397
O O2 0.900120 0.273647 0.296473
O O3 0.790727 0.576565 0.769401
O O4 0.000000 0.500000 0.000000
O O5 0.013726 0.798146 0.251476
O O6 0.184680 0.145685 0.932891
O O7 0.883558 0.958552 0.747846
O O8 0.062268 0.008456 0.735582
O O9 0.234133 0.109211 0.682262
O O10 0.260508 0.816828 0.151876
O O11 0.612430 0.696081 0.328395
O O12 0.554918 0.417945 0.369115
O O13 0.415948 0.644449 0.236279
O O14 0.466069 0.786966 0.887682
O O15 0.355487 0.131884 0.507102
O O16 0.556855 0.084405 0.776859
O O17 0.500000 0.000000 0.500000
#
# Coordination Sequence:
#
# PCOD9080591 Si02
#       8
#     2   2   2   2   2   2   2   2
#     4  12  23  38  61  94 124 158 203 248 300 363
#     4   9  22  41  60  85 123 161 201 253 300 346
#     4   9  21  42  59  87 121 161 204 249 299 350
#     4  10  18  40  65  84 117 161 209 243 296 361
#     4  10  21  41  63  84 122 156 201 251 294 363
#     4  11  22  40  61  91 120 164 202 244 309 353
#     4  11  23  40  63  90 129 153 193 257 305 360
#     4  10  20  39  65  89 111 161 207 238 299 364
#
# _framework density 22.568256000000002
#
# number of rings (size 3 to 8) (size 9 to 14) (size 15 to 20)
#    0.750    1.000    3.750    1.125    1.750    2.000 
#    6.750    0.000    0.000    0.000    0.000    0.000 
#    0.000    0.000    0.000    0.000    0.000    0.000 
#
# Total GULP energy -89328.438080 kJ/mol
# GULP energy per Si atom -5583.027380 kJ/mol
# Density = 2.251689 g / cm^3
# Si number density = 22.568256 Si / 1000 Ang^3
#
#
#
# Elastic Constant Matrix: (Units=GPa)
#
#
# Indices 1 2 3 4 5 6 
#
# 1 108.5996 16.1139 46.9722 4.2688 5.1531 -30.6480
# 2 16.1139 58.0871 9.4017 -6.5035 1.0354 -20.4213
# 3 46.9722 9.4017 130.6760 -29.8319 2.8116 -24.1618
# 4 4.2688 -6.5035 -29.8319 27.5651 -1.1848 2.5941
# 5 5.1531 1.0354 2.8116 -1.1848 43.4729 -2.7419
# 6 -30.6480 -20.4213 -24.1618 2.5941 -2.7419 31.1550
#
#
#
# Elastic Compliance Matrix: (Units=1/GPa)
#
#
# Indices 1 2 3 4 5 6 
#
# 1 0.015230 -0.000492 -0.005558 -0.009574 -0.000998 0.011058
# 2 -0.000492 0.023655 0.003381 0.007736 0.000562 0.017049
# 3 -0.005558 0.003381 0.014419 0.016665 0.000516 0.006588
# 4 -0.009574 0.007736 0.016665 0.057321 0.001684 0.003953
# 5 -0.000998 0.000562 0.000516 0.001684 0.023227 0.001691
# 6 0.011058 0.017049 0.006588 0.003953 0.001691 0.059080
#
#
# Mechanical properties :
#
#
# Convention : Reuss Voigt Hill
#
# Bulk Modulus (GPa) = 20.84856 49.14870 34.99863
# Shear Modulus (GPa) = 23.33639 35.43028 29.38333
#
# Velocity S-wave (km/s) = 3.21913 3.96652 3.61221
# Velocity P-wave (km/s) = 4.80366 6.54238 5.73925
#
# Compressibility (1/GPa) = 0.04796494
#
# Stress axis : x y z
#
# Youngs Moduli (GPa) = 65.66135 42.27524 69.35385
#
# Poissons Ratio (x) = 0.02078 0.38550
# Poissons Ratio (y) = 0.03228 -0.23449
# Poissons Ratio (z) = 0.36498 -0.14294
#
# Static dielectric constant tensor:
#      x y z
#    x 1.857430 -0.002840 -0.024850 
#    y -0.002840 1.896550 0.018170 
#    z -0.024850 0.018170 1.906280 
# 
# From -- ./inp_files/304576.got.cif
#   From: 2010.05.17/outbox.cif.g08.bks.cpg/sg2_153_cif.got.tgz:304576.got - 2010.06.03 11:33:40.
