data_PCOD9080453
_publ_section_title
;
Structure prediction by ZEFSAII (Michael W. Deem and Ramdas Pophale) SiO2 
 PCOD9080453
Probable space group: P -1
;
_chemical_formula_sum "Si O2"
_cell_formula_units_Z 16
_cell_length_a 9.409106
_cell_length_b 10.614368
_cell_length_c 8.060161
_cell_angle_alpha 103.390290
_cell_angle_beta 122.295998
_cell_angle_gamma 77.333422
_cell_volume 657.469462
_symmetry_space_group_name_H-M "P -1"
_symmetry_group_IT_number 2
_symmetry_cell_setting 'triclinic'
loop_
_space_group_symop_operation_xyz
x,y,z
-x,-y,-z
loop_
_atom_site_type_symbol
_atom_site_label
_atom_site_fract_x
_atom_site_fract_y
_atom_site_fract_z
Si Si1 0.618137 0.212316 0.118362
Si Si2 0.711244 0.856904 0.634427
Si Si3 0.379733 0.942406 0.632159
Si Si4 0.094512 0.423049 0.783505
Si Si5 0.397937 0.451373 0.215365
Si Si6 0.220120 0.690652 0.326238
Si Si7 0.930095 0.279579 0.126697
Si Si8 0.596356 0.669299 0.271212
O O1 0.636580 0.077215 0.188090
O O2 0.524422 0.319878 0.221979
O O3 0.798855 0.244689 0.174627
O O4 0.497856 0.228391 0.886959
O O5 0.577199 0.932789 0.698285
O O6 0.624931 0.729913 0.485973
O O7 0.898417 0.817471 0.802923
O O8 0.714115 0.936288 0.488650
O O9 0.296141 0.819014 0.468592
O O10 0.026705 0.574321 0.769320
O O11 0.221445 0.380362 0.702171
O O12 0.945737 0.334926 0.683805
O O13 0.218243 0.415773 0.019990
O O14 0.340051 0.551174 0.360436
O O15 0.482816 0.551996 0.179459
O O16 0.163314 0.715263 0.107184
#
# Coordination Sequence:
#
# PCOD9080453 Si02
#       8
#     2   2   2   2   2   2   2   2
#     4  11  22  39  69  94 125 162 205 253 314 374
#     4  11  27  45  63  87 125 167 217 259 302 360
#     4  11  27  46  60  90 124 167 219 257 297 370
#     4  10  21  36  66 102 126 157 203 251 311 386
#     4  10  18  39  66  94 129 161 194 249 321 380
#     4  11  23  41  65  94 132 163 200 254 315 368
#     4  11  22  41  66  95 126 163 202 256 315 367
#     4  11  20  43  66  92 129 167 194 254 320 368
#
# _framework density 24.335730000000002
#
# number of rings (size 3 to 8) (size 9 to 14) (size 15 to 20)
#    0.000    1.250    5.000    2.250    7.000    3.500 
#    0.000    0.000    0.000    0.000    0.000    0.000 
#    0.000    0.000    0.000    0.000    0.000    0.000 
#
# Total GULP energy -89500.620428 kJ/mol
# GULP energy per Si atom -5593.788777 kJ/mol
# Density = 2.428034 g / cm^3
# Si number density = 24.335730 Si / 1000 Ang^3
#
#
#
# Elastic Constant Matrix: (Units=GPa)
#
#
# Indices 1 2 3 4 5 6 
#
# 1 110.7256 15.9846 11.9211 -10.1638 25.6426 9.1429
# 2 15.9846 61.7877 25.1225 -21.5060 20.4325 11.3631
# 3 11.9211 25.1225 66.6042 -6.6575 14.4754 1.1547
# 4 -10.1638 -21.5060 -6.6575 47.8295 -5.4401 -4.7199
# 5 25.6426 20.4325 14.4754 -5.4401 30.5469 -4.6830
# 6 9.1429 11.3631 1.1547 -4.7199 -4.6830 38.7422
#
#
#
# Elastic Compliance Matrix: (Units=1/GPa)
#
#
# Indices 1 2 3 4 5 6 
#
# 1 0.012060 0.002471 -0.000198 0.001796 -0.012101 -0.004809
# 2 0.002471 0.029590 -0.006395 0.009820 -0.018641 -0.010128
# 3 -0.000198 -0.006395 0.018293 -0.000778 -0.004245 0.000769
# 4 0.001796 0.009820 -0.000778 0.025158 -0.003322 -0.000617
# 5 -0.012101 -0.018641 -0.004245 -0.003322 0.059112 0.015190
# 6 -0.004809 -0.010128 0.000769 -0.000617 0.015190 0.031655
#
#
# Mechanical properties :
#
#
# Convention : Reuss Voigt Hill
#
# Bulk Modulus (GPa) = 19.34226 38.35265 28.84746
# Shear Modulus (GPa) = 24.83302 35.82969 30.33136
#
# Velocity S-wave (km/s) = 3.19789 3.84123 3.53423
# Velocity P-wave (km/s) = 4.64765 5.95545 5.34173
#
# Compressibility (1/GPa) = 0.05170026
#
# Stress axis : x y z
#
# Youngs Moduli (GPa) = 82.91784 33.79496 54.66503
#
# Poissons Ratio (x) = -0.08352 0.01083
# Poissons Ratio (y) = -0.20493 0.34959
# Poissons Ratio (z) = 0.01642 0.21612
#
# Static dielectric constant tensor:
#      x y z
#    x 1.898460 -0.008490 -0.041280 
#    y -0.008490 1.926070 -0.006740 
#    z -0.041280 -0.006740 1.989570 
# 
# From -- ./inp_files/188870.got.cif
#   From: 2010.05.17/outbox.cif.g08.bks.cpg/sg2_95_cif.got.tgz:188870.got - 2010.06.03 11:33:40.
