data_PCOD9080712
_publ_section_title
;
Structure prediction by ZEFSAII (Michael W. Deem and Ramdas Pophale) SiO2 
 PCOD9080712
Probable space group: P -1
;
_chemical_formula_sum "Si O2"
_cell_formula_units_Z 16
_cell_length_a 8.474435
_cell_length_b 21.781170
_cell_length_c 8.842946
_cell_angle_alpha 38.166473
_cell_angle_beta 128.414168
_cell_angle_gamma 131.863821
_cell_volume 734.424135
_symmetry_space_group_name_H-M "P -1"
_symmetry_group_IT_number 2
_symmetry_cell_setting 'triclinic'
loop_
_space_group_symop_operation_xyz
x,y,z
-x,-y,-z
loop_
_atom_site_type_symbol
_atom_site_label
_atom_site_fract_x
_atom_site_fract_y
_atom_site_fract_z
Si Si1 0.358943 0.641426 0.040300
Si Si2 0.979021 0.730026 0.597138
Si Si3 0.442928 0.915559 0.262225
Si Si4 0.253210 0.138895 0.219050
Si Si5 0.257134 0.961004 0.364178
Si Si6 0.328659 0.483943 0.061808
Si Si7 0.978829 0.248112 0.758838
Si Si8 0.070489 0.487865 0.397052
O O1 0.281300 0.579269 0.273280
O O2 0.156502 0.673328 0.803994
O O3 0.556701 0.754530 0.937607
O O4 0.401579 0.559939 0.104948
O O5 0.097137 0.840826 0.541102
O O6 0.934122 0.757033 0.348413
O O7 0.767447 0.641200 0.710905
O O8 0.640517 0.900144 0.500723
O O9 0.305831 0.954052 0.229705
O O10 0.280076 0.802847 0.316544
O O11 0.500000 0.000000 0.000000
O O12 0.176136 0.047355 0.222610
O O13 0.055985 0.177483 0.056660
O O14 0.500000 0.000000 0.500000
O O15 0.127518 0.510564 0.826690
O O16 0.500000 0.500000 0.000000
O O17 0.077622 0.371197 0.619974
O O18 0.000000 0.500000 0.500000
#
# Coordination Sequence:
#
# PCOD9080712 Si02
#       8
#     2   2   2   2   2   2   2   2
#     4  11  20  43  70  88 138 181 214 273 347 395
#     4  10  18  41  69  90 130 186 212 279 340 392
#     4  10  22  42  65  90 137 175 213 286 338 385
#     4  11  23  39  69 101 123 180 230 267 335 411
#     4   9  18  39  67  92 122 168 227 264 331 399
#     4  11  23  40  67  97 129 179 231 273 334 409
#     4  11  22  42  66  93 134 177 225 272 338 403
#     4  11  24  41  63  98 133 174 221 280 336 393
#
# _framework density 21.785775999999998
#
# number of rings (size 3 to 8) (size 9 to 14) (size 15 to 20)
#    0.000    1.500    6.250    0.750    1.750    5.000 
#    2.250    3.750    0.000    0.000    0.000    0.000 
#    0.000    0.000    0.000    0.000    0.000    0.000 
#
# Total GULP energy -89295.535894 kJ/mol
# GULP energy per Si atom -5580.970993 kJ/mol
# Density = 2.173619 g / cm^3
# Si number density = 21.785776 Si / 1000 Ang^3
#
#
#
# Elastic Constant Matrix: (Units=GPa)
#
#
# Indices 1 2 3 4 5 6 
#
# 1 48.2254 38.6944 28.6703 -10.4245 -15.1608 -4.2363
# 2 38.6944 118.4833 59.6913 -29.3569 -16.2086 -8.8291
# 3 28.6703 59.6913 124.9227 -14.3211 -4.3582 -8.6668
# 4 -10.4245 -29.3569 -14.3211 41.9459 11.6041 3.4017
# 5 -15.1608 -16.2086 -4.3582 11.6041 39.7696 1.2335
# 6 -4.2363 -8.8291 -8.6668 3.4017 1.2335 19.3864
#
#
#
# Elastic Compliance Matrix: (Units=1/GPa)
#
#
# Indices 1 2 3 4 5 6 
#
# 1 0.031437 -0.007561 -0.003320 -0.001185 0.008836 0.001588
# 2 -0.007561 0.015136 -0.004556 0.006794 0.000744 0.001965
# 3 -0.003320 -0.004556 0.011044 0.000134 -0.002021 0.002242
# 4 -0.001185 0.006794 0.000134 0.030292 -0.006445 -0.002010
# 5 0.008836 0.000744 -0.002021 -0.006445 0.030458 0.000559
# 6 0.001588 0.001965 0.002242 -0.002010 0.000559 0.054144
#
#
# Mechanical properties :
#
#
# Convention : Reuss Voigt Hill
#
# Bulk Modulus (GPa) = 37.39137 60.63815 49.01476
# Shear Modulus (GPa) = 23.55163 31.19206 27.37185
#
# Velocity S-wave (km/s) = 3.29151 3.78797 3.54843
# Velocity P-wave (km/s) = 5.62546 6.85754 6.27183
#
# Compressibility (1/GPa) = 0.02674414
#
# Stress axis : x y z
#
# Youngs Moduli (GPa) = 31.80953 66.06734 90.54496
#
# Poissons Ratio (x) = 0.49954 0.30057
# Poissons Ratio (y) = 0.24051 0.41253
# Poissons Ratio (z) = 0.10559 0.30100
#
# Static dielectric constant tensor:
#      x y z
#    x 1.758180 0.035020 -0.038240 
#    y 0.035020 1.841570 0.017370 
#    z -0.038240 0.017370 1.809790 
# 
# From -- ./inp_files/221729.got.cif
#   From: 2010.05.17/outbox.cif.g08.bks.cpg/sg2_111_cif.got.tgz:221729.got - 2010.06.03 11:33:40.
