data_PCOD9080736
_publ_section_title
;
Structure prediction by ZEFSAII (Michael W. Deem and Ramdas Pophale) SiO2 
 PCOD9080736
Probable space group: P -1
;
_chemical_formula_sum "Si O2"
_cell_formula_units_Z 15
_cell_length_a 15.741056
_cell_length_b 14.045054
_cell_length_c 23.064433
_cell_angle_alpha 158.229137
_cell_angle_beta 18.652141
_cell_angle_gamma 150.770120
_cell_volume 603.741799
_symmetry_space_group_name_H-M "P -1"
_symmetry_group_IT_number 2
_symmetry_cell_setting 'triclinic'
loop_
_space_group_symop_operation_xyz
x,y,z
-x,-y,-z
loop_
_atom_site_type_symbol
_atom_site_label
_atom_site_fract_x
_atom_site_fract_y
_atom_site_fract_z
Si Si1 0.937670 0.626589 0.377241
Si Si2 0.481974 0.845357 0.709686
Si Si3 0.000000 0.000000 0.000000
Si Si4 0.506820 0.887323 0.339588
Si Si5 0.466297 0.402650 0.031280
Si Si6 0.754083 0.519014 0.259373
Si Si7 0.404637 0.268894 0.242447
Si Si8 0.327930 0.354890 0.783183
O O1 0.724963 0.776056 0.557418
O O2 0.868444 0.738730 0.549464
O O3 0.228344 0.668777 0.188367
O O4 0.925199 0.319016 0.219893
O O5 0.604467 0.772730 0.526677
O O6 0.267093 0.666477 0.775062
O O7 0.340085 0.129693 0.958844
O O8 0.738816 0.968160 0.192795
O O9 0.637551 0.783572 0.256200
O O10 0.313976 0.132031 0.618276
O O11 0.359605 0.644087 0.273129
O O12 0.500000 0.500000 0.000000
O O13 0.606051 0.377426 0.222891
O O14 0.061278 0.537372 0.057858
O O15 0.420248 0.483489 0.304018
O O16 0.500000 0.000000 0.000000
#
# Coordination Sequence:
#
# PCOD9080736 Si02
#       8
#     2   2   1   2   2   2   2   2
#     4  10  22  40  68  94 129 178 218 279 325 401
#     4  10  23  43  66  98 128 172 229 276 336 385
#     4  10  18  42  66  94 122 166 228 260 324 388
#     4  10  24  40  67  92 131 178 218 268 335 396
#     4  11  25  39  66  98 134 171 226 283 328 391
#     4  10  23  40  69  93 126 172 218 285 320 394
#     4  11  25  40  65  95 131 176 216 268 337 396
#     4  11  23  44  65  97 133 175 224 265 332 400
#
# _framework density 24.845058000000002
#
# number of rings (size 3 to 8) (size 9 to 14) (size 15 to 20)
#    0.000    1.600    1.333    2.400    7.467    6.400 
#    0.000    0.667    0.000    0.000    0.000    0.000 
#    0.000    0.000    0.000    0.000    0.000    0.000 
#
# Total GULP energy -83591.314262 kJ/mol
# GULP energy per Si atom -5572.754284 kJ/mol
# Density = 2.478851 g / cm^3
# Si number density = 24.845058 Si / 1000 Ang^3
#
#
#
# Elastic Constant Matrix: (Units=GPa)
#
#
# Indices 1 2 3 4 5 6 
#
# 1 72.8683 7.3043 32.6629 1.6583 3.0049 -16.8369
# 2 7.3043 69.1919 24.7847 28.2789 9.9179 -25.3892
# 3 32.6629 24.7847 123.3328 28.8645 33.1684 -6.4212
# 4 1.6583 28.2789 28.8645 52.9773 2.0384 -3.0226
# 5 3.0049 9.9179 33.1684 2.0384 37.6444 2.3748
# 6 -16.8369 -25.3892 -6.4212 -3.0226 2.3748 28.0409
#
#
#
# Elastic Compliance Matrix: (Units=1/GPa)
#
#
# Indices 1 2 3 4 5 6 
#
# 1 0.019143 0.004928 -0.005836 0.000730 0.001356 0.014584
# 2 0.004928 0.034194 0.000269 -0.016245 -0.010851 0.033149
# 3 -0.005836 0.000269 0.014609 -0.007438 -0.012093 0.000307
# 4 0.000730 -0.016245 -0.007438 0.030420 0.009982 -0.013540
# 5 0.001356 -0.010851 -0.012093 0.009982 0.040321 -0.014119
# 6 0.014584 0.033149 0.000307 -0.013540 -0.014119 0.074240
#
#
# Mechanical properties :
#
#
# Convention : Reuss Voigt Hill
#
# Bulk Modulus (GPa) = 14.99968 43.87740 29.43854
# Shear Modulus (GPa) = 21.14821 37.10861 29.12841
#
# Velocity S-wave (km/s) = 2.92070 3.86891 3.42775
# Velocity P-wave (km/s) = 4.17426 6.13650 5.24791
#
# Compressibility (1/GPa) = 0.06666809
#
# Stress axis : x y z
#
# Youngs Moduli (GPa) = 52.23940 29.24461 68.45236
#
# Poissons Ratio (x) = -0.14413 0.39951
# Poissons Ratio (y) = -0.25746 -0.01842
# Poissons Ratio (z) = 0.30489 -0.00787
#
# Static dielectric constant tensor:
#      x y z
#    x 2.115080 0.078180 0.020100 
#    y 0.078180 1.973470 -0.020270 
#    z 0.020100 -0.020270 1.954380 
# 
# From -- ./inp_files/466112.got.cif
#   From: 2010.05.17/outbox.cif.g08.bks.cpg/sg2_234_cif.got.tgz:466112.got - 2010.06.03 11:33:40.
