data_PCOD9080632
_publ_section_title
;
Structure prediction by ZEFSAII (Michael W. Deem and Ramdas Pophale) SiO2 
 PCOD9080632
Probable space group: P -1
;
_chemical_formula_sum "Si O2"
_cell_formula_units_Z 14
_cell_length_a 17.778813
_cell_length_b 7.737555
_cell_length_c 11.801419
_cell_angle_alpha 120.210734
_cell_angle_beta 151.643782
_cell_angle_gamma 49.129024
_cell_volume 571.009782
_symmetry_space_group_name_H-M "P -1"
_symmetry_group_IT_number 2
_symmetry_cell_setting 'triclinic'
loop_
_space_group_symop_operation_xyz
x,y,z
-x,-y,-z
loop_
_atom_site_type_symbol
_atom_site_label
_atom_site_fract_x
_atom_site_fract_y
_atom_site_fract_z
Si Si1 0.629663 0.115514 0.224215
Si Si2 0.068092 0.171018 0.114707
Si Si3 0.242410 0.463349 0.809760
Si Si4 0.009930 0.536744 0.329663
Si Si5 0.116728 0.718396 0.326397
Si Si6 0.655269 0.245903 0.064480
Si Si7 0.587886 0.833914 0.455420
O O1 0.791786 0.119940 0.510645
O O2 0.711950 0.091329 0.199878
O O3 0.449524 0.368261 0.094921
O O4 0.500000 0.000000 0.000000
O O5 0.965122 0.399137 0.131399
O O6 0.279560 0.082957 0.393620
O O7 0.030004 0.220657 0.947180
O O8 0.000000 0.000000 0.000000
O O9 0.199918 0.381758 0.605357
O O10 0.192764 0.720995 0.789280
O O11 0.134115 0.412363 0.743878
O O12 0.038507 0.712324 0.345927
O O13 0.275853 0.443554 0.430613
O O14 0.500000 0.500000 0.000000
O O15 0.561141 0.154183 0.824480
O O16 0.500000 0.000000 0.500000
#
# Coordination Sequence:
#
# PCOD9080632 Si02
#       7
#     2   2   2   2   2   2   2
#     4  11  22  38  64  97 127 172 221 267 327 393
#     4  11  26  42  64  92 135 180 218 268 331 398
#     4  10  20  39  68  95 122 165 221 272 332 386
#     4  10  21  41  66  90 127 173 213 272 333 386
#     4  11  22  46  67  91 138 178 217 273 333 394
#     4  10  18  40  67  90 131 169 215 274 332 386
#     4  11  23  42  70  97 127 173 223 272 330 395
#
# _framework density 24.517968
#
# number of rings (size 3 to 8) (size 9 to 14) (size 15 to 20)
#    0.000    1.429    4.286    4.286    6.000    0.000 
#    5.143    2.143    0.000    0.000    0.000    0.000 
#    0.000    0.000    0.000    0.000    0.000    0.000 
#
# Total GULP energy -77937.791412 kJ/mol
# GULP energy per Si atom -5566.985101 kJ/mol
# Density = 2.446216 g / cm^3
# Si number density = 24.517968 Si / 1000 Ang^3
#
#
#
# Elastic Constant Matrix: (Units=GPa)
#
#
# Indices 1 2 3 4 5 6 
#
# 1 150.5903 30.5031 48.8952 19.6401 3.1561 11.0754
# 2 30.5031 43.2668 24.6147 32.3585 19.8882 8.2096
# 3 48.8952 24.6147 157.0123 44.5981 -4.9219 2.6627
# 4 19.6401 32.3585 44.5981 46.2692 8.7145 14.1269
# 5 3.1561 19.8882 -4.9219 8.7145 49.2564 15.7272
# 6 11.0754 8.2096 2.6627 14.1269 15.7272 25.0709
#
#
#
# Elastic Compliance Matrix: (Units=1/GPa)
#
#
# Indices 1 2 3 4 5 6 
#
# 1 0.009655 -0.013222 -0.003506 0.010159 0.005328 -0.008630
# 2 -0.013222 0.086266 0.008003 -0.066953 -0.032461 0.034832
# 3 -0.003506 0.008003 0.010752 -0.016670 -0.001595 0.008180
# 4 0.010159 -0.066953 -0.016670 0.089862 0.023575 -0.046218
# 5 0.005328 -0.032461 -0.001595 0.023575 0.037866 -0.028593
# 6 -0.008630 0.034832 0.008180 -0.046218 -0.028593 0.075405
#
#
# Mechanical properties :
#
#
# Convention : Reuss Voigt Hill
#
# Bulk Modulus (GPa) = 11.20790 62.09949 36.65370
# Shear Modulus (GPa) = 14.00568 40.57640 27.29104
#
# Velocity S-wave (km/s) = 2.39266 4.07254 3.33994
# Velocity P-wave (km/s) = 3.49490 6.89183 5.46404
#
# Compressibility (1/GPa) = 0.08922274
#
# Stress axis : x y z
#
# Youngs Moduli (GPa) = 103.57111 11.59211 93.00246
#
# Poissons Ratio (x) = 0.15327 0.32610
# Poissons Ratio (y) = 1.36937 -0.74427
# Poissons Ratio (z) = 0.36315 -0.09277
#
# Static dielectric constant tensor:
#      x y z
#    x 2.078230 0.143030 -0.033720 
#    y 0.143030 2.555450 -0.162520 
#    z -0.033720 -0.162520 1.964770 
# 
# From -- ./inp_files/461571.got.cif
#   From: 2010.05.17/outbox.cif.g08.bks.cpg/sg2_231_cif.got.tgz:461571.got - 2010.06.03 11:33:40.
