data_PCOD9080350
_publ_section_title
;
Structure prediction by ZEFSAII (Michael W. Deem and Ramdas Pophale) SiO2 
 PCOD9080350
Probable space group: P -1
;
_chemical_formula_sum "Si O2"
_cell_formula_units_Z 14
_cell_length_a 8.259001
_cell_length_b 30.803564
_cell_length_c 18.667198
_cell_angle_alpha 164.838541
_cell_angle_beta 148.668161
_cell_angle_gamma 28.541153
_cell_volume 592.699687
_symmetry_space_group_name_H-M "P -1"
_symmetry_group_IT_number 2
_symmetry_cell_setting 'triclinic'
loop_
_space_group_symop_operation_xyz
x,y,z
-x,-y,-z
loop_
_atom_site_type_symbol
_atom_site_label
_atom_site_fract_x
_atom_site_fract_y
_atom_site_fract_z
Si Si1 0.362045 0.750586 0.267161
Si Si2 0.018123 0.347068 0.498549
Si Si3 0.370376 0.955267 0.991474
Si Si4 0.736888 0.847478 0.096414
Si Si5 0.575908 0.318688 0.166308
Si Si6 0.245195 0.639349 0.196351
Si Si7 0.944399 0.051954 0.283861
O O1 0.159880 0.723414 0.218240
O O2 0.136547 0.771427 0.144351
O O3 0.392778 0.939327 0.593563
O O4 0.701376 0.567974 0.103456
O O5 0.876485 0.358123 0.381279
O O6 0.724586 0.493189 0.667759
O O7 0.362797 0.378838 0.677256
O O8 0.112301 0.139635 0.225287
O O9 0.608160 0.825311 0.934189
O O10 0.631683 0.021495 0.153983
O O11 0.164174 0.903846 0.769965
O O12 0.583765 0.751083 0.940106
O O13 0.742853 0.142221 0.899716
O O14 0.023113 0.782627 0.398590
#
# Coordination Sequence:
#
# PCOD9080350 Si02
#       7
#     2   2   2   2   2   2   2
#     4  10  21  34  61  76 110 150 198 209 253 341
#     4   9  17  34  55  81 106 146 183 214 266 345
#     4   9  18  35  60  77 111 145 186 218 273 331
#     4  11  20  35  56  88 107 141 188 231 267 317
#     4  10  20  32  58  84 115 132 182 239 278 307
#     4  10  18  39  61  79 101 159 190 212 255 354
#     4   9  18  34  57  83 108 142 182 228 274 325
#
# _framework density 23.620730999999999
#
# number of rings (size 3 to 8) (size 9 to 14) (size 15 to 20)
#    0.000    2.286    4.286    0.857    0.000    2.286 
#    0.000    2.143    3.143    0.000    0.000    0.000 
#    0.000    0.000    0.000    0.000    0.000    0.000 
#
# Total GULP energy -78099.365653 kJ/mol
# GULP energy per Si atom -5578.526118 kJ/mol
# Density = 2.356697 g / cm^3
# Si number density = 23.620731 Si / 1000 Ang^3
#
#
#
# Elastic Constant Matrix: (Units=GPa)
#
#
# Indices 1 2 3 4 5 6 
#
# 1 21.1556 21.7596 21.9096 1.4900 -3.5808 8.0765
# 2 21.7596 119.5120 15.4252 5.8852 -16.2545 15.3171
# 3 21.9096 15.4252 126.6341 30.2750 -26.4628 17.0256
# 4 1.4900 5.8852 30.2750 29.6646 -9.6852 -2.2132
# 5 -3.5808 -16.2545 -26.4628 -9.6852 39.6750 0.9271
# 6 8.0765 15.3171 17.0256 -2.2132 0.9271 23.5577
#
#
#
# Elastic Compliance Matrix: (Units=1/GPa)
#
#
# Indices 1 2 3 4 5 6 
#
# 1 0.075750 -0.012369 -0.014544 0.011399 -0.005005 -0.006149
# 2 -0.012369 0.011965 0.003782 -0.004362 0.005404 -0.006894
# 3 -0.014544 0.003782 0.016850 -0.015467 0.007966 -0.011417
# 4 0.011399 -0.004362 -0.015467 0.051254 0.001090 0.014879
# 5 -0.005005 0.005404 0.007966 0.001090 0.032751 -0.008742
# 6 -0.006149 -0.006894 -0.011417 0.014879 -0.008742 0.059033
#
#
# Mechanical properties :
#
#
# Convention : Reuss Voigt Hill
#
# Bulk Modulus (GPa) = 17.15163 42.83227 29.99195
# Shear Modulus (GPa) = 15.95921 32.45995 24.20958
#
# Velocity S-wave (km/s) = 2.60214 3.71106 3.20493
# Velocity P-wave (km/s) = 4.03797 6.04445 5.14006
#
# Compressibility (1/GPa) = 0.05830348
#
# Stress axis : x y z
#
# Youngs Moduli (GPa) = 13.20129 83.57960 59.34733
#
# Poissons Ratio (x) = 1.03377 0.86312
# Poissons Ratio (y) = 0.16328 -0.22443
# Poissons Ratio (z) = 0.19199 -0.31606
#
# Static dielectric constant tensor:
#      x y z
#    x 1.896660 -0.020140 -0.017480 
#    y -0.020140 1.983540 -0.007060 
#    z -0.017480 -0.007060 1.990330 
# 
# From -- ./inp_files/162918.got.cif
#   From: 2010.05.17/outbox.cif.g08.bks.cpg/sg2_82_cif.got.tgz:162918.got - 2010.06.03 11:33:40.
