data_PCOD9080269
_publ_section_title
;
Structure prediction by ZEFSAII (Michael W. Deem and Ramdas Pophale) SiO2 
 PCOD9080269
Probable space group: P -1
;
_chemical_formula_sum "Si O2"
_cell_formula_units_Z 13
_cell_length_a 18.543145
_cell_length_b 6.358872
_cell_length_c 9.493724
_cell_angle_alpha 132.087602
_cell_angle_beta 130.765154
_cell_angle_gamma 65.591135
_cell_volume 628.616311
_symmetry_space_group_name_H-M "P -1"
_symmetry_group_IT_number 2
_symmetry_cell_setting 'triclinic'
loop_
_space_group_symop_operation_xyz
x,y,z
-x,-y,-z
loop_
_atom_site_type_symbol
_atom_site_label
_atom_site_fract_x
_atom_site_fract_y
_atom_site_fract_z
Si Si1 0.100318 0.904252 0.647383
Si Si2 0.943701 0.779962 0.016717
Si Si3 0.410617 0.503943 0.187326
Si Si4 0.580953 0.144748 0.368314
Si Si5 0.500000 0.500000 0.000000
Si Si6 0.741420 0.954133 0.313413
Si Si7 0.107451 0.261528 0.382393
O O1 0.089209 0.584078 0.544517
O O2 0.123209 0.126699 0.900619
O O3 0.180977 0.916460 0.637291
O O4 0.000000 0.000000 0.500000
O O5 0.889610 0.743635 0.784988
O O6 0.022324 0.038537 0.215858
O O7 0.000000 0.500000 0.000000
O O8 0.493542 0.311630 0.268845
O O9 0.394440 0.736495 0.391915
O O10 0.447961 0.613376 0.132668
O O11 0.317424 0.300332 0.952999
O O12 0.668028 0.173427 0.380859
O O13 0.552443 0.812419 0.184368
O O14 0.798360 0.832766 0.463440
#
# Coordination Sequence:
#
# PCOD9080269 Si02
#       7
#     2   2   2   2   1   2   2
#     4  12  24  43  65  92 132 176 223 274 331 382
#     4  11  23  42  65  90 125 172 221 273 330 386
#     4  10  23  43  68  94 135 172 213 269 329 393
#     4  10  23  44  67  97 133 175 211 269 331 391
#     4  10  18  38  68  94 122 164 212 260 320 384
#     4  11  24  39  64  99 133 167 225 272 325 390
#     4  11  24  40  65  92 126 173 221 276 324 389
#
# _framework density 20.680340000000001
#
# number of rings (size 3 to 8) (size 9 to 14) (size 15 to 20)
#    0.000    1.231    3.077    2.769    0.000    8.615 
#    0.000    3.077    0.000    0.000    0.000    0.000 
#    0.000    0.000    0.000    0.000    0.000    0.000 
#
# Total GULP energy -72398.032907 kJ/mol
# GULP energy per Si atom -5569.079454 kJ/mol
# Density = 2.063327 g / cm^3
# Si number density = 20.680340 Si / 1000 Ang^3
#
#
#
# Elastic Constant Matrix: (Units=GPa)
#
#
# Indices 1 2 3 4 5 6 
#
# 1 132.7785 21.7640 42.8894 13.1226 -14.6002 8.4395
# 2 21.7640 70.4627 35.0504 11.6662 2.2659 -2.3699
# 3 42.8894 35.0504 100.5998 -0.7414 -22.6542 -12.8618
# 4 13.1226 11.6662 -0.7414 34.9143 -5.7834 -2.5729
# 5 -14.6002 2.2659 -22.6542 -5.7834 41.1420 0.8109
# 6 8.4395 -2.3699 -12.8618 -2.5729 0.8109 24.4468
#
#
#
# Elastic Compliance Matrix: (Units=1/GPa)
#
#
# Indices 1 2 3 4 5 6 
#
# 1 0.010061 -0.000119 -0.005051 -0.004282 0.000324 -0.006603
# 2 -0.000119 0.020305 -0.009178 -0.008404 -0.007327 -0.003461
# 3 -0.005051 -0.009178 0.019081 0.007883 0.010103 0.011387
# 4 -0.004282 -0.008404 0.007883 0.035170 0.008065 0.008245
# 5 0.000324 -0.007327 0.010103 0.008065 0.031437 0.004299
# 6 -0.006603 -0.003461 0.011387 0.008245 0.004299 0.049565
#
#
# Mechanical properties :
#
#
# Convention : Reuss Voigt Hill
#
# Bulk Modulus (GPa) = 48.19137 55.91652 52.05395
# Shear Modulus (GPa) = 24.84710 33.70977 29.27843
#
# Velocity S-wave (km/s) = 3.47000 4.04175 3.76674
# Velocity P-wave (km/s) = 6.27759 6.99130 6.64403
#
# Compressibility (1/GPa) = 0.02075060
#
# Stress axis : x y z
#
# Youngs Moduli (GPa) = 99.39574 49.24952 52.40892
#
# Poissons Ratio (x) = 0.00584 0.26471
# Poissons Ratio (y) = 0.01179 0.48103
# Poissons Ratio (z) = 0.50203 0.45203
#
# Static dielectric constant tensor:
#      x y z
#    x 1.774480 -0.006620 -0.033070 
#    y -0.006620 1.693180 0.000530 
#    z -0.033070 0.000530 1.756900 
# 
# From -- ./inp_files/106134.got.cif
#   From: 2010.05.17/outbox.cif.g08.bks.cpg/sg2_54_cif.got.tgz:106134.got - 2010.06.03 11:33:40.
