data_PCOD9080708
_publ_section_title
;
Structure prediction by ZEFSAII (Michael W. Deem and Ramdas Pophale) SiO2 
 PCOD9080708
Probable space group: P -1
;
_chemical_formula_sum "Si O2"
_cell_formula_units_Z 12
_cell_length_a 11.147264
_cell_length_b 4.883948
_cell_length_c 8.363270
_cell_angle_alpha 109.126216
_cell_angle_beta 103.913202
_cell_angle_gamma 82.197351
_cell_volume 416.756819
_symmetry_space_group_name_H-M "P -1"
_symmetry_group_IT_number 2
_symmetry_cell_setting 'triclinic'
loop_
_space_group_symop_operation_xyz
x,y,z
-x,-y,-z
loop_
_atom_site_type_symbol
_atom_site_label
_atom_site_fract_x
_atom_site_fract_y
_atom_site_fract_z
Si Si1 0.899345 0.621697 0.868784
Si Si2 0.921650 0.309264 0.314754
Si Si3 0.210833 0.871006 0.475395
Si Si4 0.710667 0.601730 0.066365
Si Si5 0.524337 0.139145 0.796243
Si Si6 0.374411 0.329552 0.477708
O O1 0.855458 0.345055 0.704128
O O2 0.976264 0.805830 0.803591
O O3 0.787855 0.729153 0.969274
O O4 0.000000 0.500000 0.000000
O O5 0.864949 0.083795 0.376057
O O6 0.808600 0.472611 0.208775
O O7 0.000000 0.500000 0.500000
O O8 0.256395 0.152611 0.459236
O O9 0.330919 0.663033 0.518084
O O10 0.600079 0.831610 0.131471
O O11 0.631502 0.332585 0.933047
O O12 0.579963 0.825377 0.699793
O O13 0.472482 0.275460 0.638938
#
# Coordination Sequence:
#
# PCOD9080708 Si02
#       6
#     2   2   2   2   2   2
#     4   9  19  39  73  96 143 180 237 286 347 403
#     4   9  19  38  70 101 135 185 233 287 343 414
#     4  11  22  45  71 101 141 181 235 282 345 420
#     4  10  18  41  68 103 144 177 235 285 355 404
#     4  10  22  38  69 101 143 185 225 290 346 421
#     4  11  24  44  70 105 139 188 226 283 349 419
#
# _framework density 28.793773999999999
#
# number of rings (size 3 to 8) (size 9 to 14) (size 15 to 20)
#    0.000    2.000    3.333    0.000    0.000    2.667 
#    0.000   11.667    0.000    0.000    0.000    0.000 
#    0.000    0.000    0.000    0.000    0.000    0.000 
#
# Total GULP energy -67334.981870 kJ/mol
# GULP energy per Si atom -5611.248489 kJ/mol
# Density = 2.872824 g / cm^3
# Si number density = 28.793774 Si / 1000 Ang^3
#
#
#
# Elastic Constant Matrix: (Units=GPa)
#
#
# Indices 1 2 3 4 5 6 
#
# 1 239.2115 65.8584 96.5071 -8.7120 -48.8602 21.9161
# 2 65.8584 83.0568 27.8792 4.5219 -6.4406 -7.5093
# 3 96.5071 27.8792 171.5724 10.2464 -10.2926 -9.1251
# 4 -8.7120 4.5219 10.2464 34.6821 -9.6669 9.6120
# 5 -48.8602 -6.4406 -10.2926 -9.6669 107.6735 -22.5994
# 6 21.9161 -7.5093 -9.1251 9.6120 -22.5994 46.2106
#
#
#
# Elastic Compliance Matrix: (Units=1/GPa)
#
#
# Indices 1 2 3 4 5 6 
#
# 1 0.009348 -0.006587 -0.004815 0.007212 0.002636 -0.006666
# 2 -0.006587 0.017694 0.001565 -0.006680 -0.000853 0.007281
# 3 -0.004815 0.001565 0.008851 -0.005638 -0.000675 0.005128
# 4 0.007212 -0.006680 -0.005638 0.037351 0.003207 -0.011820
# 5 0.002636 -0.000853 -0.000675 0.003207 0.011363 0.003368
# 6 -0.006666 0.007281 0.005128 -0.011820 0.003368 0.031103
#
#
# Mechanical properties :
#
#
# Convention : Reuss Voigt Hill
#
# Bulk Modulus (GPa) = 61.65526 97.14777 79.40152
# Shear Modulus (GPa) = 35.51364 57.95297 46.73331
#
# Velocity S-wave (km/s) = 3.51576 4.49117 4.03306
# Velocity P-wave (km/s) = 6.15954 7.79144 7.02305
#
# Compressibility (1/GPa) = 0.01621922
#
# Stress axis : x y z
#
# Youngs Moduli (GPa) = 106.97102 56.51756 112.97571
#
# Poissons Ratio (x) = 0.37229 0.54398
# Poissons Ratio (y) = 0.70464 -0.17682
# Poissons Ratio (z) = 0.51506 -0.08846
#
# Static dielectric constant tensor:
#      x y z
#    x 2.305100 -0.000140 -0.031320 
#    y -0.000140 2.122940 -0.019040 
#    z -0.031320 -0.019040 2.261400 
# 
# From -- ./inp_files/229373.got.cif
#   From: 2010.05.17/outbox.cif.g08.bks.cpg/sg2_115_cif.got.tgz:229373.got - 2010.06.03 11:33:40.
