data_PCOD9080327
_publ_section_title
;
Structure prediction by ZEFSAII (Michael W. Deem and Ramdas Pophale) SiO2 
 PCOD9080327
Probable space group: P -1
;
_chemical_formula_sum "Si O2"
_cell_formula_units_Z 15
_cell_length_a 22.427534
_cell_length_b 12.887158
_cell_length_c 15.849276
_cell_angle_alpha 28.376384
_cell_angle_beta 26.017139
_cell_angle_gamma 18.200810
_cell_volume 616.085813
_symmetry_space_group_name_H-M "P -1"
_symmetry_group_IT_number 2
_symmetry_cell_setting 'triclinic'
loop_
_space_group_symop_operation_xyz
x,y,z
-x,-y,-z
loop_
_atom_site_type_symbol
_atom_site_label
_atom_site_fract_x
_atom_site_fract_y
_atom_site_fract_z
Si Si1 0.949665 0.203529 0.039141
Si Si2 0.500000 0.500000 0.000000
Si Si3 0.309371 0.599049 0.458676
Si Si4 0.008617 0.720953 0.879647
Si Si5 0.722006 0.571839 0.789344
Si Si6 0.774291 0.827698 0.403982
Si Si7 0.539675 0.737343 0.085345
Si Si8 0.721898 0.441401 0.657285
O O1 0.064471 0.202468 0.821125
O O2 0.938428 0.349765 0.037947
O O3 0.730486 0.396995 0.138975
O O4 0.083060 0.828210 0.160394
O O5 0.434459 0.355613 0.129327
O O6 0.522838 0.307837 0.195058
O O7 0.181837 0.648656 0.661032
O O8 0.346569 0.808373 0.276206
O O9 0.206802 0.684226 0.437208
O O10 0.539135 0.211618 0.430993
O O11 0.793650 0.137715 0.841940
O O12 0.000000 0.500000 0.000000
O O13 0.799585 0.700464 0.556769
O O14 0.606801 0.723423 0.916477
O O15 0.791364 0.587391 0.497160
O O16 0.500000 0.000000 0.000000
#
# Coordination Sequence:
#
# PCOD9080327 Si02
#       8
#     2   1   2   2   2   2   2   2
#     4  12  26  52  73 111 151 206 262 304 379 450
#     4  10  18  38  80 104 140 182 250 306 374 420
#     4  12  27  47  73 114 152 201 255 314 389 456
#     4  12  29  45  76 112 160 197 247 328 395 453
#     4  11  24  49  76 113 148 200 254 321 371 456
#     4  11  25  45  82 113 142 199 256 322 372 463
#     4  12  30  48  78 107 163 205 254 317 375 461
#     4  11  23  44  76 108 150 190 252 316 390 451
#
# _framework density 24.347256999999999
#
# number of rings (size 3 to 8) (size 9 to 14) (size 15 to 20)
#    0.000    0.533    5.333    2.000    9.333    2.133 
#    0.000    0.000    0.000    0.000    0.000    0.000 
#    0.000    0.000    0.000    0.000    0.000    0.000 
#
# Total GULP energy -83804.214664 kJ/mol
# GULP energy per Si atom -5586.947644 kJ/mol
# Density = 2.429184 g / cm^3
# Si number density = 24.347257 Si / 1000 Ang^3
#
#
#
# Elastic Constant Matrix: (Units=GPa)
#
#
# Indices 1 2 3 4 5 6 
#
# 1 133.5187 33.9226 36.4964 8.2148 15.9744 33.6447
# 2 33.9226 59.2700 18.9068 4.3757 -2.5980 21.2500
# 3 36.4964 18.9068 89.6979 2.8297 32.9958 10.7911
# 4 8.2148 4.3757 2.8297 38.2410 12.1383 -0.0516
# 5 15.9744 -2.5980 32.9958 12.1383 34.3495 0.7137
# 6 33.6447 21.2500 10.7911 -0.0516 0.7137 38.1428
#
#
#
# Elastic Compliance Matrix: (Units=1/GPa)
#
#
# Indices 1 2 3 4 5 6 
#
# 1 0.011099 -0.003226 -0.001687 -0.000843 -0.003333 -0.007455
# 2 -0.003226 0.025484 -0.007449 -0.005752 0.012812 -0.009492
# 3 -0.001687 -0.007449 0.021667 0.006924 -0.023038 -0.000052
# 4 -0.000843 -0.005752 0.006924 0.032236 -0.018135 0.002372
# 5 -0.003333 0.012812 -0.023038 -0.018135 0.060146 0.001170
# 6 -0.007455 -0.009492 -0.000052 0.002372 0.001170 0.038077
#
#
# Mechanical properties :
#
#
# Convention : Reuss Voigt Hill
#
# Bulk Modulus (GPa) = 29.82567 51.23755 40.53161
# Shear Modulus (GPa) = 22.26100 35.02406 28.64253
#
# Velocity S-wave (km/s) = 3.02704 3.79690 3.43361
# Velocity P-wave (km/s) = 4.94914 6.34918 5.69237
#
# Compressibility (1/GPa) = 0.03352816
#
# Stress axis : x y z
#
# Youngs Moduli (GPa) = 90.09604 39.24076 46.15225
#
# Poissons Ratio (x) = 0.12657 0.07785
# Poissons Ratio (y) = 0.29061 0.34378
# Poissons Ratio (z) = 0.15197 0.29230
#
# Static dielectric constant tensor:
#      x y z
#    x 2.154650 0.022350 0.012390 
#    y 0.022350 2.473310 0.204030 
#    z 0.012390 0.204030 2.108440 
# 
# From -- ./inp_files/541048.got.cif
#   From: 2010.05.17/outbox.cif.g08.bks.cpg/sg2_271_cif.got.tgz:541048.got - 2010.06.03 11:33:40.
