data_PCOD9080856
_publ_section_title
;
Structure prediction by ZEFSAII (Michael W. Deem and Ramdas Pophale) SiO2 
 PCOD9080856
Probable space group: P -1
;
_chemical_formula_sum "Si O2"
_cell_formula_units_Z 14
_cell_length_a 17.077741
_cell_length_b 12.367208
_cell_length_c 8.812059
_cell_angle_alpha 124.742515
_cell_angle_beta 130.039340
_cell_angle_gamma 22.045034
_cell_volume 532.553329
_symmetry_space_group_name_H-M "P -1"
_symmetry_group_IT_number 2
_symmetry_cell_setting 'triclinic'
loop_
_space_group_symop_operation_xyz
x,y,z
-x,-y,-z
loop_
_atom_site_type_symbol
_atom_site_label
_atom_site_fract_x
_atom_site_fract_y
_atom_site_fract_z
Si Si1 0.616304 0.514804 0.550008
Si Si2 0.117395 0.761843 0.064586
Si Si3 0.383601 0.255140 0.653387
Si Si4 0.386497 0.750987 0.757470
Si Si5 0.641415 0.942387 0.348181
Si Si6 0.963698 0.662217 0.273381
Si Si7 0.824043 0.840096 0.799792
O O1 0.164556 0.754604 0.289475
O O2 0.406964 0.728263 0.577192
O O3 0.613035 0.405387 0.332788
O O4 0.578051 0.713195 0.627736
O O5 0.372050 0.462396 0.076253
O O6 0.979130 0.787612 0.932975
O O7 0.000000 0.000000 0.000000
O O8 0.136761 0.545915 0.505023
O O9 0.500000 0.000000 0.500000
O O10 0.384915 0.181740 0.758237
O O11 0.564853 0.161811 0.782285
O O12 0.164923 0.085806 0.791690
O O13 0.756333 0.837805 0.249431
O O14 0.806411 0.804053 0.576555
O O15 0.091608 0.379522 0.168319
#
# Coordination Sequence:
#
# PCOD9080856 Si02
#       7
#     2   2   2   2   2   2   2
#     4   8  16  30  47  70  92 123 162 195 229 280
#     4  10  19  30  47  71  96 125 159 201 239 279
#     4   8  16  29  46  73 100 124 153 193 236 285
#     4   8  16  29  47  71  92 121 162 196 230 273
#     4   9  15  30  51  74  90 127 169 187 224 285
#     4   9  16  29  52  74  94 123 166 193 228 278
#     4  10  19  29  49  75 102 123 149 200 246 276
#
# _framework density 26.288446
#
# number of rings (size 3 to 8) (size 9 to 14) (size 15 to 20)
#    0.857    2.571    0.000    2.571    2.000    0.571 
#    0.000    0.714    0.000   14.571    0.000    0.000 
#    0.000    0.000    0.000    0.000    0.000    0.000 
#
# Total GULP energy -78010.218347 kJ/mol
# GULP energy per Si atom -5572.158453 kJ/mol
# Density = 2.622861 g / cm^3
# Si number density = 26.288446 Si / 1000 Ang^3
#
#
#
# Elastic Constant Matrix: (Units=GPa)
#
#
# Indices 1 2 3 4 5 6 
#
# 1 68.5178 38.4612 48.4226 -13.7938 16.3596 14.9806
# 2 38.4612 136.6824 64.7074 -21.5805 20.6864 28.4665
# 3 48.4226 64.7074 133.7408 -15.2175 43.7700 30.6495
# 4 -13.7938 -21.5805 -15.2175 39.4480 1.8992 -7.4000
# 5 16.3596 20.6864 43.7700 1.8992 36.1164 0.7958
# 6 14.9806 28.4665 30.6495 -7.4000 0.7958 46.4373
#
#
#
# Elastic Compliance Matrix: (Units=1/GPa)
#
#
# Indices 1 2 3 4 5 6 
#
# 1 0.021082 -0.002282 -0.004931 0.004066 -0.002448 -0.001458
# 2 -0.002282 0.010772 -0.002333 0.003616 -0.002418 -0.003710
# 3 -0.004931 -0.002333 0.019342 0.003766 -0.019875 -0.008805
# 4 0.004066 0.003616 0.003766 0.030503 -0.010059 -0.000981
# 5 -0.002448 -0.002418 -0.019875 -0.010059 0.054515 0.012853
# 6 -0.001458 -0.003710 -0.008805 -0.000981 0.012853 0.029714
#
#
# Mechanical properties :
#
#
# Convention : Reuss Voigt Hill
#
# Bulk Modulus (GPa) = 31.14794 71.34706 51.24750
# Shear Modulus (GPa) = 25.54654 36.89034 31.21844
#
# Velocity S-wave (km/s) = 3.12072 3.75012 3.44980
# Velocity P-wave (km/s) = 4.98592 6.77866 5.95019
#
# Compressibility (1/GPa) = 0.03210485
#
# Stress axis : x y z
#
# Youngs Moduli (GPa) = 47.43316 92.83198 51.70025
#
# Poissons Ratio (x) = 0.21183 0.25495
# Poissons Ratio (y) = 0.10823 0.12061
# Poissons Ratio (z) = 0.23390 0.21657
#
# Static dielectric constant tensor:
#      x y z
#    x 2.261790 0.020680 -0.034400 
#    y 0.020680 2.196050 0.069200 
#    z -0.034400 0.069200 2.158720 
# 
# From -- ./inp_files/541287.got.cif
#   From: 2010.05.17/outbox.cif.g08.bks.cpg/sg2_271_cif.got.tgz:541287.got - 2010.06.03 11:33:40.
