data_PCOD9080038
_publ_section_title
;
Structure prediction by ZEFSAII (Michael W. Deem and Ramdas Pophale) SiO2 
 PCOD9080038
Probable space group: P -1
;
_chemical_formula_sum "Si O2"
_cell_formula_units_Z 15
_cell_length_a 20.326679
_cell_length_b 8.698251
_cell_length_c 14.354683
_cell_angle_alpha 40.338643
_cell_angle_beta 28.780533
_cell_angle_gamma 31.867121
_cell_volume 643.526619
_symmetry_space_group_name_H-M "P -1"
_symmetry_group_IT_number 2
_symmetry_cell_setting 'triclinic'
loop_
_space_group_symop_operation_xyz
x,y,z
-x,-y,-z
loop_
_atom_site_type_symbol
_atom_site_label
_atom_site_fract_x
_atom_site_fract_y
_atom_site_fract_z
Si Si1 0.586520 0.547559 0.256996
Si Si2 0.737248 0.928725 0.091176
Si Si3 0.500000 0.000000 0.000000
Si Si4 0.868768 0.724856 0.693685
Si Si5 0.081112 0.569513 0.039157
Si Si6 0.405435 0.126450 0.314973
Si Si7 0.145773 0.655794 0.263533
Si Si8 0.297482 0.046665 0.670269
O O1 0.573717 0.292623 0.358384
O O2 0.446851 0.818757 0.368336
O O3 0.765825 0.402638 0.151961
O O4 0.589538 0.708669 0.087633
O O5 0.583039 0.067444 0.145199
O O6 0.675618 0.902106 0.280804
O O7 0.800623 0.133805 0.924290
O O8 0.878539 0.618789 0.016140
O O9 0.674892 0.984333 0.798330
O O10 0.905899 0.624793 0.800169
O O11 0.905500 0.449674 0.713226
O O12 0.995481 0.789090 0.462875
O O13 0.893998 0.856543 0.136243
O O14 0.306714 0.359122 0.247724
O O15 0.308901 0.214441 0.491895
#
# Coordination Sequence:
#
# PCOD9080038 Si02
#       8
#     2   2   1   2   2   2   2   2
#     4  10  22  38  68  94 130 167 216 272 336 372
#     4  11  25  42  65  93 134 186 214 264 329 389
#     4  10  18  38  62 102 126 152 204 276 320 378
#     4  10  21  40  70  95 134 162 216 284 320 386
#     4  10  22  42  63  95 134 168 221 266 323 398
#     4  11  23  44  63  96 139 166 226 271 320 398
#     4  11  22  43  66  99 130 172 219 269 335 380
#     4  12  23  43  65  95 130 180 220 270 325 386
#
# _framework density 23.309059000000001
#
# number of rings (size 3 to 8) (size 9 to 14) (size 15 to 20)
#    0.000    1.333    2.667    3.600    0.000    0.533 
#    2.400    2.667    0.000    0.000    0.000    0.000 
#    0.000    0.000    0.000    0.000    0.000    0.000 
#
# Total GULP energy -83618.503226 kJ/mol
# GULP energy per Si atom -5574.566882 kJ/mol
# Density = 2.325601 g / cm^3
# Si number density = 23.309059 Si / 1000 Ang^3
#
#
#
# Elastic Constant Matrix: (Units=GPa)
#
#
# Indices 1 2 3 4 5 6 
#
# 1 86.0001 24.0170 18.6814 -7.5119 14.8889 2.2921
# 2 24.0170 63.7373 13.3376 6.3842 -1.6892 6.9876
# 3 18.6814 13.3376 78.2506 4.0893 9.2679 12.1231
# 4 -7.5119 6.3842 4.0893 28.0690 -6.5968 -7.3564
# 5 14.8889 -1.6892 9.2679 -6.5968 43.7020 12.0771
# 6 2.2921 6.9876 12.1231 -7.3564 12.0771 32.7189
#
#
#
# Elastic Compliance Matrix: (Units=1/GPa)
#
#
# Indices 1 2 3 4 5 6 
#
# 1 0.015380 -0.006424 -0.002997 0.006011 -0.005242 0.004691
# 2 -0.006424 0.019800 -0.000953 -0.006847 0.003891 -0.006401
# 3 -0.002997 -0.000953 0.014926 -0.004550 -0.001304 -0.005659
# 4 0.006011 -0.006847 -0.004550 0.042966 0.001909 0.011682
# 5 -0.005242 0.003891 -0.001304 0.001909 0.028129 -0.009934
# 6 0.004691 -0.006401 -0.005659 0.011682 -0.009934 0.039992
#
#
# Mechanical properties :
#
#
# Convention : Reuss Voigt Hill
#
# Bulk Modulus (GPa) = 34.06018 37.78445 35.92231
# Shear Modulus (GPa) = 26.07881 32.36144 29.22012
#
# Velocity S-wave (km/s) = 3.34852 3.73012 3.54446
# Velocity P-wave (km/s) = 5.44006 5.89891 5.67412
#
# Compressibility (1/GPa) = 0.02935979
#
# Stress axis : x y z
#
# Youngs Moduli (GPa) = 65.01788 50.50498 66.99617
#
# Poissons Ratio (x) = 0.32443 0.20080
# Poissons Ratio (y) = 0.41766 0.06382
# Poissons Ratio (z) = 0.19487 0.04811
#
# Static dielectric constant tensor:
#      x y z
#    x 1.905140 0.037000 0.022400 
#    y 0.037000 1.866020 0.072860 
#    z 0.022400 0.072860 1.945740 
# 
# From -- ./inp_files/294844.got.cif
#   From: 2010.05.17/outbox.cif.g08.bks.cpg/sg2_148_cif.got.tgz:294844.got - 2010.06.03 11:33:40.
