data_PCOD9080639
_publ_section_title
;
Structure prediction by ZEFSAII (Michael W. Deem and Ramdas Pophale) SiO2 
 PCOD9080639
Probable space group: P -1
;
_chemical_formula_sum "Si O2"
_cell_formula_units_Z 16
_cell_length_a 10.431816
_cell_length_b 13.504738
_cell_length_c 9.151602
_cell_angle_alpha 57.267796
_cell_angle_beta 104.585900
_cell_angle_gamma 134.899489
_cell_volume 749.770785
_symmetry_space_group_name_H-M "P -1"
_symmetry_group_IT_number 2
_symmetry_cell_setting 'triclinic'
loop_
_space_group_symop_operation_xyz
x,y,z
-x,-y,-z
loop_
_atom_site_type_symbol
_atom_site_label
_atom_site_fract_x
_atom_site_fract_y
_atom_site_fract_z
Si Si1 0.833894 0.746502 0.516254
Si Si2 0.327577 0.964687 0.909352
Si Si3 0.310557 0.359722 0.972958
Si Si4 0.793010 0.873544 0.637676
Si Si5 0.343347 0.976265 0.550991
Si Si6 0.793249 0.863539 0.121614
Si Si7 0.995581 0.362368 0.429769
Si Si8 0.022781 0.369516 0.778631
O O1 0.703194 0.738437 0.591479
O O2 0.815066 0.786298 0.320362
O O3 0.832339 0.605323 0.615132
O O4 0.026748 0.927637 0.488375
O O5 0.142610 0.780549 0.048650
O O6 0.348411 0.987059 0.720988
O O7 0.022112 0.509395 0.688241
O O8 0.500000 0.000000 0.000000
O O9 0.172828 0.202048 0.168764
O O10 0.205456 0.409999 0.844566
O O11 0.500000 0.500000 0.000000
O O12 0.338299 0.281916 0.915872
O O13 0.647965 0.885896 0.620572
O O14 0.500000 0.000000 0.500000
O O15 0.165178 0.796606 0.583438
O O16 0.708307 0.930743 0.107853
O O17 0.000000 0.000000 0.000000
O O18 0.984681 0.325237 0.629484
#
# Coordination Sequence:
#
# PCOD9080639 Si02
#       8
#     2   2   2   2   2   2   2   2
#     4  10  18  40  67  99 121 181 230 282 340 409
#     4  12  26  44  72 108 138 183 247 297 353 425
#     4  12  27  43  70 105 145 184 234 290 354 416
#     4  10  22  39  67  96 130 169 235 283 341 403
#     4  11  25  42  67 101 138 181 235 298 352 416
#     4  12  21  43  73  99 136 183 236 289 339 416
#     4  10  23  41  70  95 141 187 226 285 367 415
#     4  11  24  46  66 101 143 190 233 288 358 436
#
# _framework density 21.339856000000001
#
# number of rings (size 3 to 8) (size 9 to 14) (size 15 to 20)
#    0.000    1.000    5.000    0.750    8.750    0.500 
#    2.250    0.625    0.000    0.000    0.000    0.000 
#    0.000    0.000    0.000    0.000    0.000    0.000 
#
# Total GULP energy -89128.437728 kJ/mol
# GULP energy per Si atom -5570.527358 kJ/mol
# Density = 2.129129 g / cm^3
# Si number density = 21.339856 Si / 1000 Ang^3
#
#
#
# Elastic Constant Matrix: (Units=GPa)
#
#
# Indices 1 2 3 4 5 6 
#
# 1 151.8949 58.1199 42.5341 12.3653 17.3118 -33.7581
# 2 58.1199 98.0189 42.3774 32.6188 0.6064 -18.6603
# 3 42.5341 42.3774 77.5086 16.4835 14.8403 -21.2496
# 4 12.3653 32.6188 16.4835 28.7910 -4.9226 -4.5028
# 5 17.3118 0.6064 14.8403 -4.9226 34.7601 3.4612
# 6 -33.7581 -18.6603 -21.2496 -4.5028 3.4612 42.1693
#
#
#
# Elastic Compliance Matrix: (Units=1/GPa)
#
#
# Indices 1 2 3 4 5 6 
#
# 1 0.010761 -0.005589 -0.000442 0.002064 -0.005437 0.006585
# 2 -0.005589 0.022374 -0.005181 -0.019588 0.001774 0.000578
# 3 -0.000442 -0.005181 0.021884 -0.006995 -0.010872 0.008526
# 4 0.002064 -0.019588 -0.006995 0.061230 0.011463 -0.004943
# 5 -0.005437 0.001774 -0.010872 0.011463 0.038806 -0.011007
# 6 0.006585 0.000578 0.008526 -0.004943 -0.011007 0.033914
#
#
# Mechanical properties :
#
#
# Convention : Reuss Voigt Hill
#
# Bulk Modulus (GPa) = 30.68028 68.16501 49.42264
# Shear Modulus (GPa) = 22.49641 33.43684 27.96662
#
# Velocity S-wave (km/s) = 3.25036 3.96267 3.62406
# Velocity P-wave (km/s) = 5.33804 7.27660 6.38136
#
# Compressibility (1/GPa) = 0.03259423
#
# Stress axis : x y z
#
# Youngs Moduli (GPa) = 92.92808 44.69539 45.69593
#
# Poissons Ratio (x) = 0.24981 0.02020
# Poissons Ratio (y) = 0.51939 0.23675
# Poissons Ratio (z) = 0.04108 0.23156
#
# Static dielectric constant tensor:
#      x y z
#    x 2.349780 -0.040970 -0.214130 
#    y -0.040970 1.647690 -0.003250 
#    z -0.214130 -0.003250 1.872530 
# 
# From -- ./inp_files/269067.got.cif
#   From: 2010.05.17/outbox.cif.g08.bks.cpg/sg2_135_cif.got.tgz:269067.got - 2010.06.03 11:33:40.
