data_PCOD9080025
_publ_section_title
;
Structure prediction by ZEFSAII (Michael W. Deem and Ramdas Pophale) SiO2 
 PCOD9080025
Probable space group: P -1
;
_chemical_formula_sum "Si O2"
_cell_formula_units_Z 16
_cell_length_a 9.346850
_cell_length_b 15.471037
_cell_length_c 11.563281
_cell_angle_alpha 147.657503
_cell_angle_beta 128.493918
_cell_angle_gamma 45.217711
_cell_volume 633.295820
_symmetry_space_group_name_H-M "P -1"
_symmetry_group_IT_number 2
_symmetry_cell_setting 'triclinic'
loop_
_space_group_symop_operation_xyz
x,y,z
-x,-y,-z
loop_
_atom_site_type_symbol
_atom_site_label
_atom_site_fract_x
_atom_site_fract_y
_atom_site_fract_z
Si Si1 0.063273 0.267562 0.152585
Si Si2 0.232968 0.868952 0.052808
Si Si3 0.522170 0.303917 0.818337
Si Si4 0.241135 0.910117 0.502003
Si Si5 0.198605 0.628838 0.295800
Si Si6 0.186494 0.272859 0.955776
Si Si7 0.077303 0.783805 0.657694
Si Si8 0.820653 0.654679 0.470697
O O1 0.215798 0.261428 0.324598
O O2 0.859596 0.448224 0.273522
O O3 0.141416 0.252315 0.044656
O O4 0.968680 0.130032 0.983887
O O5 0.432409 0.750215 0.087631
O O6 0.153798 0.080779 0.266765
O O7 0.229221 0.811246 0.854057
O O8 0.710163 0.154418 0.676922
O O9 0.334132 0.286597 0.646731
O O10 0.500000 0.500000 0.000000
O O11 0.328853 0.722117 0.404753
O O12 0.309809 0.066923 0.742541
O O13 0.000000 0.000000 0.500000
O O14 0.023346 0.656615 0.144313
O O15 0.119487 0.753691 0.510952
O O16 0.265478 0.425860 0.145512
O O17 0.048532 0.612161 0.493979
#
# Coordination Sequence:
#
# PCOD9080025 Si02
#       8
#     2   2   2   2   2   2   2   2
#     4  10  18  38  61  90 114 164 208 247 306 378
#     4  10  20  35  60  88 123 166 201 259 309 371
#     4  12  24  39  63  94 127 161 207 264 318 362
#     4  10  22  39  59  87 123 165 207 253 304 378
#     4  10  19  32  59  90 113 156 216 250 296 371
#     4  10  19  32  60  85 115 156 210 252 296 366
#     4  10  20  37  60  93 123 160 214 254 308 377
#     4  10  22  35  62  90 124 153 204 262 309 361
#
# _framework density 25.264655000000001
#
# number of rings (size 3 to 8) (size 9 to 14) (size 15 to 20)
#    0.000    1.750    2.500    3.750    0.000    0.500 
#    0.000    1.875    0.000    4.500    0.000    0.000 
#    0.000    0.000    0.000    0.000    0.000    0.000 
#
# Total GULP energy -89166.995810 kJ/mol
# GULP energy per Si atom -5572.937238 kJ/mol
# Density = 2.520715 g / cm^3
# Si number density = 25.264655 Si / 1000 Ang^3
#
#
#
# Elastic Constant Matrix: (Units=GPa)
#
#
# Indices 1 2 3 4 5 6 
#
# 1 42.1213 16.0270 24.9461 -9.5464 -14.3143 20.7292
# 2 16.0270 110.2097 32.4641 -42.8773 -4.4244 16.2169
# 3 24.9461 32.4641 137.0177 -27.6027 -11.8680 5.1470
# 4 -9.5464 -42.8773 -27.6027 43.3592 4.5029 -5.8751
# 5 -14.3143 -4.4244 -11.8680 4.5029 41.0263 -5.9498
# 6 20.7292 16.2169 5.1470 -5.8751 -5.9498 37.1223
#
#
#
# Elastic Compliance Matrix: (Units=1/GPa)
#
#
# Indices 1 2 3 4 5 6 
#
# 1 0.040433 -0.000464 -0.005420 0.001314 0.009459 -0.019900
# 2 -0.000464 0.015499 -0.000612 0.014342 -0.000865 -0.004295
# 3 -0.005420 -0.000612 0.009270 0.004417 0.000648 0.002811
# 4 0.001314 0.014342 0.004417 0.040291 -0.001350 -0.001451
# 5 0.009459 -0.000865 0.000648 -0.001350 0.027808 -0.000751
# 6 -0.019900 -0.004295 0.002811 -0.001451 -0.000751 0.039186
#
#
# Mechanical properties :
#
#
# Convention : Reuss Voigt Hill
#
# Bulk Modulus (GPa) = 19.15340 48.46923 33.81131
# Shear Modulus (GPa) = 24.64474 38.69567 31.67021
#
# Velocity S-wave (km/s) = 3.12663 3.91783 3.54437
# Velocity P-wave (km/s) = 4.54224 6.30017 5.49200
#
# Compressibility (1/GPa) = 0.05221006
#
# Stress axis : x y z
#
# Youngs Moduli (GPa) = 24.73225 64.52178 107.87080
#
# Poissons Ratio (x) = 0.02996 0.58465
# Poissons Ratio (y) = 0.01148 0.06600
# Poissons Ratio (z) = 0.13405 0.03948
#
# Static dielectric constant tensor:
#      x y z
#    x 2.028460 0.004100 0.032800 
#    y 0.004100 2.043610 0.047400 
#    z 0.032800 0.047400 2.048210 
# 
# From -- ./inp_files/437149.got.cif
#   From: 2010.05.17/outbox.cif.g08.bks.cpg/sg2_219_cif.got.tgz:437149.got - 2010.06.03 11:33:40.
