data_PCOD9080679
_publ_section_title
;
Structure prediction by ZEFSAII (Michael W. Deem and Ramdas Pophale) SiO2 
 PCOD9080679
Probable space group: P -1
;
_chemical_formula_sum "Si O2"
_cell_formula_units_Z 15
_cell_length_a 10.231480
_cell_length_b 8.289108
_cell_length_c 16.961920
_cell_angle_alpha 71.312801
_cell_angle_beta 137.242127
_cell_angle_gamma 75.629116
_cell_volume 610.103378
_symmetry_space_group_name_H-M "P -1"
_symmetry_group_IT_number 2
_symmetry_cell_setting 'triclinic'
loop_
_space_group_symop_operation_xyz
x,y,z
-x,-y,-z
loop_
_atom_site_type_symbol
_atom_site_label
_atom_site_fract_x
_atom_site_fract_y
_atom_site_fract_z
Si Si1 0.356221 0.499071 0.032671
Si Si2 0.147342 0.717600 0.608737
Si Si3 0.586650 0.002739 0.125609
Si Si4 0.000000 0.500000 0.000000
Si Si5 0.424097 0.129988 0.694327
Si Si6 0.407978 0.151644 0.328046
Si Si7 0.717119 0.421052 0.484706
Si Si8 0.804454 0.015891 0.638693
O O1 0.626930 0.428199 0.196920
O O2 0.457401 0.267575 0.061340
O O3 0.177385 0.544623 0.021173
O O4 0.138498 0.767086 0.846375
O O5 0.315161 0.600080 0.618516
O O6 0.895243 0.740918 0.484525
O O7 0.000000 0.000000 0.500000
O O8 0.520631 0.912119 0.182001
O O9 0.937039 0.782700 0.316601
O O10 0.500000 0.000000 0.000000
O O11 0.848773 0.543579 0.834828
O O12 0.440100 0.293889 0.628224
O O13 0.644501 0.856919 0.787647
O O14 0.355764 0.016278 0.373857
O O15 0.719093 0.011723 0.513323
O O16 0.661685 0.296029 0.534638
#
# Coordination Sequence:
#
# PCOD9080679 Si02
#       8
#     2   2   2   1   2   2   2   2
#     4  11  22  39  71 100 131 172 226 282 327 388
#     4  11  19  40  67  97 123 171 233 273 322 392
#     4  11  24  41  62 102 136 172 219 276 339 393
#     4  10  18  40  72  96 124 166 228 276 322 388
#     4  11  23  42  68  95 134 184 212 270 342 399
#     4  10  21  42  70  95 130 173 228 273 329 390
#     4  11  24  40  62  94 141 177 213 268 336 406
#     4  10  24  40  64 104 131 173 220 284 325 385
#
# _framework density 24.585996000000002
#
# number of rings (size 3 to 8) (size 9 to 14) (size 15 to 20)
#    0.000    1.333    4.000    3.200    1.867    3.200 
#    2.400    0.000    2.933    4.800    0.000    0.000 
#    0.000    0.000    0.000    0.000    0.000    0.000 
#
# Total GULP energy -83508.255860 kJ/mol
# GULP energy per Si atom -5567.217057 kJ/mol
# Density = 2.453004 g / cm^3
# Si number density = 24.585996 Si / 1000 Ang^3
#
#
#
# Elastic Constant Matrix: (Units=GPa)
#
#
# Indices 1 2 3 4 5 6 
#
# 1 102.7992 26.1806 44.1108 1.2873 -26.3121 15.1638
# 2 26.1806 97.2468 74.3735 -5.6129 -26.0551 -1.4497
# 3 44.1108 74.3735 191.7228 15.6747 -22.5223 4.9905
# 4 1.2873 -5.6129 15.6747 45.3775 4.1473 -19.6495
# 5 -26.3121 -26.0551 -22.5223 4.1473 43.9007 -9.7555
# 6 15.1638 -1.4497 4.9905 -19.6495 -9.7555 42.3445
#
#
#
# Elastic Compliance Matrix: (Units=1/GPa)
#
#
# Indices 1 2 3 4 5 6 
#
# 1 0.012713 -0.000858 -0.001653 -0.002189 0.005552 -0.004123
# 2 -0.000858 0.018155 -0.006666 0.006732 0.007673 0.006606
# 3 -0.001653 -0.006666 0.008587 -0.005045 -0.000769 -0.003166
# 4 -0.002189 0.006732 -0.005045 0.031760 0.000767 0.016523
# 5 0.005552 0.007673 -0.000769 0.000767 0.031523 0.005983
# 6 -0.004123 0.006606 -0.003166 0.016523 0.005983 0.034738
#
#
# Mechanical properties :
#
#
# Convention : Reuss Voigt Hill
#
# Bulk Modulus (GPa) = 47.39625 75.67762 61.53694
# Shear Modulus (GPa) = 30.70056 42.79814 36.74935
#
# Velocity S-wave (km/s) = 3.53753 4.17676 3.87036
# Velocity P-wave (km/s) = 6.00042 7.35582 6.71242
#
# Compressibility (1/GPa) = 0.02109872
#
# Stress axis : x y z
#
# Youngs Moduli (GPa) = 78.66271 55.08004 116.45738
#
# Poissons Ratio (x) = 0.04726 0.19256
# Poissons Ratio (y) = 0.06750 0.77636
# Poissons Ratio (z) = 0.13007 0.36719
#
# Static dielectric constant tensor:
#      x y z
#    x 2.070480 -0.026160 0.046150 
#    y -0.026160 2.067620 0.013470 
#    z 0.046150 0.013470 2.034120 
# 
# From -- ./inp_files/565292.got.cif
#   From: 2010.05.17/outbox.cif.g08.bks.cpg/sg2_283_cif.got.tgz:565292.got - 2010.06.03 11:33:40.
