data_PCOD9080566
_publ_section_title
;
Structure prediction by ZEFSAII (Michael W. Deem and Ramdas Pophale) SiO2 
 PCOD9080566
Probable space group: P -1
;
_chemical_formula_sum "Si O2"
_cell_formula_units_Z 16
_cell_length_a 5.722935
_cell_length_b 9.793800
_cell_length_c 26.176595
_cell_angle_alpha 32.570506
_cell_angle_beta 75.305750
_cell_angle_gamma 59.689014
_cell_volume 633.647849
_symmetry_space_group_name_H-M "P -1"
_symmetry_group_IT_number 2
_symmetry_cell_setting 'triclinic'
loop_
_space_group_symop_operation_xyz
x,y,z
-x,-y,-z
loop_
_atom_site_type_symbol
_atom_site_label
_atom_site_fract_x
_atom_site_fract_y
_atom_site_fract_z
Si Si1 0.274749 0.703237 0.241754
Si Si2 0.738105 0.957736 0.042387
Si Si3 0.369885 0.934790 0.793948
Si Si4 0.886712 0.589449 0.732940
Si Si5 0.175717 0.668271 0.488010
Si Si6 0.278623 0.550853 0.629827
Si Si7 0.714122 0.954044 0.344961
Si Si8 0.660322 0.746384 0.937906
O O1 0.261942 0.580758 0.226592
O O2 0.476213 0.444448 0.353634
O O3 0.382490 0.924950 0.161684
O O4 0.954156 0.905662 0.217846
O O5 0.908932 0.616826 0.166694
O O6 0.543074 0.208801 0.017844
O O7 0.500000 0.000000 0.000000
O O8 0.000000 0.000000 0.000000
O O9 0.564414 0.710026 0.898952
O O10 0.430709 0.204199 0.707321
O O11 0.364014 0.842588 0.765612
O O12 0.054935 0.592926 0.672625
O O13 0.606917 0.923308 0.655253
O O14 0.500000 0.500000 0.500000
O O15 0.155778 0.749433 0.523175
O O16 0.118795 0.395747 0.573817
O O17 0.928032 0.939697 0.380583
O O18 0.000000 0.500000 0.000000
#
# Coordination Sequence:
#
# PCOD9080566 Si02
#       8
#     2   2   2   2   2   2   2   2
#     4  10  18  40  63  86 124 170 225 271 332 416
#     4  12  27  47  69 104 149 186 234 307 359 414
#     4   9  19  38  62  87 120 169 218 265 340 396
#     4  11  23  42  64  93 130 179 222 267 357 417
#     4  10  21  42  62  96 130 162 222 279 341 397
#     4   9  19  37  65  85 123 171 212 271 330 409
#     4  10  23  39  63  96 131 167 218 283 332 421
#     4  11  24  41  65  97 128 178 234 288 345 424
#
# _framework density 25.250616999999998
#
# number of rings (size 3 to 8) (size 9 to 14) (size 15 to 20)
#    0.000    1.750    3.750    1.500    1.750    4.000 
#    0.000    1.250    0.000    0.000    0.000    0.000 
#    0.000    0.000    0.000    0.000    0.000    0.000 
#
# Total GULP energy -89359.035643 kJ/mol
# GULP energy per Si atom -5584.939728 kJ/mol
# Density = 2.519315 g / cm^3
# Si number density = 25.250617 Si / 1000 Ang^3
#
#
#
# Elastic Constant Matrix: (Units=GPa)
#
#
# Indices 1 2 3 4 5 6 
#
# 1 106.1499 43.1572 71.2540 20.5811 41.0860 -6.2150
# 2 43.1572 103.1991 79.1582 21.6520 27.5381 -13.1219
# 3 71.2540 79.1582 156.9051 40.6942 53.0904 3.1847
# 4 20.5811 21.6520 40.6942 46.9192 14.5539 7.1026
# 5 41.0860 27.5381 53.0904 14.5539 62.4733 -3.3030
# 6 -6.2150 -13.1219 3.1847 7.1026 -3.3030 48.9797
#
#
#
# Elastic Compliance Matrix: (Units=1/GPa)
#
#
# Indices 1 2 3 4 5 6 
#
# 1 0.015156 -0.001266 -0.004130 -0.000996 -0.005582 0.001621
# 2 -0.001266 0.017181 -0.008090 -0.001373 0.000729 0.005217
# 3 -0.004130 -0.008090 0.016005 -0.005946 -0.006108 -0.003282
# 4 -0.000996 -0.001373 -0.005946 0.028344 -0.000515 -0.004253
# 5 -0.005582 0.000729 -0.006108 -0.000515 0.024753 0.001628
# 6 0.001621 0.005217 -0.003282 -0.004253 0.001628 0.022960
#
#
# Mechanical properties :
#
#
# Convention : Reuss Voigt Hill
#
# Bulk Modulus (GPa) = 46.79030 83.71032 65.25031
# Shear Modulus (GPa) = 31.54698 43.18676 37.36687
#
# Velocity S-wave (km/s) = 3.53846 4.14009 3.85104
# Velocity P-wave (km/s) = 5.93842 7.48850 6.75805
#
# Compressibility (1/GPa) = 0.02137195
#
# Stress axis : x y z
#
# Youngs Moduli (GPa) = 65.97988 58.20330 62.47958
#
# Poissons Ratio (x) = 0.07367 0.25804
# Poissons Ratio (y) = 0.08351 0.50543
# Poissons Ratio (z) = 0.27249 0.47084
#
# Static dielectric constant tensor:
#      x y z
#    x 2.306780 0.056680 0.048860 
#    y 0.056680 1.997020 -0.015500 
#    z 0.048860 -0.015500 2.198520 
# 
# From -- ./inp_files/603982.got.cif
#   From: 2010.05.17/outbox.cif.g08.bks.cpg/sg2_302_cif.got.tgz:603982.got - 2010.06.03 11:33:40.
