data_PCOD9080307
_publ_section_title
;
Structure prediction by ZEFSAII (Michael W. Deem and Ramdas Pophale) SiO2 
 PCOD9080307
Probable space group: P -1
;
_chemical_formula_sum "Si O2"
_cell_formula_units_Z 16
_cell_length_a 8.082894
_cell_length_b 14.034921
_cell_length_c 9.877520
_cell_angle_alpha 71.872341
_cell_angle_beta 79.747265
_cell_angle_gamma 42.359302
_cell_volume 715.154567
_symmetry_space_group_name_H-M "P -1"
_symmetry_group_IT_number 2
_symmetry_cell_setting 'triclinic'
loop_
_space_group_symop_operation_xyz
x,y,z
-x,-y,-z
loop_
_atom_site_type_symbol
_atom_site_label
_atom_site_fract_x
_atom_site_fract_y
_atom_site_fract_z
Si Si1 0.071749 0.697456 0.917706
Si Si2 0.083018 0.025564 0.105344
Si Si3 0.573978 0.775008 0.616640
Si Si4 0.933623 0.320435 0.398977
Si Si5 0.378714 0.218543 0.910386
Si Si6 0.025788 0.063785 0.592926
Si Si7 0.740409 0.603286 0.413908
Si Si8 0.724779 0.590724 0.943104
O O1 0.090498 0.804921 0.908027
O O2 0.070602 0.689277 0.758703
O O3 0.819596 0.764772 0.993048
O O4 0.272826 0.529499 0.012072
O O5 0.360434 0.945073 0.083921
O O6 0.087031 0.943664 0.260766
O O7 0.000000 0.000000 0.000000
O O8 0.793043 0.758402 0.570293
O O9 0.550818 0.719242 0.507498
O O10 0.665984 0.665102 0.775138
O O11 0.322729 0.938859 0.622387
O O12 0.911016 0.221947 0.512646
O O13 0.745433 0.488359 0.403846
O O14 0.273922 0.313309 0.746139
O O15 0.436850 0.285664 0.974014
O O16 0.000000 0.000000 0.500000
O O17 0.000000 0.500000 0.500000
O O18 0.000000 0.500000 0.000000
#
# Coordination Sequence:
#
# PCOD9080307 Si02
#       8
#     2   2   2   2   2   2   2   2
#     4  11  21  42  71  95 125 167 214 263 325 376
#     4  12  28  44  60  95 134 172 215 261 312 377
#     4  11  22  41  68 100 125 166 217 263 317 380
#     4  11  21  42  69  97 125 168 213 265 317 383
#     4  11  21  42  69  94 128 165 212 266 318 377
#     4  12  26  45  63  89 139 180 209 255 319 382
#     4  10  21  37  65 106 126 150 213 278 318 365
#     4  10  18  38  70  97 124 159 208 275 325 368
#
# _framework density 22.372786999999999
#
# number of rings (size 3 to 8) (size 9 to 14) (size 15 to 20)
#    0.000    1.000    5.000    4.500    0.000    3.000 
#    0.000    7.500    0.000    0.000    0.000    0.000 
#    0.000    0.000    0.000    0.000    0.000    0.000 
#
# Total GULP energy -89437.531945 kJ/mol
# GULP energy per Si atom -5589.845747 kJ/mol
# Density = 2.232187 g / cm^3
# Si number density = 22.372787 Si / 1000 Ang^3
#
#
#
# Elastic Constant Matrix: (Units=GPa)
#
#
# Indices 1 2 3 4 5 6 
#
# 1 65.5363 17.4611 34.2688 -4.0336 -1.9287 24.3575
# 2 17.4611 94.4702 36.6317 0.7186 -4.4075 32.2655
# 3 34.2688 36.6317 165.8356 9.3620 -2.1701 35.5833
# 4 -4.0336 0.7186 9.3620 34.5000 10.0355 -7.6222
# 5 -1.9287 -4.4075 -2.1701 10.0355 27.4588 0.4832
# 6 24.3575 32.2655 35.5833 -7.6222 0.4832 47.4759
#
#
#
# Elastic Compliance Matrix: (Units=1/GPa)
#
#
# Indices 1 2 3 4 5 6 
#
# 1 0.019602 0.000163 -0.002334 0.000772 0.001083 -0.008306
# 2 0.000163 0.014437 -0.000892 -0.003255 0.003620 -0.009787
# 3 -0.002334 -0.000892 0.008008 -0.004053 0.001893 -0.004868
# 4 0.000772 -0.003255 -0.004053 0.036860 -0.014452 0.010919
# 5 0.001083 0.003620 0.001893 -0.014452 0.042633 -0.007189
# 6 -0.008306 -0.009787 -0.004868 0.010919 -0.007189 0.037450
#
#
# Mechanical properties :
#
#
# Convention : Reuss Voigt Hill
#
# Bulk Modulus (GPa) = 27.83840 55.84058 41.83949
# Shear Modulus (GPa) = 28.23447 37.71898 32.97672
#
# Velocity S-wave (km/s) = 3.55632 4.11046 3.84339
# Velocity P-wave (km/s) = 5.41601 6.89501 6.19977
#
# Compressibility (1/GPa) = 0.03592161
#
# Stress axis : x y z
#
# Youngs Moduli (GPa) = 51.01556 69.26596 124.88272
#
# Poissons Ratio (x) = -0.01131 0.29147
# Poissons Ratio (y) = -0.00833 0.11137
# Poissons Ratio (z) = 0.11907 0.06177
#
# Static dielectric constant tensor:
#      x y z
#    x 1.867260 -0.041690 0.012310 
#    y -0.041690 1.898270 0.001720 
#    z 0.012310 0.001720 1.777810 
# 
# From -- ./inp_files/206330.got.cif
#   From: 2010.05.17/outbox.cif.g08.bks.cpg/sg2_104_cif.got.tgz:206330.got - 2010.06.03 11:33:40.
