data_PCOD9080270
_publ_section_title
;
Structure prediction by ZEFSAII (Michael W. Deem and Ramdas Pophale) SiO2 
 PCOD9080270
Probable space group: P -1
;
_chemical_formula_sum "Si O2"
_cell_formula_units_Z 16
_cell_length_a 12.034509
_cell_length_b 9.797728
_cell_length_c 7.099340
_cell_angle_alpha 71.623323
_cell_angle_beta 62.570976
_cell_angle_gamma 98.385598
_cell_volume 661.663820
_symmetry_space_group_name_H-M "P -1"
_symmetry_group_IT_number 2
_symmetry_cell_setting 'triclinic'
loop_
_space_group_symop_operation_xyz
x,y,z
-x,-y,-z
loop_
_atom_site_type_symbol
_atom_site_label
_atom_site_fract_x
_atom_site_fract_y
_atom_site_fract_z
Si Si1 0.571143 0.272543 0.215894
Si Si2 0.061808 0.611755 0.732026
Si Si3 0.771442 0.778028 0.044094
Si Si4 0.338361 0.054144 0.249961
Si Si5 0.360837 0.735779 0.413751
Si Si6 0.374985 0.436823 0.405309
Si Si7 0.056316 0.944434 0.668061
Si Si8 0.198240 0.454985 0.197615
O O1 0.474630 0.151210 0.204204
O O2 0.589249 0.215478 0.434222
O O3 0.499345 0.397302 0.247066
O O4 0.716889 0.367417 0.983077
O O5 0.209179 0.616316 0.581056
O O6 0.075625 0.782213 0.704133
O O7 0.956894 0.570773 0.663253
O O8 0.000000 0.500000 0.000000
O O9 0.691282 0.679972 0.323273
O O10 0.695315 0.872501 0.946312
O O11 0.921919 0.897560 0.924235
O O12 0.788979 0.651808 0.939539
O O13 0.351260 0.889552 0.264381
O O14 0.214980 0.047190 0.493790
O O15 0.428705 0.618189 0.334075
O O16 0.263592 0.407711 0.345445
O O17 0.000000 0.000000 0.500000
#
# Coordination Sequence:
#
# PCOD9080270 Si02
#       8
#     2   2   2   2   2   2   2   2
#     4  12  23  42  67 100 133 176 224 265 323 403
#     4  10  18  38  68  94 126 167 218 269 329 376
#     4  10  20  43  69  95 129 175 222 270 321 393
#     4  10  22  40  68  95 137 176 214 267 338 389
#     4  11  23  41  65 100 134 172 214 279 330 385
#     4  12  25  41  71 101 129 172 228 269 325 393
#     4   8  17  35  65  91 123 173 212 258 324 387
#     4  11  23  41  71  99 128 171 227 273 318 389
#
# _framework density 24.181463000000001
#
# number of rings (size 3 to 8) (size 9 to 14) (size 15 to 20)
#    0.000    1.500    3.750    1.875    0.000    0.500 
#    0.000    4.375    0.000    0.000    0.000    0.000 
#    0.000    0.000    0.000    0.000    0.000    0.000 
#
# Total GULP energy -89387.116163 kJ/mol
# GULP energy per Si atom -5586.694760 kJ/mol
# Density = 2.412643 g / cm^3
# Si number density = 24.181463 Si / 1000 Ang^3
#
#
#
# Elastic Constant Matrix: (Units=GPa)
#
#
# Indices 1 2 3 4 5 6 
#
# 1 112.2356 6.0120 14.3207 -2.1794 5.2904 16.0712
# 2 6.0120 67.5187 25.1686 -17.9111 0.1862 -6.6195
# 3 14.3207 25.1686 69.0728 -17.3037 3.0276 3.8102
# 4 -2.1794 -17.9111 -17.3037 30.8907 0.7667 3.4135
# 5 5.2904 0.1862 3.0276 0.7667 31.2871 -11.3993
# 6 16.0712 -6.6195 3.8102 3.4135 -11.3993 41.1469
#
#
#
# Elastic Compliance Matrix: (Units=1/GPa)
#
#
# Indices 1 2 3 4 5 6 
#
# 1 0.009974 -0.000833 -0.001329 0.000093 -0.003316 -0.004833
# 2 -0.000833 0.019227 -0.005175 0.007737 0.001695 0.003725
# 3 -0.001329 -0.005175 0.018979 0.008010 -0.003085 -0.003590
# 4 0.000093 0.007737 0.008010 0.041866 -0.003290 -0.003918
# 5 -0.003316 0.001695 -0.003085 -0.003290 0.037446 0.012501
# 6 -0.004833 0.003725 -0.003590 -0.003918 0.012501 0.030911
#
#
# Mechanical properties :
#
#
# Convention : Reuss Voigt Hill
#
# Bulk Modulus (GPa) = 29.84544 37.75886 33.80215
# Shear Modulus (GPa) = 27.13774 34.21999 30.67886
#
# Velocity S-wave (km/s) = 3.35364 3.76591 3.56574
# Velocity P-wave (km/s) = 5.23115 5.87861 5.56431
#
# Compressibility (1/GPa) = 0.03350595
#
# Stress axis : x y z
#
# Youngs Moduli (GPa) = 100.25870 52.01068 52.69111
#
# Poissons Ratio (x) = 0.04331 0.07005
# Poissons Ratio (y) = 0.08349 0.27266
# Poissons Ratio (z) = 0.13328 0.26914
#
# Static dielectric constant tensor:
#      x y z
#    x 1.987850 0.012580 -0.088460 
#    y 0.012580 1.937770 0.014110 
#    z -0.088460 0.014110 1.962650 
# 
# From -- ./inp_files/251924.got.cif
#   From: 2010.05.17/outbox.cif.g08.bks.cpg/sg2_126_cif.got.tgz:251924.got - 2010.06.03 11:33:40.
