data_PCOD9080464
_publ_section_title
;
Structure prediction by ZEFSAII (Michael W. Deem and Ramdas Pophale) SiO2 
 PCOD9080464
Probable space group: P -1
;
_chemical_formula_sum "Si O2"
_cell_formula_units_Z 16
_cell_length_a 9.019386
_cell_length_b 21.316971
_cell_length_c 7.956916
_cell_angle_alpha 26.359077
_cell_angle_beta 108.514468
_cell_angle_gamma 103.784006
_cell_volume 640.187508
_symmetry_space_group_name_H-M "P -1"
_symmetry_group_IT_number 2
_symmetry_cell_setting 'triclinic'
loop_
_space_group_symop_operation_xyz
x,y,z
-x,-y,-z
loop_
_atom_site_type_symbol
_atom_site_label
_atom_site_fract_x
_atom_site_fract_y
_atom_site_fract_z
Si Si1 0.891805 0.434476 0.983594
Si Si2 0.925204 0.183355 0.385380
Si Si3 0.528539 0.831067 0.379722
Si Si4 0.655607 0.401072 0.250685
Si Si5 0.635177 0.855830 0.023854
Si Si6 0.047755 0.641381 0.356254
Si Si7 0.030975 0.085067 0.135672
Si Si8 0.453974 0.820848 0.741760
O O1 0.914477 0.537738 0.586809
O O2 0.955795 0.274738 0.338725
O O3 0.726448 0.440589 0.001311
O O4 0.000000 0.500000 0.000000
O O5 0.733452 0.189399 0.301069
O O6 0.006676 0.024480 0.761299
O O7 0.971002 0.274959 0.023364
O O8 0.387781 0.760532 0.404267
O O9 0.535441 0.767898 0.723091
O O10 0.662948 0.800889 0.357322
O O11 0.500000 0.000000 0.000000
O O12 0.777058 0.429884 0.373776
O O13 0.500000 0.500000 0.000000
O O14 0.790030 0.888528 0.902678
O O15 0.538244 0.766698 0.074677
O O16 0.536371 0.008926 0.654488
O O17 0.046287 0.759488 0.220516
O O18 0.000000 0.000000 0.500000
#
# Coordination Sequence:
#
# PCOD9080464 Si02
#       8
#     2   2   2   2   2   2   2   2
#     4  10  22  41  62  88 130 172 210 263 316 380
#     4  10  18  39  67  92 125 165 213 263 324 382
#     4  10  20  36  62  91 121 162 209 266 321 381
#     4  11  24  43  61  88 130 165 211 269 318 374
#     4   9  18  32  58  90 127 160 205 255 330 375
#     4  10  22  41  66  92 123 173 211 260 325 389
#     4   9  20  37  65  94 126 163 210 269 325 385
#     4   9  17  33  58  92 125 161 199 268 313 380
#
# _framework density 24.992675999999999
#
# number of rings (size 3 to 8) (size 9 to 14) (size 15 to 20)
#    0.000    2.250    1.250    1.125    1.750    3.000 
#    0.000   11.875    0.000    0.000    0.000    0.000 
#    0.000    0.000    0.000    0.000    0.000    0.000 
#
# Total GULP energy -89236.698196 kJ/mol
# GULP energy per Si atom -5577.293637 kJ/mol
# Density = 2.493579 g / cm^3
# Si number density = 24.992676 Si / 1000 Ang^3
#
#
#
# Elastic Constant Matrix: (Units=GPa)
#
#
# Indices 1 2 3 4 5 6 
#
# 1 92.1353 21.7428 18.5430 -4.9170 -18.7024 -23.7945
# 2 21.7428 142.5696 11.8919 -9.9802 -12.3151 -26.3869
# 3 18.5430 11.8919 75.7238 -19.7326 -18.6747 -7.8838
# 4 -4.9170 -9.9802 -19.7326 44.0611 -5.7203 -14.5056
# 5 -18.7024 -12.3151 -18.6747 -5.7203 38.0666 -0.0878
# 6 -23.7945 -26.3869 -7.8838 -14.5056 -0.0878 33.8553
#
#
#
# Elastic Compliance Matrix: (Units=1/GPa)
#
#
# Indices 1 2 3 4 5 6 
#
# 1 0.018969 0.003362 0.004790 0.014675 0.015016 0.023394
# 2 0.003362 0.010846 0.004503 0.011584 0.009149 0.016852
# 3 0.004790 0.004503 0.024013 0.021991 0.018945 0.021939
# 4 0.014675 0.011584 0.021991 0.056851 0.030401 0.048901
# 5 0.015016 0.009149 0.018945 0.030401 0.050551 0.035253
# 6 0.023394 0.016852 0.021939 0.048901 0.035253 0.085266
#
#
# Mechanical properties :
#
#
# Convention : Reuss Voigt Hill
#
# Bulk Modulus (GPa) = 12.63638 46.08712 29.36175
# Shear Modulus (GPa) = 20.19660 40.41333 30.30496
#
# Velocity S-wave (km/s) = 2.84580 4.02556 3.48595
# Velocity P-wave (km/s) = 3.98310 6.33144 5.28925
#
# Compressibility (1/GPa) = 0.07913659
#
# Stress axis : x y z
#
# Youngs Moduli (GPa) = 52.71703 92.20004 41.64476
#
# Poissons Ratio (x) = -0.30995 -0.19947
# Poissons Ratio (y) = -0.17722 -0.18753
# Poissons Ratio (z) = -0.25250 -0.41517
#
# Static dielectric constant tensor:
#      x y z
#    x 2.069670 0.035360 -0.033840 
#    y 0.035360 2.104630 0.075770 
#    z -0.033840 0.075770 2.073480 
# 
# From -- ./inp_files/222858.got.cif
#   From: 2010.05.17/outbox.cif.g08.bks.cpg/sg2_112_cif.got.tgz:222858.got - 2010.06.03 11:33:40.
