data_PCOD9080344
_publ_section_title
;
Structure prediction by ZEFSAII (Michael W. Deem and Ramdas Pophale) SiO2 
 PCOD9080344
Probable space group: P -1
;
_chemical_formula_sum "Si O2"
_cell_formula_units_Z 12
_cell_length_a 8.061413
_cell_length_b 12.802424
_cell_length_c 6.645302
_cell_angle_alpha 135.567632
_cell_angle_beta 77.847486
_cell_angle_gamma 119.385430
_cell_volume 407.208155
_symmetry_space_group_name_H-M "P -1"
_symmetry_group_IT_number 2
_symmetry_cell_setting 'triclinic'
loop_
_space_group_symop_operation_xyz
x,y,z
-x,-y,-z
loop_
_atom_site_type_symbol
_atom_site_label
_atom_site_fract_x
_atom_site_fract_y
_atom_site_fract_z
Si Si1 0.458272 0.190988 0.044931
Si Si2 0.464490 0.652658 0.147636
Si Si3 0.222535 0.339757 0.513415
Si Si4 0.152486 0.672201 0.432537
Si Si5 0.860044 0.995562 0.850004
Si Si6 0.881849 0.270899 0.948231
O O1 0.413641 0.185925 0.809404
O O2 0.381915 0.322536 0.314257
O O3 0.681307 0.234120 0.061444
O O4 0.320742 0.027063 0.993384
O O5 0.295081 0.522450 0.849843
O O6 0.500000 0.500000 0.000000
O O7 0.377932 0.716253 0.435475
O O8 0.022198 0.300506 0.395531
O O9 0.195353 0.194241 0.483102
O O10 0.052254 0.465625 0.205514
O O11 0.147102 0.738124 0.296806
O O12 0.919048 0.126342 0.835043
O O13 0.000000 0.000000 0.000000
#
# Coordination Sequence:
#
# PCOD9080344 Si02
#       6
#     2   2   2   2   2   2
#     4   9  21  37  62  83 120 157 198 234 298 344
#     4  11  21  38  62  91 119 148 201 247 295 344
#     4  10  20  40  60  89 115 159 197 239 298 347
#     4  10  20  37  64  85 118 159 191 247 295 347
#     4  10  24  37  59  88 122 155 198 243 292 348
#     4  10  18  39  60  83 122 158 194 237 302 347
#
# _framework density 29.468957
#
# number of rings (size 3 to 8) (size 9 to 14) (size 15 to 20)
#    1.000    1.000    5.000    1.000    2.333    0.667 
#    3.000    1.667    0.000    4.000    0.000    0.000 
#    0.000    0.000    0.000    0.000    0.000    0.000 
#
# Total GULP energy -66836.182620 kJ/mol
# GULP energy per Si atom -5569.681885 kJ/mol
# Density = 2.940188 g / cm^3
# Si number density = 29.468957 Si / 1000 Ang^3
#
#
#
# Elastic Constant Matrix: (Units=GPa)
#
#
# Indices 1 2 3 4 5 6 
#
# 1 97.9701 26.1770 9.0364 -1.7284 -37.8039 12.6988
# 2 26.1770 207.8059 12.8079 18.1297 -4.0722 -19.6155
# 3 9.0364 12.8079 68.3012 -16.0053 -23.4878 -8.6083
# 4 -1.7284 18.1297 -16.0053 49.1901 -2.0473 -30.6779
# 5 -37.8039 -4.0722 -23.4878 -2.0473 47.5896 2.9194
# 6 12.6988 -19.6155 -8.6083 -30.6779 2.9194 47.2138
#
#
#
# Elastic Compliance Matrix: (Units=1/GPa)
#
#
# Indices 1 2 3 4 5 6 
#
# 1 0.017439 -0.002569 0.001911 -0.001928 0.014959 -0.007587
# 2 -0.002569 0.005508 -0.001815 -0.001794 -0.002644 0.001646
# 3 0.001911 -0.001815 0.025944 0.019133 0.014068 0.015024
# 4 -0.001928 -0.001794 0.019133 0.049105 0.007743 0.034689
# 5 0.014959 -0.002644 0.014068 0.007743 0.039946 0.000004
# 6 -0.007587 0.001646 0.015024 0.034689 0.000004 0.049184
#
#
# Mechanical properties :
#
#
# Convention : Reuss Voigt Hill
#
# Bulk Modulus (GPa) = 22.75665 52.23553 37.49609
# Shear Modulus (GPa) = 24.18723 50.53575 37.36149
#
# Velocity S-wave (km/s) = 2.86802 4.14560 3.56452
# Velocity P-wave (km/s) = 4.32509 6.37799 5.44909
#
# Compressibility (1/GPa) = 0.04394321
#
# Stress axis : x y z
#
# Youngs Moduli (GPa) = 57.34217 181.55979 38.54509
#
# Poissons Ratio (x) = 0.46650 -0.07365
# Poissons Ratio (y) = 0.14734 0.06996
# Poissons Ratio (z) = -0.10957 0.32954
#
# Static dielectric constant tensor:
#      x y z
#    x 2.731040 0.147340 0.240080 
#    y 0.147340 2.321240 0.007500 
#    z 0.240080 0.007500 2.561770 
# 
# From -- ./inp_files/166568.got.cif
#   From: 2010.05.17/outbox.cif.g08.bks.cpg/sg2_84_cif.got.tgz:166568.got - 2010.06.03 11:33:40.
