data_PCOD9080665
_publ_section_title
;
Structure prediction by ZEFSAII (Michael W. Deem and Ramdas Pophale) SiO2 
 PCOD9080665
Probable space group: P -1
;
_chemical_formula_sum "Si O2"
_cell_formula_units_Z 16
_cell_length_a 9.455698
_cell_length_b 9.341165
_cell_length_c 14.698076
_cell_angle_alpha 37.013716
_cell_angle_beta 71.192639
_cell_angle_gamma 66.436730
_cell_volume 716.370693
_symmetry_space_group_name_H-M "P -1"
_symmetry_group_IT_number 2
_symmetry_cell_setting 'triclinic'
loop_
_space_group_symop_operation_xyz
x,y,z
-x,-y,-z
loop_
_atom_site_type_symbol
_atom_site_label
_atom_site_fract_x
_atom_site_fract_y
_atom_site_fract_z
Si Si1 0.147925 0.920043 0.072144
Si Si2 0.154176 0.760995 0.360202
Si Si3 0.096874 0.108164 0.500488
Si Si4 0.413080 0.302371 0.580796
Si Si5 0.577374 0.267304 0.380448
Si Si6 0.696979 0.582140 0.778276
Si Si7 0.624591 0.870633 0.832010
Si Si8 0.360754 0.238906 0.916534
O O1 0.128063 0.811804 0.232078
O O2 0.268231 0.706736 0.100925
O O3 0.212093 0.157810 0.955703
O O4 0.000000 0.000000 0.000000
O O5 0.245412 0.476788 0.504427
O O6 0.004148 0.825467 0.421841
O O7 0.260332 0.945766 0.275954
O O8 0.153697 0.335110 0.332082
O O9 0.258061 0.909558 0.585429
O O10 0.000000 0.000000 0.500000
O O11 0.500000 0.500000 0.500000
O O12 0.499302 0.200404 0.521425
O O13 0.455879 0.062276 0.757790
O O14 0.451331 0.298279 0.312660
O O15 0.606330 0.534212 0.257400
O O16 0.665907 0.687207 0.832242
O O17 0.647037 0.712019 0.999166
O O18 0.500000 0.000000 0.000000
#
# Coordination Sequence:
#
# PCOD9080665 Si02
#       8
#     2   2   2   2   2   2   2   2
#     4  11  26  46  68  97 145 182 228 292 348 404
#     4  10  21  44  66 101 139 181 230 283 349 414
#     4  12  25  42  70 108 136 180 235 290 352 408
#     4  10  18  40  69  99 133 180 226 278 341 410
#     4  12  24  43  71 101 139 185 227 287 339 413
#     4  12  24  46  67 100 144 174 233 289 343 407
#     4  10  22  40  74  99 137 183 227 283 349 417
#     4  11  23  47  70  99 136 186 236 274 343 425
#
# _framework density 22.334807000000001
#
# number of rings (size 3 to 8) (size 9 to 14) (size 15 to 20)
#    0.000    1.000    5.000    2.625    1.750    2.000 
#    2.250    2.500    0.000    0.000    0.000    0.000 
#    0.000    0.000    0.000    0.000    0.000    0.000 
#
# Total GULP energy -89507.043002 kJ/mol
# GULP energy per Si atom -5594.190188 kJ/mol
# Density = 2.228397 g / cm^3
# Si number density = 22.334807 Si / 1000 Ang^3
#
#
#
# Elastic Constant Matrix: (Units=GPa)
#
#
# Indices 1 2 3 4 5 6 
#
# 1 120.7884 49.1003 26.3996 11.5680 22.9748 5.8692
# 2 49.1003 145.1458 26.7909 7.5918 19.1893 3.6711
# 3 26.3996 26.7909 50.4678 -7.9641 4.5077 12.0176
# 4 11.5680 7.5918 -7.9641 27.5555 3.0863 8.9105
# 5 22.9748 19.1893 4.5077 3.0863 38.8135 -2.0073
# 6 5.8692 3.6711 12.0176 8.9105 -2.0073 43.8209
#
#
#
# Elastic Compliance Matrix: (Units=1/GPa)
#
#
# Indices 1 2 3 4 5 6 
#
# 1 0.011803 -0.001986 -0.005923 -0.005975 -0.004780 0.001206
# 2 -0.001986 0.008759 -0.004122 -0.002871 -0.002390 0.001137
# 3 -0.005923 -0.004122 0.029965 0.015557 0.000298 -0.010229
# 4 -0.005975 -0.002871 0.015557 0.048493 -0.001387 -0.013150
# 5 -0.004780 -0.002390 0.000298 -0.001387 0.029975 0.002414
# 6 0.001206 0.001137 -0.010229 -0.013150 0.002414 0.028153
#
#
# Mechanical properties :
#
#
# Convention : Reuss Voigt Hill
#
# Bulk Modulus (GPa) = 37.78296 57.88705 47.83500
# Shear Modulus (GPa) = 26.31122 36.31208 31.31165
#
# Velocity S-wave (km/s) = 3.43598 4.03650 3.74829
# Velocity P-wave (km/s) = 5.71792 6.90642 6.34008
#
# Compressibility (1/GPa) = 0.02646696
#
# Stress axis : x y z
#
# Youngs Moduli (GPa) = 84.72097 114.16298 33.37219
#
# Poissons Ratio (x) = 0.22669 0.19767
# Poissons Ratio (y) = 0.16823 0.13754
# Poissons Ratio (z) = 0.50183 0.47053
#
# Static dielectric constant tensor:
#      x y z
#    x 1.848890 0.004720 -0.032040 
#    y 0.004720 1.848700 0.027570 
#    z -0.032040 0.027570 1.895610 
# 
# From -- ./inp_files/494250.got.cif
#   From: 2010.05.17/outbox.cif.g08.bks.cpg/sg2_248_cif.got.tgz:494250.got - 2010.06.03 11:33:40.
