data_PCOD9080581
_publ_section_title
;
Structure prediction by ZEFSAII (Michael W. Deem and Ramdas Pophale) SiO2 
 PCOD9080581
Probable space group: P -1
;
_chemical_formula_sum "Si O2"
_cell_formula_units_Z 16
_cell_length_a 8.567672
_cell_length_b 15.262106
_cell_length_c 9.174111
_cell_angle_alpha 80.140254
_cell_angle_beta 81.974156
_cell_angle_gamma 132.867540
_cell_volume 809.928906
_symmetry_space_group_name_H-M "P -1"
_symmetry_group_IT_number 2
_symmetry_cell_setting 'triclinic'
loop_
_space_group_symop_operation_xyz
x,y,z
-x,-y,-z
loop_
_atom_site_type_symbol
_atom_site_label
_atom_site_fract_x
_atom_site_fract_y
_atom_site_fract_z
Si Si1 0.351752 0.103425 0.332077
Si Si2 0.748902 0.726248 0.945716
Si Si3 0.369234 0.191788 0.811259
Si Si4 0.580179 0.129794 0.002797
Si Si5 0.540122 0.357977 0.269909
Si Si6 0.892373 0.647933 0.165622
Si Si7 0.905401 0.036975 0.319634
Si Si8 0.648178 0.649526 0.425006
O O1 0.542434 0.252932 0.311680
O O2 0.128973 0.071403 0.327394
O O3 0.262570 0.014257 0.509175
O O4 0.445281 0.093929 0.180153
O O5 0.545160 0.654911 0.878285
O O6 0.987152 0.830875 0.799929
O O7 0.753938 0.809256 0.037441
O O8 0.737342 0.633820 0.069124
O O9 0.525757 0.183424 0.873714
O O10 0.455048 0.311746 0.670089
O O11 0.217784 0.073695 0.753081
O O12 0.851201 0.246789 0.951019
O O13 0.500000 0.000000 0.000000
O O14 0.771334 0.503234 0.240322
O O15 0.346158 0.311134 0.423584
O O16 0.868440 0.701856 0.296277
O O17 0.500000 0.500000 0.500000
#
# Coordination Sequence:
#
# PCOD9080581 Si02
#       8
#     2   2   2   2   2   2   2   2
#     4  10  22  37  60  90 115 161 196 251 299 354
#     4  10  20  35  62  94 113 153 210 247 298 353
#     4  11  20  37  62  88 122 159 201 249 296 360
#     4  12  26  40  56  91 129 161 201 241 305 369
#     4  10  18  40  64  88 118 150 211 251 295 352
#     4  10  23  38  61  91 124 160 192 254 304 354
#     4  10  19  35  64  86 115 154 206 248 296 347
#     4   9  20  38  66  90 114 154 205 251 294 353
#
# _framework density 19.754822000000001
#
# number of rings (size 3 to 8) (size 9 to 14) (size 15 to 20)
#    0.000    1.750    3.750    1.500    3.500    0.500 
#    0.000    6.250    0.000    0.000    0.000    0.000 
#    0.000    0.000    0.000    0.000    0.000    0.000 
#
# Total GULP energy -89105.604672 kJ/mol
# GULP energy per Si atom -5569.100292 kJ/mol
# Density = 1.970986 g / cm^3
# Si number density = 19.754822 Si / 1000 Ang^3
#
#
#
# Elastic Constant Matrix: (Units=GPa)
#
#
# Indices 1 2 3 4 5 6 
#
# 1 29.3434 5.6955 5.8843 -4.5649 -5.7559 -2.7997
# 2 5.6955 75.2251 25.1549 5.5351 -14.8794 -9.0133
# 3 5.8843 25.1549 96.3412 12.0533 -18.2077 0.1223
# 4 -4.5649 5.5351 12.0533 29.6442 -3.0176 0.3456
# 5 -5.7559 -14.8794 -18.2077 -3.0176 27.7326 -0.3376
# 6 -2.7997 -9.0133 0.1223 0.3456 -0.3376 24.9854
#
#
#
# Elastic Compliance Matrix: (Units=1/GPa)
#
#
# Indices 1 2 3 4 5 6 
#
# 1 0.037473 -0.000980 -0.001621 0.007283 0.007027 0.003847
# 2 -0.000980 0.016448 -0.002791 -0.001474 0.006701 0.005948
# 3 -0.001621 -0.002791 0.012916 -0.004340 0.006160 -0.001109
# 4 0.007283 -0.001474 -0.004340 0.037091 0.001905 -0.000182
# 5 0.007027 0.006701 0.006160 0.001905 0.045410 0.003762
# 6 0.003847 0.005948 -0.001109 -0.000182 0.003762 0.042659
#
#
# Mechanical properties :
#
#
# Convention : Reuss Voigt Hill
#
# Bulk Modulus (GPa) = 17.84060 30.48654 24.16357
# Shear Modulus (GPa) = 22.57692 27.41745 24.99719
#
# Velocity S-wave (km/s) = 3.38428 3.72948 3.56107
# Velocity P-wave (km/s) = 4.93171 5.83192 5.40060
#
# Compressibility (1/GPa) = 0.05605192
#
# Stress axis : x y z
#
# Youngs Moduli (GPa) = 26.68596 60.79910 77.42184
#
# Poissons Ratio (x) = 0.05959 0.12549
# Poissons Ratio (y) = 0.02616 0.21611
# Poissons Ratio (z) = 0.04325 0.16971
#
# Static dielectric constant tensor:
#      x y z
#    x 1.688660 -0.018310 0.022650 
#    y -0.018310 1.703330 -0.018510 
#    z 0.022650 -0.018510 1.769290 
# 
# From -- ./inp_files/202033.got.cif
#   From: 2010.05.17/outbox.cif.g08.bks.cpg/sg2_102_cif.got.tgz:202033.got - 2010.06.03 11:33:40.
