data_PCOD9080818
_publ_section_title
;
Structure prediction by ZEFSAII (Michael W. Deem and Ramdas Pophale) SiO2 
 PCOD9080818
Probable space group: P -1
;
_chemical_formula_sum "Si O2"
_cell_formula_units_Z 16
_cell_length_a 11.690643
_cell_length_b 12.265610
_cell_length_c 11.822220
_cell_angle_alpha 40.346484
_cell_angle_beta 60.394075
_cell_angle_gamma 89.407395
_cell_volume 724.698411
_symmetry_space_group_name_H-M "P -1"
_symmetry_group_IT_number 2
_symmetry_cell_setting 'triclinic'
loop_
_space_group_symop_operation_xyz
x,y,z
-x,-y,-z
loop_
_atom_site_type_symbol
_atom_site_label
_atom_site_fract_x
_atom_site_fract_y
_atom_site_fract_z
Si Si1 0.078177 0.250155 0.876938
Si Si2 0.855722 0.119515 0.535117
Si Si3 0.695892 0.672485 0.098805
Si Si4 0.478219 0.990888 0.152737
Si Si5 0.031926 0.342776 0.062663
Si Si6 0.337805 0.509990 0.351191
Si Si7 0.812664 0.140661 0.939653
Si Si8 0.927464 0.610943 0.584282
O O1 0.211230 0.446848 0.568194
O O2 0.909903 0.079181 0.014670
O O3 0.207723 0.237323 0.896530
O O4 0.000068 0.291910 0.985990
O O5 0.906356 0.129877 0.373073
O O6 0.024699 0.308774 0.375020
O O7 0.774760 0.889544 0.815547
O O8 0.716699 0.155332 0.592824
O O9 0.773194 0.565392 0.094291
O O10 0.489722 0.515793 0.316215
O O11 0.562631 0.242324 0.936327
O O12 0.606365 0.961717 0.168400
O O13 0.500000 0.000000 0.000000
O O14 0.000000 0.500000 0.000000
O O15 0.207310 0.369280 0.422261
O O16 0.864581 0.366200 0.790392
O O17 0.899690 0.224811 0.706724
#
# Coordination Sequence:
#
# PCOD9080818 Si02
#       8
#     2   2   2   2   2   2   2   2
#     4   9  19  33  59  73 115 143 181 218 276 324
#     4  11  20  36  54  84 109 146 185 226 269 328
#     4   9  21  36  58  80 111 142 184 229 276 312
#     4  10  19  28  55  83 112 139 181 227 274 307
#     4  10  22  35  58  80 107 153 185 215 272 335
#     4   9  18  35  54  86 105 143 180 231 270 321
#     4   9  16  32  48  85 107 145 176 231 264 324
#     4   9  17  28  57  75 113 137 184 221 277 314
#
# _framework density 22.078150000000001
#
# number of rings (size 3 to 8) (size 9 to 14) (size 15 to 20)
#    0.750    1.750    1.250    2.250    1.750    0.000 
#    0.000    3.750    5.500    0.000    0.000    0.000 
#    0.000    0.000    0.000    0.000    0.000    0.000 
#
# Total GULP energy -89111.164485 kJ/mol
# GULP energy per Si atom -5569.447780 kJ/mol
# Density = 2.202790 g / cm^3
# Si number density = 22.078150 Si / 1000 Ang^3
#
#
#
# Elastic Constant Matrix: (Units=GPa)
#
#
# Indices 1 2 3 4 5 6 
#
# 1 171.1447 29.2653 45.1248 7.0556 -36.9309 18.2573
# 2 29.2653 45.2004 19.7141 14.9341 -12.8445 7.0178
# 3 45.1248 19.7141 63.1337 18.0047 -11.3008 21.2691
# 4 7.0556 14.9341 18.0047 23.5502 -3.0622 4.3921
# 5 -36.9309 -12.8445 -11.3008 -3.0622 45.6062 -3.0226
# 6 18.2573 7.0178 21.2691 4.3921 -3.0226 28.9298
#
#
#
# Elastic Compliance Matrix: (Units=1/GPa)
#
#
# Indices 1 2 3 4 5 6 
#
# 1 0.008823 -0.003206 -0.005248 0.004267 0.005159 -0.001041
# 2 -0.003206 0.032202 -0.001361 -0.017485 0.004854 -0.001626
# 3 -0.005248 -0.001361 0.030684 -0.017926 0.000698 -0.016122
# 4 0.004267 -0.017485 -0.017926 0.064932 -0.001237 0.004741
# 5 0.005159 0.004854 0.000698 -0.001237 0.027436 -0.001892
# 6 -0.001041 -0.001626 -0.016122 0.004741 -0.001892 0.046554
#
#
# Mechanical properties :
#
#
# Convention : Reuss Voigt Hill
#
# Bulk Modulus (GPa) = 19.20126 51.96526 35.58326
# Shear Modulus (GPa) = 20.19221 31.97553 26.08387
#
# Velocity S-wave (km/s) = 3.02748 3.80977 3.44093
# Velocity P-wave (km/s) = 4.57566 6.55290 5.65142
#
# Compressibility (1/GPa) = 0.05207990
#
# Stress axis : x y z
#
# Youngs Moduli (GPa) = 113.33537 31.05418 32.59037
#
# Poissons Ratio (x) = 0.09956 0.17104
# Poissons Ratio (y) = 0.36334 0.04434
# Poissons Ratio (z) = 0.59479 0.04225
#
# Static dielectric constant tensor:
#      x y z
#    x 1.960930 -0.045220 0.000540 
#    y -0.045220 1.825040 -0.048370 
#    z 0.000540 -0.048370 1.810370 
# 
# From -- ./inp_files/331783.got.cif
#   From: 2010.05.17/outbox.cif.g08.bks.cpg/sg2_166_cif.got.tgz:331783.got - 2010.06.03 11:33:40.
