data_PCOD9080162
_publ_section_title
;
Structure prediction by ZEFSAII (Michael W. Deem and Ramdas Pophale) SiO2 
 PCOD9080162
Probable space group: P -1
;
_chemical_formula_sum "Si O2"
_cell_formula_units_Z 14
_cell_length_a 13.972684
_cell_length_b 25.082649
_cell_length_c 9.418324
_cell_angle_alpha 154.217398
_cell_angle_beta 30.259267
_cell_angle_gamma 157.832925
_cell_volume 532.674035
_symmetry_space_group_name_H-M "P -1"
_symmetry_group_IT_number 2
_symmetry_cell_setting 'triclinic'
loop_
_space_group_symop_operation_xyz
x,y,z
-x,-y,-z
loop_
_atom_site_type_symbol
_atom_site_label
_atom_site_fract_x
_atom_site_fract_y
_atom_site_fract_z
Si Si1 0.051432 0.899806 0.283361
Si Si2 0.496878 0.315513 0.455436
Si Si3 0.251736 0.826583 0.171652
Si Si4 0.420480 0.782894 0.284260
Si Si5 0.740283 0.696204 0.660043
Si Si6 0.921310 0.677884 0.659665
Si Si7 0.405377 0.751839 0.543623
O O1 0.802228 0.786352 0.430775
O O2 0.037036 0.787381 0.915951
O O3 0.000000 0.000000 0.500000
O O4 0.335364 0.054342 0.343190
O O5 0.542358 0.334529 0.616756
O O6 0.587032 0.216073 0.068908
O O7 0.374914 0.225464 0.056084
O O8 0.977449 0.741209 0.380936
O O9 0.430623 0.023471 0.430153
O O10 0.217910 0.758990 0.891834
O O11 0.333463 0.689108 0.325563
O O12 0.150303 0.693833 0.341699
O O13 0.500000 0.500000 0.500000
O O14 0.842045 0.746435 0.812885
O O15 0.319075 0.509547 0.437772
#
# Coordination Sequence:
#
# PCOD9080162 Si02
#       7
#     2   2   2   2   2   2   2
#     4  10  18  38  65 102 137 169 223 281 335 406
#     4   9  21  38  67 104 139 178 222 281 347 404
#     4  10  23  45  70 102 135 187 228 283 347 407
#     4  12  24  46  77 101 137 183 231 289 343 411
#     4  12  29  49  67  99 143 188 235 282 342 413
#     4  12  25  44  70 103 140 183 231 281 346 412
#     4   9  21  42  71 105 136 173 227 284 350 400
#
# _framework density 26.282489999999999
#
# number of rings (size 3 to 8) (size 9 to 14) (size 15 to 20)
#    0.857    0.571    1.429    3.857    0.000    4.571 
#    2.571    1.429    0.000    0.000    0.000    0.000 
#    0.000    0.000    0.000    0.000    0.000    0.000 
#
# Total GULP energy -78376.010681 kJ/mol
# GULP energy per Si atom -5598.286477 kJ/mol
# Density = 2.622267 g / cm^3
# Si number density = 26.282490 Si / 1000 Ang^3
#
#
#
# Elastic Constant Matrix: (Units=GPa)
#
#
# Indices 1 2 3 4 5 6 
#
# 1 85.1249 12.7469 21.6333 -8.1643 -13.8934 11.0413
# 2 12.7469 134.2345 47.4883 -44.5177 -7.0213 0.7269
# 3 21.6333 47.4883 130.3827 -35.4404 -20.3054 4.8954
# 4 -8.1643 -44.5177 -35.4404 51.7288 4.7688 -5.6378
# 5 -13.8934 -7.0213 -20.3054 4.7688 41.7462 -5.4316
# 6 11.0413 0.7269 4.8954 -5.6378 -5.4316 22.9107
#
#
#
# Elastic Compliance Matrix: (Units=1/GPa)
#
#
# Indices 1 2 3 4 5 6 
#
# 1 0.013372 -0.000699 -0.001377 -0.000309 0.002983 -0.005497
# 2 -0.000699 0.010866 -0.001632 0.008374 0.000162 0.002440
# 3 -0.001377 -0.001632 0.010508 0.005297 0.003863 0.000689
# 4 -0.000309 0.008374 0.005297 0.030724 0.001231 0.006604
# 5 0.002983 0.000162 0.003863 0.001231 0.027299 0.004507
# 6 -0.005497 0.002440 0.000689 0.006604 0.004507 0.048766
#
#
# Mechanical properties :
#
#
# Convention : Reuss Voigt Hill
#
# Bulk Modulus (GPa) = 36.59016 57.05325 46.82171
# Shear Modulus (GPa) = 31.63337 41.13537 36.38437
#
# Velocity S-wave (km/s) = 3.47304 3.96046 3.72473
# Velocity P-wave (km/s) = 5.48040 6.53211 6.02923
#
# Compressibility (1/GPa) = 0.02732975
#
# Stress axis : x y z
#
# Youngs Moduli (GPa) = 74.78119 92.03343 95.16579
#
# Poissons Ratio (x) = 0.06436 0.13105
# Poissons Ratio (y) = 0.05229 0.15529
# Poissons Ratio (z) = 0.10298 0.15018
#
# Static dielectric constant tensor:
#      x y z
#    x 2.184330 0.050400 0.040190 
#    y 0.050400 2.004250 -0.067600 
#    z 0.040190 -0.067600 2.163730 
# 
# From -- ./inp_files/320910.got.cif
#   From: 2010.05.17/outbox.cif.g08.bks.cpg/sg2_161_cif.got.tgz:320910.got - 2010.06.03 11:33:40.
