data_PCOD9080206
_publ_section_title
;
Structure prediction by ZEFSAII (Michael W. Deem and Ramdas Pophale) SiO2 
 PCOD9080206
Probable space group: P -1
;
_chemical_formula_sum "Si O2"
_cell_formula_units_Z 14
_cell_length_a 10.791645
_cell_length_b 8.537318
_cell_length_c 12.394455
_cell_angle_alpha 142.135417
_cell_angle_beta 108.568268
_cell_angle_gamma 80.532268
_cell_volume 656.970787
_symmetry_space_group_name_H-M "P -1"
_symmetry_group_IT_number 2
_symmetry_cell_setting 'triclinic'
loop_
_space_group_symop_operation_xyz
x,y,z
-x,-y,-z
loop_
_atom_site_type_symbol
_atom_site_label
_atom_site_fract_x
_atom_site_fract_y
_atom_site_fract_z
Si Si1 0.861439 0.589511 0.978297
Si Si2 0.777372 0.534053 0.479194
Si Si3 0.438658 0.143297 0.464333
Si Si4 0.710794 0.283132 0.946841
Si Si5 0.034233 0.017578 0.146470
Si Si6 0.648181 0.107956 0.058540
Si Si7 0.691654 0.538710 0.702929
O O1 0.916483 0.875764 0.109772
O O2 0.756966 0.526901 0.013297
O O3 0.789591 0.458530 0.779394
O O4 0.000000 0.500000 0.000000
O O5 0.695983 0.731845 0.499371
O O6 0.739170 0.267502 0.260525
O O7 0.725743 0.490003 0.563246
O O8 0.918964 0.702060 0.636686
O O9 0.547320 0.384204 0.596670
O O10 0.500000 0.000000 0.500000
O O11 0.406488 0.917698 0.245366
O O12 0.840855 0.140153 0.901153
O O13 0.664831 0.305260 0.068603
O O14 0.000000 0.000000 0.000000
O O15 0.500000 0.000000 0.000000
O O16 0.693157 0.843700 0.885079
#
# Coordination Sequence:
#
# PCOD9080206 Si02
#       7
#     2   2   2   2   2   2   2
#     4  10  21  38  68  91 123 173 212 263 326 369
#     4  11  23  39  66  95 124 168 218 257 320 381
#     4  11  20  36  62  92 123 165 203 261 324 375
#     4  10  21  38  60  92 131 158 209 270 313 378
#     4  10  18  38  66  90 117 167 217 257 309 372
#     4  12  23  40  65  97 132 166 213 263 322 388
#     4  12  21  41  67  91 131 165 214 267 315 383
#
# _framework density 21.309926999999998
#
# number of rings (size 3 to 8) (size 9 to 14) (size 15 to 20)
#    0.000    1.143    7.143    1.286    0.000    0.000 
#    0.000    7.857    0.000    0.000    0.000    0.000 
#    0.000    0.000    0.000    0.000    0.000    0.000 
#
# Total GULP energy -77973.353338 kJ/mol
# GULP energy per Si atom -5569.525238 kJ/mol
# Density = 2.126143 g / cm^3
# Si number density = 21.309927 Si / 1000 Ang^3
#
#
#
# Elastic Constant Matrix: (Units=GPa)
#
#
# Indices 1 2 3 4 5 6 
#
# 1 34.6192 39.8629 41.9321 -1.8011 11.3073 13.0857
# 2 39.8629 123.9447 63.7778 -12.1835 2.7053 24.0667
# 3 41.9321 63.7778 194.1337 -10.8271 21.9317 28.0410
# 4 -1.8011 -12.1835 -10.8271 42.8798 8.1147 16.6827
# 5 11.3073 2.7053 21.9317 8.1147 33.4331 -3.2235
# 6 13.0857 24.0667 28.0410 16.6827 -3.2235 38.4515
#
#
#
# Elastic Compliance Matrix: (Units=1/GPa)
#
#
# Indices 1 2 3 4 5 6 
#
# 1 0.062455 -0.014093 -0.004144 0.006903 -0.020300 -0.014109
# 2 -0.014093 0.014631 -0.000929 0.005089 0.002408 -0.005690
# 3 -0.004144 -0.000929 0.008352 0.005536 -0.006022 -0.007006
# 4 0.006903 0.005089 0.005536 0.041445 -0.019250 -0.029167
# 5 -0.020300 0.002408 -0.006022 -0.019250 0.047335 0.022112
# 6 -0.014109 -0.005690 -0.007006 -0.029167 0.022112 0.053987
#
#
# Mechanical properties :
#
#
# Convention : Reuss Voigt Hill
#
# Bulk Modulus (GPa) = 21.22858 71.53816 46.38337
# Shear Modulus (GPa) = 17.71537 36.76119 27.23828
#
# Velocity S-wave (km/s) = 2.88639 4.15791 3.57907
# Velocity P-wave (km/s) = 4.59258 7.52955 6.23642
#
# Compressibility (1/GPa) = 0.04710631
#
# Stress axis : x y z
#
# Youngs Moduli (GPa) = 16.01148 68.34664 119.72637
#
# Poissons Ratio (x) = 0.96323 0.49614
# Poissons Ratio (y) = 0.22565 0.11124
# Poissons Ratio (z) = 0.06635 0.06350
#
# Static dielectric constant tensor:
#      x y z
#    x 1.896930 -0.103600 0.087070 
#    y -0.103600 1.950350 -0.069900 
#    z 0.087070 -0.069900 1.824370 
# 
# From -- ./inp_files/304270.got.cif
#   From: 2010.05.17/outbox.cif.g08.bks.cpg/sg2_153_cif.got.tgz:304270.got - 2010.06.03 11:33:40.
