data_PCOD9080454
_publ_section_title
;
Structure prediction by ZEFSAII (Michael W. Deem and Ramdas Pophale) SiO2 
 PCOD9080454
Probable space group: P -1
;
_chemical_formula_sum "Si O2"
_cell_formula_units_Z 16
_cell_length_a 7.801176
_cell_length_b 10.908949
_cell_length_c 15.500638
_cell_angle_alpha 116.741017
_cell_angle_beta 54.241743
_cell_angle_gamma 135.063754
_cell_volume 754.578859
_symmetry_space_group_name_H-M "P -1"
_symmetry_group_IT_number 2
_symmetry_cell_setting 'triclinic'
loop_
_space_group_symop_operation_xyz
x,y,z
-x,-y,-z
loop_
_atom_site_type_symbol
_atom_site_label
_atom_site_fract_x
_atom_site_fract_y
_atom_site_fract_z
Si Si1 0.745149 0.704877 0.657421
Si Si2 0.813204 0.651494 0.968555
Si Si3 0.183095 0.681196 0.337854
Si Si4 0.998206 0.822098 0.795435
Si Si5 0.220580 0.647103 0.746585
Si Si6 0.557527 0.341680 0.589446
Si Si7 0.272425 0.217367 0.804356
Si Si8 0.198605 0.985581 0.491185
O O1 0.785439 0.694959 0.744412
O O2 0.514633 0.724035 0.714053
O O3 0.650800 0.524591 0.584778
O O4 0.026200 0.865360 0.586163
O O5 0.881147 0.787300 0.915253
O O6 0.017020 0.609373 0.871620
O O7 0.500000 0.500000 0.000000
O O8 0.853629 0.724170 0.075626
O O9 0.210975 0.630729 0.410010
O O10 0.426929 0.699279 0.225016
O O11 0.250375 0.867551 0.385557
O O12 0.913744 0.531384 0.322718
O O13 0.200703 0.774816 0.732683
O O14 0.118196 0.012887 0.790823
O O15 0.321109 0.277378 0.709608
O O16 0.442976 0.178655 0.509881
O O17 0.000000 0.000000 0.500000
#
# Coordination Sequence:
#
# PCOD9080454 Si02
#       8
#     2   2   2   2   2   2   2   2
#     4  12  23  46  63  95 136 165 215 269 312 388
#     4  10  18  39  66  95 126 167 214 258 321 381
#     4  10  21  42  64  92 122 174 215 255 327 369
#     4  10  21  40  66  93 131 170 207 265 320 374
#     4  10  23  38  69  93 126 171 213 256 328 372
#     4  10  22  42  68  90 131 170 216 262 322 377
#     4  10  19  39  69  93 130 167 216 265 311 387
#     4  12  27  41  63  96 131 168 217 269 321 378
#
# _framework density 21.203882
#
# number of rings (size 3 to 8) (size 9 to 14) (size 15 to 20)
#    1.500    0.000    3.750    2.250    1.750    2.500 
#    0.000    3.125    0.000    0.000    0.000    0.000 
#    0.000    0.000    0.000    0.000    0.000    0.000 
#
# Total GULP energy -89226.081432 kJ/mol
# GULP energy per Si atom -5576.630089 kJ/mol
# Density = 2.115562 g / cm^3
# Si number density = 21.203882 Si / 1000 Ang^3
#
#
#
# Elastic Constant Matrix: (Units=GPa)
#
#
# Indices 1 2 3 4 5 6 
#
# 1 62.2890 -9.1775 12.6172 13.5693 -14.1145 -0.2501
# 2 -9.1775 74.3830 14.7584 11.9018 -0.9009 -4.9439
# 3 12.6172 14.7584 107.9385 14.1607 -1.1041 3.7931
# 4 13.5693 11.9018 14.1607 34.7476 -1.2448 -2.2081
# 5 -14.1145 -0.9009 -1.1041 -1.2448 26.3770 -2.2377
# 6 -0.2501 -4.9439 3.7931 -2.2081 -2.2377 18.2883
#
#
#
# Elastic Compliance Matrix: (Units=1/GPa)
#
#
# Indices 1 2 3 4 5 6 
#
# 1 0.021667 0.004761 -0.002006 -0.008714 0.011461 0.002349
# 2 0.004761 0.015729 -0.002039 -0.006026 0.003087 0.004390
# 3 -0.002006 -0.002039 0.010265 -0.002945 -0.001124 -0.003201
# 4 -0.008714 -0.006026 -0.002945 0.035512 -0.003081 0.002774
# 5 0.011461 0.003087 -0.001124 -0.003081 0.044492 0.006296
# 6 0.002349 0.004390 -0.003201 0.002774 0.006296 0.057668
#
#
# Mechanical properties :
#
#
# Convention : Reuss Voigt Hill
#
# Bulk Modulus (GPa) = 20.36980 31.22300 25.79640
# Shear Modulus (GPa) = 24.96682 30.97673 27.97178
#
# Velocity S-wave (km/s) = 3.43514 3.82632 3.63599
# Velocity P-wave (km/s) = 5.03598 5.85475 5.46073
#
# Compressibility (1/GPa) = 0.04909227
#
# Stress axis : x y z
#
# Youngs Moduli (GPa) = 46.15397 63.57565 97.41649
#
# Poissons Ratio (x) = -0.30265 0.19538
# Poissons Ratio (y) = -0.21972 0.19866
# Poissons Ratio (z) = 0.09257 0.12965
#
# Static dielectric constant tensor:
#      x y z
#    x 1.741180 0.010250 0.017160 
#    y 0.010250 1.813400 -0.016360 
#    z 0.017160 -0.016360 1.827890 
# 
# From -- ./inp_files/559175.got.cif
#   From: 2010.05.17/outbox.cif.g08.bks.cpg/sg2_280_cif.got.tgz:559175.got - 2010.06.03 11:33:40.
