data_PCOD9081280
_publ_section_title
;
Structure prediction by ZEFSAII (Michael W. Deem and Ramdas Pophale) SiO2 
 PCOD9081280
Probable space group: P -1
;
_chemical_formula_sum "Si O2"
_cell_formula_units_Z 16
_cell_length_a 14.721014
_cell_length_b 11.910752
_cell_length_c 15.458352
_cell_angle_alpha 69.077898
_cell_angle_beta 132.852568
_cell_angle_gamma 149.956898
_cell_volume 771.660043
_symmetry_space_group_name_H-M "P -1"
_symmetry_group_IT_number 2
_symmetry_cell_setting 'triclinic'
loop_
_space_group_symop_operation_xyz
x,y,z
-x,-y,-z
loop_
_atom_site_type_symbol
_atom_site_label
_atom_site_fract_x
_atom_site_fract_y
_atom_site_fract_z
Si Si1 0.723619 0.138983 0.453520
Si Si2 0.813124 0.168687 0.024754
Si Si3 0.729553 0.906937 0.196961
Si Si4 0.689265 0.855596 0.539981
Si Si5 0.351493 0.374542 0.554509
Si Si6 0.342014 0.408568 0.739864
Si Si7 0.555684 0.187462 0.813725
Si Si8 0.426379 0.750881 0.727015
O O1 0.563949 0.126401 0.366176
O O2 0.078229 0.457175 0.612509
O O3 0.587126 0.901524 0.476999
O O4 0.672486 0.056880 0.341716
O O5 0.152116 0.501938 0.129574
O O6 0.764724 0.030042 0.107114
O O7 0.655036 0.157534 0.940249
O O8 0.654146 0.978077 0.888537
O O9 0.554457 0.626858 0.141492
O O10 0.579897 0.839407 0.199813
O O11 0.061616 0.163859 0.372477
O O12 0.607190 0.694457 0.607960
O O13 0.570413 0.684076 0.422841
O O14 0.038498 0.168375 0.660593
O O15 0.291862 0.326396 0.630243
O O16 0.490198 0.670861 0.760629
#
# Coordination Sequence:
#
# PCOD9081280 Si02
#       8
#     2   2   2   2   2   2   2   2
#     4   9  16  33  60  78 101 142 180 219 264 309
#     4  10  22  37  55  79 110 143 174 218 270 320
#     4  11  20  32  55  80 105 142 181 218 268 318
#     4   9  17  31  52  82 109 133 174 224 268 308
#     4  10  19  31  53  84 110 136 177 228 268 306
#     4  10  20  34  52  77 111 143 177 221 264 313
#     4  10  20  37  58  81 106 135 181 228 263 310
#     4   9  19  35  53  78 110 143 176 214 265 320
#
# _framework density 20.734518000000001
#
# number of rings (size 3 to 8) (size 9 to 14) (size 15 to 20)
#    0.000    2.250    0.000    4.875    0.000    2.500 
#    0.000    3.750    0.000    4.500    0.000    0.000 
#    0.000    0.000    0.000    0.000    0.000    0.000 
#
# Total GULP energy -89128.263524 kJ/mol
# GULP energy per Si atom -5570.516470 kJ/mol
# Density = 2.068732 g / cm^3
# Si number density = 20.734518 Si / 1000 Ang^3
#
#
#
# Elastic Constant Matrix: (Units=GPa)
#
#
# Indices 1 2 3 4 5 6 
#
# 1 65.5661 22.0052 -4.2406 2.8011 12.7304 -30.6242
# 2 22.0052 53.6510 -0.0627 -0.9697 13.3898 -36.5211
# 3 -4.2406 -0.0627 42.0098 4.8132 2.2002 -6.8676
# 4 2.8011 -0.9697 4.8132 24.9029 -13.1295 5.6791
# 5 12.7304 13.3898 2.2002 -13.1295 13.1796 -4.7803
# 6 -30.6242 -36.5211 -6.8676 5.6791 -4.7803 44.7012
#
#
#
# Elastic Compliance Matrix: (Units=1/GPa)
#
#
# Indices 1 2 3 4 5 6 
#
# 1 0.002772 -0.027581 -0.009583 0.032507 0.051821 -0.020695
# 2 -0.027581 -0.003904 -0.016492 0.051759 0.076579 -0.023005
# 3 -0.009583 -0.016492 0.015606 0.021814 0.039256 -0.016215
# 4 0.032507 0.051759 0.021814 -0.029836 -0.095028 0.061537
# 5 0.051821 0.076579 0.039256 -0.095028 -0.115546 0.103814
# 6 -0.020695 -0.023005 -0.016215 0.061537 0.103814 -0.009810
#
#
# Mechanical properties :
#
#
# Convention : Reuss Voigt Hill
#
# Bulk Modulus (GPa) = -10.77148 21.84786 5.53819
# Shear Modulus (GPa) = -77.69812 26.12507 -25.78653
#
# Velocity S-wave (km/s) = -6.12815 3.55347 -3.53037
# Velocity P-wave (km/s) = 7.43495 5.23412 3.73380
#
# Compressibility (1/GPa) = -0.09283778
#
# Stress axis : x y z
#
# Youngs Moduli (GPa) = 360.71240 -256.13908 64.07800
#
# Poissons Ratio (x) = -7.06463 0.61406
# Poissons Ratio (y) = 9.94889 1.05676
# Poissons Ratio (z) = 3.45672 -4.22417
#
# Static dielectric constant tensor:
#      x y z
#    x 1.751910 -0.070230 0.042990 
#    y -0.070230 1.851960 -0.011720 
#    z 0.042990 -0.011720 1.753740 
# 
# From -- ./inp_files/532262.got.cif
#   From: 2010.05.17/outbox.cif.g08.bks.cpg/sg2_267_cif.got.tgz:532262.got - 2010.06.03 11:33:40.
