data_PCOD9081969
_publ_section_title
;
Structure prediction by ZEFSAII (Michael W. Deem and Ramdas Pophale) SiO2 
 PCOD9081969
Probable space group: P -1
;
_chemical_formula_sum "Si O2"
_cell_formula_units_Z 16
_cell_length_a 18.293984
_cell_length_b 10.242511
_cell_length_c 12.231102
_cell_angle_alpha 55.660259
_cell_angle_beta 151.595590
_cell_angle_gamma 125.408794
_cell_volume 879.750012
_symmetry_space_group_name_H-M "P -1"
_symmetry_group_IT_number 2
_symmetry_cell_setting 'triclinic'
loop_
_space_group_symop_operation_xyz
x,y,z
-x,-y,-z
loop_
_atom_site_type_symbol
_atom_site_label
_atom_site_fract_x
_atom_site_fract_y
_atom_site_fract_z
Si Si1 0.714529 0.862741 0.527210
Si Si2 0.226688 0.164005 0.780086
Si Si3 0.975582 0.905936 0.673428
Si Si4 0.953928 0.434819 0.090736
Si Si5 0.419696 0.818706 0.787423
Si Si6 0.513235 0.374808 0.826140
Si Si7 0.274766 0.509413 0.603529
Si Si8 0.333214 0.431195 0.254484
O O1 0.878928 0.886772 0.667254
O O2 0.587442 0.751767 0.331823
O O3 0.712233 0.758086 0.684144
O O4 0.667032 0.033569 0.398265
O O5 0.149288 0.114544 0.581892
O O6 0.256681 0.358152 0.734740
O O7 0.395970 0.119199 0.027173
O O8 0.101637 0.071164 0.745062
O O9 0.062947 0.758031 0.842919
O O10 0.104133 0.503378 0.331755
O O11 0.799805 0.488183 0.904989
O O12 0.000000 0.500000 0.000000
O O13 0.346413 0.678137 0.673288
O O14 0.415520 0.729758 0.941709
O O15 0.391344 0.463432 0.686613
O O16 0.637480 0.507259 0.860067
O O17 0.500000 0.500000 0.500000
#
# Coordination Sequence:
#
# PCOD9081969 Si02
#       8
#     2   2   2   2   2   2   2   2
#     4  11  20  37  55  95 118 150 201 249 286 342
#     4   9  19  34  57  87 118 150 196 240 292 343
#     4  10  19  32  58  91 115 146 198 251 281 341
#     4  11  19  38  64  84 115 157 197 238 296 351
#     4  11  22  36  63  85 125 156 194 244 301 346
#     4  10  19  38  61  86 119 157 202 240 287 347
#     4  10  21  41  59  87 116 161 194 238 299 362
#     4  10  22  35  59  90 118 147 198 250 291 343
#
# _framework density 18.186983000000001
#
# number of rings (size 3 to 8) (size 9 to 14) (size 15 to 20)
#    0.000    1.750    5.000    2.625    3.500    2.000 
#    0.000    5.000    2.750    0.000    0.000    0.000 
#    0.000    0.000    0.000    0.000    0.000    0.000 
#
# Total GULP energy -89272.370235 kJ/mol
# GULP energy per Si atom -5579.523140 kJ/mol
# Density = 1.814559 g / cm^3
# Si number density = 18.186983 Si / 1000 Ang^3
#
#
#
# Elastic Constant Matrix: (Units=GPa)
#
#
# Indices 1 2 3 4 5 6 
#
# 1 89.4329 61.2658 33.2563 -6.8292 22.1562 26.4816
# 2 61.2658 117.6803 35.5298 -15.4139 16.0153 -2.7984
# 3 33.2563 35.5298 72.5403 -22.3302 30.3110 -0.8636
# 4 -6.8292 -15.4139 -22.3302 16.2859 -7.7512 2.6363
# 5 22.1562 16.0153 30.3110 -7.7512 19.2386 0.0278
# 6 26.4816 -2.7984 -0.8636 2.6363 0.0278 30.6379
#
#
#
# Elastic Compliance Matrix: (Units=1/GPa)
#
#
# Indices 1 2 3 4 5 6 
#
# 1 0.050149 -0.023316 0.007736 -0.008982 -0.054087 -0.044435
# 2 -0.023316 0.021095 -0.005680 0.009470 0.022025 0.021085
# 3 0.007736 -0.005680 0.060562 0.043292 -0.082142 -0.009148
# 4 -0.008982 0.009470 0.043292 0.117170 -0.018540 -0.000217
# 5 -0.054087 0.022025 -0.082142 -0.018540 0.217812 0.047843
# 6 -0.044435 0.021085 -0.009148 -0.000217 0.047843 0.072689
#
#
# Mechanical properties :
#
#
# Convention : Reuss Voigt Hill
#
# Bulk Modulus (GPa) = 11.20006 59.97304 35.58655
# Shear Modulus (GPa) = 8.17312 23.20592 15.68952
#
# Velocity S-wave (km/s) = 2.12219 3.57594 2.94033
# Velocity P-wave (km/s) = 3.48950 7.07794 5.58004
#
# Compressibility (1/GPa) = 0.08928521
#
# Stress axis : x y z
#
# Youngs Moduli (GPa) = 19.94075 47.40357 16.51192
#
# Poissons Ratio (x) = 1.10525 -0.12773
# Poissons Ratio (y) = 0.46494 0.09379
# Poissons Ratio (z) = -0.15425 0.26927
#
# Static dielectric constant tensor:
#      x y z
#    x 1.631570 0.025960 -0.018480 
#    y 0.025960 1.619370 -0.008910 
#    z -0.018480 -0.008910 1.638630 
# 
# From -- ./inp_files/175372.got.cif
#   From: 2010.05.17/outbox.cif.g08.bks.cpg/sg2_88_cif.got.tgz:175372.got - 2010.06.03 11:33:40.
