data_PCOD9081667
_publ_section_title
;
Structure prediction by ZEFSAII (Michael W. Deem and Ramdas Pophale) SiO2 
 PCOD9081667
Probable space group: P -1
;
_chemical_formula_sum "Si O2"
_cell_formula_units_Z 16
_cell_length_a 8.074328
_cell_length_b 12.313263
_cell_length_c 9.303098
_cell_angle_alpha 117.128198
_cell_angle_beta 87.738283
_cell_angle_gamma 123.768092
_cell_volume 655.051905
_symmetry_space_group_name_H-M "P -1"
_symmetry_group_IT_number 2
_symmetry_cell_setting 'triclinic'
loop_
_space_group_symop_operation_xyz
x,y,z
-x,-y,-z
loop_
_atom_site_type_symbol
_atom_site_label
_atom_site_fract_x
_atom_site_fract_y
_atom_site_fract_z
Si Si1 0.262175 0.527179 0.462616
Si Si2 0.292477 0.034574 0.066843
Si Si3 0.679212 0.199124 0.971939
Si Si4 0.068459 0.181205 0.253763
Si Si5 0.782694 0.608335 0.114214
Si Si6 0.559813 0.731820 0.176795
Si Si7 0.311090 0.279976 0.559261
Si Si8 0.019194 0.467631 0.730817
O O1 0.167837 0.355107 0.314971
O O2 0.509056 0.635193 0.512556
O O3 0.169154 0.508980 0.612433
O O4 0.188380 0.591556 0.383917
O O5 0.196027 0.121561 0.157687
O O6 0.265595 0.917829 0.117252
O O7 0.534670 0.146959 0.088050
O O8 0.158512 0.926821 0.870811
O O9 0.525905 0.191123 0.857257
O O10 0.882472 0.370293 0.097117
O O11 0.093822 0.183246 0.426817
O O12 0.749908 0.726487 0.109986
O O13 0.664375 0.593500 0.259007
O O14 0.979477 0.633418 0.203109
O O15 0.644337 0.448108 0.939037
O O16 0.640752 0.801244 0.374217
#
# Coordination Sequence:
#
# PCOD9081667 Si02
#       8
#     2   2   2   2   2   2   2   2
#     4  11  20  30  54  86 110 135 165 223 279 316
#     4  10  23  35  56  76 102 146 186 216 257 292
#     4  10  19  39  56  75 103 145 177 221 257 310
#     4  11  21  36  51  81 111 133 181 224 252 316
#     4   8  16  31  53  79 106 136 166 211 270 324
#     4   8  17  32  57  77 106 137 174 209 265 326
#     4  10  19  33  55  81 107 141 165 214 277 319
#     4  10  19  32  53  83 111 130 173 223 272 315
#
# _framework density 24.425547999999999
#
# number of rings (size 3 to 8) (size 9 to 14) (size 15 to 20)
#    0.750    1.500    2.500    1.125    3.500    0.000 
#    0.000    3.750    5.500    0.000    0.000    0.000 
#    0.000    0.000    0.000    0.000    0.000    0.000 
#
# Total GULP energy -89095.420411 kJ/mol
# GULP energy per Si atom -5568.463776 kJ/mol
# Density = 2.436995 g / cm^3
# Si number density = 24.425548 Si / 1000 Ang^3
#
#
#
# Elastic Constant Matrix: (Units=GPa)
#
#
# Indices 1 2 3 4 5 6 
#
# 1 74.1490 32.8268 13.8928 -7.2942 13.1348 -28.6631
# 2 32.8268 41.8335 25.3485 -12.2180 11.9262 -23.9182
# 3 13.8928 25.3485 92.8144 -17.0793 22.0891 -12.5882
# 4 -7.2942 -12.2180 -17.0793 28.5520 -7.0616 16.3485
# 5 13.1348 11.9262 22.0891 -7.0616 41.2434 -20.5323
# 6 -28.6631 -23.9182 -12.5882 16.3485 -20.5323 43.2050
#
#
#
# Elastic Compliance Matrix: (Units=1/GPa)
#
#
# Indices 1 2 3 4 5 6 
#
# 1 0.022925 -0.014718 0.000823 -0.005282 0.000314 0.009449
# 2 -0.014718 0.050215 -0.009537 0.004081 0.003667 0.015454
# 3 0.000823 -0.009537 0.015586 0.007353 -0.007956 -0.006756
# 4 -0.005282 0.004081 0.007353 0.050336 -0.005047 -0.020548
# 5 0.000314 0.003667 -0.007956 -0.005047 0.035883 0.018883
# 6 0.009449 0.015454 -0.006756 -0.020548 0.018883 0.052750
#
#
# Mechanical properties :
#
#
# Convention : Reuss Voigt Hill
#
# Bulk Modulus (GPa) = 23.88771 39.21479 31.55125
# Shear Modulus (GPa) = 17.33024 31.71533 24.52279
#
# Velocity S-wave (km/s) = 2.66656 3.60731 3.17200
# Velocity P-wave (km/s) = 4.39110 5.78273 5.13428
#
# Compressibility (1/GPa) = 0.04186252
#
# Stress axis : x y z
#
# Youngs Moduli (GPa) = 43.61977 19.91452 64.16072
#
# Poissons Ratio (x) = 0.29310 -0.05280
# Poissons Ratio (y) = 0.64199 0.61188
# Poissons Ratio (z) = -0.03590 0.18992
#
# Static dielectric constant tensor:
#      x y z
#    x 2.039320 -0.065510 -0.033440 
#    y -0.065510 2.090380 -0.027210 
#    z -0.033440 -0.027210 1.919560 
# 
# From -- ./inp_files/258260.got.cif
#   From: 2010.05.17/outbox.cif.g08.bks.cpg/sg2_130_cif.got.tgz:258260.got - 2010.06.03 11:33:40.
