data_PCOD9081413
_publ_section_title
;
Structure prediction by ZEFSAII (Michael W. Deem and Ramdas Pophale) SiO2 
 PCOD9081413
Probable space group: P -1
;
_chemical_formula_sum "Si O2"
_cell_formula_units_Z 14
_cell_length_a 8.736611
_cell_length_b 12.703612
_cell_length_c 9.493035
_cell_angle_alpha 110.139730
_cell_angle_beta 107.943755
_cell_angle_gamma 42.822280
_cell_volume 669.818614
_symmetry_space_group_name_H-M "P -1"
_symmetry_group_IT_number 2
_symmetry_cell_setting 'triclinic'
loop_
_space_group_symop_operation_xyz
x,y,z
-x,-y,-z
loop_
_atom_site_type_symbol
_atom_site_label
_atom_site_fract_x
_atom_site_fract_y
_atom_site_fract_z
Si Si1 0.738514 0.854916 0.572479
Si Si2 0.538147 0.564676 0.385205
Si Si3 0.768413 0.743642 0.822659
Si Si4 0.639137 0.572144 0.725015
Si Si5 0.781802 0.615573 0.294949
Si Si6 0.119206 0.263409 0.838771
Si Si7 0.981569 0.140974 0.545837
O O1 0.710892 0.854474 0.730892
O O2 0.810234 0.697844 0.459329
O O3 0.919771 0.857090 0.570637
O O4 0.500000 0.000000 0.500000
O O5 0.677897 0.527756 0.548220
O O6 0.547696 0.428583 0.286010
O O7 0.599695 0.617791 0.302486
O O8 0.280158 0.707357 0.426489
O O9 0.592994 0.726779 0.788438
O O10 0.996452 0.566238 0.757446
O O11 0.817438 0.776276 0.000247
O O12 0.862620 0.435502 0.817652
O O13 0.732835 0.714065 0.188119
O O14 0.120859 0.145232 0.702615
O O15 0.000000 0.000000 0.500000
#
# Coordination Sequence:
#
# PCOD9081413 Si02
#       7
#     2   2   2   2   2   2   2
#     4  11  23  38  62  88 112 158 209 238 281 349
#     4  10  19  31  58  92 118 145 198 246 280 338
#     4  11  21  38  61  86 123 152 196 247 293 340
#     4   9  18  31  55  84 122 141 188 234 296 321
#     4  10  19  35  62  89 113 157 198 235 284 347
#     4   9  21  38  58  87 119 152 192 245 295 344
#     4  10  22  40  61  82 116 155 195 243 291 353
#
# _framework density 20.90118
#
# number of rings (size 3 to 8) (size 9 to 14) (size 15 to 20)
#    0.000    2.000    1.429    3.857    8.000    0.000 
#    0.000   10.000    3.143    0.000    0.000    0.000 
#    0.000    0.000    0.000    0.000    0.000    0.000 
#
# Total GULP energy -78105.787108 kJ/mol
# GULP energy per Si atom -5578.984793 kJ/mol
# Density = 2.085361 g / cm^3
# Si number density = 20.901180 Si / 1000 Ang^3
#
#
#
# Elastic Constant Matrix: (Units=GPa)
#
#
# Indices 1 2 3 4 5 6 
#
# 1 158.8289 45.1545 45.8551 -14.4381 -8.0366 35.0216
# 2 45.1545 66.3962 32.3878 -9.2990 -3.6708 21.0843
# 3 45.8551 32.3878 144.9934 -29.4920 -13.3337 25.5129
# 4 -14.4381 -9.2990 -29.4920 22.0000 9.2912 -0.4497
# 5 -8.0366 -3.6708 -13.3337 9.2912 22.5241 -3.3538
# 6 35.0216 21.0843 25.5129 -0.4497 -3.3538 41.2116
#
#
#
# Elastic Compliance Matrix: (Units=1/GPa)
#
#
# Indices 1 2 3 4 5 6 
#
# 1 0.008997 -0.003685 -0.000251 0.003883 0.000031 -0.005560
# 2 -0.003685 0.021075 -0.001453 0.005207 -0.001908 -0.006850
# 3 -0.000251 -0.001453 0.011200 0.014315 -0.000474 -0.005859
# 4 0.003883 0.005207 0.014315 0.079377 -0.024409 -0.015947
# 5 0.000031 -0.001908 -0.000474 -0.024409 0.054693 0.005428
# 6 -0.005560 -0.006850 -0.005859 -0.015947 0.005428 0.036389
#
#
# Mechanical properties :
#
#
# Convention : Reuss Voigt Hill
#
# Bulk Modulus (GPa) = 32.79418 68.55705 50.67561
# Shear Modulus (GPa) = 21.48929 33.60186 27.54558
#
# Velocity S-wave (km/s) = 3.20994 4.01391 3.63422
# Velocity P-wave (km/s) = 5.42793 7.37250 6.47364
#
# Compressibility (1/GPa) = 0.03049322
#
# Stress axis : x y z
#
# Youngs Moduli (GPa) = 111.15198 47.44985 89.28500
#
# Poissons Ratio (x) = 0.17484 0.02242
# Poissons Ratio (y) = 0.40957 0.12976
# Poissons Ratio (z) = 0.02791 0.06896
#
# Static dielectric constant tensor:
#      x y z
#    x 1.806800 0.001990 0.007900 
#    y 0.001990 1.825690 -0.000260 
#    z 0.007900 -0.000260 1.755570 
# 
# From -- ./inp_files/172940.got.cif
#   From: 2010.05.17/outbox.cif.g08.bks.cpg/sg2_87_cif.got.tgz:172940.got - 2010.06.03 11:33:40.
