data_PCOD9081556
_publ_section_title
;
Structure prediction by ZEFSAII (Michael W. Deem and Ramdas Pophale) SiO2 
 PCOD9081556
Probable space group: P -1
;
_chemical_formula_sum "Si O2"
_cell_formula_units_Z 16
_cell_length_a 9.730663
_cell_length_b 20.977323
_cell_length_c 5.505658
_cell_angle_alpha 77.433092
_cell_angle_beta 73.613543
_cell_angle_gamma 121.751173
_cell_volume 819.356899
_symmetry_space_group_name_H-M "P -1"
_symmetry_group_IT_number 2
_symmetry_cell_setting 'triclinic'
loop_
_space_group_symop_operation_xyz
x,y,z
-x,-y,-z
loop_
_atom_site_type_symbol
_atom_site_label
_atom_site_fract_x
_atom_site_fract_y
_atom_site_fract_z
Si Si1 0.631131 0.634357 0.405013
Si Si2 0.055678 0.071435 0.606101
Si Si3 0.254696 0.909192 0.728015
Si Si4 0.293568 0.047901 0.829642
Si Si5 0.144924 0.214407 0.111075
Si Si6 0.937743 0.684469 0.604622
Si Si7 0.653328 0.523634 0.098966
Si Si8 0.677501 0.149069 0.763303
O O1 0.802985 0.669368 0.468771
O O2 0.641521 0.576634 0.262729
O O3 0.430468 0.567831 0.682292
O O4 0.674522 0.715536 0.188824
O O5 0.191613 0.079350 0.730217
O O6 0.149889 0.158618 0.351214
O O7 0.000000 0.000000 0.500000
O O8 0.858379 0.029749 0.858672
O O9 0.286321 0.887002 0.463252
O O10 0.032723 0.852172 0.906535
O O11 0.334815 0.004867 0.640235
O O12 0.319329 0.886911 0.949861
O O13 0.474757 0.117695 0.830455
O O14 0.095601 0.268467 0.220137
O O15 0.154057 0.751199 0.389093
O O16 0.852404 0.591951 0.821669
O O17 0.500000 0.500000 0.000000
#
# Coordination Sequence:
#
# PCOD9081556 Si02
#       8
#     2   2   2   2   2   2   2   2
#     4   9  15  27  48  72 108 137 171 209 267 336
#     4  11  24  39  54  71 106 150 196 240 272 318
#     4  11  21  36  56  81 108 141 183 236 286 331
#     4  11  24  38  53  74 103 147 192 237 280 321
#     4  10  19  32  52  74 105 143 182 225 273 320
#     4   9  17  30  49  77 108 138 172 219 276 330
#     4   8  15  26  44  75 108 139 163 205 266 337
#     4  11  23  35  58  81 110 143 184 232 284 340
#
# _framework density 19.527511000000001
#
# number of rings (size 3 to 8) (size 9 to 14) (size 15 to 20)
#    0.000    2.000    2.500    2.250    1.750    0.000 
#    0.000    0.000    0.000    0.000    0.000    0.875 
#    0.000   35.000    0.000    3.000    0.000    0.250 
#
# Total GULP energy -89118.320122 kJ/mol
# GULP energy per Si atom -5569.895008 kJ/mol
# Density = 1.948307 g / cm^3
# Si number density = 19.527511 Si / 1000 Ang^3
#
#
#
# Elastic Constant Matrix: (Units=GPa)
#
#
# Indices 1 2 3 4 5 6 
#
# 1 70.9215 22.2222 39.7022 -23.4953 8.6382 28.6129
# 2 22.2222 72.6956 36.0215 -18.0612 -2.6848 32.6538
# 3 39.7022 36.0215 127.4824 -43.5009 10.4887 8.1850
# 4 -23.4953 -18.0612 -43.5009 55.8850 -3.3047 -0.3174
# 5 8.6382 -2.6848 10.4887 -3.3047 19.6234 0.1732
# 6 28.6129 32.6538 8.1850 -0.3174 0.1732 27.4879
#
#
#
# Elastic Compliance Matrix: (Units=1/GPa)
#
#
# Indices 1 2 3 4 5 6 
#
# 1 0.077212 0.059106 -0.018531 0.035805 -0.008691 -0.144601
# 2 0.059106 0.084870 -0.020550 0.035631 0.003953 -0.155840
# 3 -0.018531 -0.020550 0.016815 -0.001373 -0.004215 0.038704
# 4 0.035805 0.035631 -0.001373 0.042814 -0.002248 -0.078680
# 5 -0.008691 0.003953 -0.004215 -0.002248 0.057154 0.005220
# 6 -0.144601 -0.155840 0.038704 -0.078680 0.005220 0.359560
#
#
# Mechanical properties :
#
#
# Convention : Reuss Voigt Hill
#
# Bulk Modulus (GPa) = 4.56726 51.88791 28.22759
# Shear Modulus (GPa) = 7.44761 32.14285 19.79523
#
# Velocity S-wave (km/s) = 1.95504 4.06153 3.18734
# Velocity P-wave (km/s) = 2.72767 6.97310 5.29454
#
# Compressibility (1/GPa) = 0.21894972
#
# Stress axis : x y z
#
# Youngs Moduli (GPa) = 12.95133 11.78275 59.47007
#
# Poissons Ratio (x) = -0.69644 1.10202
# Poissons Ratio (y) = -0.76551 1.22208
# Poissons Ratio (z) = 0.24000 0.24213
#
# Static dielectric constant tensor:
#      x y z
#    x 1.690540 0.015390 -0.036290 
#    y 0.015390 1.203250 -0.299520 
#    z -0.036290 -0.299520 1.688900 
# 
# From -- ./inp_files/47372.got.cif
#   From: 2010.05.17/outbox.cif.g08.bks.cpg/sg2_24_cif.got.tgz:47372.got - 2010.06.03 11:33:40.
