data_PCOD9081062
_publ_section_title
;
Structure prediction by ZEFSAII (Michael W. Deem and Ramdas Pophale) SiO2 
 PCOD9081062
Probable space group: P -1
;
_chemical_formula_sum "Si O2"
_cell_formula_units_Z 10
_cell_length_a 11.495387
_cell_length_b 9.843201
_cell_length_c 8.147064
_cell_angle_alpha 31.355578
_cell_angle_beta 84.204269
_cell_angle_gamma 68.783502
_cell_volume 403.948740
_symmetry_space_group_name_H-M "P -1"
_symmetry_group_IT_number 2
_symmetry_cell_setting 'triclinic'
loop_
_space_group_symop_operation_xyz
x,y,z
-x,-y,-z
loop_
_atom_site_type_symbol
_atom_site_label
_atom_site_fract_x
_atom_site_fract_y
_atom_site_fract_z
Si Si1 0.303247 0.521795 0.753639
Si Si2 0.274342 0.289366 0.665037
Si Si3 0.059063 0.147546 0.963213
Si Si4 0.083568 0.644088 0.907228
Si Si5 0.575798 0.383317 0.784775
O O1 0.333762 0.275001 0.858223
O O2 0.230267 0.485528 0.960249
O O3 0.443831 0.505932 0.794053
O O4 0.318639 0.502312 0.345457
O O5 0.188128 0.847882 0.348185
O O6 0.129752 0.326717 0.700673
O O7 0.340881 0.982634 0.863311
O O8 0.938377 0.345989 0.906415
O O9 0.000000 0.000000 0.000000
O O10 0.000000 0.000000 0.500000
O O11 0.000000 0.500000 0.000000
O O12 0.500000 0.500000 0.500000
#
# Coordination Sequence:
#
# PCOD9081062 Si02
#       5
#     2   2   2   2   2
#     4  10  20  36  59  84 112 141 192 236 273 325
#     4  11  19  34  55  86 109 140 187 237 275 320
#     4  11  23  37  57  86 120 152 181 226 287 344
#     4  10  21  37  56  80 112 150 189 229 271 326
#     4  10  19  30  57  85 104 139 188 244 269 309
#
# _framework density 24.755614000000001
#
# number of rings (size 3 to 8) (size 9 to 14) (size 15 to 20)
#    0.000    1.600    6.000    2.400    0.000    0.800 
#    0.000    0.000    0.000    2.400    0.000    1.400 
#    0.000    0.000    0.000    0.000    0.000    0.000 
#
# Total GULP energy -55838.350370 kJ/mol
# GULP energy per Si atom -5583.835037 kJ/mol
# Density = 2.469927 g / cm^3
# Si number density = 24.755614 Si / 1000 Ang^3
#
#
#
# Elastic Constant Matrix: (Units=GPa)
#
#
# Indices 1 2 3 4 5 6 
#
# 1 241.1438 84.7389 64.2966 1.0155 -60.3649 -45.9674
# 2 84.7389 149.7964 46.5329 13.3303 -48.9865 -33.0760
# 3 64.2966 46.5329 121.4491 -12.5539 -56.8635 -5.0946
# 4 1.0155 13.3303 -12.5539 36.7566 -0.4623 -10.9455
# 5 -60.3649 -48.9865 -56.8635 -0.4623 50.5483 5.7485
# 6 -45.9674 -33.0760 -5.0946 -10.9455 5.7485 53.3216
#
#
#
# Elastic Compliance Matrix: (Units=1/GPa)
#
#
# Indices 1 2 3 4 5 6 
#
# 1 0.007287 -0.000583 0.000692 0.001988 0.008308 0.005499
# 2 -0.000583 0.011682 0.001090 -0.002160 0.011241 0.005193
# 3 0.000692 0.001090 0.019152 0.007026 0.023261 0.002037
# 4 0.001988 -0.002160 0.007026 0.032480 0.007699 0.006883
# 5 0.008308 0.011241 0.023261 0.007699 0.065600 0.010866
# 6 0.005499 0.005193 0.002037 0.006883 0.010866 0.027152
#
#
# Mechanical properties :
#
#
# Convention : Reuss Voigt Hill
#
# Bulk Modulus (GPa) = 24.67957 100.39182 62.53569
# Shear Modulus (GPa) = 28.65981 49.24670 38.95325
#
# Velocity S-wave (km/s) = 3.40620 4.46501 3.97105
# Velocity P-wave (km/s) = 5.04585 8.19896 6.80748
#
# Compressibility (1/GPa) = 0.04051935
#
# Stress axis : x y z
#
# Youngs Moduli (GPa) = 137.23321 85.60533 52.21273
#
# Poissons Ratio (x) = 0.04989 -0.03611
# Poissons Ratio (y) = 0.07998 -0.05694
# Poissons Ratio (z) = -0.09492 -0.09335
#
# Static dielectric constant tensor:
#      x y z
#    x 2.067980 -0.033820 0.136110 
#    y -0.033820 1.999870 0.026390 
#    z 0.136110 0.026390 2.085510 
# 
# From -- ./inp_files/92296.got.cif
#   From: 2010.05.17/outbox.cif.g08.bks.cpg/sg2_47_cif.got.tgz:92296.got - 2010.06.03 11:33:40.
