data_PCOD9081580
_publ_section_title
;
Structure prediction by ZEFSAII (Michael W. Deem and Ramdas Pophale) SiO2 
 PCOD9081580
Probable space group: P -1
;
_chemical_formula_sum "Si O2"
_cell_formula_units_Z 16
_cell_length_a 9.744841
_cell_length_b 12.462906
_cell_length_c 10.680567
_cell_angle_alpha 140.794549
_cell_angle_beta 121.950233
_cell_angle_gamma 76.503191
_cell_volume 656.892345
_symmetry_space_group_name_H-M "P -1"
_symmetry_group_IT_number 2
_symmetry_cell_setting 'triclinic'
loop_
_space_group_symop_operation_xyz
x,y,z
-x,-y,-z
loop_
_atom_site_type_symbol
_atom_site_label
_atom_site_fract_x
_atom_site_fract_y
_atom_site_fract_z
Si Si1 0.461503 0.071855 0.681649
Si Si2 0.205122 0.942686 0.079213
Si Si3 0.937197 0.587545 0.194275
Si Si4 0.278263 0.684290 0.321266
Si Si5 0.849284 0.863387 0.517075
Si Si6 0.496511 0.540909 0.682968
Si Si7 0.156209 0.205533 0.902572
Si Si8 0.160206 0.278754 0.253625
O O1 0.353868 0.895321 0.545188
O O2 0.500000 0.000000 0.500000
O O3 0.642651 0.137579 0.898895
O O4 0.328366 0.174403 0.679436
O O5 0.180555 0.044596 0.287142
O O6 0.232737 0.108073 0.145644
O O7 0.024258 0.790134 0.832809
O O8 0.885940 0.676574 0.369883
O O9 0.896353 0.696937 0.152750
O O10 0.136788 0.625008 0.307594
O O11 0.818644 0.387675 0.922026
O O12 0.421143 0.591713 0.325671
O O13 0.019567 0.005696 0.664973
O O14 0.500000 0.500000 0.500000
O O15 0.294453 0.459529 0.537368
O O16 0.634902 0.738751 0.952409
O O17 0.132373 0.289426 0.101367
#
# Coordination Sequence:
#
# PCOD9081580 Si02
#       8
#     2   2   2   2   2   2   2   2
#     4  10  19  32  52  79 109 137 179 216 255 318
#     4   9  18  31  51  75 101 142 184 213 249 311
#     4  10  20  33  53  81 111 138 167 220 276 317
#     4  10  19  33  54  79 106 138 182 214 260 328
#     4  10  19  33  53  79 115 137 166 222 272 311
#     4   9  17  30  51  78 103 134 177 219 260 303
#     4   9  17  28  50  79 103 133 168 214 265 312
#     4   9  16  30  51  73 101 138 186 217 246 305
#
# _framework density 24.357109999999999
#
# number of rings (size 3 to 8) (size 9 to 14) (size 15 to 20)
#    0.000    2.500    2.500    0.375    0.000    0.000 
#    0.000    2.500    0.000   21.000    0.000   17.500 
#    0.000    0.000    0.000    0.000    0.000    0.125 
#
# Total GULP energy -89224.442473 kJ/mol
# GULP energy per Si atom -5576.527655 kJ/mol
# Density = 2.430167 g / cm^3
# Si number density = 24.357110 Si / 1000 Ang^3
#
#
#
# Elastic Constant Matrix: (Units=GPa)
#
#
# Indices 1 2 3 4 5 6 
#
# 1 72.3572 11.8589 51.3696 1.8940 18.7865 -13.0408
# 2 11.8589 52.8802 7.7611 -14.5700 8.0882 6.7252
# 3 51.3696 7.7611 84.1551 -12.5988 28.4701 -8.8429
# 4 1.8940 -14.5700 -12.5988 24.6378 -4.3374 1.9641
# 5 18.7865 8.0882 28.4701 -4.3374 44.7141 -6.9294
# 6 -13.0408 6.7252 -8.8429 1.9641 -6.9294 26.7913
#
#
#
# Elastic Compliance Matrix: (Units=1/GPa)
#
#
# Indices 1 2 3 4 5 6 
#
# 1 0.034625 -0.012931 -0.022524 -0.022619 0.002248 0.014905
# 2 -0.012931 0.029481 0.009078 0.023193 -0.005575 -0.013841
# 3 -0.022524 0.009078 0.030947 0.021592 -0.010942 -0.007441
# 4 -0.022619 0.023193 0.021592 0.067579 -0.004330 -0.015779
# 5 0.002248 -0.005575 -0.010942 -0.004330 0.030056 0.006974
# 6 0.014905 -0.013841 -0.007441 -0.015779 0.006974 0.048560
#
#
# Mechanical properties :
#
#
# Convention : Reuss Voigt Hill
#
# Bulk Modulus (GPa) = 23.64049 39.04130 31.34089
# Shear Modulus (GPa) = 16.22850 28.45551 22.34200
#
# Velocity S-wave (km/s) = 2.58403 3.42169 3.03193
# Velocity P-wave (km/s) = 4.31622 5.62798 5.01517
#
# Compressibility (1/GPa) = 0.04230031
#
# Stress axis : x y z
#
# Youngs Moduli (GPa) = 28.88099 33.91974 32.31364
#
# Poissons Ratio (x) = 0.43861 0.72782
# Poissons Ratio (y) = 0.37346 -0.29335
# Poissons Ratio (z) = 0.65051 -0.30793
#
# Static dielectric constant tensor:
#      x y z
#    x 1.977600 0.003160 0.032040 
#    y 0.003160 2.014220 0.008430 
#    z 0.032040 0.008430 1.998130 
# 
# From -- ./inp_files/284233.got.cif
#   From: 2010.05.17/outbox.cif.g08.bks.cpg/sg2_143_cif.got.tgz:284233.got - 2010.06.03 11:33:40.
