data_PCOD9081956
_publ_section_title
;
Structure prediction by ZEFSAII (Michael W. Deem and Ramdas Pophale) SiO2 
 PCOD9081956
Probable space group: P -1
;
_chemical_formula_sum "Si O2"
_cell_formula_units_Z 16
_cell_length_a 14.978236
_cell_length_b 15.446203
_cell_length_c 8.906551
_cell_angle_alpha 39.916199
_cell_angle_beta 143.550663
_cell_angle_gamma 142.594624
_cell_volume 695.295881
_symmetry_space_group_name_H-M "P -1"
_symmetry_group_IT_number 2
_symmetry_cell_setting 'triclinic'
loop_
_space_group_symop_operation_xyz
x,y,z
-x,-y,-z
loop_
_atom_site_type_symbol
_atom_site_label
_atom_site_fract_x
_atom_site_fract_y
_atom_site_fract_z
Si Si1 0.159641 0.332684 0.286051
Si Si2 0.893126 0.866850 0.239055
Si Si3 0.882884 0.173974 0.863348
Si Si4 0.149659 0.380414 0.721506
Si Si5 0.399809 0.401999 0.262516
Si Si6 0.627423 0.102201 0.849817
Si Si7 0.285030 0.048165 0.574588
Si Si8 0.227290 0.563122 0.301361
O O1 0.175454 0.222273 0.578610
O O2 0.327969 0.423950 0.294015
O O3 0.124195 0.454037 0.170611
O O4 0.009951 0.231915 0.102582
O O5 0.830506 0.750271 0.172089
O O6 0.095608 0.930679 0.434052
O O7 0.862670 0.012647 0.993450
O O8 0.705067 0.144261 0.733738
O O9 0.981855 0.300051 0.703729
O O10 0.142690 0.493500 0.438363
O O11 0.315308 0.460120 0.944332
O O12 0.309348 0.217865 0.371211
O O13 0.596818 0.452078 0.444184
O O14 0.426959 0.039749 0.673093
O O15 0.712337 0.258126 0.856214
O O16 0.675288 0.986137 0.157125
#
# Coordination Sequence:
#
# PCOD9081956 Si02
#       8
#     2   2   2   2   2   2   2   2
#     4  10  19  32  58  87 105 144 189 233 268 322
#     4  11  19  36  61  87 108 140 192 237 276 317
#     4  11  20  35  58  85 112 144 187 235 271 324
#     4  10  22  35  59  84 109 151 187 228 274 331
#     4  10  19  36  61  83 113 141 189 238 275 317
#     4  10  22  36  56  83 117 149 178 227 284 333
#     4  10  19  36  60  83 109 145 183 232 283 321
#     4  10  22  37  53  82 120 152 179 221 282 341
#
# _framework density 23.011785
#
# number of rings (size 3 to 8) (size 9 to 14) (size 15 to 20)
#    0.000    1.750    3.750    2.250    0.000    1.000 
#    0.000    0.625    0.000    0.000    0.000    0.000 
#    0.000    0.000    0.000    0.000    0.000    0.000 
#
# Total GULP energy -89485.709254 kJ/mol
# GULP energy per Si atom -5592.856828 kJ/mol
# Density = 2.295941 g / cm^3
# Si number density = 23.011785 Si / 1000 Ang^3
#
#
#
# Elastic Constant Matrix: (Units=GPa)
#
#
# Indices 1 2 3 4 5 6 
#
# 1 125.4829 -0.4237 17.7984 6.5978 -15.5874 19.5964
# 2 -0.4237 48.8420 4.3628 -1.9339 -4.6492 3.2269
# 3 17.7984 4.3628 53.8201 -5.9114 -13.4729 2.8897
# 4 6.5978 -1.9339 -5.9114 18.6753 2.3764 -3.4579
# 5 -15.5874 -4.6492 -13.4729 2.3764 35.6463 -0.5563
# 6 19.5964 3.2269 2.8897 -3.4579 -0.5563 16.9248
#
#
#
# Elastic Compliance Matrix: (Units=1/GPa)
#
#
# Indices 1 2 3 4 5 6 
#
# 1 0.011711 0.001451 -0.002971 -0.008254 0.004506 -0.014867
# 2 0.001451 0.021224 -0.001197 -0.000067 0.002870 -0.005442
# 3 -0.002971 -0.001197 0.021981 0.007373 0.006387 0.001631
# 4 -0.008254 -0.000067 0.007373 0.063294 -0.004722 0.021087
# 5 0.004506 0.002870 0.006387 -0.004722 0.033021 -0.006734
# 6 -0.014867 -0.005442 0.001631 0.021087 -0.006734 0.081145
#
#
# Mechanical properties :
#
#
# Convention : Reuss Voigt Hill
#
# Bulk Modulus (GPa) = 20.20931 30.17999 25.19465
# Shear Modulus (GPa) = 19.66153 28.00978 23.83566
#
# Velocity S-wave (km/s) = 2.92620 3.49261 3.22188
# Velocity P-wave (km/s) = 4.49645 5.42291 4.98127
#
# Compressibility (1/GPa) = 0.04948215
#
# Stress axis : x y z
#
# Youngs Moduli (GPa) = 85.39044 47.11695 45.49399
#
# Poissons Ratio (x) = -0.06838 0.13516
# Poissons Ratio (y) = -0.12393 0.05446
# Poissons Ratio (z) = 0.25369 0.05640
#
# Static dielectric constant tensor:
#      x y z
#    x 1.902040 0.011720 0.008300 
#    y 0.011720 1.842020 0.027810 
#    z 0.008300 0.027810 1.854180 
# 
# From -- ./inp_files/179118.got.cif
#   From: 2010.05.17/outbox.cif.g08.bks.cpg/sg2_90_cif.got.tgz:179118.got - 2010.06.03 11:33:40.
