data_PCOD9081634
_publ_section_title
;
Structure prediction by ZEFSAII (Michael W. Deem and Ramdas Pophale) SiO2 
 PCOD9081634
Probable space group: P -1
;
_chemical_formula_sum "Si O2"
_cell_formula_units_Z 16
_cell_length_a 12.399630
_cell_length_b 15.153732
_cell_length_c 22.857255
_cell_angle_alpha 22.421125
_cell_angle_beta 24.055627
_cell_angle_gamma 33.096861
_cell_volume 667.175168
_symmetry_space_group_name_H-M "P -1"
_symmetry_group_IT_number 2
_symmetry_cell_setting 'triclinic'
loop_
_space_group_symop_operation_xyz
x,y,z
-x,-y,-z
loop_
_atom_site_type_symbol
_atom_site_label
_atom_site_fract_x
_atom_site_fract_y
_atom_site_fract_z
Si Si1 0.430484 0.746490 0.661150
Si Si2 0.577934 0.299172 0.129354
Si Si3 0.586359 0.133472 0.800916
Si Si4 0.662388 0.301994 0.878907
Si Si5 0.791643 0.855712 0.316006
Si Si6 0.174571 0.295436 0.196159
Si Si7 0.976838 0.864973 0.500711
Si Si8 0.085187 0.135666 0.104084
O O1 0.576802 0.543096 0.746616
O O2 0.540305 0.738112 0.545617
O O3 0.116983 0.723700 0.842901
O O4 0.500000 0.000000 0.500000
O O5 0.294820 0.213343 0.348506
O O6 0.698451 0.061370 0.194226
O O7 0.500000 0.500000 0.000000
O O8 0.795291 0.427466 0.984839
O O9 0.771896 0.233944 0.595712
O O10 0.784941 0.051082 0.802621
O O11 0.342636 0.266191 0.867338
O O12 0.445091 0.900279 0.987237
O O13 0.978255 0.292276 0.734574
O O14 0.484468 0.248079 0.057742
O O15 0.932773 0.988066 0.219923
O O16 0.058525 0.220128 0.362700
O O17 0.022716 0.142185 0.316456
#
# Coordination Sequence:
#
# PCOD9081634 Si02
#       8
#     2   2   2   2   2   2   2   2
#     4  10  19  32  53  78 109 151 195 235 287 355
#     4  10  20  37  63  88 115 156 202 247 297 354
#     4   9  18  33  53  81 117 151 194 244 290 355
#     4  10  20  34  55  82 119 161 196 243 300 351
#     4  10  20  35  55  84 119 156 198 245 299 357
#     4   9  18  35  60  83 114 157 197 245 297 347
#     4   9  18  34  59  87 115 154 199 243 294 351
#     4   9  18  32  53  79 111 152 188 234 296 347
#
# _framework density 23.981708000000001
#
# number of rings (size 3 to 8) (size 9 to 14) (size 15 to 20)
#    0.000    2.500    0.000    2.625    0.000    1.500 
#    0.000    5.000    0.000   58.500    0.000    0.000 
#    0.000    0.000    0.000    0.000    0.000    0.000 
#
# Total GULP energy -89129.280259 kJ/mol
# GULP energy per Si atom -5570.580016 kJ/mol
# Density = 2.392712 g / cm^3
# Si number density = 23.981708 Si / 1000 Ang^3
#
#
#
# Elastic Constant Matrix: (Units=GPa)
#
#
# Indices 1 2 3 4 5 6 
#
# 1 61.7958 17.3668 27.0349 3.8601 10.5623 2.2201
# 2 17.3668 147.8888 82.1223 40.9921 15.7378 -19.9111
# 3 27.0349 82.1223 133.5709 28.4718 1.7172 6.0987
# 4 3.8601 40.9921 28.4718 50.8247 18.4844 -4.4725
# 5 10.5623 15.7378 1.7172 18.4844 38.7428 -2.2355
# 6 2.2201 -19.9111 6.0987 -4.4725 -2.2355 30.3737
#
#
#
# Elastic Compliance Matrix: (Units=1/GPa)
#
#
# Indices 1 2 3 4 5 6 
#
# 1 0.019092 -0.000123 -0.004424 0.003500 -0.006662 -0.000563
# 2 -0.000123 0.014346 -0.008098 -0.005289 -0.002329 0.010089
# 3 -0.004424 -0.008098 0.014485 -0.003860 0.005229 -0.008077
# 4 0.003500 -0.005289 -0.003860 0.030710 -0.013252 0.000598
# 5 -0.006662 -0.002329 0.005229 -0.013252 0.034578 -0.001496
# 6 -0.000563 0.010089 -0.008077 0.000598 -0.001496 0.041178
#
#
# Mechanical properties :
#
#
# Convention : Reuss Voigt Hill
#
# Bulk Modulus (GPa) = 44.18162 66.25595 55.21878
# Shear Modulus (GPa) = 26.70613 38.43699 32.57156
#
# Velocity S-wave (km/s) = 3.34069 4.00780 3.68935
# Velocity P-wave (km/s) = 5.77437 7.00744 6.42058
#
# Compressibility (1/GPa) = 0.02263385
#
# Stress axis : x y z
#
# Youngs Moduli (GPa) = 52.37714 69.70816 69.03534
#
# Poissons Ratio (x) = 0.00855 0.30539
# Poissons Ratio (y) = 0.00642 0.55907
# Poissons Ratio (z) = 0.23170 0.56452
#
# Static dielectric constant tensor:
#      x y z
#    x 1.991850 0.010290 -0.003370 
#    y 0.010290 1.962680 0.028750 
#    z -0.003370 0.028750 2.017050 
# 
# From -- ./inp_files/619727.got.cif
#   From: 2010.05.17/outbox.cif.g08.bks.cpg/sg2_310_cif.got.tgz:619727.got - 2010.06.03 11:33:40.
