data_PCOD9081777
_publ_section_title
;
Structure prediction by ZEFSAII (Michael W. Deem and Ramdas Pophale) SiO2 
 PCOD9081777
Probable space group: P -1
;
_chemical_formula_sum "Si O2"
_cell_formula_units_Z 16
_cell_length_a 10.743682
_cell_length_b 9.872570
_cell_length_c 9.340696
_cell_angle_alpha 81.382769
_cell_angle_beta 97.187737
_cell_angle_gamma 42.620228
_cell_volume 620.951799
_symmetry_space_group_name_H-M "P -1"
_symmetry_group_IT_number 2
_symmetry_cell_setting 'triclinic'
loop_
_space_group_symop_operation_xyz
x,y,z
-x,-y,-z
loop_
_atom_site_type_symbol
_atom_site_label
_atom_site_fract_x
_atom_site_fract_y
_atom_site_fract_z
Si Si1 0.577931 0.158760 0.149953
Si Si2 0.268828 0.484192 0.253365
Si Si3 0.186118 0.163263 0.530292
Si Si4 0.839555 0.752662 0.072364
Si Si5 0.905355 0.915520 0.849519
Si Si6 0.723230 0.271884 0.986212
Si Si7 0.219193 0.406746 0.695934
Si Si8 0.555554 0.181986 0.594668
O O1 0.380533 0.292695 0.185930
O O2 0.743276 0.015624 0.323024
O O3 0.651177 0.984494 0.078446
O O4 0.566710 0.315199 0.046519
O O5 0.303278 0.603972 0.170297
O O6 0.388351 0.376960 0.433845
O O7 0.042446 0.631800 0.200022
O O8 0.205572 0.286665 0.604549
O O9 0.964581 0.343849 0.411985
O O10 0.341761 0.029324 0.443598
O O11 0.811079 0.622332 0.143476
O O12 0.868201 0.788640 0.911777
O O13 0.843980 0.044736 0.966405
O O14 0.756672 0.089715 0.679000
O O15 0.129070 0.769230 0.881688
O O16 0.437292 0.272683 0.712315
#
# Coordination Sequence:
#
# PCOD9081777 Si02
#       8
#     2   2   2   2   2   2   2   2
#     4   9  17  32  56  79 100 135 182 217 251 313
#     4  10  19  32  55  82 105 134 179 219 259 314
#     4   9  19  34  53  82 110 138 172 217 266 313
#     4   9  19  36  54  76 107 144 176 211 260 317
#     4   9  20  36  55  77 109 140 174 223 266 308
#     4   9  18  37  57  73 103 149 178 207 268 323
#     4  10  19  34  57  76 106 147 178 207 261 323
#     4  11  21  34  53  84 111 133 175 228 263 300
#
# _framework density 25.766897
#
# number of rings (size 3 to 8) (size 9 to 14) (size 15 to 20)
#    0.000    2.500    0.000    3.750    0.000    3.000 
#    0.000    9.375    0.000    0.000    0.000    0.000 
#    0.000    0.000    0.000    0.000    0.000    0.000 
#
# Total GULP energy -89257.903825 kJ/mol
# GULP energy per Si atom -5578.618989 kJ/mol
# Density = 2.570825 g / cm^3
# Si number density = 25.766897 Si / 1000 Ang^3
#
#
#
# Elastic Constant Matrix: (Units=GPa)
#
#
# Indices 1 2 3 4 5 6 
#
# 1 68.7165 21.0715 40.3121 0.6826 -4.8932 -20.5651
# 2 21.0715 96.5827 16.3144 -8.6322 -11.8500 -18.1880
# 3 40.3121 16.3144 143.1219 -23.1749 11.2131 -6.5399
# 4 0.6826 -8.6322 -23.1749 27.4848 -4.6729 2.3402
# 5 -4.8932 -11.8500 11.2131 -4.6729 36.0020 -1.6037
# 6 -20.5651 -18.1880 -6.5399 2.3402 -1.6037 27.4947
#
#
#
# Elastic Compliance Matrix: (Units=1/GPa)
#
#
# Indices 1 2 3 4 5 6 
#
# 1 0.025113 -0.000978 -0.007909 -0.008175 0.005263 0.017259
# 2 -0.000978 0.013126 -0.000657 0.003821 0.005234 0.007775
# 3 -0.007909 -0.000657 0.010800 0.008869 -0.003715 -0.004753
# 4 -0.008175 0.003821 0.008869 0.046247 0.003154 -0.005230
# 5 0.005263 0.005234 -0.003715 0.003154 0.032143 0.008121
# 6 0.017259 0.007775 -0.004753 -0.005230 0.008121 0.054211
#
#
# Mechanical properties :
#
#
# Convention : Reuss Voigt Hill
#
# Bulk Modulus (GPa) = 33.38804 51.53523 42.46164
# Shear Modulus (GPa) = 23.72906 33.57784 28.65345
#
# Velocity S-wave (km/s) = 3.03795 3.61382 3.33832
# Velocity P-wave (km/s) = 5.02905 6.12020 5.60126
#
# Compressibility (1/GPa) = 0.02995084
#
# Stress axis : x y z
#
# Youngs Moduli (GPa) = 39.81932 76.18421 92.59441
#
# Poissons Ratio (x) = 0.07450 0.73237
# Poissons Ratio (y) = 0.03894 0.06083
# Poissons Ratio (z) = 0.31495 0.05005
#
# Static dielectric constant tensor:
#      x y z
#    x 2.042970 0.031220 -0.026220 
#    y 0.031220 2.103100 -0.005240 
#    z -0.026220 -0.005240 2.074230 
# 
# From -- ./inp_files/425646.got.cif
#   From: 2010.05.17/outbox.cif.g08.bks.cpg/sg2_213_cif.got.tgz:425646.got - 2010.06.03 11:33:40.
