data_PCOD9081852
_publ_section_title
;
Structure prediction by ZEFSAII (Michael W. Deem and Ramdas Pophale) SiO2 
 PCOD9081852
Probable space group: P -1
;
_chemical_formula_sum "Si O2"
_cell_formula_units_Z 16
_cell_length_a 6.408605
_cell_length_b 8.940530
_cell_length_c 24.825556
_cell_angle_alpha 121.839075
_cell_angle_beta 117.464500
_cell_angle_gamma 102.179602
_cell_volume 855.614389
_symmetry_space_group_name_H-M "P -1"
_symmetry_group_IT_number 2
_symmetry_cell_setting 'triclinic'
loop_
_space_group_symop_operation_xyz
x,y,z
-x,-y,-z
loop_
_atom_site_type_symbol
_atom_site_label
_atom_site_fract_x
_atom_site_fract_y
_atom_site_fract_z
Si Si1 0.915229 0.346892 0.706067
Si Si2 0.871849 0.766479 0.913959
Si Si3 0.279001 0.813400 0.130259
Si Si4 0.088014 0.493067 0.876243
Si Si5 0.222121 0.998011 0.451331
Si Si6 0.359797 0.467632 0.050802
Si Si7 0.644318 0.667948 0.392217
Si Si8 0.445025 0.690750 0.755479
O O1 0.865912 0.120426 0.639628
O O2 0.614375 0.323448 0.660069
O O3 0.026283 0.416869 0.792975
O O4 0.150762 0.531235 0.726117
O O5 0.648685 0.588774 0.897900
O O6 0.706346 0.734041 0.832877
O O7 0.100478 0.709962 0.923173
O O8 0.000000 0.000000 0.000000
O O9 0.414815 0.700837 0.097491
O O10 0.174359 0.703082 0.155693
O O11 0.484327 0.074801 0.203076
O O12 0.970572 0.714927 0.044259
O O13 0.383755 0.537530 0.942430
O O14 0.944340 0.833100 0.425564
O O15 0.500000 0.000000 0.500000
O O16 0.306367 0.236006 0.522956
O O17 0.566348 0.432398 0.323305
#
# Coordination Sequence:
#
# PCOD9081852 Si02
#       8
#     2   2   2   2   2   2   2   2
#     4  10  19  32  56  84 108 138 180 225 270 321
#     4  11  21  36  54  77 109 139 185 238 274 312
#     4  10  23  37  53  73 111 149 186 231 274 321
#     4  11  22  37  56  79 106 147 189 225 277 328
#     4   8  16  30  53  83 114 140 165 219 272 322
#     4  10  21  40  53  72 106 152 192 226 274 326
#     4   9  17  32  53  84 113 136 177 220 267 324
#     4  11  20  35  54  81 110 141 182 230 271 317
#
# _framework density 18.700013999999999
#
# number of rings (size 3 to 8) (size 9 to 14) (size 15 to 20)
#    0.000    2.000    3.750    0.375    0.000    1.500 
#    2.250    0.000    0.000    0.750    0.000   30.625 
#    0.000    0.000    0.000    0.000    0.000    0.000 
#
# Total GULP energy -89108.486704 kJ/mol
# GULP energy per Si atom -5569.280419 kJ/mol
# Density = 1.865745 g / cm^3
# Si number density = 18.700014 Si / 1000 Ang^3
#
#
#
# Elastic Constant Matrix: (Units=GPa)
#
#
# Indices 1 2 3 4 5 6 
#
# 1 114.7801 33.8390 49.2362 6.3943 -6.9937 -24.5686
# 2 33.8390 68.9023 41.8708 17.4552 -10.0032 -8.7081
# 3 49.2362 41.8708 107.2408 25.8598 -30.7502 -19.7916
# 4 6.3943 17.4552 25.8598 20.5608 -6.6204 -4.0029
# 5 -6.9937 -10.0032 -30.7502 -6.6204 41.1831 -5.0923
# 6 -24.5686 -8.7081 -19.7916 -4.0029 -5.0923 16.6668
#
#
#
# Elastic Compliance Matrix: (Units=1/GPa)
#
#
# Indices 1 2 3 4 5 6 
#
# 1 0.015171 -0.004967 -0.002011 0.007077 0.003497 0.020148
# 2 -0.004967 0.022194 -0.004577 -0.012960 -0.001540 -0.004745
# 3 -0.002011 -0.004577 0.027253 -0.017878 0.019569 0.028691
# 4 0.007077 -0.012960 -0.017878 0.079270 -0.002464 0.000717
# 5 0.003497 -0.001540 0.019569 -0.002464 0.043707 0.040351
# 6 0.020148 -0.004745 0.028691 0.000717 0.040351 0.133793
#
#
# Mechanical properties :
#
#
# Convention : Reuss Voigt Hill
#
# Bulk Modulus (GPa) = 24.09244 60.09059 42.09151
# Shear Modulus (GPa) = 13.95347 26.74727 20.35037
#
# Velocity S-wave (km/s) = 2.73458 3.78608 3.30245
# Velocity P-wave (km/s) = 4.78353 7.16354 6.09091
#
# Compressibility (1/GPa) = 0.04150679
#
# Stress axis : x y z
#
# Youngs Moduli (GPa) = 65.91502 45.05696 36.69364
#
# Poissons Ratio (x) = 0.22381 0.07380
# Poissons Ratio (y) = 0.32742 0.16794
# Poissons Ratio (z) = 0.13258 0.20622
#
# Static dielectric constant tensor:
#      x y z
#    x 1.700090 -0.003930 -0.023100 
#    y -0.003930 1.624250 0.000380 
#    z -0.023100 0.000380 1.702530 
# 
# From -- ./inp_files/39875.got.cif
#   From: 2010.05.17/outbox.cif.g08.bks.cpg/sg2_20_cif.got.tgz:39875.got - 2010.06.03 11:33:40.
