data_PCOD9081153
_publ_section_title
;
Structure prediction by ZEFSAII (Michael W. Deem and Ramdas Pophale) SiO2 
 PCOD9081153
Probable space group: P -1
;
_chemical_formula_sum "Si O2"
_cell_formula_units_Z 16
_cell_length_a 6.746096
_cell_length_b 15.291572
_cell_length_c 11.458330
_cell_angle_alpha 29.543990
_cell_angle_beta 85.433256
_cell_angle_gamma 86.797718
_cell_volume 580.779195
_symmetry_space_group_name_H-M "P -1"
_symmetry_group_IT_number 2
_symmetry_cell_setting 'triclinic'
loop_
_space_group_symop_operation_xyz
x,y,z
-x,-y,-z
loop_
_atom_site_type_symbol
_atom_site_label
_atom_site_fract_x
_atom_site_fract_y
_atom_site_fract_z
Si Si1 0.824074 0.180351 0.590249
Si Si2 0.532378 0.304061 0.173356
Si Si3 0.206383 0.397586 0.622493
Si Si4 0.393284 0.129254 0.593787
Si Si5 0.268174 0.016742 0.957283
Si Si6 0.874686 0.585201 0.137601
Si Si7 0.015845 0.808757 0.666714
Si Si8 0.337539 0.524974 0.244950
O O1 0.624574 0.085086 0.661557
O O2 0.787969 0.387873 0.357983
O O3 0.998030 0.172081 0.495211
O O4 0.849318 0.114372 0.797389
O O5 0.398182 0.158400 0.419750
O O6 0.760118 0.258728 0.246512
O O7 0.500000 0.500000 0.000000
O O8 0.531699 0.332622 0.000763
O O9 0.208882 0.210529 0.775384
O O10 0.222494 0.350789 0.812370
O O11 0.354853 0.515082 0.395555
O O12 0.000000 0.500000 0.500000
O O13 0.265829 0.999830 0.836202
O O14 0.365820 0.327738 0.418611
O O15 0.500000 0.000000 0.000000
O O16 0.109458 0.570431 0.174037
O O17 0.877483 0.679122 0.902405
O O18 0.000000 0.000000 0.500000
#
# Coordination Sequence:
#
# PCOD9081153 Si02
#       8
#     2   2   2   2   2   2   2   2
#     4  10  19  31  49  76 102 127 163 212 254 288
#     4   8  14  27  50  73  90 120 165 202 231 281
#     4   9  17  31  49  69  97 133 168 201 243 301
#     4   8  15  29  48  70  94 127 166 198 236 295
#     4   9  17  31  49  69  97 133 168 201 243 301
#     4  10  19  31  49  76 102 127 163 212 254 288
#     4  10  19  31  50  77 103 130 161 200 250 307
#     4   8  15  29  48  70  94 127 166 198 236 295
#
# _framework density 27.549194
#
# number of rings (size 3 to 8) (size 9 to 14) (size 15 to 20)
#    0.000    3.000    0.000    1.125    0.000    0.000 
#    0.000   11.250    0.000    0.000    0.000   56.875 
#    0.000    0.000    0.000    0.000    0.000    0.000 
#
# Total GULP energy -89458.890926 kJ/mol
# GULP energy per Si atom -5591.180683 kJ/mol
# Density = 2.748649 g / cm^3
# Si number density = 27.549194 Si / 1000 Ang^3
#
#
#
# Elastic Constant Matrix: (Units=GPa)
#
#
# Indices 1 2 3 4 5 6 
#
# 1 93.5349 44.4167 39.2771 24.0226 4.5962 -14.6404
# 2 44.4167 131.9530 80.8020 58.1871 -4.1970 -15.2143
# 3 39.2771 80.8020 208.8938 77.9156 -3.6757 -7.4081
# 4 24.0226 58.1871 77.9156 95.5140 -9.7800 4.6969
# 5 4.5962 -4.1970 -3.6757 -9.7800 47.5262 17.9119
# 6 -14.6404 -15.2143 -7.4081 4.6969 17.9119 39.4621
#
#
#
# Elastic Compliance Matrix: (Units=1/GPa)
#
#
# Indices 1 2 3 4 5 6 
#
# 1 0.014030 -0.002864 -0.000630 -0.002030 -0.004425 0.006233
# 2 -0.002864 0.012971 -0.002139 -0.005878 -0.001869 0.005085
# 3 -0.000630 -0.002139 0.007602 -0.004924 -0.001102 0.001455
# 4 -0.002030 -0.005878 -0.004924 0.019750 0.006916 -0.009434
# 5 -0.004425 -0.001869 -0.001102 0.006916 0.028857 -0.016490
# 6 0.006233 0.005085 0.001455 -0.009434 -0.016490 0.038495
#
#
# Mechanical properties :
#
#
# Convention : Reuss Voigt Hill
#
# Bulk Modulus (GPa) = 42.84949 84.81926 63.83437
# Shear Modulus (GPa) = 35.52413 54.49286 45.00849
#
# Velocity S-wave (km/s) = 3.59483 4.45232 4.04635
# Velocity P-wave (km/s) = 5.72870 7.56875 6.71208
#
# Compressibility (1/GPa) = 0.02333750
#
# Stress axis : x y z
#
# Youngs Moduli (GPa) = 71.27559 77.09318 131.54910
#
# Poissons Ratio (x) = 0.22079 0.08287
# Poissons Ratio (y) = 0.20413 0.28137
# Poissons Ratio (z) = 0.04490 0.16489
#
# Static dielectric constant tensor:
#      x y z
#    x 2.195050 0.060240 0.010820 
#    y 0.060240 2.211320 0.125940 
#    z 0.010820 0.125940 2.150490 
# 
# From -- ./inp_files/523715.got.cif
#   From: 2010.05.17/outbox.cif.g08.bks.cpg/sg2_262_cif.got.tgz:523715.got - 2010.06.03 11:33:40.
