data_PCOD9081432
_publ_section_title
;
Structure prediction by ZEFSAII (Michael W. Deem and Ramdas Pophale) SiO2 
 PCOD9081432
Probable space group: P -1
;
_chemical_formula_sum "Si O2"
_cell_formula_units_Z 14
_cell_length_a 12.635027
_cell_length_b 9.281433
_cell_length_c 11.529193
_cell_angle_alpha 29.127260
_cell_angle_beta 83.952066
_cell_angle_gamma 92.041998
_cell_volume 631.270626
_symmetry_space_group_name_H-M "P -1"
_symmetry_group_IT_number 2
_symmetry_cell_setting 'triclinic'
loop_
_space_group_symop_operation_xyz
x,y,z
-x,-y,-z
loop_
_atom_site_type_symbol
_atom_site_label
_atom_site_fract_x
_atom_site_fract_y
_atom_site_fract_z
Si Si1 0.670560 0.209764 0.374530
Si Si2 0.414218 0.009561 0.119966
Si Si3 0.061184 0.613145 0.294181
Si Si4 0.258012 0.442694 0.447549
Si Si5 0.519155 0.668677 0.537939
Si Si6 0.841059 0.665652 0.204868
Si Si7 0.369011 0.364227 0.091872
O O1 0.521040 0.199423 0.668466
O O2 0.548857 0.198972 0.449824
O O3 0.756919 0.454625 0.272977
O O4 0.676881 0.355812 0.143157
O O5 0.327586 0.796694 0.195343
O O6 0.318964 0.134657 0.363352
O O7 0.479231 0.308030 0.831914
O O8 0.959170 0.584233 0.239938
O O9 0.000000 0.500000 0.500000
O O10 0.123184 0.966687 0.064142
O O11 0.151491 0.425557 0.393207
O O12 0.348925 0.264632 0.531567
O O13 0.215080 0.387895 0.623539
O O14 0.354862 0.143846 0.136254
O O15 0.500000 0.500000 0.000000
#
# Coordination Sequence:
#
# PCOD9081432 Si02
#       7
#     2   2   2   2   2   2   2
#     4  10  20  33  50  74 100 129 158 198 239 290
#     4  10  20  31  45  72  99 129 160 197 234 284
#     4   9  20  31  44  65  92 137 167 202 228 271
#     4  11  19  29  47  66 100 135 164 187 231 282
#     4  10  20  29  46  70  99 131 163 187 228 289
#     4  10  19  32  46  65  99 134 167 198 233 276
#     4  10  19  33  50  70  98 128 160 201 246 287
#
# _framework density 22.177492000000001
#
# number of rings (size 3 to 8) (size 9 to 14) (size 15 to 20)
#    0.000    2.000    2.857    3.000    4.000    0.000 
#    0.000    0.000    0.000    0.000    0.000    0.000 
#    0.000   27.429    0.000    0.000    0.000    0.000 
#
# Total GULP energy -78027.797909 kJ/mol
# GULP energy per Si atom -5573.414136 kJ/mol
# Density = 2.212702 g / cm^3
# Si number density = 22.177492 Si / 1000 Ang^3
#
#
#
# Elastic Constant Matrix: (Units=GPa)
#
#
# Indices 1 2 3 4 5 6 
#
# 1 130.8494 23.2320 36.5744 1.5012 32.5640 20.5532
# 2 23.2320 69.3457 25.2315 -5.4949 5.5903 17.7585
# 3 36.5744 25.2315 185.3786 -18.0941 14.1222 12.4816
# 4 1.5012 -5.4949 -18.0941 31.3410 10.2973 -0.2302
# 5 32.5640 5.5903 14.1222 10.2973 36.6677 6.4557
# 6 20.5532 17.7585 12.4816 -0.2302 6.4557 21.0967
#
#
#
# Elastic Compliance Matrix: (Units=1/GPa)
#
#
# Indices 1 2 3 4 5 6 
#
# 1 0.011312 -0.000826 -0.000800 0.001702 -0.008834 -0.007130
# 2 -0.000826 0.019048 -0.001217 0.002522 0.000147 -0.014527
# 3 -0.000800 -0.001217 0.006421 0.004379 -0.002604 -0.001151
# 4 0.001702 0.002522 0.004379 0.039520 -0.014411 -0.001530
# 5 -0.008834 0.000147 -0.002604 -0.014411 0.040595 -0.002556
# 6 -0.007130 -0.014527 -0.001151 -0.001530 -0.002556 0.068022
#
#
# Mechanical properties :
#
#
# Convention : Reuss Voigt Hill
#
# Bulk Modulus (GPa) = 32.15859 61.73884 46.94871
# Shear Modulus (GPa) = 24.87964 37.85679 31.36822
#
# Velocity S-wave (km/s) = 3.35302 4.13606 3.76495
# Velocity P-wave (km/s) = 5.43345 7.12097 6.33367
#
# Compressibility (1/GPa) = 0.03109589
#
# Stress axis : x y z
#
# Youngs Moduli (GPa) = 88.40517 52.49894 155.73561
#
# Poissons Ratio (x) = 0.04334 0.12462
# Poissons Ratio (y) = 0.07298 0.18948
# Poissons Ratio (z) = 0.07074 0.06387
#
# Static dielectric constant tensor:
#      x y z
#    x 1.891850 0.005020 0.041500 
#    y 0.005020 1.850230 -0.015010 
#    z 0.041500 -0.015010 1.931820 
# 
# From -- ./inp_files/422885.got.cif
#   From: 2010.05.17/outbox.cif.g08.bks.cpg/sg2_212_cif.got.tgz:422885.got - 2010.06.03 11:33:40.
