data_PCOD9081461
_publ_section_title
;
Structure prediction by ZEFSAII (Michael W. Deem and Ramdas Pophale) SiO2 
 PCOD9081461
Probable space group: P -1
;
_chemical_formula_sum "Si O2"
_cell_formula_units_Z 14
_cell_length_a 10.339602
_cell_length_b 5.677249
_cell_length_c 22.052332
_cell_angle_alpha 50.967041
_cell_angle_beta 149.949486
_cell_angle_gamma 119.096464
_cell_volume 497.741059
_symmetry_space_group_name_H-M "P -1"
_symmetry_group_IT_number 2
_symmetry_cell_setting 'triclinic'
loop_
_space_group_symop_operation_xyz
x,y,z
-x,-y,-z
loop_
_atom_site_type_symbol
_atom_site_label
_atom_site_fract_x
_atom_site_fract_y
_atom_site_fract_z
Si Si1 0.210700 0.781007 0.661820
Si Si2 0.206647 0.879229 0.971735
Si Si3 0.307956 0.332618 0.491165
Si Si4 0.204355 0.279923 0.660260
Si Si5 0.932085 0.594155 0.085944
Si Si6 0.499087 0.748643 0.594370
Si Si7 0.212524 0.964848 0.831659
O O1 0.352093 0.519682 0.717571
O O2 0.008627 0.624959 0.647653
O O3 0.350647 0.002698 0.724414
O O4 0.000000 0.000000 0.500000
O O5 0.078535 0.043614 0.830564
O O6 0.108858 0.057855 0.963826
O O7 0.158448 0.532190 0.994623
O O8 0.505408 0.929705 0.074934
O O9 0.500000 0.500000 0.500000
O O10 0.365862 0.472439 0.557042
O O11 0.391171 0.973733 0.568756
O O12 0.081691 0.095264 0.694817
O O13 0.000000 0.500000 0.500000
O O14 0.225224 0.434926 0.243408
O O15 0.770488 0.403045 0.097911
O O16 0.500000 0.000000 0.500000
#
# Coordination Sequence:
#
# PCOD9081461 Si02
#       7
#     2   2   2   2   2   2   2
#     4  10  22  38  52  74 111 153 184 222 269 335
#     4   9  20  32  49  78  99 155 185 215 286 336
#     4  10  21  31  50  73 108 139 189 218 265 332
#     4  10  22  34  53  78 107 147 190 217 281 324
#     4  10  19  32  49  72 112 145 176 221 278 339
#     4  10  21  31  45  77 108 144 178 212 275 339
#     4   9  21  30  55  71 112 143 187 228 273 337
#
# _framework density 28.127077
#
# number of rings (size 3 to 8) (size 9 to 14) (size 15 to 20)
#    0.857    1.429    0.000    2.143   10.000    0.000 
#    0.000    0.000    0.000    0.000    0.000    0.000 
#    0.000   91.429    0.000    0.000    0.000    0.000 
#
# Total GULP energy -78020.749227 kJ/mol
# GULP energy per Si atom -5572.910659 kJ/mol
# Density = 2.806306 g / cm^3
# Si number density = 28.127077 Si / 1000 Ang^3
#
#
#
# Elastic Constant Matrix: (Units=GPa)
#
#
# Indices 1 2 3 4 5 6 
#
# 1 95.1398 66.2997 9.8928 1.9594 0.6020 -2.1905
# 2 66.2997 290.4827 37.7954 21.0617 11.4671 -88.3368
# 3 9.8928 37.7954 62.5956 19.4764 3.9350 -17.0366
# 4 1.9594 21.0617 19.4764 30.3943 5.1509 -7.7527
# 5 0.6020 11.4671 3.9350 5.1509 40.1406 -17.6215
# 6 -2.1905 -88.3368 -17.0366 -7.7527 -17.6215 73.6341
#
#
#
# Elastic Compliance Matrix: (Units=1/GPa)
#
#
# Indices 1 2 3 4 5 6 
#
# 1 0.013887 -0.004876 -0.001433 0.002156 -0.001546 -0.005911
# 2 -0.004876 0.007443 -0.000653 -0.002534 0.002245 0.008904
# 3 -0.001433 -0.000653 0.021233 -0.012468 0.001055 0.003027
# 4 0.002156 -0.002534 -0.012468 0.042662 -0.004650 -0.002482
# 5 -0.001546 0.002245 0.001055 -0.004650 0.028875 0.009312
# 6 -0.005911 0.008904 0.003027 -0.002482 0.009312 0.026753
#
#
# Mechanical properties :
#
#
# Convention : Reuss Voigt Hill
#
# Bulk Modulus (GPa) = 34.91700 75.13264 55.02482
# Shear Modulus (GPa) = 30.42752 51.11582 40.77167
#
# Velocity S-wave (km/s) = 3.29262 4.26763 3.81143
# Velocity P-wave (km/s) = 5.18615 7.14516 6.24297
#
# Compressibility (1/GPa) = 0.02863934
#
# Stress axis : x y z
#
# Youngs Moduli (GPa) = 72.00940 134.35191 47.09641
#
# Poissons Ratio (x) = 0.65510 0.06749
# Poissons Ratio (y) = 0.35112 0.03075
# Poissons Ratio (z) = 0.10320 0.08771
#
# Static dielectric constant tensor:
#      x y z
#    x 2.319190 -0.028440 -0.052440 
#    y -0.028440 2.257910 0.017340 
#    z -0.052440 0.017340 2.281130 
# 
# From -- ./inp_files/609049.got.cif
#   From: 2010.05.17/outbox.cif.g08.bks.cpg/sg2_305_cif.got.tgz:609049.got - 2010.06.03 11:33:40.
