data_PCOD9081092
_publ_section_title
;
Structure prediction by ZEFSAII (Michael W. Deem and Ramdas Pophale) SiO2 
 PCOD9081092
Probable space group: P -1
;
_chemical_formula_sum "Si O2"
_cell_formula_units_Z 14
_cell_length_a 5.057253
_cell_length_b 4.928004
_cell_length_c 23.311103
_cell_angle_alpha 87.931445
_cell_angle_beta 56.570554
_cell_angle_gamma 89.417468
_cell_volume 484.502540
_symmetry_space_group_name_H-M "P -1"
_symmetry_group_IT_number 2
_symmetry_cell_setting 'triclinic'
loop_
_space_group_symop_operation_xyz
x,y,z
-x,-y,-z
loop_
_atom_site_type_symbol
_atom_site_label
_atom_site_fract_x
_atom_site_fract_y
_atom_site_fract_z
Si Si1 0.264561 0.927209 0.920414
Si Si2 0.512728 0.097747 0.224913
Si Si3 0.572346 0.577474 0.348873
Si Si4 0.274822 0.697268 0.489804
Si Si5 0.758663 0.600813 0.924867
Si Si6 0.030431 0.188347 0.367491
Si Si7 0.953021 0.518980 0.788925
O O1 0.369426 0.062363 0.845111
O O2 0.082146 0.661892 0.918308
O O3 0.416544 0.141008 0.083681
O O4 0.000000 0.000000 0.000000
O O5 0.809148 0.239550 0.219813
O O6 0.253856 0.993773 0.304022
O O7 0.311434 0.345228 0.219172
O O8 0.466621 0.784498 0.409329
O O9 0.769808 0.340365 0.359375
O O10 0.821103 0.680243 0.271049
O O11 0.275295 0.425566 0.356986
O O12 0.500000 0.500000 0.500000
O O13 0.132327 0.904247 0.552003
O O14 0.000000 0.500000 0.500000
O O15 0.810700 0.411579 0.865666
O O16 0.500000 0.500000 0.000000
#
# Coordination Sequence:
#
# PCOD9081092 Si02
#       7
#     2   2   2   2   2   2   2
#     4  10  19  31  46  64  85 111 141 174 210 249
#     4   8  14  23  35  50  70  96 126 156 191 235
#     4   8  12  18  27  41  61  87 117 147 179 222
#     4   8  12  16  24  38  58  84 114 144 176 216
#     4  10  19  31  46  64  85 111 141 174 210 249
#     4   8  12  18  27  41  61  87 117 147 179 222
#     4   8  14  23  35  50  70  96 126 156 191 235
#
# _framework density 28.895617000000001
#
# number of rings (size 3 to 8) (size 9 to 14) (size 15 to 20)
#    0.000    3.429    0.000    0.857    0.000    0.000 
#    0.000    0.000    0.000    0.000    0.000    0.000 
#    0.000    0.000    0.000    2.571    0.000   10.000 
#
# Total GULP energy -78296.889005 kJ/mol
# GULP energy per Si atom -5592.634929 kJ/mol
# Density = 2.882985 g / cm^3
# Si number density = 28.895617 Si / 1000 Ang^3
#
#
#
# Elastic Constant Matrix: (Units=GPa)
#
#
# Indices 1 2 3 4 5 6 
#
# 1 165.8360 47.9924 -7.0118 6.3886 -11.4367 9.4565
# 2 47.9924 89.5355 36.1600 1.0001 4.6814 5.7422
# 3 -7.0118 36.1600 338.0335 17.2595 -4.2311 -9.2333
# 4 6.3886 1.0001 17.2595 24.3514 5.6003 0.4400
# 5 -11.4367 4.6814 -4.2311 5.6003 44.0966 15.0299
# 6 9.4565 5.7422 -9.2333 0.4400 15.0299 33.7184
#
#
#
# Elastic Compliance Matrix: (Units=1/GPa)
#
#
# Indices 1 2 3 4 5 6 
#
# 1 0.007970 -0.004576 0.000795 -0.003351 0.004082 -0.003014
# 2 -0.004576 0.014516 -0.001830 0.002626 -0.003124 -0.000332
# 3 0.000795 -0.001830 0.003337 -0.002703 0.000837 0.000665
# 4 -0.003351 0.002626 -0.002703 0.045576 -0.008146 0.002788
# 5 0.004082 -0.003124 0.000837 -0.008146 0.029805 -0.013563
# 6 -0.003014 -0.000332 0.000665 0.002788 -0.013563 0.036750
#
#
# Mechanical properties :
#
#
# Convention : Reuss Voigt Hill
#
# Bulk Modulus (GPa) = 68.48800 83.07621 75.78211
# Shear Modulus (GPa) = 32.45823 54.85091 43.65457
#
# Velocity S-wave (km/s) = 3.35519 4.36161 3.89108
# Velocity P-wave (km/s) = 6.22600 7.36055 6.81692
#
# Compressibility (1/GPa) = 0.01460110
#
# Stress axis : x y z
#
# Youngs Moduli (GPa) = 125.46448 68.89048 299.65465
#
# Poissons Ratio (x) = 0.31523 -0.23812
# Poissons Ratio (y) = 0.57411 0.54834
# Poissons Ratio (z) = -0.09970 0.12606
#
# Static dielectric constant tensor:
#      x y z
#    x 2.173290 -0.065880 0.017600 
#    y -0.065880 2.356480 -0.062260 
#    z 0.017600 -0.062260 2.484990 
# 
# From -- ./inp_files/14908.got.cif
#   From: 2010.05.17/outbox.cif.g08.bks.cpg/sg2_8_cif.got.tgz:14908.got - 2010.06.03 11:33:40.
