data_PCOD9081493
_publ_section_title
;
Structure prediction by ZEFSAII (Michael W. Deem and Ramdas Pophale) SiO2 
 PCOD9081493
Probable space group: P -1
;
_chemical_formula_sum "Si O2"
_cell_formula_units_Z 14
_cell_length_a 11.960636
_cell_length_b 6.697455
_cell_length_c 10.651561
_cell_angle_alpha 65.304584
_cell_angle_beta 118.553367
_cell_angle_gamma 99.268774
_cell_volume 680.129122
_symmetry_space_group_name_H-M "P -1"
_symmetry_group_IT_number 2
_symmetry_cell_setting 'triclinic'
loop_
_space_group_symop_operation_xyz
x,y,z
-x,-y,-z
loop_
_atom_site_type_symbol
_atom_site_label
_atom_site_fract_x
_atom_site_fract_y
_atom_site_fract_z
Si Si1 0.943912 0.446663 0.165435
Si Si2 0.553221 0.470858 0.396938
Si Si3 0.927783 0.864880 0.888395
Si Si4 0.642795 0.185719 0.861343
Si Si5 0.194620 0.681515 0.315218
Si Si6 0.458716 0.244821 0.183163
Si Si7 0.311910 0.683809 0.883011
O O1 0.831931 0.368225 0.214558
O O2 0.989747 0.247982 0.149598
O O3 0.067230 0.546816 0.269724
O O4 0.883443 0.648351 0.994161
O O5 0.500000 0.500000 0.500000
O O6 0.496514 0.688132 0.239812
O O7 0.702817 0.425460 0.505358
O O8 0.486308 0.280307 0.334975
O O9 0.835064 0.061407 0.735093
O O10 0.000000 0.000000 0.000000
O O11 0.738232 0.314601 0.788585
O O12 0.621085 0.960102 0.840299
O O13 0.693097 0.165475 0.034356
O O14 0.597404 0.224738 0.197429
O O15 0.383801 0.458010 0.029090
#
# Coordination Sequence:
#
# PCOD9081493 Si02
#       7
#     2   2   2   2   2   2   2
#     4  10  19  32  50  77 110 134 166 217 259 307
#     4   9  21  37  53  79 106 136 179 217 257 309
#     4   9  17  29  48  76 104 134 168 206 258 306
#     4  10  19  34  56  80 105 135 175 220 262 306
#     4  10  20  33  53  79 106 137 172 212 262 310
#     4  10  21  36  56  77 105 141 174 216 261 306
#     4  10  20  35  54  80 107 136 175 214 261 314
#
# _framework density 20.584326999999998
#
# number of rings (size 3 to 8) (size 9 to 14) (size 15 to 20)
#    0.000    2.286    0.000    3.857    0.000    6.857 
#    0.000    0.714    0.000    1.714    0.000    0.000 
#    0.000    0.000    0.000    0.000    0.000    0.000 
#
# Total GULP energy -78023.319124 kJ/mol
# GULP energy per Si atom -5573.094223 kJ/mol
# Density = 2.053748 g / cm^3
# Si number density = 20.584327 Si / 1000 Ang^3
#
#
#
# Elastic Constant Matrix: (Units=GPa)
#
#
# Indices 1 2 3 4 5 6 
#
# 1 97.2587 25.2917 7.9871 8.5851 18.1621 8.8550
# 2 25.2917 108.1514 28.0074 20.6039 13.2000 -5.3644
# 3 7.9871 28.0074 46.3080 3.7640 22.9214 1.0373
# 4 8.5851 20.6039 3.7640 21.1417 -4.5123 8.8302
# 5 18.1621 13.2000 22.9214 -4.5123 25.6763 1.0792
# 6 8.8550 -5.3644 1.0373 8.8302 1.0792 24.6688
#
#
#
# Elastic Compliance Matrix: (Units=1/GPa)
#
#
# Indices 1 2 3 4 5 6 
#
# 1 0.014383 -0.001757 0.008287 -0.008625 -0.018099 -0.002014
# 2 -0.001757 0.016352 -0.004492 -0.021117 -0.007380 0.012257
# 3 0.008287 -0.004492 0.050352 -0.020610 -0.052275 0.003595
# 4 -0.008625 -0.021117 -0.020610 0.103605 0.055250 -0.040132
# 5 -0.018099 -0.007380 -0.052275 0.055250 0.112659 -0.017615
# 6 -0.002014 0.012257 0.003595 -0.040132 -0.017615 0.058910
#
#
# Mechanical properties :
#
#
# Convention : Reuss Voigt Hill
#
# Bulk Modulus (GPa) = 11.74237 41.58784 26.66510
# Shear Modulus (GPa) = 13.13805 26.99282 20.06543
#
# Velocity S-wave (km/s) = 2.52911 3.62516 3.12555
# Velocity P-wave (km/s) = 3.77431 6.14572 5.09977
#
# Compressibility (1/GPa) = 0.08516170
#
# Stress axis : x y z
#
# Youngs Moduli (GPa) = 69.52706 61.15324 19.86026
#
# Poissons Ratio (x) = 0.10747 -0.16458
# Poissons Ratio (y) = 0.12218 0.08922
# Poissons Ratio (z) = -0.57617 0.27472
#
# Static dielectric constant tensor:
#      x y z
#    x 1.769660 -0.025040 0.033030 
#    y -0.025040 1.762060 -0.010740 
#    z 0.033030 -0.010740 1.794290 
# 
# From -- ./inp_files/66146.got.cif
#   From: 2010.05.17/outbox.cif.g08.bks.cpg/sg2_34_cif.got.tgz:66146.got - 2010.06.03 11:33:40.
