data_PCOD9081934
_publ_section_title
;
Structure prediction by ZEFSAII (Michael W. Deem and Ramdas Pophale) SiO2 
 PCOD9081934
Probable space group: P -1
;
_chemical_formula_sum "Si O2"
_cell_formula_units_Z 14
_cell_length_a 10.546945
_cell_length_b 9.987026
_cell_length_c 7.238265
_cell_angle_alpha 61.847754
_cell_angle_beta 65.475899
_cell_angle_gamma 87.972957
_cell_volume 599.221997
_symmetry_space_group_name_H-M "P -1"
_symmetry_group_IT_number 2
_symmetry_cell_setting 'triclinic'
loop_
_space_group_symop_operation_xyz
x,y,z
-x,-y,-z
loop_
_atom_site_type_symbol
_atom_site_label
_atom_site_fract_x
_atom_site_fract_y
_atom_site_fract_z
Si Si1 0.317582 0.298970 0.244738
Si Si2 0.430135 0.817240 0.653284
Si Si3 0.843354 0.035682 0.568834
Si Si4 0.834849 0.774722 0.258827
Si Si5 0.411479 0.379727 0.772388
Si Si6 0.152512 0.861382 0.907560
Si Si7 0.392538 0.842089 0.222860
O O1 0.456051 0.279200 0.286735
O O2 0.259169 0.130633 0.294638
O O3 0.208295 0.312577 0.465098
O O4 0.656355 0.581419 0.017457
O O5 0.295917 0.797002 0.886545
O O6 0.402657 0.797795 0.463366
O O7 0.500000 0.000000 0.500000
O O8 0.851949 0.135123 0.314137
O O9 0.767795 0.122454 0.715420
O O10 0.000000 0.000000 0.500000
O O11 0.722440 0.709699 0.209425
O O12 0.827142 0.957025 0.167026
O O13 0.999185 0.773947 0.122093
O O14 0.500000 0.500000 0.500000
O O15 0.531362 0.285720 0.829771
O O16 0.500000 0.000000 0.000000
#
# Coordination Sequence:
#
# PCOD9081934 Si02
#       7
#     2   2   2   2   2   2   2
#     4  11  21  37  60  87 118 161 206 252 303 364
#     4  11  16  34  57  89 124 148 199 252 303 365
#     4  10  19  32  57  94 125 148 197 257 313 355
#     4  10  20  38  58  86 124 156 202 246 313 351
#     4  12  25  40  62  92 126 167 207 250 300 372
#     4   9  19  32  60  91 122 156 190 263 312 352
#     4  11  20  36  61  90 119 159 198 256 304 346
#
# _framework density 23.363626
#
# number of rings (size 3 to 8) (size 9 to 14) (size 15 to 20)
#    0.000    1.429    7.143    0.857    0.000    0.571 
#    7.714    0.000    0.000    8.571    0.000    0.000 
#    0.000    0.000    0.000    0.000    0.000    0.000 
#
# Total GULP energy -78107.818281 kJ/mol
# GULP energy per Si atom -5579.129877 kJ/mol
# Density = 2.331045 g / cm^3
# Si number density = 23.363626 Si / 1000 Ang^3
#
#
#
# Elastic Constant Matrix: (Units=GPa)
#
#
# Indices 1 2 3 4 5 6 
#
# 1 96.7459 8.3183 58.8196 0.8754 -33.4459 0.0027
# 2 8.3183 24.2790 25.6153 6.6539 -15.8050 4.1718
# 3 58.8196 25.6153 197.1839 13.2256 -18.8152 6.2041
# 4 0.8754 6.6539 13.2256 25.5015 -3.1170 2.1057
# 5 -33.4459 -15.8050 -18.8152 -3.1170 54.8559 9.0454
# 6 0.0027 4.1718 6.2041 2.1057 9.0454 20.3954
#
#
#
# Elastic Compliance Matrix: (Units=1/GPa)
#
#
# Indices 1 2 3 4 5 6 
#
# 1 0.016574 0.007263 -0.004740 0.001850 0.011562 -0.005365
# 2 0.007263 0.069126 -0.007442 -0.009578 0.024861 -0.021914
# 3 -0.004740 -0.007442 0.007304 -0.002083 -0.002770 0.000745
# 4 0.001850 -0.009578 -0.002083 0.042950 0.000429 -0.002032
# 5 0.011562 0.024861 -0.002770 0.000429 0.034766 -0.019707
# 6 -0.005365 -0.021914 0.000745 -0.002032 -0.019707 0.062237
#
#
# Mechanical properties :
#
#
# Convention : Reuss Voigt Hill
#
# Bulk Modulus (GPa) = 12.02404 55.96835 33.99620
# Shear Modulus (GPa) = 18.48321 35.18095 26.83208
#
# Velocity S-wave (km/s) = 2.81572 3.88467 3.39256
# Velocity P-wave (km/s) = 3.96594 6.64291 5.47069
#
# Compressibility (1/GPa) = 0.08316673
#
# Stress axis : x y z
#
# Youngs Moduli (GPa) = 60.33576 14.46637 136.91097
#
# Poissons Ratio (x) = -0.10507 0.64890
# Poissons Ratio (y) = -0.43824 1.01893
# Poissons Ratio (z) = 0.28597 0.10766
#
# Static dielectric constant tensor:
#      x y z
#    x 1.951610 0.039830 -0.014170 
#    y 0.039830 1.941740 0.031060 
#    z -0.014170 0.031060 1.922580 
# 
# From -- ./inp_files/247560.got.cif
#   From: 2010.05.17/outbox.cif.g08.bks.cpg/sg2_124_cif.got.tgz:247560.got - 2010.06.03 11:33:40.
