data_PCOD9081056
_publ_section_title
;
Structure prediction by ZEFSAII (Michael W. Deem and Ramdas Pophale) SiO2 
 PCOD9081056
Probable space group: P -1
;
_chemical_formula_sum "Si O2"
_cell_formula_units_Z 14
_cell_length_a 14.168447
_cell_length_b 13.411066
_cell_length_c 11.446303
_cell_angle_alpha 43.444616
_cell_angle_beta 40.582459
_cell_angle_gamma 22.493148
_cell_volume 538.706693
_symmetry_space_group_name_H-M "P -1"
_symmetry_group_IT_number 2
_symmetry_cell_setting 'triclinic'
loop_
_space_group_symop_operation_xyz
x,y,z
-x,-y,-z
loop_
_atom_site_type_symbol
_atom_site_label
_atom_site_fract_x
_atom_site_fract_y
_atom_site_fract_z
Si Si1 0.840759 0.782760 0.404887
Si Si2 0.517520 0.628722 0.634234
Si Si3 0.272400 0.339604 0.797326
Si Si4 0.370136 0.452182 0.156509
Si Si5 0.011254 0.972599 0.327440
Si Si6 0.526100 0.045049 0.237418
Si Si7 0.196248 0.064546 0.237095
O O1 0.705810 0.876814 0.579195
O O2 0.000000 0.500000 0.500000
O O3 0.059657 0.722315 0.235272
O O4 0.697030 0.889888 0.325426
O O5 0.631097 0.630497 0.421416
O O6 0.522551 0.706997 0.686970
O O7 0.227777 0.814785 0.718736
O O8 0.726190 0.325281 0.707053
O O9 0.977518 0.643806 0.837871
O O10 0.323620 0.140780 0.857487
O O11 0.491622 0.176605 0.831325
O O12 0.428618 0.292708 0.130652
O O13 0.500000 0.500000 0.000000
O O14 0.097644 0.054641 0.227872
O O15 0.894053 0.967488 0.544595
#
# Coordination Sequence:
#
# PCOD9081056 Si02
#       7
#     2   2   2   2   2   2   2
#     4   9  19  35  57  77 115 145 196 236 291 341
#     4  10  20  33  55  79 113 160 191 232 296 351
#     4  10  19  30  56  85 116 148 189 234 303 348
#     4  11  25  39  55  83 118 159 203 244 286 346
#     4   9  18  33  51  79 118 148 189 234 297 354
#     4  10  21  35  56  85 113 156 191 243 292 353
#     4   9  18  30  51  85 116 145 183 243 293 353
#
# _framework density 25.988168999999999
#
# number of rings (size 3 to 8) (size 9 to 14) (size 15 to 20)
#    0.000    2.286    0.000    3.429   12.000    4.000 
#    0.000    0.000    0.000    0.000    0.000    6.000 
#    0.000    0.000    0.000    0.000    0.000    0.000 
#
# Total GULP energy -78248.820472 kJ/mol
# GULP energy per Si atom -5589.201462 kJ/mol
# Density = 2.592902 g / cm^3
# Si number density = 25.988169 Si / 1000 Ang^3
#
#
#
# Elastic Constant Matrix: (Units=GPa)
#
#
# Indices 1 2 3 4 5 6 
#
# 1 122.6368 50.6050 -13.0666 18.6023 -14.4470 -1.8009
# 2 50.6050 140.3242 -4.5099 21.7946 -10.4759 2.0247
# 3 -13.0666 -4.5099 76.6405 12.4254 -25.4261 -0.3860
# 4 18.6023 21.7946 12.4254 31.9916 -2.9780 -0.9605
# 5 -14.4470 -10.4759 -25.4261 -2.9780 40.1845 0.4551
# 6 -1.8009 2.0247 -0.3860 -0.9605 0.4551 47.9751
#
#
#
# Elastic Compliance Matrix: (Units=1/GPa)
#
#
# Indices 1 2 3 4 5 6 
#
# 1 0.011356 -0.002546 0.004768 -0.006153 0.005975 0.000392
# 2 -0.002546 0.009062 0.001628 -0.005147 0.002102 -0.000588
# 3 0.004768 0.001628 0.020386 -0.010474 0.014262 -0.000071
# 4 -0.006153 -0.005147 -0.010474 0.041774 -0.007095 0.000806
# 5 0.005975 0.002102 0.014262 -0.007095 0.036083 -0.000234
# 6 0.000392 -0.000588 -0.000071 0.000806 -0.000234 0.020901
#
#
# Mechanical properties :
#
#
# Convention : Reuss Voigt Hill
#
# Bulk Modulus (GPa) = 20.61673 45.07316 32.84494
# Shear Modulus (GPa) = 33.77710 44.46843 39.12276
#
# Velocity S-wave (km/s) = 3.60906 4.14104 3.88417
# Velocity P-wave (km/s) = 5.03164 6.34394 5.72552
#
# Compressibility (1/GPa) = 0.04850431
#
# Stress axis : x y z
#
# Youngs Moduli (GPa) = 88.06161 110.35417 49.05309
#
# Poissons Ratio (x) = 0.28095 -0.23389
# Poissons Ratio (y) = 0.22420 -0.07987
# Poissons Ratio (z) = -0.41989 -0.17968
#
# Static dielectric constant tensor:
#      x y z
#    x 2.012520 0.003520 0.004470 
#    y 0.003520 2.191990 0.010400 
#    z 0.004470 0.010400 2.151420 
# 
# From -- ./inp_files/89757.got.cif
#   From: 2010.05.17/outbox.cif.g08.bks.cpg/sg2_45_cif.got.tgz:89757.got - 2010.06.03 11:33:40.
