data_PCOD9081542
_publ_section_title
;
Structure prediction by ZEFSAII (Michael W. Deem and Ramdas Pophale) SiO2 
 PCOD9081542
Probable space group: P -1
;
_chemical_formula_sum "Si O2"
_cell_formula_units_Z 14
_cell_length_a 8.439060
_cell_length_b 8.928131
_cell_length_c 14.736707
_cell_angle_alpha 130.994216
_cell_angle_beta 137.390626
_cell_angle_gamma 63.437224
_cell_volume 565.980999
_symmetry_space_group_name_H-M "P -1"
_symmetry_group_IT_number 2
_symmetry_cell_setting 'triclinic'
loop_
_space_group_symop_operation_xyz
x,y,z
-x,-y,-z
loop_
_atom_site_type_symbol
_atom_site_label
_atom_site_fract_x
_atom_site_fract_y
_atom_site_fract_z
Si Si1 0.685697 0.231557 0.629074
Si Si2 0.635040 0.475022 0.453273
Si Si3 0.884286 0.763903 0.070039
Si Si4 0.255914 0.844895 0.751075
Si Si5 0.830610 0.881794 0.454910
Si Si6 0.065078 0.562700 0.906864
Si Si7 0.183678 0.549649 0.761762
O O1 0.465183 0.362077 0.592282
O O2 0.842210 0.187941 0.765037
O O3 0.883769 0.382108 0.723427
O O4 0.648764 0.032985 0.475869
O O5 0.500000 0.500000 0.500000
O O6 0.600520 0.252555 0.308531
O O7 0.908700 0.526745 0.607282
O O8 0.806138 0.559417 0.009518
O O9 0.734617 0.937022 0.113474
O O10 0.912164 0.715505 0.956959
O O11 0.999424 0.837458 0.592770
O O12 0.287871 0.693139 0.785605
O O13 0.730781 0.672619 0.290618
O O14 0.000000 0.000000 0.500000
O O15 0.203213 0.636454 0.906226
#
# Coordination Sequence:
#
# PCOD9081542 Si02
#       7
#     2   2   2   2   2   2   2
#     4   9  16  29  52  74  94 122 173 213 231 279
#     4  11  18  31  51  76 105 129 158 209 257 296
#     4   8  17  35  54  73  92 138 182 201 229 296
#     4  10  21  33  48  77 107 130 162 208 255 300
#     4  10  15  30  49  69  94 134 167 193 233 304
#     4   9  16  32  58  72  93 133 184 203 227 296
#     4  11  20  32  50  79 107 130 160 204 264 299
#
# _framework density 24.735811999999999
#
# number of rings (size 3 to 8) (size 9 to 14) (size 15 to 20)
#    0.857    1.429    2.857    2.571    0.000    0.571 
#    0.000    7.143    0.000    0.857    0.000    0.000 
#    0.000    0.000    0.000    0.000    0.000    0.000 
#
# Total GULP energy -78057.611359 kJ/mol
# GULP energy per Si atom -5575.543669 kJ/mol
# Density = 2.467951 g / cm^3
# Si number density = 24.735812 Si / 1000 Ang^3
#
#
#
# Elastic Constant Matrix: (Units=GPa)
#
#
# Indices 1 2 3 4 5 6 
#
# 1 55.7460 24.1495 51.9158 7.4625 -18.1613 2.4490
# 2 24.1495 95.6051 54.4000 18.9105 -20.5045 -22.6162
# 3 51.9158 54.4000 115.3588 30.2718 -47.5617 -12.2872
# 4 7.4625 18.9105 30.2718 41.0987 -13.6517 -20.7359
# 5 -18.1613 -20.5045 -47.5617 -13.6517 46.7882 -1.2389
# 6 2.4490 -22.6162 -12.2872 -20.7359 -1.2389 40.2707
#
#
#
# Elastic Compliance Matrix: (Units=1/GPa)
#
#
# Indices 1 2 3 4 5 6 
#
# 1 0.033701 -0.001633 -0.018090 0.002367 -0.005529 -0.007437
# 2 -0.001633 0.016134 -0.006041 0.001868 0.001061 0.008312
# 3 -0.018090 -0.006041 0.029600 -0.008156 0.018123 0.003097
# 4 0.002367 0.001868 -0.008156 0.040944 0.005915 0.019682
# 5 -0.005529 0.001061 0.018123 0.005915 0.040125 0.010742
# 6 -0.007437 0.008312 0.003097 0.019682 0.010742 0.041362
#
#
# Mechanical properties :
#
#
# Convention : Reuss Voigt Hill
#
# Bulk Modulus (GPa) = 35.83167 58.62672 47.22919
# Shear Modulus (GPa) = 19.03343 34.71451 26.87397
#
# Velocity S-wave (km/s) = 2.77694 3.75028 3.29969
# Velocity P-wave (km/s) = 4.97986 6.51961 5.80105
#
# Compressibility (1/GPa) = 0.02790828
#
# Stress axis : x y z
#
# Youngs Moduli (GPa) = 29.67250 61.98247 33.78330
#
# Poissons Ratio (x) = 0.10122 0.61113
# Poissons Ratio (y) = 0.04846 0.20407
# Poissons Ratio (z) = 0.53677 0.37442
#
# Static dielectric constant tensor:
#      x y z
#    x 2.031590 0.002270 0.006670 
#    y 0.002270 2.016120 -0.020920 
#    z 0.006670 -0.020920 2.011240 
# 
# From -- ./inp_files/294575.got.cif
#   From: 2010.05.17/outbox.cif.g08.bks.cpg/sg2_148_cif.got.tgz:294575.got - 2010.06.03 11:33:40.
