data_PCOD9081097
_publ_section_title
;
Structure prediction by ZEFSAII (Michael W. Deem and Ramdas Pophale) SiO2 
 PCOD9081097
Probable space group: P -1
;
_chemical_formula_sum "Si O2"
_cell_formula_units_Z 14
_cell_length_a 6.845776
_cell_length_b 10.707564
_cell_length_c 11.404969
_cell_angle_alpha 85.388293
_cell_angle_beta 68.100248
_cell_angle_gamma 43.287440
_cell_volume 507.285817
_symmetry_space_group_name_H-M "P -1"
_symmetry_group_IT_number 2
_symmetry_cell_setting 'triclinic'
loop_
_space_group_symop_operation_xyz
x,y,z
-x,-y,-z
loop_
_atom_site_type_symbol
_atom_site_label
_atom_site_fract_x
_atom_site_fract_y
_atom_site_fract_z
Si Si1 0.483769 0.657039 0.576489
Si Si2 0.690148 0.987195 0.310937
Si Si3 0.571804 0.144076 0.092181
Si Si4 0.099339 0.470284 0.720218
Si Si5 0.620345 0.661710 0.100605
Si Si6 0.954186 0.872884 0.500288
Si Si7 0.444096 0.465940 0.177910
O O1 0.407348 0.827603 0.638680
O O2 0.781740 0.556275 0.433682
O O3 0.514682 0.556253 0.689756
O O4 0.222060 0.711494 0.545331
O O5 0.744556 0.977301 0.159621
O O6 0.391347 0.028116 0.393665
O O7 0.956542 0.843524 0.362544
O O8 0.651312 0.252507 0.102753
O O9 0.188123 0.305886 0.196490
O O10 0.571885 0.151589 0.949718
O O11 0.386858 0.328649 0.758471
O O12 0.913109 0.422677 0.776295
O O13 0.528430 0.560833 0.099239
O O14 0.000000 0.500000 0.000000
O O15 0.000000 0.000000 0.500000
#
# Coordination Sequence:
#
# PCOD9081097 Si02
#       7
#     2   2   2   2   2   2   2
#     4  10  19  31  50  76 104 131 160 197 247 302
#     4   9  18  34  51  73  98 128 161 211 245 286
#     4   8  18  32  50  70 102 132 167 195 239 289
#     4   9  20  31  45  74 108 134 161 189 247 295
#     4  10  19  31  46  70 103 137 171 195 228 291
#     4   9  19  33  51  74  97 124 167 204 254 287
#     4   9  19  29  47  70 103 134 161 196 241 285
#
# _framework density 27.597854999999999
#
# number of rings (size 3 to 8) (size 9 to 14) (size 15 to 20)
#    0.857    2.000    0.000    0.857    4.000    1.714 
#    0.000    0.000    0.000    0.857    0.000   10.000 
#    0.000    0.000    0.000    0.000    0.000    0.000 
#
# Total GULP energy -78244.950111 kJ/mol
# GULP energy per Si atom -5588.925008 kJ/mol
# Density = 2.753504 g / cm^3
# Si number density = 27.597855 Si / 1000 Ang^3
#
#
#
# Elastic Constant Matrix: (Units=GPa)
#
#
# Indices 1 2 3 4 5 6 
#
# 1 149.6527 35.6379 38.2121 -17.1669 -17.5408 -30.7219
# 2 35.6379 86.8487 43.0411 -31.6673 0.0856 -30.1617
# 3 38.2121 43.0411 139.1496 -38.2868 -0.6114 -23.4214
# 4 -17.1669 -31.6673 -38.2868 56.1673 -16.3598 8.1206
# 5 -17.5408 0.0856 -0.6114 -16.3598 63.6253 -10.0728
# 6 -30.7219 -30.1617 -23.4214 8.1206 -10.0728 51.9638
#
#
#
# Elastic Compliance Matrix: (Units=1/GPa)
#
#
# Indices 1 2 3 4 5 6 
#
# 1 0.008707 -0.000799 -0.000759 0.002081 0.003678 0.004729
# 2 -0.000799 0.019175 -0.001630 0.009161 0.003547 0.009178
# 3 -0.000759 -0.001630 0.009915 0.005758 0.001767 0.002516
# 4 0.002081 0.009161 0.005758 0.029278 0.009149 0.006341
# 5 0.003678 0.003547 0.001767 0.009149 0.020288 0.007533
# 6 0.004729 0.009178 0.002516 0.006341 0.007533 0.028971
#
#
# Mechanical properties :
#
#
# Convention : Reuss Voigt Hill
#
# Bulk Modulus (GPa) = 31.82766 67.71479 49.77122
# Shear Modulus (GPa) = 37.54197 51.60194 44.57196
#
# Velocity S-wave (km/s) = 3.69226 4.32879 4.02313
# Velocity P-wave (km/s) = 5.45295 7.04088 6.29717
#
# Compressibility (1/GPa) = 0.03141921
#
# Stress axis : x y z
#
# Youngs Moduli (GPa) = 114.85087 52.15228 100.85735
#
# Poissons Ratio (x) = 0.04167 0.07657
# Poissons Ratio (y) = 0.09178 0.16444
# Poissons Ratio (z) = 0.08719 0.08503
#
# Static dielectric constant tensor:
#      x y z
#    x 2.148300 0.043640 0.073830 
#    y 0.043640 2.356220 0.017130 
#    z 0.073830 0.017130 2.182690 
# 
# From -- ./inp_files/366850.got.cif
#   From: 2010.05.17/outbox.cif.g08.bks.cpg/sg2_184_cif.got.tgz:366850.got - 2010.06.03 11:33:40.
