data_PCOD9081742
_publ_section_title
;
Structure prediction by ZEFSAII (Michael W. Deem and Ramdas Pophale) SiO2 
 PCOD9081742
Probable space group: P -1
;
_chemical_formula_sum "Si O2"
_cell_formula_units_Z 16
_cell_length_a 13.928615
_cell_length_b 13.513396
_cell_length_c 8.781645
_cell_angle_alpha 101.952714
_cell_angle_beta 41.589306
_cell_angle_gamma 131.558176
_cell_volume 667.658925
_symmetry_space_group_name_H-M "P -1"
_symmetry_group_IT_number 2
_symmetry_cell_setting 'triclinic'
loop_
_space_group_symop_operation_xyz
x,y,z
-x,-y,-z
loop_
_atom_site_type_symbol
_atom_site_label
_atom_site_fract_x
_atom_site_fract_y
_atom_site_fract_z
Si Si1 0.417298 0.470144 0.415049
Si Si2 0.970767 0.564130 0.825388
Si Si3 0.284310 0.061142 0.564631
Si Si4 0.975818 0.220759 0.382411
Si Si5 0.326171 0.554787 0.108676
Si Si6 0.026672 0.123173 0.841376
Si Si7 0.791809 0.859347 0.819460
Si Si8 0.667126 0.355653 0.409269
O O1 0.500000 0.500000 0.500000
O O2 0.556289 0.470627 0.141081
O O3 0.149696 0.286850 0.675068
O O4 0.453786 0.607651 0.380822
O O5 0.025263 0.704380 0.738812
O O6 0.197792 0.623387 0.607319
O O7 0.790594 0.429668 0.865206
O O8 0.844560 0.495273 0.115021
O O9 0.223135 0.142015 0.610956
O O10 0.508300 0.192649 0.447316
O O11 0.270233 0.972785 0.415990
O O12 0.067602 0.917415 0.889468
O O13 0.129474 0.204872 0.224909
O O14 0.106932 0.374396 0.388027
O O15 0.541571 0.716160 0.994573
O O16 0.813884 0.960929 0.947665
O O17 0.000000 0.000000 0.500000
#
# Coordination Sequence:
#
# PCOD9081742 Si02
#       8
#     2   2   2   2   2   2   2   2
#     4  12  18  32  57  83 111 145 180 238 280 325
#     4   9  21  38  53  83 116 155 178 227 284 341
#     4  10  19  32  54  86 114 144 178 237 283 331
#     4   9  21  35  56  82 117 142 184 233 282 328
#     4  10  20  37  56  81 114 148 184 233 281 321
#     4  10  20  32  51  86 119 136 182 238 289 321
#     4  11  21  35  58  87 108 149 193 234 277 331
#     4  11  21  33  58  84 117 150 186 220 287 346
#
# _framework density 23.964333
#
# number of rings (size 3 to 8) (size 9 to 14) (size 15 to 20)
#    0.750    1.000    3.750    1.875    5.250    0.500 
#    0.000    0.000    0.000    3.750    0.000    0.000 
#    0.000    0.000    0.000    0.000    0.000    0.000 
#
# Total GULP energy -89144.039341 kJ/mol
# GULP energy per Si atom -5571.502459 kJ/mol
# Density = 2.390979 g / cm^3
# Si number density = 23.964333 Si / 1000 Ang^3
#
#
#
# Elastic Constant Matrix: (Units=GPa)
#
#
# Indices 1 2 3 4 5 6 
#
# 1 159.8046 48.9489 35.6415 -25.7384 -30.1996 6.9086
# 2 48.9489 95.2124 28.0399 -43.8069 -21.6649 20.4972
# 3 35.6415 28.0399 45.5274 -12.8429 -4.9615 -6.0530
# 4 -25.7384 -43.8069 -12.8429 41.9895 11.6574 -5.7889
# 5 -30.1996 -21.6649 -4.9615 11.6574 42.9076 -15.1924
# 6 6.9086 20.4972 -6.0530 -5.7889 -15.1924 33.9721
#
#
#
# Elastic Compliance Matrix: (Units=1/GPa)
#
#
# Indices 1 2 3 4 5 6 
#
# 1 0.008947 -0.001753 -0.005075 0.000853 0.004818 0.000634
# 2 -0.001753 0.028959 -0.011852 0.023339 0.000329 -0.015104
# 3 -0.005075 -0.011852 0.034198 -0.003152 0.000142 0.013803
# 4 0.000853 0.023339 -0.003152 0.047646 -0.003916 -0.008449
# 5 0.004818 0.000329 0.000142 -0.003916 0.032435 0.012684
# 6 0.000634 -0.015104 0.013803 -0.008449 0.012684 0.045112
#
#
# Mechanical properties :
#
#
# Convention : Reuss Voigt Hill
#
# Bulk Modulus (GPa) = 28.78031 58.42277 43.60154
# Shear Modulus (GPa) = 20.30564 36.30145 28.30355
#
# Velocity S-wave (km/s) = 2.91405 3.89628 3.44040
# Velocity P-wave (km/s) = 4.83301 6.68381 5.83229
#
# Compressibility (1/GPa) = 0.03474598
#
# Stress axis : x y z
#
# Youngs Moduli (GPa) = 111.77183 34.53154 29.24122
#
# Poissons Ratio (x) = 0.06052 0.14839
# Poissons Ratio (y) = 0.19590 0.34656
# Poissons Ratio (z) = 0.56720 0.40926
#
# Static dielectric constant tensor:
#      x y z
#    x 1.914520 0.071470 0.013100 
#    y 0.071470 1.978820 0.000560 
#    z 0.013100 0.000560 2.064680 
# 
# From -- ./inp_files/453822.got.cif
#   From: 2010.05.17/outbox.cif.g08.bks.cpg/sg2_227_cif.got.tgz:453822.got - 2010.06.03 11:33:40.
