data_PCOD9081140
_publ_section_title
;
Structure prediction by ZEFSAII (Michael W. Deem and Ramdas Pophale) SiO2 
 PCOD9081140
Probable space group: P -1
;
_chemical_formula_sum "Si O2"
_cell_formula_units_Z 14
_cell_length_a 5.416782
_cell_length_b 22.921995
_cell_length_c 17.183653
_cell_angle_alpha 14.448219
_cell_angle_beta 87.062014
_cell_angle_gamma 88.244377
_cell_volume 530.092080
_symmetry_space_group_name_H-M "P -1"
_symmetry_group_IT_number 2
_symmetry_cell_setting 'triclinic'
loop_
_space_group_symop_operation_xyz
x,y,z
-x,-y,-z
loop_
_atom_site_type_symbol
_atom_site_label
_atom_site_fract_x
_atom_site_fract_y
_atom_site_fract_z
Si Si1 0.891508 0.885506 0.534616
Si Si2 0.837835 0.712453 0.150867
Si Si3 0.377768 0.736701 0.716436
Si Si4 0.328372 0.486728 0.194149
Si Si5 0.928784 0.194167 0.812787
Si Si6 0.840588 0.642702 0.016026
Si Si7 0.352693 0.965305 0.829855
O O1 0.612525 0.924977 0.460303
O O2 0.827773 0.722924 0.822121
O O3 0.112234 0.757643 0.652952
O O4 0.048092 0.123152 0.247479
O O5 0.848818 0.449404 0.458681
O O6 0.859223 0.727163 0.226772
O O7 0.591808 0.831375 0.979222
O O8 0.093076 0.861074 0.931510
O O9 0.500000 0.500000 0.000000
O O10 0.317113 0.699315 0.857485
O O11 0.389429 0.245590 0.464319
O O12 0.562187 0.554894 0.156523
O O13 0.046315 0.457907 0.265002
O O14 0.708593 0.081523 0.016522
O O15 0.000000 0.000000 0.000000
#
# Coordination Sequence:
#
# PCOD9081140 Si02
#       7
#     2   2   2   2   2   2   2
#     4   9  17  30  49  69  95 124 166 232 253 293
#     4   9  20  36  57  84 110 145 183 218 269 326
#     4  10  19  31  49  72  97 136 182 212 259 318
#     4  10  19  31  54  73 100 140 171 213 265 322
#     4   9  20  36  62  85 108 144 185 223 263 324
#     4   9  17  30  50  74  91 125 177 211 264 304
#     4  10  19  36  55  79 114 142 178 223 272 324
#
# _framework density 26.410508
#
# number of rings (size 3 to 8) (size 9 to 14) (size 15 to 20)
#    0.857    1.714    0.000    2.571    0.000    4.000 
#    0.000    0.000    9.429    0.000    0.000    0.000 
#    0.000    0.000    0.000    0.000    0.000    0.000 
#
# Total GULP energy -78166.714493 kJ/mol
# GULP energy per Si atom -5583.336750 kJ/mol
# Density = 2.635040 g / cm^3
# Si number density = 26.410508 Si / 1000 Ang^3
#
#
#
# Elastic Constant Matrix: (Units=GPa)
#
#
# Indices 1 2 3 4 5 6 
#
# 1 199.7442 38.5305 66.5159 5.6008 34.9447 18.1667
# 2 38.5305 86.6818 40.3353 -17.6296 6.9340 0.8492
# 3 66.5159 40.3353 161.0855 -20.1487 17.3583 4.3056
# 4 5.6008 -17.6296 -20.1487 40.2972 -5.8797 -1.7271
# 5 34.9447 6.9340 17.3583 -5.8797 51.8005 2.4667
# 6 18.1667 0.8492 4.3056 -1.7271 2.4667 31.0901
#
#
#
# Elastic Compliance Matrix: (Units=1/GPa)
#
#
# Indices 1 2 3 4 5 6 
#
# 1 0.007540 -0.002717 -0.002403 -0.004220 -0.004211 -0.003899
# 2 -0.002717 0.014803 -0.001989 0.006097 0.001129 0.001708
# 3 -0.002403 -0.001989 0.008173 0.003504 -0.000480 0.000559
# 4 -0.004220 0.006097 0.003504 0.030567 0.004174 0.003181
# 5 -0.004211 0.001129 -0.000480 0.004174 0.022585 0.000936
# 6 -0.003899 0.001708 0.000559 0.003181 0.000936 0.034421
#
#
# Mechanical properties :
#
#
# Convention : Reuss Voigt Hill
#
# Bulk Modulus (GPa) = 61.35692 82.03055 71.69373
# Shear Modulus (GPa) = 36.30005 44.77954 40.53980
#
# Velocity S-wave (km/s) = 3.71139 4.12214 3.92214
# Velocity P-wave (km/s) = 6.45355 7.33371 6.90766
#
# Compressibility (1/GPa) = 0.01629808
#
# Stress axis : x y z
#
# Youngs Moduli (GPa) = 132.61909 67.55508 122.34685
#
# Poissons Ratio (x) = 0.18352 0.29402
# Poissons Ratio (y) = 0.36028 0.24340
# Poissons Ratio (z) = 0.31870 0.13440
#
# Static dielectric constant tensor:
#      x y z
#    x 2.142090 -0.021830 0.021330 
#    y -0.021830 2.352490 0.094650 
#    z 0.021330 0.094650 2.101290 
# 
# From -- ./inp_files/605310.got.cif
#   From: 2010.05.17/outbox.cif.g08.bks.cpg/sg2_303_cif.got.tgz:605310.got - 2010.06.03 11:33:40.
