data_PCOD9081651
_publ_section_title
;
Structure prediction by ZEFSAII (Michael W. Deem and Ramdas Pophale) SiO2 
 PCOD9081651
Probable space group: P -1
;
_chemical_formula_sum "Si O2"
_cell_formula_units_Z 16
_cell_length_a 5.318917
_cell_length_b 16.056287
_cell_length_c 18.252055
_cell_angle_alpha 25.658504
_cell_angle_beta 112.009262
_cell_angle_gamma 102.395340
_cell_volume 595.597141
_symmetry_space_group_name_H-M "P -1"
_symmetry_group_IT_number 2
_symmetry_cell_setting 'triclinic'
loop_
_space_group_symop_operation_xyz
x,y,z
-x,-y,-z
loop_
_atom_site_type_symbol
_atom_site_label
_atom_site_fract_x
_atom_site_fract_y
_atom_site_fract_z
Si Si1 0.937946 0.081444 0.685190
Si Si2 0.043349 0.658090 0.953260
Si Si3 0.614197 0.640365 0.018015
Si Si4 0.201108 0.357655 0.573798
Si Si5 0.674728 0.884178 0.421326
Si Si6 0.132901 0.330407 0.819687
Si Si7 0.620086 0.189535 0.867324
Si Si8 0.197056 0.135887 0.388769
O O1 0.117286 0.153501 0.709174
O O2 0.037816 0.165357 0.554827
O O3 0.604286 0.165385 0.600320
O O4 0.017455 0.843529 0.862031
O O5 0.372357 0.535230 0.083075
O O6 0.836446 0.547645 0.053191
O O7 0.935012 0.742651 0.795192
O O8 0.444351 0.869023 0.790206
O O9 0.765975 0.648284 0.104739
O O10 0.114208 0.484065 0.389747
O O11 0.511368 0.295637 0.692640
O O12 0.000000 0.500000 0.500000
O O13 0.730549 0.794247 0.578749
O O14 0.954214 0.167117 0.930401
O O15 0.414228 0.303681 0.821249
O O16 0.500000 0.000000 0.000000
O O17 0.500000 0.000000 0.500000
O O18 0.000000 0.000000 0.500000
#
# Coordination Sequence:
#
# PCOD9081651 Si02
#       8
#     2   2   2   2   2   2   2   2
#     4  10  20  34  55  80 116 148 198 244 290 342
#     4  10  19  32  54  89 116 154 188 251 286 358
#     4  10  19  32  53  80 117 144 194 231 297 342
#     4  10  25  45  63  86 122 166 206 249 307 366
#     4  10  20  31  54  89 114 153 188 252 289 355
#     4  11  24  42  60  84 122 157 200 245 309 370
#     4  11  25  41  64  89 111 154 202 258 307 356
#     4  12  16  31  51  85 130 150 185 240 320 345
#
# _framework density 26.863797999999999
#
# number of rings (size 3 to 8) (size 9 to 14) (size 15 to 20)
#    0.000    1.500    5.000    1.500    7.000    4.000 
#    0.000    0.000    0.000    0.000    0.000    9.625 
#    0.000    0.000    0.000    0.000    0.000    0.000 
#
# Total GULP energy -89441.028488 kJ/mol
# GULP energy per Si atom -5590.064281 kJ/mol
# Density = 2.680265 g / cm^3
# Si number density = 26.863798 Si / 1000 Ang^3
#
#
#
# Elastic Constant Matrix: (Units=GPa)
#
#
# Indices 1 2 3 4 5 6 
#
# 1 169.9383 7.2019 19.5441 20.6033 -8.7019 16.4877
# 2 7.2019 101.3716 22.0783 20.6521 10.3239 5.0013
# 3 19.5441 22.0783 131.6696 33.5137 -12.5686 -4.6725
# 4 20.6033 20.6521 33.5137 49.2148 2.7543 6.4042
# 5 -8.7019 10.3239 -12.5686 2.7543 35.6284 13.7193
# 6 16.4877 5.0013 -4.6725 6.4042 13.7193 40.7571
#
#
#
# Elastic Compliance Matrix: (Units=1/GPa)
#
#
# Indices 1 2 3 4 5 6 
#
# 1 0.006682 -0.000098 -0.000204 -0.002350 0.003071 -0.003379
# 2 -0.000098 0.011240 -0.001271 -0.003648 -0.003557 0.000285
# 3 -0.000204 -0.001271 0.009898 -0.006480 0.003895 0.001080
# 4 -0.002350 -0.003648 -0.006480 0.027764 -0.002897 -0.002732
# 5 0.003071 -0.003557 0.003895 -0.002897 0.036087 -0.012051
# 6 -0.003379 0.000285 0.001080 -0.002732 -0.012051 0.030477
#
#
# Mechanical properties :
#
#
# Convention : Reuss Voigt Hill
#
# Bulk Modulus (GPa) = 40.52890 55.62536 48.07713
# Shear Modulus (GPa) = 37.44819 48.73041 43.08930
#
# Velocity S-wave (km/s) = 3.73768 4.26371 4.00933
# Velocity P-wave (km/s) = 5.80918 6.70748 6.27443
#
# Compressibility (1/GPa) = 0.02467375
#
# Stress axis : x y z
#
# Youngs Moduli (GPa) = 149.65403 88.96895 101.03471
#
# Poissons Ratio (x) = 0.00869 0.02063
# Poissons Ratio (y) = 0.01461 0.12842
# Poissons Ratio (z) = 0.03056 0.11308
#
# Static dielectric constant tensor:
#      x y z
#    x 2.177020 0.002000 -0.000040 
#    y 0.002000 2.275410 -0.247470 
#    z -0.000040 -0.247470 2.342190 
# 
# From -- ./inp_files/56394.got.cif
#   From: 2010.05.17/outbox.cif.g08.bks.cpg/sg2_29_cif.got.tgz:56394.got - 2010.06.03 11:33:40.
