data_PCOD9081799
_publ_section_title
;
Structure prediction by ZEFSAII (Michael W. Deem and Ramdas Pophale) SiO2 
 PCOD9081799
Probable space group: P -1
;
_chemical_formula_sum "Si O2"
_cell_formula_units_Z 14
_cell_length_a 14.616837
_cell_length_b 8.425289
_cell_length_c 13.634698
_cell_angle_alpha 53.502830
_cell_angle_beta 150.414784
_cell_angle_gamma 134.436282
_cell_volume 591.470443
_symmetry_space_group_name_H-M "P -1"
_symmetry_group_IT_number 2
_symmetry_cell_setting 'triclinic'
loop_
_space_group_symop_operation_xyz
x,y,z
-x,-y,-z
loop_
_atom_site_type_symbol
_atom_site_label
_atom_site_fract_x
_atom_site_fract_y
_atom_site_fract_z
Si Si1 0.490712 0.173499 0.214902
Si Si2 0.524885 0.499799 0.284818
Si Si3 0.079084 0.201437 0.373177
Si Si4 0.384296 0.088532 0.434658
Si Si5 0.135516 0.530435 0.947234
Si Si6 0.371692 0.016359 0.966121
Si Si7 0.998687 0.108709 0.106131
O O1 0.586844 0.392215 0.291250
O O2 0.580260 0.007120 0.395690
O O3 0.503156 0.202667 0.098850
O O4 0.244206 0.056579 0.054676
O O5 0.704627 0.738832 0.395829
O O6 0.479779 0.346748 0.397464
O O7 0.303726 0.492050 0.055792
O O8 0.091986 0.176683 0.277627
O O9 0.853862 0.998637 0.265151
O O10 0.041626 0.417963 0.283206
O O11 0.137587 0.006558 0.221952
O O12 0.500000 0.000000 0.500000
O O13 0.037178 0.334469 0.004768
O O14 0.284501 0.781887 0.032461
O O15 0.500000 0.000000 0.000000
#
# Coordination Sequence:
#
# PCOD9081799 Si02
#       7
#     2   2   2   2   2   2   2
#     4  10  21  35  57  80 115 146 175 220 268 324
#     4  10  20  33  52  88 112 140 172 216 279 330
#     4   9  20  32  57  78 112 137 183 222 269 317
#     4   9  20  31  50  83 121 140 167 214 265 331
#     4   9  20  33  59  75 115 142 179 224 267 317
#     4   9  21  41  58  73 104 147 190 231 266 308
#     4  10  19  32  55  85 110 148 180 205 272 335
#
# _framework density 23.669820999999999
#
# number of rings (size 3 to 8) (size 9 to 14) (size 15 to 20)
#    0.857    1.714    0.000    1.286    4.000    8.571 
#    0.000    2.143    0.000    0.000    0.000    0.000 
#    0.000    0.000    0.000    0.000    0.000    0.000 
#
# Total GULP energy -77993.496888 kJ/mol
# GULP energy per Si atom -5570.964063 kJ/mol
# Density = 2.361595 g / cm^3
# Si number density = 23.669821 Si / 1000 Ang^3
#
#
#
# Elastic Constant Matrix: (Units=GPa)
#
#
# Indices 1 2 3 4 5 6 
#
# 1 71.4617 -1.2301 20.0190 3.7707 -5.3338 -6.7024
# 2 -1.2301 30.6312 8.4121 -5.5313 -16.7117 -4.2826
# 3 20.0190 8.4121 97.3278 8.4748 13.9005 -7.2802
# 4 3.7707 -5.5313 8.4748 32.5068 -20.3256 -2.7880
# 5 -5.3338 -16.7117 13.9005 -20.3256 22.1446 -5.0568
# 6 -6.7024 -4.2826 -7.2802 -2.7880 -5.0568 27.3016
#
#
#
# Elastic Compliance Matrix: (Units=1/GPa)
#
#
# Indices 1 2 3 4 5 6 
#
# 1 0.013580 -0.006565 -0.000057 -0.008955 -0.009975 -0.000473
# 2 -0.006565 -0.007782 0.011714 -0.037269 -0.052017 -0.013149
# 3 -0.000057 0.011714 0.006171 0.012555 0.018337 0.008148
# 4 -0.008955 -0.037269 0.012555 -0.012416 -0.053171 -0.015813
# 5 -0.009975 -0.052017 0.018337 -0.053171 -0.061981 -0.022628
# 6 -0.000473 -0.013149 0.008148 -0.015813 -0.022628 0.030816
#
#
# Mechanical properties :
#
#
# Convention : Reuss Voigt Hill
#
# Bulk Modulus (GPa) = 45.13885 28.20252 36.67068
# Shear Modulus (GPa) = -145.29945 27.87191 -58.71377
#
# Velocity S-wave (km/s) = -7.84342 3.43524 -4.98590
# Velocity P-wave (km/s) = 7.93184 5.26073 4.19754
#
# Compressibility (1/GPa) = 0.02215387
#
# Stress axis : x y z
#
# Youngs Moduli (GPa) = 73.63763 -128.50650 162.04679
#
# Poissons Ratio (x) = -0.84360 0.00920
# Poissons Ratio (y) = 0.48340 -1.89816
# Poissons Ratio (z) = 0.00418 1.50528
#
# Static dielectric constant tensor:
#      x y z
#    x 1.954560 -0.017550 -0.000730 
#    y -0.017550 1.966080 -0.044830 
#    z -0.000730 -0.044830 1.934090 
# 
# From -- ./inp_files/528423.got.cif
#   From: 2010.05.17/outbox.cif.g08.bks.cpg/sg2_265_cif.got.tgz:528423.got - 2010.06.03 11:33:40.
