data_PCOD9081748
_publ_section_title
;
Structure prediction by ZEFSAII (Michael W. Deem and Ramdas Pophale) SiO2 
 PCOD9081748
Probable space group: P -1
;
_chemical_formula_sum "Si O2"
_cell_formula_units_Z 16
_cell_length_a 14.583825
_cell_length_b 21.764495
_cell_length_c 11.256337
_cell_angle_alpha 148.388544
_cell_angle_beta 149.144276
_cell_angle_gamma 29.928319
_cell_volume 829.418403
_symmetry_space_group_name_H-M "P -1"
_symmetry_group_IT_number 2
_symmetry_cell_setting 'triclinic'
loop_
_space_group_symop_operation_xyz
x,y,z
-x,-y,-z
loop_
_atom_site_type_symbol
_atom_site_label
_atom_site_fract_x
_atom_site_fract_y
_atom_site_fract_z
Si Si1 0.669728 0.344422 0.160090
Si Si2 0.966887 0.375429 0.886515
Si Si3 0.330015 0.139773 0.485416
Si Si4 0.693780 0.649759 0.340498
Si Si5 0.703113 0.686884 0.039135
Si Si6 0.764374 0.220961 0.329727
Si Si7 0.019185 0.933676 0.041593
Si Si8 0.145462 0.481338 0.456837
O O1 0.726137 0.292163 0.272661
O O2 0.760583 0.440490 0.383375
O O3 0.770277 0.210324 0.966449
O O4 0.426970 0.407599 0.966546
O O5 0.804337 0.525569 0.903517
O O6 0.843028 0.295849 0.627988
O O7 0.149980 0.297908 0.866536
O O8 0.078005 0.397741 0.158855
O O9 0.399812 0.192904 0.538584
O O10 0.144504 0.116349 0.210368
O O11 0.500000 0.000000 0.500000
O O12 0.279672 0.249037 0.713012
O O13 0.698916 0.610568 0.418018
O O14 0.931860 0.586245 0.458224
O O15 0.461417 0.755904 0.851446
O O16 0.940399 0.062879 0.252603
O O17 0.000000 0.000000 0.000000
#
# Coordination Sequence:
#
# PCOD9081748 Si02
#       8
#     2   2   2   2   2   2   2   2
#     4  11  19  37  59  87 118 146 200 250 294 337
#     4  11  22  35  55  83 124 158 191 232 289 362
#     4  12  19  37  62  89 118 144 194 252 297 335
#     4  11  23  38  61  88 116 155 195 244 299 342
#     4  11  20  35  55  89 116 154 190 243 300 341
#     4  11  21  34  56  88 120 153 188 242 299 344
#     4  10  19  32  54  88 118 145 187 245 295 343
#     4  11  23  40  57  85 121 159 197 236 289 357
#
# _framework density 19.290626
#
# number of rings (size 3 to 8) (size 9 to 14) (size 15 to 20)
#    0.000    1.000    5.000    4.500    0.000    1.000 
#    0.000    0.000    0.000    3.750    0.000    0.000 
#    0.000    0.000    0.000    0.000    0.000    0.000 
#
# Total GULP energy -89254.437314 kJ/mol
# GULP energy per Si atom -5578.402332 kJ/mol
# Density = 1.924672 g / cm^3
# Si number density = 19.290626 Si / 1000 Ang^3
#
#
#
# Elastic Constant Matrix: (Units=GPa)
#
#
# Indices 1 2 3 4 5 6 
#
# 1 30.9241 14.1808 1.6618 -3.0422 10.7054 4.2726
# 2 14.1808 55.2857 13.5971 4.8228 -2.9830 6.0024
# 3 1.6618 13.5971 101.6994 5.4163 11.4298 12.5243
# 4 -3.0422 4.8228 5.4163 21.8776 -2.2059 -5.5263
# 5 10.7054 -2.9830 11.4298 -2.2059 25.5554 0.4995
# 6 4.2726 6.0024 12.5243 -5.5263 0.4995 19.6570
#
#
#
# Elastic Compliance Matrix: (Units=1/GPa)
#
#
# Indices 1 2 3 4 5 6 
#
# 1 0.048139 -0.014324 0.004348 0.004675 -0.023243 -0.006955
# 2 -0.014324 0.024124 -0.003203 -0.006624 0.009762 -0.004322
# 3 0.004348 -0.003203 0.012469 -0.004878 -0.008016 -0.009079
# 4 0.004675 -0.006624 -0.004878 0.054275 0.003758 0.019278
# 5 -0.023243 0.009762 -0.008016 0.003758 0.053782 0.006868
# 6 -0.006955 -0.004322 -0.009079 0.019278 0.006868 0.064734
#
#
# Mechanical properties :
#
#
# Convention : Reuss Voigt Hill
#
# Bulk Modulus (GPa) = 17.13087 27.42095 22.27591
# Shear Modulus (GPa) = 16.48321 23.98264 20.23292
#
# Velocity S-wave (km/s) = 2.92630 3.52977 3.24210
# Velocity P-wave (km/s) = 4.50747 5.55499 5.05842
#
# Compressibility (1/GPa) = 0.05837415
#
# Stress axis : x y z
#
# Youngs Moduli (GPa) = 20.77298 41.45310 80.19972
#
# Poissons Ratio (x) = 0.59378 -0.34874
# Poissons Ratio (y) = 0.29755 0.25690
# Poissons Ratio (z) = -0.09033 0.13279
#
# Static dielectric constant tensor:
#      x y z
#    x 1.708140 -0.073350 0.032170 
#    y -0.073350 1.787060 -0.021430 
#    z 0.032170 -0.021430 1.680970 
# 
# From -- ./inp_files/423433.got.cif
#   From: 2010.05.17/outbox.cif.g08.bks.cpg/sg2_212_cif.got.tgz:423433.got - 2010.06.03 11:33:40.
