data_PCOD9081234
_publ_section_title
;
Structure prediction by ZEFSAII (Michael W. Deem and Ramdas Pophale) SiO2 
 PCOD9081234
Probable space group: P -1
;
_chemical_formula_sum "Si O2"
_cell_formula_units_Z 16
_cell_length_a 12.955196
_cell_length_b 20.834173
_cell_length_c 11.344801
_cell_angle_alpha 33.335632
_cell_angle_beta 117.899445
_cell_angle_gamma 140.273971
_cell_volume 933.090543
_symmetry_space_group_name_H-M "P -1"
_symmetry_group_IT_number 2
_symmetry_cell_setting 'triclinic'
loop_
_space_group_symop_operation_xyz
x,y,z
-x,-y,-z
loop_
_atom_site_type_symbol
_atom_site_label
_atom_site_fract_x
_atom_site_fract_y
_atom_site_fract_z
Si Si1 0.603799 0.396103 0.696631
Si Si2 0.752013 0.831479 0.743431
Si Si3 0.612994 0.985706 0.740077
Si Si4 0.610611 0.968348 0.490286
Si Si5 0.985645 0.612957 0.661262
Si Si6 0.031576 0.389329 0.069277
Si Si7 0.831498 0.752006 0.673105
Si Si8 0.494528 0.505507 0.292424
O O1 0.560824 0.439088 0.493189
O O2 0.557015 0.442832 0.711601
O O3 0.817035 0.521960 0.630011
O O4 0.477998 0.182881 0.969080
O O5 0.633388 0.857486 0.620366
O O6 0.763005 0.763004 0.736991
O O7 0.655044 0.685514 0.020386
O O8 0.962657 0.037345 0.569933
O O9 0.529570 0.050097 0.615410
O O10 0.834888 0.165151 0.592950
O O11 0.561549 0.917142 0.681235
O O12 0.813130 0.186800 0.259787
O O13 0.917153 0.561570 0.840070
O O14 0.049984 0.529487 0.804986
O O15 0.142432 0.366560 0.111233
O O16 0.685514 0.654974 0.639161
#
# Coordination Sequence:
#
# PCOD9081234 Si02
#       8
#     2   2   2   2   2   2   2   2
#     4  11  22  36  52  82 115 146 180 212 268 338
#     4  10  21  37  57  84 108 140 183 229 271 316
#     4  10  19  31  52  79 110 141 172 224 274 318
#     4   9  17  30  52  81 110 131 173 231 273 312
#     4  10  19  31  52  79 110 141 172 224 274 318
#     4   9  17  30  52  81 110 131 173 231 273 312
#     4  10  21  37  57  84 108 140 183 229 271 316
#     4  11  23  36  56  78 115 149 177 217 264 338
#
# _framework density 17.147319
#
# number of rings (size 3 to 8) (size 9 to 14) (size 15 to 20)
#    0.000    2.000    3.750    0.375    3.500    1.000 
#    0.000    2.500    0.000    1.500    0.000    0.000 
#    0.000    0.000    0.000    0.000    0.000    0.000 
#
# Total GULP energy -89274.019689 kJ/mol
# GULP energy per Si atom -5579.626231 kJ/mol
# Density = 1.710829 g / cm^3
# Si number density = 17.147319 Si / 1000 Ang^3
#
#
#
# Elastic Constant Matrix: (Units=GPa)
#
#
# Indices 1 2 3 4 5 6 
#
# 1 105.7028 41.3654 42.4474 4.0179 22.2629 7.1040
# 2 41.3654 74.3952 49.6981 3.8502 4.0937 20.6221
# 3 42.4474 49.6981 104.8067 4.5377 16.2780 13.4017
# 4 4.0179 3.8502 4.5377 14.9628 5.5372 4.1624
# 5 22.2629 4.0937 16.2780 5.5372 22.2085 3.3643
# 6 7.1040 20.6221 13.4017 4.1624 3.3643 24.5506
#
#
#
# Elastic Compliance Matrix: (Units=1/GPa)
#
#
# Indices 1 2 3 4 5 6 
#
# 1 0.016140 -0.009383 -0.000443 0.002531 -0.015537 0.005153
# 2 -0.009383 0.029906 -0.010213 -0.002415 0.014775 -0.018446
# 3 -0.000443 -0.010213 0.015882 0.001231 -0.009799 0.001171
# 4 0.002531 -0.002415 0.001231 0.076707 -0.020673 -0.009548
# 5 -0.015537 0.014775 -0.009799 -0.020673 0.071559 -0.008867
# 6 0.005153 -0.018446 0.001171 -0.009548 -0.008867 0.056930
#
#
# Mechanical properties :
#
#
# Convention : Reuss Voigt Hill
#
# Bulk Modulus (GPa) = 45.76235 61.32515 53.54375
# Shear Modulus (GPa) = 15.89896 22.43730 19.16813
#
# Velocity S-wave (km/s) = 3.04830 3.62125 3.34705
# Velocity P-wave (km/s) = 6.25581 7.30246 6.79930
#
# Compressibility (1/GPa) = 0.02185203
#
# Stress axis : x y z
#
# Youngs Moduli (GPa) = 61.95784 33.43796 62.96277
#
# Poissons Ratio (x) = 0.31374 0.02789
# Poissons Ratio (y) = 0.58133 0.64301
# Poissons Ratio (z) = 0.02745 0.34149
#
# Static dielectric constant tensor:
#      x y z
#    x 1.596790 0.016760 0.008740 
#    y 0.016760 1.564130 -0.033640 
#    z 0.008740 -0.033640 1.585880 
# 
# From -- ./inp_files/185906.got.cif
#   From: 2010.05.17/outbox.cif.g08.bks.cpg/sg2_93_cif.got.tgz:185906.got - 2010.06.03 11:33:40.
