data_PCOD9081329
_publ_section_title
;
Structure prediction by ZEFSAII (Michael W. Deem and Ramdas Pophale) SiO2 
 PCOD9081329
Probable space group: P -1
;
_chemical_formula_sum "Si O2"
_cell_formula_units_Z 16
_cell_length_a 7.897443
_cell_length_b 9.194137
_cell_length_c 17.191970
_cell_angle_alpha 122.060222
_cell_angle_beta 46.871421
_cell_angle_gamma 130.185327
_cell_volume 686.939754
_symmetry_space_group_name_H-M "P -1"
_symmetry_group_IT_number 2
_symmetry_cell_setting 'triclinic'
loop_
_space_group_symop_operation_xyz
x,y,z
-x,-y,-z
loop_
_atom_site_type_symbol
_atom_site_label
_atom_site_fract_x
_atom_site_fract_y
_atom_site_fract_z
Si Si1 0.903745 0.170412 0.702729
Si Si2 0.848303 0.467478 0.618170
Si Si3 0.430896 0.552820 0.951831
Si Si4 0.230380 0.328298 0.512408
Si Si5 0.091974 0.567152 0.843640
Si Si6 0.558069 0.803505 0.239256
Si Si7 0.305022 0.224339 0.281454
Si Si8 0.042082 0.119219 0.101955
O O1 0.634334 0.143225 0.738297
O O2 0.104131 0.167880 0.573359
O O3 0.044055 0.376755 0.758067
O O4 0.829566 0.004351 0.742714
O O5 0.574927 0.272023 0.656274
O O6 0.818053 0.659157 0.693400
O O7 0.000000 0.500000 0.500000
O O8 0.033006 0.423555 0.603929
O O9 0.450302 0.393223 0.846487
O O10 0.656867 0.771468 0.933862
O O11 0.500000 0.500000 0.000000
O O12 0.131960 0.507819 0.041532
O O13 0.500000 0.500000 0.500000
O O14 0.269936 0.263602 0.395887
O O15 0.390372 0.679660 0.808070
O O16 0.040602 0.714231 0.846160
O O17 0.843814 0.973869 0.185474
O O18 0.000000 0.000000 0.000000
#
# Coordination Sequence:
#
# PCOD9081329 Si02
#       8
#     2   2   2   2   2   2   2   2
#     4  11  20  34  60  92 116 157 209 255 298 360
#     4   9  23  43  63  87 127 163 201 250 307 371
#     4  10  19  31  54  94 127 144 201 264 300 345
#     4  10  20  39  66  90 116 152 208 264 301 358
#     4  11  20  32  58  91 124 152 199 252 305 352
#     4  11  19  36  63  88 121 163 202 255 303 356
#     4  11  22  39  60  85 126 165 198 248 316 365
#     4  11  18  32  58  96 121 156 204 261 306 346
#
# _framework density 23.291706999999999
#
# number of rings (size 3 to 8) (size 9 to 14) (size 15 to 20)
#    0.000    1.500    7.500    0.375    0.000    0.000 
#    0.000    2.500    2.750    1.500    0.000    0.000 
#    0.000    0.000    0.000    0.000    0.000    0.000 
#
# Total GULP energy -89347.217847 kJ/mol
# GULP energy per Si atom -5584.201115 kJ/mol
# Density = 2.323869 g / cm^3
# Si number density = 23.291707 Si / 1000 Ang^3
#
#
#
# Elastic Constant Matrix: (Units=GPa)
#
#
# Indices 1 2 3 4 5 6 
#
# 1 30.5790 25.6923 19.5663 -14.5399 -7.6392 2.5474
# 2 25.6923 175.9334 55.2094 -38.3418 -8.2427 9.4500
# 3 19.5663 55.2094 106.4134 -38.6270 -16.3718 8.9439
# 4 -14.5399 -38.3418 -38.6270 54.1668 6.9832 -3.4014
# 5 -7.6392 -8.2427 -16.3718 6.9832 26.3786 -2.7459
# 6 2.5474 9.4500 8.9439 -3.4014 -2.7459 26.4468
#
#
#
# Elastic Compliance Matrix: (Units=1/GPa)
#
#
# Indices 1 2 3 4 5 6 
#
# 1 0.042212 -0.003722 -0.002432 0.005916 0.007952 -0.000327
# 2 -0.003722 0.007573 -0.002277 0.002784 -0.000999 -0.001323
# 3 -0.002432 -0.002277 0.014768 0.007400 0.005539 -0.002419
# 4 0.005916 0.002784 0.007400 0.027275 -0.000104 -0.000570
# 5 0.007952 -0.000999 0.005539 -0.000104 0.043597 0.002231
# 6 -0.000327 -0.001323 -0.002419 -0.000570 0.002231 0.039293
#
#
# Mechanical properties :
#
#
# Convention : Reuss Voigt Hill
#
# Bulk Modulus (GPa) = 20.96815 57.09577 39.03196
# Shear Modulus (GPa) = 24.09917 35.56229 29.83073
#
# Velocity S-wave (km/s) = 3.22011 3.91170 3.58263
# Velocity P-wave (km/s) = 4.77990 6.70585 5.82305
#
# Compressibility (1/GPa) = 0.04769138
#
# Stress axis : x y z
#
# Youngs Moduli (GPa) = 23.68975 132.05142 67.71626
#
# Poissons Ratio (x) = 0.49145 0.16470
# Poissons Ratio (y) = 0.08817 0.15417
# Poissons Ratio (z) = 0.05762 0.30064
#
# Static dielectric constant tensor:
#      x y z
#    x 2.028090 -0.083240 0.005780 
#    y -0.083240 1.933230 -0.065990 
#    z 0.005780 -0.065990 1.996520 
# 
# From -- ./inp_files/588025.got.cif
#   From: 2010.05.17/outbox.cif.g08.bks.cpg/sg2_295_cif.got.tgz:588025.got - 2010.06.03 11:33:40.
