data_PCOD9081638
_publ_section_title
;
Structure prediction by ZEFSAII (Michael W. Deem and Ramdas Pophale) SiO2 
 PCOD9081638
Probable space group: P -1
;
_chemical_formula_sum "Si O2"
_cell_formula_units_Z 14
_cell_length_a 13.920642
_cell_length_b 13.959941
_cell_length_c 6.981949
_cell_angle_alpha 139.236008
_cell_angle_beta 51.450144
_cell_angle_gamma 137.500938
_cell_volume 592.023334
_symmetry_space_group_name_H-M "P -1"
_symmetry_group_IT_number 2
_symmetry_cell_setting 'triclinic'
loop_
_space_group_symop_operation_xyz
x,y,z
-x,-y,-z
loop_
_atom_site_type_symbol
_atom_site_label
_atom_site_fract_x
_atom_site_fract_y
_atom_site_fract_z
Si Si1 0.977400 0.031327 0.353412
Si Si2 0.893627 0.571002 0.210877
Si Si3 0.620373 0.268963 0.180813
Si Si4 0.161808 0.605243 0.371300
Si Si5 0.528223 0.192668 0.744770
Si Si6 0.779561 0.023665 0.137827
Si Si7 0.691239 0.976211 0.722427
O O1 0.039369 0.231162 0.544073
O O2 0.807447 0.951112 0.430257
O O3 0.000000 0.000000 0.500000
O O4 0.074643 0.978245 0.035912
O O5 0.752521 0.457551 0.340994
O O6 0.850474 0.524769 0.973326
O O7 0.000000 0.500000 0.000000
O O8 0.470002 0.182063 0.344680
O O9 0.572779 0.265537 0.014522
O O10 0.681767 0.141175 0.925274
O O11 0.325784 0.685711 0.374353
O O12 0.182741 0.788031 0.555624
O O13 0.000000 0.500000 0.500000
O O14 0.500000 0.000000 0.500000
O O15 0.363053 0.138201 0.837570
O O16 0.737237 0.008324 0.939175
#
# Coordination Sequence:
#
# PCOD9081638 Si02
#       7
#     2   2   2   2   2   2   2
#     4  10  19  33  53  79 113 141 172 220 273 314
#     4  11  21  35  54  80 109 138 182 225 257 313
#     4   9  17  29  51  77 104 135 182 215 260 305
#     4  10  19  32  53  79 103 139 180 216 260 314
#     4   8  16  31  49  71 104 136 178 212 253 317
#     4   9  18  33  52  76 106 140 173 216 266 316
#     4   9  16  30  51  79 106 138 172 220 262 316
#
# _framework density 23.647715999999999
#
# number of rings (size 3 to 8) (size 9 to 14) (size 15 to 20)
#    0.000    2.571    1.429    1.714    0.000    0.000 
#    0.000   13.571    0.000    0.000    0.000    2.000 
#    0.000    0.000    0.000    0.000    0.000    0.000 
#
# Total GULP energy -78053.385347 kJ/mol
# GULP energy per Si atom -5575.241811 kJ/mol
# Density = 2.359389 g / cm^3
# Si number density = 23.647716 Si / 1000 Ang^3
#
#
#
# Elastic Constant Matrix: (Units=GPa)
#
#
# Indices 1 2 3 4 5 6 
#
# 1 118.9571 49.6850 19.8134 -9.2843 -12.3800 25.6727
# 2 49.6850 182.4532 27.1387 -27.0189 -12.7090 39.5535
# 3 19.8134 27.1387 69.8147 -17.9935 -15.9270 11.0869
# 4 -9.2843 -27.0189 -17.9935 42.0138 10.3223 -11.9475
# 5 -12.3800 -12.7090 -15.9270 10.3223 34.4709 -11.4134
# 6 25.6727 39.5535 11.0869 -11.9475 -11.4134 38.3458
#
#
#
# Elastic Compliance Matrix: (Units=1/GPa)
#
#
# Indices 1 2 3 4 5 6 
#
# 1 0.010431 -0.001638 -0.001574 -0.001077 0.001136 -0.004836
# 2 -0.001638 0.007723 -0.001135 0.002665 -0.001059 -0.006026
# 3 -0.001574 -0.001135 0.017823 0.005250 0.005825 0.000441
# 4 -0.001077 0.002665 0.005250 0.029883 -0.004458 0.004438
# 5 0.001136 -0.001059 0.005825 -0.004458 0.035661 0.007872
# 6 -0.004836 -0.006026 0.000441 0.004438 0.007872 0.039130
#
#
# Mechanical properties :
#
#
# Convention : Reuss Voigt Hill
#
# Bulk Modulus (GPa) = 36.65251 62.72213 49.68732
# Shear Modulus (GPa) = 31.55769 41.27196 36.41483
#
# Velocity S-wave (km/s) = 3.65703 4.18219 3.92840
# Velocity P-wave (km/s) = 5.77624 7.06414 6.45240
#
# Compressibility (1/GPa) = 0.02728326
#
# Stress axis : x y z
#
# Youngs Moduli (GPa) = 95.87151 129.48155 56.10579
#
# Poissons Ratio (x) = 0.21214 0.08830
# Poissons Ratio (y) = 0.15707 0.06367
# Poissons Ratio (z) = 0.15088 0.14694
#
# Static dielectric constant tensor:
#      x y z
#    x 1.730750 0.168140 -0.086000 
#    y 0.168140 1.997120 -0.038330 
#    z -0.086000 -0.038330 1.805750 
# 
# From -- ./inp_files/253164.got.cif
#   From: 2010.05.17/outbox.cif.g08.bks.cpg/sg2_127_cif.got.tgz:253164.got - 2010.06.03 11:33:40.
