data_PCOD9081669
_publ_section_title
;
Structure prediction by ZEFSAII (Michael W. Deem and Ramdas Pophale) SiO2 
 PCOD9081669
Probable space group: P -1
;
_chemical_formula_sum "Si O2"
_cell_formula_units_Z 16
_cell_length_a 10.144945
_cell_length_b 9.457022
_cell_length_c 10.378001
_cell_angle_alpha 71.689158
_cell_angle_beta 133.404471
_cell_angle_gamma 116.652905
_cell_volume 646.486249
_symmetry_space_group_name_H-M "P -1"
_symmetry_group_IT_number 2
_symmetry_cell_setting 'triclinic'
loop_
_space_group_symop_operation_xyz
x,y,z
-x,-y,-z
loop_
_atom_site_type_symbol
_atom_site_label
_atom_site_fract_x
_atom_site_fract_y
_atom_site_fract_z
Si Si1 0.529492 0.973092 0.820637
Si Si2 0.103512 0.133914 0.931316
Si Si3 0.653590 0.660999 0.349093
Si Si4 0.880828 0.511452 0.720191
Si Si5 0.517925 0.215702 0.554243
Si Si6 0.298617 0.374611 0.183460
Si Si7 0.073196 0.046595 0.679045
Si Si8 0.238868 0.786786 0.888303
O O1 0.494871 0.040745 0.639902
O O2 0.692868 0.892759 0.951356
O O3 0.346362 0.854910 0.806824
O O4 0.611757 0.132021 0.920614
O O5 0.152183 0.294500 0.995558
O O6 0.987271 0.108289 0.726331
O O7 0.000000 0.000000 0.000000
O O8 0.814670 0.590639 0.528666
O O9 0.578562 0.715826 0.413922
O O10 0.476564 0.521945 0.212163
O O11 0.739203 0.803326 0.268612
O O12 0.743975 0.327117 0.668525
O O13 0.802468 0.566851 0.783501
O O14 0.111213 0.603579 0.856122
O O15 0.400064 0.251600 0.344443
O O16 0.090790 0.882194 0.784183
O O17 0.000000 0.000000 0.500000
#
# Coordination Sequence:
#
# PCOD9081669 Si02
#       8
#     2   2   2   2   2   2   2   2
#     4  10  21  34  53  82 112 150 188 238 286 330
#     4  11  25  39  56  82 120 149 186 239 290 340
#     4   9  17  32  60  88 109 148 194 234 275 331
#     4   9  17  33  59  87 111 148 189 242 275 326
#     4   9  18  33  58  85 114 146 194 231 284 334
#     4   9  19  36  55  84 122 151 182 231 286 340
#     4  11  20  34  62  88 110 149 197 234 277 337
#     4  10  19  32  53  83 115 137 194 244 277 318
#
# _framework density 24.749172000000002
#
# number of rings (size 3 to 8) (size 9 to 14) (size 15 to 20)
#    0.000    2.250    2.500    3.000    1.750    1.500 
#    0.000    0.000    2.750    1.500    0.000    0.000 
#    0.000    0.000    0.000    0.000    0.000    0.000 
#
# Total GULP energy -89302.114022 kJ/mol
# GULP energy per Si atom -5581.382126 kJ/mol
# Density = 2.469284 g / cm^3
# Si number density = 24.749172 Si / 1000 Ang^3
#
#
#
# Elastic Constant Matrix: (Units=GPa)
#
#
# Indices 1 2 3 4 5 6 
#
# 1 41.6439 28.5930 15.1729 2.8206 -3.1332 22.5888
# 2 28.5930 130.9519 33.1310 -2.4482 -9.2312 33.3490
# 3 15.1729 33.1310 117.9885 7.8364 -20.3455 4.2355
# 4 2.8206 -2.4482 7.8364 29.3674 -5.7950 1.6446
# 5 -3.1332 -9.2312 -20.3455 -5.7950 28.5404 -0.5614
# 6 22.5888 33.3490 4.2355 1.6446 -0.5614 40.1204
#
#
#
# Elastic Compliance Matrix: (Units=1/GPa)
#
#
# Indices 1 2 3 4 5 6 
#
# 1 0.037030 -0.002655 -0.003207 -0.001865 0.000183 -0.018224
# 2 -0.002655 0.010854 -0.002272 0.002568 0.001976 -0.007365
# 3 -0.003207 -0.002272 0.010605 -0.001642 0.006193 0.002728
# 4 -0.001865 0.002568 -0.001642 0.036352 0.006791 -0.002306
# 5 0.000183 0.001976 0.006193 0.006791 0.041450 -0.002098
# 6 -0.018224 -0.007365 0.002728 -0.002306 -0.002098 0.041085
#
#
# Mechanical properties :
#
#
# Convention : Reuss Voigt Hill
#
# Bulk Modulus (GPa) = 23.68449 49.37534 36.52991
# Shear Modulus (GPa) = 24.07133 33.85146 28.96139
#
# Velocity S-wave (km/s) = 3.12206 3.70237 3.42452
# Velocity P-wave (km/s) = 4.75257 6.18630 5.51621
#
# Compressibility (1/GPa) = 0.04222173
#
# Stress axis : x y z
#
# Youngs Moduli (GPa) = 27.00517 92.13401 94.29755
#
# Poissons Ratio (x) = 0.24461 0.30239
# Poissons Ratio (y) = 0.07170 0.21422
# Poissons Ratio (z) = 0.08660 0.20930
#
# Static dielectric constant tensor:
#      x y z
#    x 2.002790 -0.048000 0.063430 
#    y -0.048000 1.964420 0.038540 
#    z 0.063430 0.038540 2.103310 
# 
# From -- ./inp_files/257687.got.cif
#   From: 2010.05.17/outbox.cif.g08.bks.cpg/sg2_129_cif.got.tgz:257687.got - 2010.06.03 11:33:40.
