data_PCOD9081130
_publ_section_title
;
Structure prediction by ZEFSAII (Michael W. Deem and Ramdas Pophale) SiO2 
 PCOD9081130
Probable space group: P -1
;
_chemical_formula_sum "Si O2"
_cell_formula_units_Z 16
_cell_length_a 10.363085
_cell_length_b 11.090062
_cell_length_c 20.447449
_cell_angle_alpha 148.500859
_cell_angle_beta 26.927129
_cell_angle_gamma 143.810962
_cell_volume 545.012642
_symmetry_space_group_name_H-M "P -1"
_symmetry_group_IT_number 2
_symmetry_cell_setting 'triclinic'
loop_
_space_group_symop_operation_xyz
x,y,z
-x,-y,-z
loop_
_atom_site_type_symbol
_atom_site_label
_atom_site_fract_x
_atom_site_fract_y
_atom_site_fract_z
Si Si1 0.569588 0.644393 0.778219
Si Si2 0.424511 0.683122 0.255141
Si Si3 0.258025 0.594346 0.090608
Si Si4 0.113600 0.821471 0.127499
Si Si5 0.678703 0.483135 0.511317
Si Si6 0.712992 0.178486 0.182262
Si Si7 0.875890 0.912894 0.408823
Si Si8 0.938225 0.075836 0.169243
O O1 0.603855 0.452386 0.726650
O O2 0.674217 0.561502 0.624409
O O3 0.750158 0.908613 0.830491
O O4 0.230288 0.675129 0.947342
O O5 0.169573 0.829835 0.434006
O O6 0.731858 0.879216 0.215169
O O7 0.473370 0.540491 0.100404
O O8 0.250576 0.677540 0.056170
O O9 0.986895 0.390515 0.139947
O O10 0.158616 0.827356 0.271188
O O11 0.869216 0.876706 0.315123
O O12 0.560547 0.697643 0.630957
O O13 0.405362 0.267999 0.524555
O O14 0.935303 0.343334 0.314915
O O15 0.771306 0.059535 0.167950
O O16 0.754385 0.992144 0.020465
#
# Coordination Sequence:
#
# PCOD9081130 Si02
#       8
#     2   2   2   2   2   2   2   2
#     4  10  19  31  49  68 105 126 156 196 238 282
#     4   9  16  29  45  71  96 123 151 195 237 276
#     4   7  14  29  46  67  90 119 159 193 226 274
#     4   8  17  34  46  67  94 136 165 181 232 297
#     4  10  19  31  48  77  98 122 155 204 241 272
#     4   9  16  32  52  72  96 125 156 201 238 282
#     4   8  16  29  46  67  93 119 166 183 231 287
#     4   9  18  30  49  76  98 121 160 195 242 286
#
# _framework density 29.357115
#
# number of rings (size 3 to 8) (size 9 to 14) (size 15 to 20)
#    0.750    2.500    0.000    0.375    0.000    3.000 
#    2.250    0.000    0.000    0.750    0.000    9.625 
#    0.000    0.000    0.000    0.000    0.000    0.000 
#
# Total GULP energy -89240.151493 kJ/mol
# GULP energy per Si atom -5577.509468 kJ/mol
# Density = 2.929030 g / cm^3
# Si number density = 29.357115 Si / 1000 Ang^3
#
#
#
# Elastic Constant Matrix: (Units=GPa)
#
#
# Indices 1 2 3 4 5 6 
#
# 1 56.2613 32.6402 22.0815 0.6320 0.8132 2.5376
# 2 32.6402 110.5309 27.4119 29.2739 -4.1604 -12.2563
# 3 22.0815 27.4119 224.5781 2.9843 -4.9460 -3.3803
# 4 0.6320 29.2739 2.9843 45.5981 -7.3270 -7.0108
# 5 0.8132 -4.1604 -4.9460 -7.3270 47.2623 -1.4408
# 6 2.5376 -12.2563 -3.3803 -7.0108 -1.4408 33.7381
#
#
#
# Elastic Compliance Matrix: (Units=1/GPa)
#
#
# Indices 1 2 3 4 5 6 
#
# 1 0.023159 -0.008073 -0.001424 0.004228 -0.000724 -0.003969
# 2 -0.008073 0.014289 -0.000776 -0.008376 0.000139 0.003986
# 3 -0.001424 -0.000776 0.004700 0.000353 0.000515 0.000391
# 4 0.004228 -0.008376 0.000353 0.028234 0.003686 0.002699
# 5 -0.000724 0.000139 0.000515 0.003686 0.021865 0.001856
# 6 -0.003969 0.003986 0.000391 0.002699 0.001856 0.032066
#
#
# Mechanical properties :
#
#
# Convention : Reuss Voigt Hill
#
# Bulk Modulus (GPa) = 46.29077 61.73749 54.01413
# Shear Modulus (GPa) = 32.88211 45.93550 39.40881
#
# Velocity S-wave (km/s) = 3.35038 3.95994 3.66784
# Velocity P-wave (km/s) = 5.54699 6.47948 6.03128
#
# Compressibility (1/GPa) = 0.02160258
#
# Stress axis : x y z
#
# Youngs Moduli (GPa) = 43.18062 69.98291 212.76528
#
# Poissons Ratio (x) = 0.56498 0.30288
# Poissons Ratio (y) = 0.34860 0.16511
# Poissons Ratio (z) = 0.06147 0.05431
#
# Static dielectric constant tensor:
#      x y z
#    x 2.509460 0.151810 -0.053160 
#    y 0.151810 2.306420 -0.009430 
#    z -0.053160 -0.009430 2.382830 
# 
# From -- ./inp_files/611887.got.cif
#   From: 2010.05.17/outbox.cif.g08.bks.cpg/sg2_306_cif.got.tgz:611887.got - 2010.06.03 11:33:40.
