data_PCOD9081426
_publ_section_title
;
Structure prediction by ZEFSAII (Michael W. Deem and Ramdas Pophale) SiO2 
 PCOD9081426
Probable space group: P -1
;
_chemical_formula_sum "Si O2"
_cell_formula_units_Z 12
_cell_length_a 14.955203
_cell_length_b 16.569262
_cell_length_c 9.475474
_cell_angle_alpha 147.199032
_cell_angle_beta 119.218620
_cell_angle_gamma 36.137373
_cell_volume 601.809753
_symmetry_space_group_name_H-M "P -1"
_symmetry_group_IT_number 2
_symmetry_cell_setting 'triclinic'
loop_
_space_group_symop_operation_xyz
x,y,z
-x,-y,-z
loop_
_atom_site_type_symbol
_atom_site_label
_atom_site_fract_x
_atom_site_fract_y
_atom_site_fract_z
Si Si1 0.671377 0.201851 0.765334
Si Si2 0.244749 0.649433 0.717056
Si Si3 0.419334 0.261975 0.803689
Si Si4 0.989240 0.835588 0.240374
Si Si5 0.530374 0.284077 0.198271
Si Si6 0.089212 0.076942 0.017147
O O1 0.568781 0.178825 0.708350
O O2 0.500000 0.500000 0.000000
O O3 0.737599 0.235140 0.989381
O O4 0.842662 0.964855 0.439475
O O5 0.446075 0.341478 0.367966
O O6 0.122072 0.665251 0.708217
O O7 0.150081 0.841309 0.786130
O O8 0.500000 0.000000 0.500000
O O9 0.205470 0.517727 0.956536
O O10 0.417984 0.345902 0.077175
O O11 0.000000 0.000000 0.500000
O O12 0.912664 0.904921 0.125348
O O13 0.500000 0.500000 0.500000
O O14 0.753653 0.997501 0.921852
#
# Coordination Sequence:
#
# PCOD9081426 Si02
#       6
#     2   2   2   2   2   2
#     4  12  22  38  69 102 128 171 227 273 319 392
#     4  10  19  31  61  97 123 157 222 273 314 368
#     4  12  27  44  62 100 144 172 210 279 341 384
#     4  12  22  38  68  99 131 170 227 273 319 390
#     4  10  19  36  64  89 120 172 219 259 309 391
#     4  10  19  33  57  95 123 155 214 278 310 361
#
# _framework density 19.939855000000001
#
# number of rings (size 3 to 8) (size 9 to 14) (size 15 to 20)
#    0.000    1.000    6.667    3.000    2.333    0.667 
#    0.000    0.833    0.000    7.000    0.000    0.000 
#    0.000    0.000    0.000    0.000    0.000    0.000 
#
# Total GULP energy -66827.132702 kJ/mol
# GULP energy per Si atom -5568.927725 kJ/mol
# Density = 1.989447 g / cm^3
# Si number density = 19.939855 Si / 1000 Ang^3
#
#
#
# Elastic Constant Matrix: (Units=GPa)
#
#
# Indices 1 2 3 4 5 6 
#
# 1 133.6510 26.2434 50.6903 4.8786 -47.7073 3.0942
# 2 26.2434 116.0515 27.4839 -5.1112 -5.5685 -1.6418
# 3 50.6903 27.4839 57.0811 5.5098 -17.1037 11.3288
# 4 4.8786 -5.1112 5.5098 29.3497 4.4345 -7.1315
# 5 -47.7073 -5.5685 -17.1037 4.4345 50.5611 2.5238
# 6 3.0942 -1.6418 11.3288 -7.1315 2.5238 23.0455
#
#
#
# Elastic Compliance Matrix: (Units=1/GPa)
#
#
# Indices 1 2 3 4 5 6 
#
# 1 0.015529 -0.000694 -0.009982 -0.002351 0.011365 0.000801
# 2 -0.000694 0.010625 -0.007012 0.005182 -0.002621 0.006188
# 3 -0.009982 -0.007012 0.036459 -0.012238 0.004280 -0.021338
# 4 -0.002351 0.005182 -0.012238 0.044556 -0.010777 0.021669
# 5 0.011365 -0.002621 0.004280 -0.010777 0.033144 -0.010781
# 6 0.000801 0.006188 -0.021338 0.021669 -0.010781 0.062101
#
#
# Mechanical properties :
#
#
# Convention : Reuss Voigt Hill
#
# Bulk Modulus (GPa) = 36.71915 57.29098 47.00506
# Shear Modulus (GPa) = 20.25361 34.08233 27.16797
#
# Velocity S-wave (km/s) = 3.19052 4.13880 3.69520
# Velocity P-wave (km/s) = 5.65928 7.18567 6.46766
#
# Compressibility (1/GPa) = 0.02723375
#
# Stress axis : x y z
#
# Youngs Moduli (GPa) = 64.39724 94.12089 27.42832
#
# Poissons Ratio (x) = 0.06536 0.27380
# Poissons Ratio (y) = 0.04472 0.19234
# Poissons Ratio (z) = 0.64283 0.66002
#
# Static dielectric constant tensor:
#      x y z
#    x 1.837220 -0.065690 -0.141190 
#    y -0.065690 1.847480 0.050080 
#    z -0.141190 0.050080 1.768290 
# 
# From -- ./inp_files/312130.got.cif
#   From: 2010.05.17/outbox.cif.g08.bks.cpg/sg2_157_cif.got.tgz:312130.got - 2010.06.03 11:33:40.
