data_PCOD9081639
_publ_section_title
;
Structure prediction by ZEFSAII (Michael W. Deem and Ramdas Pophale) SiO2 
 PCOD9081639
Probable space group: P -1
;
_chemical_formula_sum "Si O2"
_cell_formula_units_Z 16
_cell_length_a 11.463800
_cell_length_b 6.364049
_cell_length_c 13.004736
_cell_angle_alpha 111.919241
_cell_angle_beta 130.933760
_cell_angle_gamma 78.879494
_cell_volume 663.142655
_symmetry_space_group_name_H-M "P -1"
_symmetry_group_IT_number 2
_symmetry_cell_setting 'triclinic'
loop_
_space_group_symop_operation_xyz
x,y,z
-x,-y,-z
loop_
_atom_site_type_symbol
_atom_site_label
_atom_site_fract_x
_atom_site_fract_y
_atom_site_fract_z
Si Si1 0.927177 0.127929 0.388487
Si Si2 0.195784 0.517302 0.056752
Si Si3 0.048173 0.294602 0.189434
Si Si4 0.806319 0.530220 0.500816
Si Si5 0.775887 0.984044 0.077473
Si Si6 0.727407 0.079271 0.698101
Si Si7 0.537469 0.285930 0.912206
Si Si8 0.397728 0.121965 0.603827
O O1 0.811237 0.300506 0.400034
O O2 0.068535 0.288223 0.449021
O O3 0.834330 0.963223 0.224179
O O4 0.000000 0.000000 0.500000
O O5 0.230713 0.659750 0.205417
O O6 0.331882 0.612157 0.074085
O O7 0.207968 0.249733 0.015058
O O8 0.034224 0.595507 0.933362
O O9 0.133106 0.475165 0.349084
O O10 0.161554 0.089107 0.211096
O O11 0.901115 0.172544 0.140732
O O12 0.640088 0.631731 0.417574
O O13 0.613468 0.091779 0.986607
O O14 0.559289 0.033649 0.644524
O O15 0.722834 0.031326 0.564740
O O16 0.405554 0.166638 0.738598
O O17 0.500000 0.500000 0.000000
#
# Coordination Sequence:
#
# PCOD9081639 Si02
#       8
#     2   2   2   2   2   2   2   2
#     4  10  19  32  53  79 106 138 174 216 264 313
#     4  10  20  35  55  80 108 138 176 221 264 309
#     4   9  18  34  55  79 105 135 174 222 269 310
#     4   9  18  33  53  77 106 138 174 216 262 313
#     4  10  21  34  52  81 108 136 178 218 263 317
#     4   9  18  34  57  79 103 141 181 217 263 313
#     4  10  21  37  56  78 108 143 175 214 263 315
#     4   9  18  35  56  77 105 141 179 216 259 312
#
# _framework density 24.127541000000001
#
# number of rings (size 3 to 8) (size 9 to 14) (size 15 to 20)
#    0.000    2.500    0.000    1.875    0.000    4.000 
#    0.000    3.125    0.000    9.000    0.000    0.000 
#    0.000    0.000    0.000    0.000    0.000    0.000 
#
# Total GULP energy -89356.539080 kJ/mol
# GULP energy per Si atom -5584.783692 kJ/mol
# Density = 2.407263 g / cm^3
# Si number density = 24.127541 Si / 1000 Ang^3
#
#
#
# Elastic Constant Matrix: (Units=GPa)
#
#
# Indices 1 2 3 4 5 6 
#
# 1 51.9810 20.7069 25.5374 4.9071 -12.0351 -13.2976
# 2 20.7069 95.4748 76.8704 3.6397 -12.3778 -33.5585
# 3 25.5374 76.8704 166.2840 -9.5247 -38.0445 -23.6066
# 4 4.9071 3.6397 -9.5247 41.6949 -11.4830 -6.1720
# 5 -12.0351 -12.3778 -38.0445 -11.4830 29.5985 2.5280
# 6 -13.2976 -33.5585 -23.6066 -6.1720 2.5280 48.6646
#
#
#
# Elastic Compliance Matrix: (Units=1/GPa)
#
#
# Indices 1 2 3 4 5 6 
#
# 1 0.023171 -0.002638 0.000224 0.000508 0.008441 0.004247
# 2 -0.002638 0.021862 -0.010586 -0.004947 -0.008227 0.009019
# 3 0.000224 -0.010586 0.016319 0.010439 0.020610 0.000930
# 4 0.000508 -0.004947 0.010439 0.034180 0.024401 0.004859
# 5 0.008441 -0.008227 0.020610 0.024401 0.069211 0.006130
# 6 0.004247 0.009019 0.000930 0.004859 0.006130 0.028678
#
#
# Mechanical properties :
#
#
# Convention : Reuss Voigt Hill
#
# Bulk Modulus (GPa) = 28.28766 62.21881 45.25324
# Shear Modulus (GPa) = 21.62575 36.69996 29.16285
#
# Velocity S-wave (km/s) = 2.99709 3.90434 3.48040
# Velocity P-wave (km/s) = 4.87098 6.79475 5.91164
#
# Compressibility (1/GPa) = 0.03535110
#
# Stress axis : x y z
#
# Youngs Moduli (GPa) = 43.15659 45.74161 61.27938
#
# Poissons Ratio (x) = 0.12068 -0.01375
# Poissons Ratio (y) = 0.11386 0.64873
# Poissons Ratio (z) = -0.00968 0.48424
#
# Static dielectric constant tensor:
#      x y z
#    x 1.992430 0.029990 -0.006770 
#    y 0.029990 1.894010 -0.021690 
#    z -0.006770 -0.021690 1.964840 
# 
# From -- ./inp_files/427792.got.cif
#   From: 2010.05.17/outbox.cif.g08.bks.cpg/sg2_214_cif.got.tgz:427792.got - 2010.06.03 11:33:40.
