data_PCOD9081938
_publ_section_title
;
Structure prediction by ZEFSAII (Michael W. Deem and Ramdas Pophale) SiO2 
 PCOD9081938
Probable space group: P -1
;
_chemical_formula_sum "Si O2"
_cell_formula_units_Z 10
_cell_length_a 7.715360
_cell_length_b 14.252516
_cell_length_c 7.426981
_cell_angle_alpha 54.896632
_cell_angle_beta 37.025548
_cell_angle_gamma 53.206417
_cell_volume 385.794371
_symmetry_space_group_name_H-M "P -1"
_symmetry_group_IT_number 2
_symmetry_cell_setting 'triclinic'
loop_
_space_group_symop_operation_xyz
x,y,z
-x,-y,-z
loop_
_atom_site_type_symbol
_atom_site_label
_atom_site_fract_x
_atom_site_fract_y
_atom_site_fract_z
Si Si1 0.119021 0.114114 0.013911
Si Si2 0.827157 0.734252 0.537057
Si Si3 0.340220 0.665581 0.768608
Si Si4 0.684022 0.963848 0.572613
Si Si5 0.094143 0.482628 0.733841
O O1 0.924246 0.215375 0.196147
O O2 0.058796 0.188861 0.793476
O O3 0.982214 0.003494 0.260311
O O4 0.473916 0.054013 0.789296
O O5 0.549349 0.701501 0.706472
O O6 0.731573 0.822792 0.688807
O O7 0.061377 0.611861 0.534929
O O8 0.578801 0.605376 0.482576
O O9 0.157702 0.573292 0.080797
O O10 0.500000 0.000000 0.500000
O O11 0.000000 0.500000 0.000000
#
# Coordination Sequence:
#
# PCOD9081938 Si02
#       5
#     2   2   2   2   2
#     4  11  20  35  62 101 120 148 196 262 304 349
#     4  11  23  37  69  93 124 155 206 252 296 361
#     4  12  23  41  65  91 121 158 210 255 296 355
#     4  10  19  32  58 101 124 146 188 260 310 348
#     4  12  28  43  59  87 128 168 203 247 307 360
#
# _framework density 25.920545000000001
#
# number of rings (size 3 to 8) (size 9 to 14) (size 15 to 20)
#    0.000    0.800    6.000    4.200    2.800    0.000 
#    0.000    0.000    0.000    7.200    0.000    0.000 
#    0.000    0.000    0.000    0.000    0.000    0.000 
#
# Total GULP energy -55919.464173 kJ/mol
# GULP energy per Si atom -5591.946417 kJ/mol
# Density = 2.586155 g / cm^3
# Si number density = 25.920545 Si / 1000 Ang^3
#
#
#
# Elastic Constant Matrix: (Units=GPa)
#
#
# Indices 1 2 3 4 5 6 
#
# 1 71.0092 44.5061 23.2780 0.1313 19.3155 -15.1140
# 2 44.5061 152.3128 54.0538 15.2496 10.9280 80.8895
# 3 23.2780 54.0538 125.7049 23.4814 -10.8048 13.6012
# 4 0.1313 15.2496 23.4814 51.2898 8.6310 5.6918
# 5 19.3155 10.9280 -10.8048 8.6310 35.9639 -6.4330
# 6 -15.1140 80.8895 13.6012 5.6918 -6.4330 -41.6876
#
#
#
# Elastic Compliance Matrix: (Units=1/GPa)
#
#
# Indices 1 2 3 4 5 6 
#
# 1 0.018165 -0.000145 -0.004784 0.005068 -0.013380 -0.005672
# 2 -0.000145 0.003898 -0.002267 -0.000815 -0.000372 0.006822
# 3 -0.004784 -0.002267 0.011711 -0.005929 0.008040 -0.000893
# 4 0.005068 -0.000815 -0.005929 0.024203 -0.010150 -0.000483
# 5 -0.013380 -0.000372 0.008040 -0.010150 0.039817 -0.000777
# 6 -0.005672 0.006822 -0.000893 -0.000483 -0.000777 -0.008932
#
#
# Mechanical properties :
#
#
# Convention : Reuss Voigt Hill
#
# Bulk Modulus (GPa) = 51.59745 65.85586 58.72666
# Shear Modulus (GPa) = 45.57241 24.25914 34.91578
#
# Velocity S-wave (km/s) = 4.19759 3.06257 3.67417
# Velocity P-wave (km/s) = 6.59107 6.16180 6.38005
#
# Compressibility (1/GPa) = 0.01938080
#
# Stress axis : x y z
#
# Youngs Moduli (GPa) = 55.05048 256.56420 85.38839
#
# Poissons Ratio (x) = 0.03725 0.40854
# Poissons Ratio (y) = 0.00799 0.19357
# Poissons Ratio (z) = 0.26339 0.58161
#
# Static dielectric constant tensor:
#      x y z
#    x 2.107800 0.037120 0.122790 
#    y 0.037120 2.144320 0.045190 
#    z 0.122790 0.045190 2.073520 
# 
# From -- ./inp_files/199179.got.cif
#   From: 2010.05.17/outbox.cif.g08.bks.cpg/sg2_100_cif.got.tgz:199179.got - 2010.06.03 11:33:40.
