data_PCOD9081965
_publ_section_title
;
Structure prediction by ZEFSAII (Michael W. Deem and Ramdas Pophale) SiO2 
 PCOD9081965
Probable space group: P -1
;
_chemical_formula_sum "Si O2"
_cell_formula_units_Z 12
_cell_length_a 12.139744
_cell_length_b 9.402199
_cell_length_c 9.930565
_cell_angle_alpha 94.668939
_cell_angle_beta 60.290411
_cell_angle_gamma 143.822461
_cell_volume 455.255587
_symmetry_space_group_name_H-M "P -1"
_symmetry_group_IT_number 2
_symmetry_cell_setting 'triclinic'
loop_
_space_group_symop_operation_xyz
x,y,z
-x,-y,-z
loop_
_atom_site_type_symbol
_atom_site_label
_atom_site_fract_x
_atom_site_fract_y
_atom_site_fract_z
Si Si1 0.733766 0.713405 0.044765
Si Si2 0.716280 0.176757 0.728668
Si Si3 0.365791 0.590105 0.161013
Si Si4 0.526571 0.165218 0.404741
Si Si5 0.700344 0.777003 0.503756
Si Si6 0.054826 0.262746 0.616093
O O1 0.640120 0.772804 0.044772
O O2 0.479194 0.406783 0.266344
O O3 0.755680 0.615535 0.909044
O O4 0.000000 0.000000 0.000000
O O5 0.638716 0.245765 0.853658
O O6 0.000000 0.500000 0.500000
O O7 0.801804 0.116391 0.745057
O O8 0.475527 0.898599 0.748613
O O9 0.209989 0.428190 0.389276
O O10 0.284086 0.042554 0.536439
O O11 0.772058 0.497163 0.347818
O O12 0.500000 0.000000 0.500000
O O13 0.500000 0.500000 0.500000
O O14 0.945310 0.907653 0.377449
#
# Coordination Sequence:
#
# PCOD9081965 Si02
#       6
#     2   2   2   2   2   2
#     4  10  21  39  61  84 124 163 194 239 309 358
#     4  10  19  32  58  89 114 157 202 239 297 350
#     4   9  19  34  57  88 117 153 204 240 292 365
#     4  11  19  34  58  85 124 156 190 248 297 339
#     4   9  21  38  60  93 118 151 207 251 286 359
#     4   9  19  36  57  91 120 150 204 246 292 353
#
# _framework density 26.358820000000001
#
# number of rings (size 3 to 8) (size 9 to 14) (size 15 to 20)
#    0.000    2.333    3.333    0.000    0.000   10.000 
#    0.000    9.167    0.000    5.000    0.000    0.000 
#    0.000    0.000    0.000    0.000    0.000    0.000 
#
# Total GULP energy -67079.302665 kJ/mol
# GULP energy per Si atom -5589.941889 kJ/mol
# Density = 2.629883 g / cm^3
# Si number density = 26.358820 Si / 1000 Ang^3
#
#
#
# Elastic Constant Matrix: (Units=GPa)
#
#
# Indices 1 2 3 4 5 6 
#
# 1 257.6882 94.2317 69.6373 21.3329 -45.5074 -31.5309
# 2 94.2317 192.5215 59.2683 58.0795 -17.9764 13.2260
# 3 69.6373 59.2683 160.9133 26.5255 -36.1969 -9.2557
# 4 21.3329 58.0795 26.5255 47.4189 -8.6457 2.5570
# 5 -45.5074 -17.9764 -36.1969 -8.6457 46.5102 11.0419
# 6 -31.5309 13.2260 -9.2557 2.5570 11.0419 76.2146
#
#
#
# Elastic Compliance Matrix: (Units=1/GPa)
#
#
# Indices 1 2 3 4 5 6 
#
# 1 0.006052 -0.003173 -0.000795 0.002201 0.003936 0.002314
# 2 -0.003173 0.010414 -0.001139 -0.010787 -0.001329 -0.002704
# 3 -0.000795 -0.001139 0.008439 -0.002088 0.004902 0.000254
# 4 0.002201 -0.010787 -0.002088 0.034902 0.002615 0.000979
# 5 0.003936 -0.001329 0.004902 0.002615 0.029596 -0.001921
# 6 0.002314 -0.002704 0.000254 0.000979 -0.001921 0.014823
#
#
# Mechanical properties :
#
#
# Convention : Reuss Voigt Hill
#
# Bulk Modulus (GPa) = 68.06376 117.48862 92.77619
# Shear Modulus (GPa) = 41.89853 59.89444 50.89649
#
# Velocity S-wave (km/s) = 3.99123 4.77201 4.39898
# Velocity P-wave (km/s) = 6.86426 8.66212 7.81506
#
# Compressibility (1/GPa) = 0.01469211
#
# Stress axis : x y z
#
# Youngs Moduli (GPa) = 165.24371 96.02863 118.49197
#
# Poissons Ratio (x) = 0.30468 0.09415
# Poissons Ratio (y) = 0.52429 0.13494
# Poissons Ratio (z) = 0.13130 0.10936
#
# Static dielectric constant tensor:
#      x y z
#    x 2.104790 0.011340 0.100930 
#    y 0.011340 2.064510 -0.076380 
#    z 0.100930 -0.076380 2.213340 
# 
# From -- ./inp_files/384238.got.cif
#   From: 2010.05.17/outbox.cif.g08.bks.cpg/sg2_193_cif.got.tgz:384238.got - 2010.06.03 11:33:40.
