data_PCOD9081986
_publ_section_title
;
Structure prediction by ZEFSAII (Michael W. Deem and Ramdas Pophale) SiO2 
 PCOD9081986
Probable space group: P -1
;
_chemical_formula_sum "Si O2"
_cell_formula_units_Z 12
_cell_length_a 7.560715
_cell_length_b 9.092234
_cell_length_c 9.256848
_cell_angle_alpha 93.958154
_cell_angle_beta 110.965041
_cell_angle_gamma 130.228399
_cell_volume 411.522408
_symmetry_space_group_name_H-M "P -1"
_symmetry_group_IT_number 2
_symmetry_cell_setting 'triclinic'
loop_
_space_group_symop_operation_xyz
x,y,z
-x,-y,-z
loop_
_atom_site_type_symbol
_atom_site_label
_atom_site_fract_x
_atom_site_fract_y
_atom_site_fract_z
Si Si1 0.174909 0.731688 0.997942
Si Si2 0.700286 0.556945 0.693881
Si Si3 0.590803 0.359775 0.150933
Si Si4 0.316043 0.997455 0.628074
Si Si5 0.243143 0.237626 0.778844
Si Si6 0.377269 0.730750 0.539395
O O1 0.330964 0.747720 0.909803
O O2 0.977160 0.748155 0.877817
O O3 0.404181 0.883784 0.197321
O O4 0.000000 0.500000 0.000000
O O5 0.500000 0.500000 0.500000
O O6 0.495888 0.393551 0.750369
O O7 0.800088 0.466867 0.631546
O O8 0.815301 0.618219 0.222327
O O9 0.512338 0.292965 0.289693
O O10 0.338971 0.264856 0.970284
O O11 0.140817 0.020599 0.668141
O O12 0.379914 0.086373 0.487942
O O13 0.209005 0.773684 0.554691
#
# Coordination Sequence:
#
# PCOD9081986 Si02
#       6
#     2   2   2   2   2   2
#     4  11  20  37  55  83 115 148 188 233 278 331
#     4  11  20  37  57  79 115 149 187 229 282 330
#     4  10  19  32  59  86 109 146 189 232 270 336
#     4   9  20  36  57  83 117 149 180 230 285 337
#     4   9  18  33  54  84 110 146 181 230 277 330
#     4  10  19  34  59  86 110 149 187 224 284 339
#
# _framework density 29.160018000000001
#
# number of rings (size 3 to 8) (size 9 to 14) (size 15 to 20)
#    0.000    2.000    6.667    0.000    0.000    3.333 
#    0.000    0.833    0.000    3.000    0.000    0.000 
#    0.000    0.000    0.000    0.000    0.000    0.000 
#
# Total GULP energy -66866.172409 kJ/mol
# GULP energy per Si atom -5572.181034 kJ/mol
# Density = 2.909365 g / cm^3
# Si number density = 29.160018 Si / 1000 Ang^3
#
#
#
# Elastic Constant Matrix: (Units=GPa)
#
#
# Indices 1 2 3 4 5 6 
#
# 1 76.8812 10.0009 64.9746 8.0595 -7.5890 -17.9326
# 2 10.0009 47.8867 25.8891 -29.6377 -1.3774 -4.8241
# 3 64.9746 25.8891 246.8115 -41.0075 14.0059 -4.4055
# 4 8.0595 -29.6377 -41.0075 61.7860 -3.2040 -16.4291
# 5 -7.5890 -1.3774 14.0059 -3.2040 85.5209 -2.8790
# 6 -17.9326 -4.8241 -4.4055 -16.4291 -2.8790 34.2701
#
#
#
# Elastic Compliance Matrix: (Units=1/GPa)
#
#
# Indices 1 2 3 4 5 6 
#
# 1 0.021778 -0.005128 -0.006542 -0.007813 0.002842 0.006326
# 2 -0.005128 0.036880 0.001499 0.023110 0.001227 0.013883
# 3 -0.006542 0.001499 0.006714 0.006073 -0.001413 0.000444
# 4 -0.007813 0.023110 0.006073 0.037082 0.000672 0.017779
# 5 0.002842 0.001227 -0.001413 0.000672 0.012317 0.002835
# 6 0.006326 0.013883 0.000444 0.017779 0.002835 0.043263
#
#
# Mechanical properties :
#
#
# Convention : Reuss Voigt Hill
#
# Bulk Modulus (GPa) = 22.20711 63.70095 42.95403
# Shear Modulus (GPa) = 25.85524 54.36303 40.10914
#
# Velocity S-wave (km/s) = 2.98093 4.32244 3.71278
# Velocity P-wave (km/s) = 4.41362 6.84135 5.75691
#
# Compressibility (1/GPa) = 0.04503063
#
# Stress axis : x y z
#
# Youngs Moduli (GPa) = 45.91846 27.11524 148.94935
#
# Poissons Ratio (x) = 0.13904 0.97437
# Poissons Ratio (y) = 0.23547 -0.22332
# Poissons Ratio (z) = 0.30038 -0.04065
#
# Static dielectric constant tensor:
#      x y z
#    x 2.546180 -0.230110 0.029720 
#    y -0.230110 2.456020 0.044270 
#    z 0.029720 0.044270 2.179660 
# 
# From -- ./inp_files/176579.got.cif
#   From: 2010.05.17/outbox.cif.g08.bks.cpg/sg2_89_cif.got.tgz:176579.got - 2010.06.03 11:33:40.
