data_PCOD9081117
_publ_section_title
;
Structure prediction by ZEFSAII (Michael W. Deem and Ramdas Pophale) SiO2 
 PCOD9081117
Probable space group: P -1
;
_chemical_formula_sum "Si O2"
_cell_formula_units_Z 16
_cell_length_a 16.059711
_cell_length_b 11.412652
_cell_length_c 15.754719
_cell_angle_alpha 45.294943
_cell_angle_beta 18.593109
_cell_angle_gamma 41.745369
_cell_volume 612.923595
_symmetry_space_group_name_H-M "P -1"
_symmetry_group_IT_number 2
_symmetry_cell_setting 'triclinic'
loop_
_space_group_symop_operation_xyz
x,y,z
-x,-y,-z
loop_
_atom_site_type_symbol
_atom_site_label
_atom_site_fract_x
_atom_site_fract_y
_atom_site_fract_z
Si Si1 0.649997 0.394816 0.813909
Si Si2 0.736532 0.793589 0.641025
Si Si3 0.784958 0.917715 0.713575
Si Si4 0.614668 0.700219 0.228987
Si Si5 0.065179 0.771646 0.029545
Si Si6 0.431991 0.212499 0.371079
Si Si7 0.598656 0.645697 0.086637
Si Si8 0.120116 0.727350 0.805428
O O1 0.619440 0.589619 0.714450
O O2 0.635474 0.301285 0.786339
O O3 0.932810 0.304994 0.637300
O O4 0.404436 0.350639 0.121993
O O5 0.720571 0.916974 0.675480
O O6 0.608825 0.876487 0.632311
O O7 0.845971 0.714319 0.785662
O O8 0.000000 0.000000 0.500000
O O9 0.500000 0.000000 0.000000
O O10 0.489230 0.718865 0.247065
O O11 0.382175 0.760263 0.494899
O O12 0.768267 0.486700 0.191364
O O13 0.853893 0.781354 0.973167
O O14 0.796159 0.785173 0.338876
O O15 0.264025 0.856812 0.843749
O O16 0.260534 0.564144 0.943260
O O17 0.031783 0.808643 0.942283
#
# Coordination Sequence:
#
# PCOD9081117 Si02
#       8
#     2   2   2   2   2   2   2   2
#     4  10  19  31  48  70  98 126 159 201 239 285
#     4  11  21  34  49  68  94 126 167 203 243 283
#     4  11  23  37  51  68  96 129 167 213 247 271
#     4   9  17  28  47  66  96 131 162 187 227 289
#     4  10  20  31  49  74 106 131 158 192 238 294
#     4  11  19  30  48  71  97 130 161 192 234 296
#     4   9  20  34  50  72  98 135 168 197 241 288
#     4   9  17  29  43  70 100 129 153 189 232 281
#
# _framework density 26.104395
#
# number of rings (size 3 to 8) (size 9 to 14) (size 15 to 20)
#    0.000    2.000    0.000    6.000    0.000   10.000 
#    0.000    0.000    0.000    0.000    0.000    0.000 
#    0.000   20.000    0.000    0.000    0.000    0.000 
#
# Total GULP energy -89507.049809 kJ/mol
# GULP energy per Si atom -5594.190613 kJ/mol
# Density = 2.604498 g / cm^3
# Si number density = 26.104395 Si / 1000 Ang^3
#
#
#
# Elastic Constant Matrix: (Units=GPa)
#
#
# Indices 1 2 3 4 5 6 
#
# 1 182.7836 30.6365 70.2194 7.7453 -1.9643 44.0111
# 2 30.6365 87.3445 27.0502 -7.2447 9.1343 29.2909
# 3 70.2194 27.0502 151.2734 3.4809 -17.0149 39.2853
# 4 7.7453 -7.2447 3.4809 30.8243 7.6161 5.6805
# 5 -1.9643 9.1343 -17.0149 7.6161 49.6821 9.4680
# 6 44.0111 29.2909 39.2853 5.6805 9.4680 42.1860
#
#
#
# Elastic Compliance Matrix: (Units=1/GPa)
#
#
# Indices 1 2 3 4 5 6 
#
# 1 0.007788 -0.000206 -0.001747 -0.000890 0.001120 -0.006486
# 2 -0.000206 0.016060 -0.000243 0.006376 -0.001898 -0.011143
# 3 -0.001747 -0.000243 0.010341 -0.000471 0.005258 -0.008755
# 4 -0.000890 0.006376 -0.000471 0.036877 -0.005738 -0.006738
# 5 0.001120 -0.001898 0.005258 -0.005738 0.025029 -0.009592
# 6 -0.006486 -0.011143 -0.008755 -0.006738 -0.009592 0.049421
#
#
# Mechanical properties :
#
#
# Convention : Reuss Voigt Hill
#
# Bulk Modulus (GPa) = 33.56048 75.24599 54.40324
# Shear Modulus (GPa) = 31.28087 44.10483 37.69285
#
# Velocity S-wave (km/s) = 3.46540 4.11488 3.80403
# Velocity P-wave (km/s) = 5.37552 7.17384 6.33877
#
# Compressibility (1/GPa) = 0.02979695
#
# Stress axis : x y z
#
# Youngs Moduli (GPa) = 128.39648 62.26469 96.70294
#
# Poissons Ratio (x) = 0.01285 0.16899
# Poissons Ratio (y) = 0.02649 0.02346
# Poissons Ratio (z) = 0.22437 0.01511
#
# Static dielectric constant tensor:
#      x y z
#    x 2.060280 -0.049990 0.007540 
#    y -0.049990 2.287490 -0.011670 
#    z 0.007540 -0.011670 1.975480 
# 
# From -- ./inp_files/509853.got.cif
#   From: 2010.05.17/outbox.cif.g08.bks.cpg/sg2_255_cif.got.tgz:509853.got - 2010.06.03 11:33:40.
