data_PCOD9081952
_publ_section_title
;
Structure prediction by ZEFSAII (Michael W. Deem and Ramdas Pophale) SiO2 
 PCOD9081952
Probable space group: P -1
;
_chemical_formula_sum "Si O2"
_cell_formula_units_Z 16
_cell_length_a 11.717722
_cell_length_b 12.636158
_cell_length_c 11.979429
_cell_angle_alpha 100.876979
_cell_angle_beta 118.930694
_cell_angle_gamma 36.783596
_cell_volume 860.137272
_symmetry_space_group_name_H-M "P -1"
_symmetry_group_IT_number 2
_symmetry_cell_setting 'triclinic'
loop_
_space_group_symop_operation_xyz
x,y,z
-x,-y,-z
loop_
_atom_site_type_symbol
_atom_site_label
_atom_site_fract_x
_atom_site_fract_y
_atom_site_fract_z
Si Si1 0.525519 0.051098 0.372621
Si Si2 0.044304 0.453263 0.259386
Si Si3 0.555882 0.103236 0.159648
Si Si4 0.405384 0.373525 0.969730
Si Si5 0.319124 0.819562 0.162138
Si Si6 0.374797 0.244993 0.561480
Si Si7 0.104809 0.749188 0.013366
Si Si8 0.880131 0.745720 0.085181
O O1 0.244915 0.233863 0.272408
O O2 0.604242 0.064926 0.306194
O O3 0.449463 0.905407 0.488114
O O4 0.631812 0.859948 0.390205
O O5 0.134733 0.426940 0.418654
O O6 0.796071 0.568321 0.160077
O O7 0.041550 0.553532 0.191374
O O8 0.760346 0.908012 0.148216
O O9 0.500967 0.253341 0.103951
O O10 0.329310 0.182560 0.049680
O O11 0.596595 0.246829 0.939421
O O12 0.283483 0.568540 0.980083
O O13 0.525427 0.725318 0.315414
O O14 0.228057 0.763720 0.138894
O O15 0.109982 0.047876 0.110350
O O16 0.009755 0.724032 0.047858
#
# Coordination Sequence:
#
# PCOD9081952 Si02
#       8
#     2   2   2   2   2   2   2   2
#     4   9  18  34  56  83 116 148 178 232 286 336
#     4   9  19  33  55  88 107 146 176 234 286 335
#     4  10  19  32  58  86 114 138 182 246 285 324
#     4  11  21  36  61  88 112 143 191 237 287 327
#     4  11  23  40  57  83 116 153 191 228 271 342
#     4   9  20  36  55  83 118 151 183 223 287 336
#     4  11  23  38  60  81 115 153 189 233 278 328
#     4  10  19  33  54  87 112 143 188 233 286 328
#
# _framework density 18.601680999999999
#
# number of rings (size 3 to 8) (size 9 to 14) (size 15 to 20)
#    0.750    1.250    1.250    3.375    3.500    2.500 
#    0.000    0.625    0.000    0.750    0.000    0.000 
#    0.000    0.000    0.000    0.000    0.000    0.000 
#
# Total GULP energy -89223.592450 kJ/mol
# GULP energy per Si atom -5576.474528 kJ/mol
# Density = 1.855934 g / cm^3
# Si number density = 18.601681 Si / 1000 Ang^3
#
#
#
# Elastic Constant Matrix: (Units=GPa)
#
#
# Indices 1 2 3 4 5 6 
#
# 1 47.0522 9.2219 15.9410 2.9825 -6.0220 11.0978
# 2 9.2219 70.3474 18.1348 2.1944 -8.4509 6.5949
# 3 15.9410 18.1348 75.7173 -2.5405 -6.5825 11.7532
# 4 2.9825 2.1944 -2.5405 16.1181 -0.7499 -6.6412
# 5 -6.0220 -8.4509 -6.5825 -0.7499 14.5777 5.1665
# 6 11.0978 6.5949 11.7532 -6.6412 5.1665 25.2305
#
#
#
# Elastic Compliance Matrix: (Units=1/GPa)
#
#
# Indices 1 2 3 4 5 6 
#
# 1 0.029511 0.001112 -0.002366 -0.013098 0.017929 -0.019288
# 2 0.001112 0.016956 -0.002264 -0.005505 0.011718 -0.007715
# 3 -0.002366 -0.002264 0.016045 0.000653 0.007546 -0.007215
# 4 -0.013098 -0.005505 0.000653 0.077090 -0.015070 0.030274
# 5 0.017929 0.011718 0.007546 -0.015070 0.099158 -0.038736
# 6 -0.019288 -0.007715 -0.007215 0.030274 -0.038736 0.069397
#
#
# Mechanical properties :
#
#
# Convention : Reuss Voigt Hill
#
# Bulk Modulus (GPa) = 18.02573 31.07912 24.55242
# Shear Modulus (GPa) = 14.98424 21.17323 18.07873
#
# Velocity S-wave (km/s) = 2.84127 3.37745 3.12089
# Velocity P-wave (km/s) = 4.52495 5.65274 5.11999
#
# Compressibility (1/GPa) = 0.05547626
#
# Stress axis : x y z
#
# Youngs Moduli (GPa) = 33.88577 58.97786 62.32374
#
# Poissons Ratio (x) = -0.06558 0.14747
# Poissons Ratio (y) = -0.03768 0.14107
# Poissons Ratio (z) = 0.08018 0.13350
#
# Static dielectric constant tensor:
#      x y z
#    x 1.633380 -0.014760 -0.013510 
#    y -0.014760 1.670110 0.005650 
#    z -0.013510 0.005650 1.661190 
# 
# From -- ./inp_files/423699.got.cif
#   From: 2010.05.17/outbox.cif.g08.bks.cpg/sg2_212_cif.got.tgz:423699.got - 2010.06.03 11:33:40.
