data_PCOD9081913
_publ_section_title
;
Structure prediction by ZEFSAII (Michael W. Deem and Ramdas Pophale) SiO2 
 PCOD9081913
Probable space group: P -1
;
_chemical_formula_sum "Si O2"
_cell_formula_units_Z 16
_cell_length_a 12.387572
_cell_length_b 8.121588
_cell_length_c 11.635974
_cell_angle_alpha 106.689479
_cell_angle_beta 89.762800
_cell_angle_gamma 42.678482
_cell_volume 717.151699
_symmetry_space_group_name_H-M "P -1"
_symmetry_group_IT_number 2
_symmetry_cell_setting 'triclinic'
loop_
_space_group_symop_operation_xyz
x,y,z
-x,-y,-z
loop_
_atom_site_type_symbol
_atom_site_label
_atom_site_fract_x
_atom_site_fract_y
_atom_site_fract_z
Si Si1 0.693066 0.014861 0.314063
Si Si2 0.305264 0.982563 0.296284
Si Si3 0.719772 0.722850 0.038943
Si Si4 0.388341 0.222476 0.446256
Si Si5 0.925571 0.478012 0.352539
Si Si6 0.403547 0.859013 0.024648
Si Si7 0.394703 0.590083 0.769246
Si Si8 0.893338 0.287030 0.100350
O O1 0.691040 0.877151 0.182364
O O2 0.828026 0.768715 0.357433
O O3 0.501036 0.240989 0.407887
O O4 0.703640 0.188494 0.287935
O O5 0.374324 0.092791 0.323595
O O6 0.106617 0.256213 0.370790
O O7 0.343699 0.860535 0.145922
O O8 0.423227 0.718332 0.322983
O O9 0.573512 0.762627 0.021454
O O10 0.879094 0.419762 0.013483
O O11 0.732334 0.833884 0.954912
O O12 0.206777 0.459776 0.552722
O O13 0.500000 0.000000 0.500000
O O14 0.960207 0.319534 0.209251
O O15 0.418877 0.701303 0.892686
O O16 0.282602 0.574929 0.822023
O O17 0.000000 0.000000 0.000000
#
# Coordination Sequence:
#
# PCOD9081913 Si02
#       8
#     2   2   2   2   2   2   2   2
#     4   9  19  40  59  83 113 157 191 230 281 347
#     4  12  21  37  60  91 113 147 192 246 281 330
#     4   9  18  34  54  82 113 151 190 223 276 345
#     4  10  20  41  64  80 110 156 195 232 282 347
#     4  10  23  39  60  84 114 151 197 233 280 339
#     4  10  19  32  57  84 114 148 189 230 276 336
#     4  11  22  35  59  88 120 150 190 232 291 338
#     4  11  22  38  56  84 120 155 183 232 288 342
#
# _framework density 22.310480999999999
#
# number of rings (size 3 to 8) (size 9 to 14) (size 15 to 20)
#    0.000    1.750    2.500    3.000    1.750    1.000 
#    0.000   11.250    0.000    0.000    0.000    0.000 
#    0.000    0.000    0.000    0.000    0.000    0.000 
#
# Total GULP energy -89166.390697 kJ/mol
# GULP energy per Si atom -5572.899419 kJ/mol
# Density = 2.225970 g / cm^3
# Si number density = 22.310481 Si / 1000 Ang^3
#
#
#
# Elastic Constant Matrix: (Units=GPa)
#
#
# Indices 1 2 3 4 5 6 
#
# 1 43.4995 19.1172 -6.9767 2.8025 0.7636 -7.9845
# 2 19.1172 122.0279 21.2557 12.8709 -6.4942 8.4423
# 3 -6.9767 21.2557 41.6254 6.6127 3.5896 0.0309
# 4 2.8025 12.8709 6.6127 29.5183 -2.7355 -5.6717
# 5 0.7636 -6.4942 3.5896 -2.7355 26.3467 -0.6919
# 6 -7.9845 8.4423 0.0309 -5.6717 -0.6919 30.8718
#
#
#
# Elastic Compliance Matrix: (Units=1/GPa)
#
#
# Indices 1 2 3 4 5 6 
#
# 1 0.029218 -0.006908 0.008764 -0.000263 -0.003526 0.009310
# 2 -0.006908 0.011376 -0.006694 -0.003539 0.003405 -0.005465
# 3 0.008764 -0.006694 0.030207 -0.004687 -0.006426 0.003062
# 4 -0.000263 -0.003539 -0.004687 0.038411 0.003973 0.008050
# 5 -0.003526 0.003405 -0.006426 0.003973 0.040180 -0.000206
# 6 0.009310 -0.005465 0.003062 0.008050 -0.000206 0.037765
#
#
# Mechanical properties :
#
#
# Convention : Reuss Voigt Hill
#
# Bulk Modulus (GPa) = 16.36012 30.43834 23.39923
# Shear Modulus (GPa) = 23.01941 28.93113 25.97527
#
# Velocity S-wave (km/s) = 3.21561 3.60495 3.41583
# Velocity P-wave (km/s) = 4.59736 5.56778 5.10568
#
# Compressibility (1/GPa) = 0.06112426
#
# Stress axis : x y z
#
# Youngs Moduli (GPa) = 34.22563 87.90718 33.10442
#
# Poissons Ratio (x) = 0.60725 -0.29011
# Poissons Ratio (y) = 0.23642 0.22160
# Poissons Ratio (z) = -0.29994 0.58846
#
# Static dielectric constant tensor:
#      x y z
#    x 1.851960 -0.039350 -0.007620 
#    y -0.039350 1.876030 0.010520 
#    z -0.007620 0.010520 1.965680 
# 
# From -- ./inp_files/227649.got.cif
#   From: 2010.05.17/outbox.cif.g08.bks.cpg/sg2_114_cif.got.tgz:227649.got - 2010.06.03 11:33:40.
