data_PCOD9081848
_publ_section_title
;
Structure prediction by ZEFSAII (Michael W. Deem and Ramdas Pophale) SiO2 
 PCOD9081848
Probable space group: P -1
;
_chemical_formula_sum "Si O2"
_cell_formula_units_Z 14
_cell_length_a 9.149850
_cell_length_b 9.472583
_cell_length_c 10.995803
_cell_angle_alpha 123.437912
_cell_angle_beta 122.151803
_cell_angle_gamma 90.375000
_cell_volume 609.706631
_symmetry_space_group_name_H-M "P -1"
_symmetry_group_IT_number 2
_symmetry_cell_setting 'triclinic'
loop_
_space_group_symop_operation_xyz
x,y,z
-x,-y,-z
loop_
_atom_site_type_symbol
_atom_site_label
_atom_site_fract_x
_atom_site_fract_y
_atom_site_fract_z
Si Si1 0.821151 0.920064 0.650026
Si Si2 0.155484 0.566196 0.766162
Si Si3 0.742296 0.953943 0.156745
Si Si4 0.775496 0.596176 0.642764
Si Si5 0.190284 0.190998 0.655652
Si Si6 0.581676 0.239895 0.252548
Si Si7 0.054360 0.669936 0.010836
O O1 0.750805 0.768263 0.653081
O O2 0.711796 0.840510 0.437503
O O3 0.037615 0.948546 0.734441
O O4 0.848184 0.127103 0.790367
O O5 0.136877 0.360559 0.685477
O O6 0.308822 0.661578 0.776216
O O7 0.192089 0.662811 0.960521
O O8 0.955543 0.572415 0.646237
O O9 0.706029 0.790366 0.160927
O O10 0.674383 0.098596 0.259944
O O11 0.628750 0.883948 0.948108
O O12 0.607928 0.397244 0.437871
O O13 0.857930 0.637347 0.835666
O O14 0.000000 0.000000 0.500000
O O15 0.000000 0.500000 0.000000
#
# Coordination Sequence:
#
# PCOD9081848 Si02
#       7
#     2   2   2   2   2   2   2
#     4  11  19  37  56  85 109 148 185 229 271 331
#     4  10  20  35  58  80 111 143 185 231 272 324
#     4  10  22  33  57  84 119 140 186 229 281 328
#     4  10  20  34  59  80 110 144 189 225 272 328
#     4  10  19  32  56  83 108 140 187 231 268 317
#     4  11  20  37  55  88 111 150 178 233 282 325
#     4  10  22  33  56  86 111 141 187 232 275 321
#
# _framework density 22.961862
#
# number of rings (size 3 to 8) (size 9 to 14) (size 15 to 20)
#    0.857    0.857    2.857    4.286    2.000    0.571 
#    0.000    0.714    0.000    0.857    0.000    0.000 
#    0.000    0.000    0.000    0.000    0.000    0.000 
#
# Total GULP energy -78151.956584 kJ/mol
# GULP energy per Si atom -5582.282613 kJ/mol
# Density = 2.290960 g / cm^3
# Si number density = 22.961862 Si / 1000 Ang^3
#
#
#
# Elastic Constant Matrix: (Units=GPa)
#
#
# Indices 1 2 3 4 5 6 
#
# 1 50.7528 23.0782 11.2759 -2.2978 -8.3137 7.0633
# 2 23.0782 121.5168 -0.7274 27.9848 -13.5430 9.9055
# 3 11.2759 -0.7274 59.9167 14.5073 -19.8641 -12.9114
# 4 -2.2978 27.9848 14.5073 35.0754 -7.0119 -15.6992
# 5 -8.3137 -13.5430 -19.8641 -7.0119 28.3980 6.2640
# 6 7.0633 9.9055 -12.9114 -15.6992 6.2640 17.7943
#
#
#
# Elastic Compliance Matrix: (Units=1/GPa)
#
#
# Indices 1 2 3 4 5 6 
#
# 1 0.025565 -0.004872 -0.006877 0.004955 0.003633 -0.009332
# 2 -0.004872 0.024100 0.005402 -0.040573 0.014519 -0.048469
# 3 -0.006877 0.005402 0.026756 -0.010901 0.015707 0.003990
# 4 0.004955 -0.040573 -0.010901 0.116311 -0.024116 0.123815
# 5 0.003633 0.014519 0.015707 -0.024116 0.056934 -0.039446
# 6 -0.009332 -0.048469 0.003990 0.123815 -0.039446 0.212902
#
#
# Mechanical properties :
#
#
# Convention : Reuss Voigt Hill
#
# Bulk Modulus (GPa) = 15.69193 33.27108 24.48151
# Shear Modulus (GPa) = 10.07043 29.49084 19.78063
#
# Velocity S-wave (km/s) = 2.09648 3.58766 2.93824
# Velocity P-wave (km/s) = 3.56498 5.62876 4.71126
#
# Compressibility (1/GPa) = 0.06372702
#
# Stress axis : x y z
#
# Youngs Moduli (GPa) = 39.11643 41.49422 37.37466
#
# Poissons Ratio (x) = 0.20216 0.25702
# Poissons Ratio (y) = 0.19058 -0.20190
# Poissons Ratio (z) = 0.26899 -0.22415
#
# Static dielectric constant tensor:
#      x y z
#    x 1.921960 -0.011080 0.000140 
#    y -0.011080 1.853730 -0.040440 
#    z 0.000140 -0.040440 1.952260 
# 
# From -- ./inp_files/418496.got.cif
#   From: 2010.05.17/outbox.cif.g08.bks.cpg/sg2_210_cif.got.tgz:418496.got - 2010.06.03 11:33:40.
