data_PCOD9081610
_publ_section_title
;
Structure prediction by ZEFSAII (Michael W. Deem and Ramdas Pophale) SiO2 
 PCOD9081610
Probable space group: P -1
;
_chemical_formula_sum "Si O2"
_cell_formula_units_Z 14
_cell_length_a 14.882447
_cell_length_b 25.577358
_cell_length_c 5.584178
_cell_angle_alpha 62.676428
_cell_angle_beta 57.409655
_cell_angle_gamma 17.618736
_cell_volume 529.632488
_symmetry_space_group_name_H-M "P -1"
_symmetry_group_IT_number 2
_symmetry_cell_setting 'triclinic'
loop_
_space_group_symop_operation_xyz
x,y,z
-x,-y,-z
loop_
_atom_site_type_symbol
_atom_site_label
_atom_site_fract_x
_atom_site_fract_y
_atom_site_fract_z
Si Si1 0.178779 0.113936 0.034129
Si Si2 0.079077 0.708026 0.474056
Si Si3 0.858769 0.703046 0.775795
Si Si4 0.780443 0.252966 0.641256
Si Si5 0.236417 0.360731 0.663683
Si Si6 0.324828 0.813983 0.286867
Si Si7 0.421037 0.878749 0.695577
O O1 0.082982 0.198021 0.752705
O O2 0.526261 0.904126 0.937360
O O3 0.143200 0.166139 0.232262
O O4 0.911492 0.203496 0.293696
O O5 0.134040 0.608800 0.605130
O O6 0.348136 0.619497 0.317316
O O7 0.729397 0.756397 0.582280
O O8 0.915942 0.611038 0.015381
O O9 0.667630 0.245241 0.777905
O O10 0.091687 0.084081 0.724583
O O11 0.394902 0.335360 0.605197
O O12 0.535728 0.171296 0.518692
O O13 0.000000 0.500000 0.500000
O O14 0.405606 0.831621 0.991739
O O15 0.000000 0.000000 0.500000
#
# Coordination Sequence:
#
# PCOD9081610 Si02
#       7
#     2   2   2   2   2   2   2
#     4  10  19  32  52  90 125 158 192 247 315 367
#     4  10  22  30  56  87 128 157 199 248 316 370
#     4  11  20  35  53  83 119 159 203 248 306 367
#     4  10  20  32  56  90 124 151 197 251 315 367
#     4  11  25  41  59  86 121 166 210 253 305 369
#     4  11  22  36  60  90 121 159 206 253 310 363
#     4  11  21  35  61  83 125 162 203 255 311 364
#
# _framework density 26.433425
#
# number of rings (size 3 to 8) (size 9 to 14) (size 15 to 20)
#    0.857    0.571    4.286    2.143    2.000    2.286 
#    0.000    0.000    0.000    0.857    0.000    3.000 
#    0.000    0.000    0.000    0.000    0.000    0.000 
#
# Total GULP energy -78057.477839 kJ/mol
# GULP energy per Si atom -5575.534131 kJ/mol
# Density = 2.637326 g / cm^3
# Si number density = 26.433425 Si / 1000 Ang^3
#
#
#
# Elastic Constant Matrix: (Units=GPa)
#
#
# Indices 1 2 3 4 5 6 
#
# 1 193.3806 20.5828 32.6005 -15.8899 -20.1245 -32.0831
# 2 20.5828 57.2507 15.2286 -16.3882 -0.1440 -5.2072
# 3 32.6005 15.2286 71.8370 -10.2521 12.0159 -10.0526
# 4 -15.8899 -16.3882 -10.2521 48.2540 4.3609 6.5706
# 5 -20.1245 -0.1440 12.0159 4.3609 40.6551 -0.8143
# 6 -32.0831 -5.2072 -10.0526 6.5706 -0.8143 30.4215
#
#
#
# Elastic Compliance Matrix: (Units=1/GPa)
#
#
# Indices 1 2 3 4 5 6 
#
# 1 0.007404 -0.001243 -0.002923 0.000056 0.004653 0.006742
# 2 -0.001243 0.020368 -0.002858 0.005940 -0.000337 -0.000061
# 3 -0.002923 -0.002858 0.017530 0.002197 -0.006842 0.001563
# 4 0.000056 0.005940 0.002197 0.023991 -0.003243 -0.003467
# 5 0.004653 -0.000337 -0.006842 -0.003243 0.029351 0.004075
# 6 0.006742 -0.000061 0.001563 -0.003467 0.004075 0.041345
#
#
# Mechanical properties :
#
#
# Convention : Reuss Voigt Hill
#
# Bulk Modulus (GPa) = 31.99788 51.03246 41.51517
# Shear Modulus (GPa) = 30.40330 40.80321 35.60325
#
# Velocity S-wave (km/s) = 3.39512 3.93316 3.67400
# Velocity P-wave (km/s) = 5.24409 6.32252 5.80839
#
# Compressibility (1/GPa) = 0.03125207
#
# Stress axis : x y z
#
# Youngs Moduli (GPa) = 135.06834 49.09643 57.04630
#
# Poissons Ratio (x) = 0.06104 0.16676
# Poissons Ratio (y) = 0.16792 0.16305
# Poissons Ratio (z) = 0.39484 0.14033
#
# Static dielectric constant tensor:
#      x y z
#    x 2.183350 0.018370 -0.007370 
#    y 0.018370 2.225890 -0.021470 
#    z -0.007370 -0.021470 2.087520 
# 
# From -- ./inp_files/101461.got.cif
#   From: 2010.05.17/outbox.cif.g08.bks.cpg/sg2_51_cif.got.tgz:101461.got - 2010.06.03 11:33:40.
