data_PCOD9081602
_publ_section_title
;
Structure prediction by ZEFSAII (Michael W. Deem and Ramdas Pophale) SiO2 
 PCOD9081602
Probable space group: P -1
;
_chemical_formula_sum "Si O2"
_cell_formula_units_Z 16
_cell_length_a 16.975224
_cell_length_b 6.352153
_cell_length_c 20.032153
_cell_angle_alpha 64.197617
_cell_angle_beta 151.212553
_cell_angle_gamma 125.942141
_cell_volume 824.614607
_symmetry_space_group_name_H-M "P -1"
_symmetry_group_IT_number 2
_symmetry_cell_setting 'triclinic'
loop_
_space_group_symop_operation_xyz
x,y,z
-x,-y,-z
loop_
_atom_site_type_symbol
_atom_site_label
_atom_site_fract_x
_atom_site_fract_y
_atom_site_fract_z
Si Si1 0.890158 0.084111 0.855385
Si Si2 0.435392 0.823367 0.359045
Si Si3 0.841513 0.327674 0.047730
Si Si4 0.283235 0.610406 0.516284
Si Si5 0.828813 0.741189 0.734659
Si Si6 0.527080 0.743369 0.286902
Si Si7 0.895850 0.262516 0.506378
Si Si8 0.000373 0.106520 0.292704
O O1 0.737883 0.118727 0.779526
O O2 0.035168 0.359106 0.889863
O O3 0.794384 0.871056 0.755447
O O4 0.000000 0.000000 0.000000
O O5 0.342570 0.546679 0.367880
O O6 0.485966 0.762995 0.331803
O O7 0.603665 0.096896 0.472340
O O8 0.981412 0.281124 0.108175
O O9 0.835569 0.146898 0.131499
O O10 0.647407 0.275553 0.880796
O O11 0.428225 0.499836 0.656948
O O12 0.182293 0.639834 0.503109
O O13 0.132549 0.382875 0.389296
O O14 0.883672 0.904108 0.684409
O O15 0.716218 0.013385 0.375274
O O16 0.000000 0.500000 0.500000
O O17 0.024664 0.136058 0.646518
#
# Coordination Sequence:
#
# PCOD9081602 Si02
#       8
#     2   2   2   2   2   2   2   2
#     4  11  19  30  53  82 120 168 199 224 273 325
#     4  10  19  32  52  83 116 157 200 233 264 326
#     4   9  20  35  55  83 119 152 188 238 278 328
#     4  10  21  38  61  82 113 151 194 233 289 347
#     4   9  20  33  51  85 122 159 192 236 271 323
#     4  10  20  38  58  88 116 148 195 236 280 343
#     4  10  23  43  67  85 106 143 191 242 295 359
#     4   9  22  38  57  86 117 154 188 238 293 334
#
# _framework density 19.403003999999999
#
# number of rings (size 3 to 8) (size 9 to 14) (size 15 to 20)
#    0.750    1.500    0.000    3.000    1.750    5.500 
#    0.000    6.875    0.000    1.500    0.000    0.000 
#    0.000    0.000    0.000    0.000    0.000    0.000 
#
# Total GULP energy -89164.186911 kJ/mol
# GULP energy per Si atom -5572.761682 kJ/mol
# Density = 1.935884 g / cm^3
# Si number density = 19.403004 Si / 1000 Ang^3
#
#
#
# Elastic Constant Matrix: (Units=GPa)
#
#
# Indices 1 2 3 4 5 6 
#
# 1 29.1236 9.2221 -3.6381 3.2493 -4.1910 -3.6896
# 2 9.2221 70.9697 6.4826 0.6157 -11.6058 3.7867
# 3 -3.6381 6.4826 78.0880 -20.6357 1.8563 -16.2871
# 4 3.2493 0.6157 -20.6357 27.4687 -0.9294 4.8739
# 5 -4.1910 -11.6058 1.8563 -0.9294 19.6362 -4.5795
# 6 -3.6896 3.7867 -16.2871 4.8739 -4.5795 33.1315
#
#
#
# Elastic Compliance Matrix: (Units=1/GPa)
#
#
# Indices 1 2 3 4 5 6 
#
# 1 0.038434 -0.004478 0.002631 -0.003579 0.006903 0.007566
# 2 -0.004478 0.016408 -0.002526 -0.001043 0.008394 -0.002302
# 3 0.002631 -0.002526 0.017843 0.011795 -0.000293 0.007577
# 4 -0.003579 -0.001043 0.011795 0.045927 -0.000631 -0.001324
# 5 0.006903 0.008394 -0.000293 -0.000631 0.059211 0.007942
# 6 0.007566 -0.002302 0.007577 -0.001324 0.007942 0.036306
#
#
# Mechanical properties :
#
#
# Convention : Reuss Voigt Hill
#
# Bulk Modulus (GPa) = 15.64040 22.47938 19.05989
# Shear Modulus (GPa) = 20.47597 27.12160 23.79878
#
# Velocity S-wave (km/s) = 3.25206 3.74278 3.50602
# Velocity P-wave (km/s) = 4.70951 5.50350 5.12192
#
# Compressibility (1/GPa) = 0.06393698
#
# Stress axis : x y z
#
# Youngs Moduli (GPa) = 26.01849 60.94645 56.04495
#
# Poissons Ratio (x) = 0.27294 -0.14744
# Poissons Ratio (y) = 0.11652 0.14158
# Poissons Ratio (z) = -0.06845 0.15396
#
# Static dielectric constant tensor:
#      x y z
#    x 1.644870 -0.015560 0.008650 
#    y -0.015560 1.719880 -0.025950 
#    z 0.008650 -0.025950 1.701350 
# 
# From -- ./inp_files/119968.got.cif
#   From: 2010.05.17/outbox.cif.g08.bks.cpg/sg2_60_cif.got.tgz:119968.got - 2010.06.03 11:33:40.
