data_PCOD9081673
_publ_section_title
;
Structure prediction by ZEFSAII (Michael W. Deem and Ramdas Pophale) SiO2 
 PCOD9081673
Probable space group: P -1
;
_chemical_formula_sum "Si O2"
_cell_formula_units_Z 12
_cell_length_a 8.093125
_cell_length_b 8.954343
_cell_length_c 15.482068
_cell_angle_alpha 138.803319
_cell_angle_beta 135.845163
_cell_angle_gamma 51.384320
_cell_volume 506.020528
_symmetry_space_group_name_H-M "P -1"
_symmetry_group_IT_number 2
_symmetry_cell_setting 'triclinic'
loop_
_space_group_symop_operation_xyz
x,y,z
-x,-y,-z
loop_
_atom_site_type_symbol
_atom_site_label
_atom_site_fract_x
_atom_site_fract_y
_atom_site_fract_z
Si Si1 0.509827 0.253235 0.083201
Si Si2 0.057189 0.400917 0.858803
Si Si3 0.161412 0.688925 0.619664
Si Si4 0.701454 0.261219 0.978522
Si Si5 0.664614 0.024149 0.336174
Si Si6 0.738091 0.081314 0.591753
O O1 0.631088 0.359454 0.253316
O O2 0.247338 0.357711 0.990494
O O3 0.702617 0.227448 0.065970
O O4 0.500000 0.000000 0.000000
O O5 0.172500 0.204467 0.745501
O O6 0.067443 0.656070 0.939106
O O7 0.798553 0.331844 0.743359
O O8 0.000000 0.500000 0.500000
O O9 0.961656 0.920657 0.653361
O O10 0.287289 0.753775 0.604629
O O11 0.598684 0.049972 0.805033
O O12 0.500000 0.500000 0.000000
O O13 0.729318 0.044996 0.469131
O O14 0.500000 0.000000 0.500000
#
# Coordination Sequence:
#
# PCOD9081673 Si02
#       6
#     2   2   2   2   2   2
#     4  10  15  30  52  84 109 122 185 228 270 299
#     4   9  18  33  58  80 103 145 182 227 261 318
#     4  11  22  32  60  88 104 141 182 236 264 312
#     4   8  16  28  54  80 104 136 175 233 262 305
#     4   9  18  35  53  79 108 142 188 219 263 324
#     4  11  23  38  53  78 117 151 176 217 279 332
#
# _framework density 23.714452000000001
#
# number of rings (size 3 to 8) (size 9 to 14) (size 15 to 20)
#    0.000    2.667    5.000    2.000    9.333    0.000 
#    0.000    1.667    0.000    7.000    0.000    0.000 
#    0.000    0.000    0.000    0.000    0.000    0.000 
#
# Total GULP energy -66830.587674 kJ/mol
# GULP energy per Si atom -5569.215640 kJ/mol
# Density = 2.366048 g / cm^3
# Si number density = 23.714452 Si / 1000 Ang^3
#
#
#
# Elastic Constant Matrix: (Units=GPa)
#
#
# Indices 1 2 3 4 5 6 
#
# 1 77.6539 60.9792 89.0856 -0.5551 24.5697 21.9429
# 2 60.9792 110.1679 72.8771 6.3228 15.5770 45.2782
# 3 89.0856 72.8771 187.6919 -2.5033 25.5300 28.8459
# 4 -0.5551 6.3228 -2.5033 50.1359 23.7671 17.6007
# 5 24.5697 15.5770 25.5300 23.7671 45.9012 8.3319
# 6 21.9429 45.2782 28.8459 17.6007 8.3319 40.3740
#
#
#
# Elastic Compliance Matrix: (Units=1/GPa)
#
#
# Indices 1 2 3 4 5 6 
#
# 1 0.044364 -0.014340 -0.013276 0.009086 -0.016359 0.000871
# 2 -0.014340 0.026486 0.000258 0.004827 0.000454 -0.024292
# 3 -0.013276 0.000258 0.011805 0.000958 0.000319 -0.001991
# 4 0.009086 0.004827 0.000958 0.038345 -0.022702 -0.023067
# 5 -0.016359 0.000454 0.000319 -0.022702 0.040195 0.009756
# 6 0.000871 -0.024292 -0.001991 -0.023067 0.009756 0.061003
#
#
# Mechanical properties :
#
#
# Convention : Reuss Voigt Hill
#
# Bulk Modulus (GPa) = 35.79273 91.26638 63.52956
# Shear Modulus (GPa) = 17.46860 37.45366 27.46113
#
# Velocity S-wave (km/s) = 2.71702 3.97843 3.40662
# Velocity P-wave (km/s) = 4.99689 7.72483 6.50545
#
# Compressibility (1/GPa) = 0.02793863
#
# Stress axis : x y z
#
# Youngs Moduli (GPa) = 22.54074 37.75533 84.71276
#
# Poissons Ratio (x) = 0.54141 1.12469
# Poissons Ratio (y) = 0.32323 -0.02187
# Poissons Ratio (z) = 0.29926 -0.00975
#
# Static dielectric constant tensor:
#      x y z
#    x 2.406700 0.019880 0.065810 
#    y 0.019880 1.942400 0.081480 
#    z 0.065810 0.081480 1.922440 
# 
# From -- ./inp_files/290522.got.cif
#   From: 2010.05.17/outbox.cif.g08.bks.cpg/sg2_146_cif.got.tgz:290522.got - 2010.06.03 11:33:40.
