data_PCOD9081502
_publ_section_title
;
Structure prediction by ZEFSAII (Michael W. Deem and Ramdas Pophale) SiO2 
 PCOD9081502
Probable space group: P -1
;
_chemical_formula_sum "Si O2"
_cell_formula_units_Z 14
_cell_length_a 11.263417
_cell_length_b 5.308963
_cell_length_c 22.810076
_cell_angle_alpha 67.375330
_cell_angle_beta 150.558006
_cell_angle_gamma 97.429299
_cell_volume 551.595594
_symmetry_space_group_name_H-M "P -1"
_symmetry_group_IT_number 2
_symmetry_cell_setting 'triclinic'
loop_
_space_group_symop_operation_xyz
x,y,z
-x,-y,-z
loop_
_atom_site_type_symbol
_atom_site_label
_atom_site_fract_x
_atom_site_fract_y
_atom_site_fract_z
Si Si1 0.033986 0.603273 0.442003
Si Si2 0.258587 0.534321 0.939181
Si Si3 0.551831 0.981561 0.835526
Si Si4 0.838797 0.833080 0.156454
Si Si5 0.721397 0.531572 0.848065
Si Si6 0.488253 0.267412 0.388344
Si Si7 0.675311 0.609646 0.516981
O O1 0.215160 0.779649 0.502402
O O2 0.205532 0.326055 0.498075
O O3 0.000000 0.500000 0.500000
O O4 0.731990 0.810675 0.274293
O O5 0.124009 0.877097 0.873387
O O6 0.500000 0.500000 0.000000
O O7 0.328598 0.301896 0.043205
O O8 0.922049 0.557710 0.171689
O O9 0.522160 0.825974 0.775671
O O10 0.685364 0.217800 0.866835
O O11 0.049122 0.664944 0.314176
O O12 0.500000 0.000000 0.000000
O O13 0.693910 0.599216 0.760337
O O14 0.000000 0.500000 0.000000
O O15 0.468653 0.483595 0.416286
O O16 0.519699 0.938876 0.448925
#
# Coordination Sequence:
#
# PCOD9081502 Si02
#       7
#     2   2   2   2   2   2   2
#     4  10  20  33  54  86 128 147 192 231 317 379
#     4  10  21  35  53  88 125 156 193 237 298 377
#     4  12  24  38  64  90 124 165 195 253 310 352
#     4  10  19  32  50  80 123 159 189 224 283 366
#     4  12  26  45  62  87 120 166 218 253 285 355
#     4  10  22  37  56  88 119 161 196 246 305 370
#     4  10  21  33  55  85 126 160 187 233 304 373
#
# _framework density 25.380915000000002
#
# number of rings (size 3 to 8) (size 9 to 14) (size 15 to 20)
#    0.857    0.571    1.429    5.571    6.000    1.143 
#    0.000    0.000    0.000    0.000    0.000   20.000 
#    0.000    0.000    0.000    0.000    0.000    0.000 
#
# Total GULP energy -77995.325826 kJ/mol
# GULP energy per Si atom -5571.094702 kJ/mol
# Density = 2.532315 g / cm^3
# Si number density = 25.380915 Si / 1000 Ang^3
#
#
#
# Elastic Constant Matrix: (Units=GPa)
#
#
# Indices 1 2 3 4 5 6 
#
# 1 77.3491 38.3592 30.3301 0.9574 -10.8748 12.8345
# 2 38.3592 244.2992 51.0722 -0.1394 -23.1468 -2.8935
# 3 30.3301 51.0722 139.8939 11.8162 -21.3486 19.3829
# 4 0.9574 -0.1394 11.8162 30.8614 -2.1528 -11.7716
# 5 -10.8748 -23.1468 -21.3486 -2.1528 41.6219 -3.9160
# 6 12.8345 -2.8935 19.3829 -11.7716 -3.9160 41.1518
#
#
#
# Elastic Compliance Matrix: (Units=1/GPa)
#
#
# Indices 1 2 3 4 5 6 
#
# 1 0.015555 -0.001998 -0.001655 -0.001453 0.001608 -0.004475
# 2 -0.001998 0.004928 -0.001575 0.001709 0.001722 0.002364
# 3 -0.001655 -0.001575 0.009760 -0.005596 0.002889 -0.005518
# 4 -0.001453 0.001709 -0.005596 0.040351 0.001186 0.014864
# 5 0.001608 0.001722 0.002889 0.001186 0.027057 0.001173
# 6 -0.004475 0.002364 -0.005518 0.014864 0.001173 0.032825
#
#
# Mechanical properties :
#
#
# Convention : Reuss Voigt Hill
#
# Bulk Modulus (GPa) = 50.53809 77.89613 64.21711
# Shear Modulus (GPa) = 33.89192 45.51239 39.70216
#
# Velocity S-wave (km/s) = 3.65818 4.23918 3.95935
# Velocity P-wave (km/s) = 6.14802 7.39718 6.80134
#
# Compressibility (1/GPa) = 0.01978706
#
# Stress axis : x y z
#
# Youngs Moduli (GPa) = 64.28945 202.90202 102.45636
#
# Poissons Ratio (x) = 0.40537 0.16956
# Poissons Ratio (y) = 0.12844 0.16141
# Poissons Ratio (z) = 0.10639 0.31965
#
# Static dielectric constant tensor:
#      x y z
#    x 2.114730 -0.054330 0.055510 
#    y -0.054330 2.055380 -0.066530 
#    z 0.055510 -0.066530 2.152910 
# 
# From -- ./inp_files/623300.got.cif
#   From: 2010.05.17/outbox.cif.g08.bks.cpg/sg2_312_cif.got.tgz:623300.got - 2010.06.03 11:33:40.
