data_PCOD9081372
_publ_section_title
;
Structure prediction by ZEFSAII (Michael W. Deem and Ramdas Pophale) SiO2 
 PCOD9081372
Probable space group: P -1
;
_chemical_formula_sum "Si O2"
_cell_formula_units_Z 16
_cell_length_a 11.089619
_cell_length_b 8.254046
_cell_length_c 18.530874
_cell_angle_alpha 91.127334
_cell_angle_beta 149.328004
_cell_angle_gamma 106.126208
_cell_volume 706.100589
_symmetry_space_group_name_H-M "P -1"
_symmetry_group_IT_number 2
_symmetry_cell_setting 'triclinic'
loop_
_space_group_symop_operation_xyz
x,y,z
-x,-y,-z
loop_
_atom_site_type_symbol
_atom_site_label
_atom_site_fract_x
_atom_site_fract_y
_atom_site_fract_z
Si Si1 0.458552 0.879867 0.403711
Si Si2 0.651106 0.372436 0.316056
Si Si3 0.372603 0.207767 0.917286
Si Si4 0.959792 0.597944 0.232866
Si Si5 0.307166 0.273205 0.718758
Si Si6 0.874029 0.799986 0.672516
Si Si7 0.386059 0.991686 0.669785
Si Si8 0.600824 0.380149 0.454676
O O1 0.737883 0.876252 0.547538
O O2 0.176324 0.660989 0.277291
O O3 0.500000 0.000000 0.500000
O O4 0.443917 0.953065 0.318519
O O5 0.576321 0.496195 0.228486
O O6 0.549322 0.145545 0.251216
O O7 0.554709 0.382936 0.347234
O O8 0.000000 0.500000 0.500000
O O9 0.188053 0.286904 0.853348
O O10 0.359492 0.228880 0.825121
O O11 0.702834 0.369426 0.109063
O O12 0.205830 0.980323 0.852612
O O13 0.167977 0.671878 0.410601
O O14 0.962565 0.145727 0.523640
O O15 0.444142 0.189793 0.736834
O O16 0.774751 0.594471 0.584274
O O17 0.695077 0.752407 0.654035
#
# Coordination Sequence:
#
# PCOD9081372 Si02
#       8
#     2   2   2   2   2   2   2   2
#     4  11  17  33  59  85 109 146 193 244 276 340
#     4  10  20  31  53  86 114 141 185 241 278 336
#     4  11  21  38  56  83 114 157 185 228 298 345
#     4  10  22  35  58  84 114 149 189 234 290 349
#     4  10  20  35  54  83 115 151 187 238 277 349
#     4  10  20  33  60  80 115 143 184 244 285 329
#     4  10  19  31  56  83 107 152 190 234 294 321
#     4  10  21  36  54  93 111 139 193 242 287 334
#
# _framework density 22.659662999999998
#
# number of rings (size 3 to 8) (size 9 to 14) (size 15 to 20)
#    0.000    1.750    2.500    3.750    3.500    0.500 
#    0.000    0.625    0.000    0.750    0.000    0.000 
#    0.000    0.000    0.000    0.000    0.000    0.000 
#
# Total GULP energy -89265.358309 kJ/mol
# GULP energy per Si atom -5579.084894 kJ/mol
# Density = 2.260809 g / cm^3
# Si number density = 22.659663 Si / 1000 Ang^3
#
#
#
# Elastic Constant Matrix: (Units=GPa)
#
#
# Indices 1 2 3 4 5 6 
#
# 1 78.4811 37.6162 14.8039 5.9786 4.6024 1.9118
# 2 37.6162 105.3527 12.9661 23.8895 12.8074 -3.7863
# 3 14.8039 12.9661 61.8337 19.9250 16.8606 4.1321
# 4 5.9786 23.8895 19.9250 28.3820 7.1865 5.9909
# 5 4.6024 12.8074 16.8606 7.1865 14.8878 3.7929
# 6 1.9118 -3.7863 4.1321 5.9909 3.7929 32.2592
#
#
#
# Elastic Compliance Matrix: (Units=1/GPa)
#
#
# Indices 1 2 3 4 5 6 
#
# 1 0.016620 -0.007329 -0.005614 0.005835 0.005434 -0.002849
# 2 -0.007329 0.016489 0.006276 -0.014562 -0.013490 0.005856
# 3 -0.005614 0.006276 0.030002 -0.018504 -0.029771 0.004163
# 4 0.005835 -0.014562 -0.018504 0.060289 0.005514 -0.011529
# 5 0.005434 -0.013490 -0.029771 0.005514 0.111255 -0.012197
# 6 -0.002849 0.005856 0.004163 -0.011529 -0.012197 0.034897
#
#
# Mechanical properties :
#
#
# Convention : Reuss Voigt Hill
#
# Bulk Modulus (GPa) = 20.08919 41.82668 30.95793
# Shear Modulus (GPa) = 16.69574 27.12456 21.91015
#
# Velocity S-wave (km/s) = 2.71736 3.46358 3.11291
# Velocity P-wave (km/s) = 4.32785 5.87315 5.15869
#
# Compressibility (1/GPa) = 0.04977802
#
# Stress axis : x y z
#
# Youngs Moduli (GPa) = 60.16833 60.64756 33.33076
#
# Poissons Ratio (x) = 0.44450 0.18711
# Poissons Ratio (y) = 0.44099 -0.20920
# Poissons Ratio (z) = 0.33776 -0.38065
#
# Static dielectric constant tensor:
#      x y z
#    x 1.860470 -0.055260 0.006760 
#    y -0.055260 1.999410 0.045840 
#    z 0.006760 0.045840 1.832660 
# 
# From -- ./inp_files/403226.got.cif
#   From: 2010.05.17/outbox.cif.g08.bks.cpg/sg2_202_cif.got.tgz:403226.got - 2010.06.03 11:33:40.
