data_PCOD9081283
_publ_section_title
;
Structure prediction by ZEFSAII (Michael W. Deem and Ramdas Pophale) SiO2 
 PCOD9081283
Probable space group: P -1
;
_chemical_formula_sum "Si O2"
_cell_formula_units_Z 14
_cell_length_a 11.846723
_cell_length_b 12.727879
_cell_length_c 5.013925
_cell_angle_alpha 69.349548
_cell_angle_beta 88.341412
_cell_angle_gamma 51.586128
_cell_volume 535.340469
_symmetry_space_group_name_H-M "P -1"
_symmetry_group_IT_number 2
_symmetry_cell_setting 'triclinic'
loop_
_space_group_symop_operation_xyz
x,y,z
-x,-y,-z
loop_
_atom_site_type_symbol
_atom_site_label
_atom_site_fract_x
_atom_site_fract_y
_atom_site_fract_z
Si Si1 0.086169 0.522119 0.184968
Si Si2 0.256089 0.799469 0.921515
Si Si3 0.012795 0.805758 0.739417
Si Si4 0.416010 0.646401 0.546164
Si Si5 0.592151 0.764877 0.392786
Si Si6 0.128283 0.188483 0.772208
Si Si7 0.418100 0.935123 0.746560
O O1 0.239808 0.368959 0.407504
O O2 0.970098 0.637179 0.319348
O O3 0.000000 0.500000 0.000000
O O4 0.112962 0.628692 0.953427
O O5 0.362949 0.659648 0.837382
O O6 0.319707 0.883219 0.802336
O O7 0.096358 0.862184 0.776805
O O8 0.272298 0.763505 0.264105
O O9 0.962791 0.825051 0.423666
O O10 0.872624 0.873648 0.887116
O O11 0.500000 0.500000 0.500000
O O12 0.517606 0.689868 0.489682
O O13 0.489304 0.902113 0.482144
O O14 0.553726 0.828324 0.039208
O O15 0.292487 0.100464 0.723755
#
# Coordination Sequence:
#
# PCOD9081283 Si02
#       7
#     2   2   2   2   2   2   2
#     4  10  25  45  66  91 119 159 210 261 309 356
#     4  10  20  33  55  91 121 162 195 243 288 367
#     4  10  22  37  64  90 124 160 208 244 306 353
#     4  10  19  31  53  84 126 157 200 238 300 351
#     4  10  22  38  64  89 122 162 203 252 301 361
#     4  10  23  41  64  87 130 160 202 252 303 364
#     4  10  22  41  61  94 129 161 198 244 305 366
#
# _framework density 26.151579000000002
#
# number of rings (size 3 to 8) (size 9 to 14) (size 15 to 20)
#    0.857    1.143    0.000    3.000    4.000    2.857 
#    0.000    1.429    0.000    0.000    0.000    0.000 
#    0.000    0.000    0.000    0.000    0.000    0.000 
#
# Total GULP energy -78329.339530 kJ/mol
# GULP energy per Si atom -5594.952824 kJ/mol
# Density = 2.609206 g / cm^3
# Si number density = 26.151579 Si / 1000 Ang^3
#
#
#
# Elastic Constant Matrix: (Units=GPa)
#
#
# Indices 1 2 3 4 5 6 
#
# 1 92.0787 25.3712 41.7965 6.2344 34.9527 -5.9673
# 2 25.3712 150.6557 42.3146 -1.7121 20.9071 -5.6252
# 3 41.7965 42.3146 131.5658 6.1532 28.2188 -9.1289
# 4 6.2344 -1.7121 6.1532 49.0816 -7.7378 3.0283
# 5 34.9527 20.9071 28.2188 -7.7378 44.1025 9.7653
# 6 -5.9673 -5.6252 -9.1289 3.0283 9.7653 39.6765
#
#
#
# Elastic Compliance Matrix: (Units=1/GPa)
#
#
# Indices 1 2 3 4 5 6 
#
# 1 0.018457 -0.000252 -0.001708 -0.005032 -0.015763 0.006611
# 2 -0.000252 0.007566 -0.001717 0.000028 -0.002565 0.001269
# 3 -0.001708 -0.001717 0.010211 -0.002198 -0.005498 0.003370
# 4 -0.005032 0.000028 -0.002198 0.023332 0.010733 -0.005681
# 5 -0.015763 -0.002565 -0.005498 0.010733 0.045321 -0.015973
# 6 0.006611 0.001269 0.003370 -0.005681 -0.015973 0.031518
#
#
# Mechanical properties :
#
#
# Convention : Reuss Voigt Hill
#
# Bulk Modulus (GPa) = 34.62260 65.91832 50.27046
# Shear Modulus (GPa) = 32.59749 44.22661 38.41205
#
# Velocity S-wave (km/s) = 3.53439 4.11684 3.83668
# Velocity P-wave (km/s) = 5.47026 6.91800 6.23629
#
# Compressibility (1/GPa) = 0.02888286
#
# Stress axis : x y z
#
# Youngs Moduli (GPa) = 54.17852 132.17378 97.93030
#
# Poissons Ratio (x) = 0.03325 0.16724
# Poissons Ratio (y) = 0.01363 0.16810
# Poissons Ratio (z) = 0.09253 0.22689
#
# Static dielectric constant tensor:
#      x y z
#    x 2.088360 0.070860 -0.026860 
#    y 0.070860 2.117340 -0.031780 
#    z -0.026860 -0.031780 1.981640 
# 
# From -- ./inp_files/77899.got.cif
#   From: 2010.05.17/outbox.cif.g08.bks.cpg/sg2_39_cif.got.tgz:77899.got - 2010.06.03 11:33:40.
