data_PCOD9081886
_publ_section_title
;
Structure prediction by ZEFSAII (Michael W. Deem and Ramdas Pophale) SiO2 
 PCOD9081886
Probable space group: P -1
;
_chemical_formula_sum "Si O2"
_cell_formula_units_Z 16
_cell_length_a 11.170678
_cell_length_b 15.670471
_cell_length_c 16.118533
_cell_angle_alpha 152.098104
_cell_angle_beta 43.898680
_cell_angle_gamma 116.769873
_cell_volume 749.396454
_symmetry_space_group_name_H-M "P -1"
_symmetry_group_IT_number 2
_symmetry_cell_setting 'triclinic'
loop_
_space_group_symop_operation_xyz
x,y,z
-x,-y,-z
loop_
_atom_site_type_symbol
_atom_site_label
_atom_site_fract_x
_atom_site_fract_y
_atom_site_fract_z
Si Si1 0.954114 0.833753 0.939036
Si Si2 0.250023 0.681959 0.281515
Si Si3 0.204972 0.305949 0.952575
Si Si4 0.486422 0.978564 0.769221
Si Si5 0.974640 0.867761 0.733666
Si Si6 0.518447 0.270964 0.285433
Si Si7 0.257245 0.360234 0.331051
Si Si8 0.682299 0.973261 0.503658
O O1 0.142946 0.622914 0.613805
O O2 0.935796 0.723190 0.938019
O O3 0.728741 0.952678 0.109939
O O4 0.996073 0.011416 0.101499
O O5 0.212338 0.891145 0.430657
O O6 0.169559 0.762939 0.484599
O O7 0.500000 0.500000 0.000000
O O8 0.148851 0.553717 0.192185
O O9 0.443278 0.144429 0.732945
O O10 0.205583 0.219449 0.786696
O O11 0.655356 0.906394 0.550833
O O12 0.535418 0.802499 0.665290
O O13 0.418530 0.207248 0.046331
O O14 0.920828 0.689684 0.625221
O O15 0.760416 0.072358 0.974675
O O16 0.500000 0.500000 0.500000
O O17 0.379027 0.281015 0.288943
#
# Coordination Sequence:
#
# PCOD9081886 Si02
#       8
#     2   2   2   2   2   2   2   2
#     4  11  20  37  63  99 129 156 204 268 316 362
#     4  10  19  32  56  92 123 163 205 240 319 377
#     4   9  17  32  55  86 126 166 189 242 312 380
#     4  10  23  39  61  95 132 158 207 270 310 370
#     4  11  21  37  66  92 124 168 209 258 302 380
#     4  11  24  46  65  86 121 179 217 250 313 380
#     4  11  23  43  64  88 125 172 212 251 317 383
#     4   9  18  34  54  86 128 156 198 247 310 368
#
# _framework density 21.350515000000001
#
# number of rings (size 3 to 8) (size 9 to 14) (size 15 to 20)
#    0.000    1.750    3.750    1.875    1.750    2.000 
#    4.500    0.000    0.000    6.000    0.000    0.000 
#    0.000    0.000    0.000    0.000    0.000    0.000 
#
# Total GULP energy -89393.733025 kJ/mol
# GULP energy per Si atom -5587.108314 kJ/mol
# Density = 2.130192 g / cm^3
# Si number density = 21.350515 Si / 1000 Ang^3
#
#
#
# Elastic Constant Matrix: (Units=GPa)
#
#
# Indices 1 2 3 4 5 6 
#
# 1 103.5012 41.8046 30.6268 8.9146 28.5402 -15.1480
# 2 41.8046 111.1890 46.9964 3.9069 26.7709 -2.1311
# 3 30.6268 46.9964 101.9404 10.6027 35.3526 -0.7633
# 4 8.9146 3.9069 10.6027 36.4510 3.6775 10.9631
# 5 28.5402 26.7709 35.3526 3.6775 32.9399 4.4668
# 6 -15.1480 -2.1311 -0.7633 10.9631 4.4668 24.8448
#
#
#
# Elastic Compliance Matrix: (Units=1/GPa)
#
#
# Indices 1 2 3 4 5 6 
#
# 1 0.018554 -0.003292 0.003457 -0.008842 -0.018617 0.018385
# 2 -0.003292 0.012566 -0.003795 0.001188 -0.003288 -0.000979
# 3 0.003457 -0.003795 0.018121 -0.006324 -0.019832 0.008695
# 4 -0.008842 0.001188 -0.006324 0.037321 0.012600 -0.024217
# 5 -0.018617 -0.003288 -0.019832 0.012600 0.073238 -0.030969
# 6 0.018385 -0.000979 0.008695 -0.024217 -0.030969 0.067896
#
#
# Mechanical properties :
#
#
# Convention : Reuss Voigt Hill
#
# Bulk Modulus (GPa) = 23.81990 61.72069 42.77029
# Shear Modulus (GPa) = 20.08418 31.99398 26.03908
#
# Velocity S-wave (km/s) = 3.07039 3.87526 3.49607
# Velocity P-wave (km/s) = 4.87345 6.99961 6.03097
#
# Compressibility (1/GPa) = 0.04198171
#
# Stress axis : x y z
#
# Youngs Moduli (GPa) = 53.89632 79.57682 55.18324
#
# Poissons Ratio (x) = 0.26193 -0.19074
# Poissons Ratio (y) = 0.17740 0.20943
# Poissons Ratio (z) = -0.18629 0.30200
#
# Static dielectric constant tensor:
#      x y z
#    x 1.764870 -0.015430 0.004930 
#    y -0.015430 1.833440 0.014000 
#    z 0.004930 0.014000 1.780120 
# 
# From -- ./inp_files/455710.got.cif
#   From: 2010.05.17/outbox.cif.g08.bks.cpg/sg2_228_cif.got.tgz:455710.got - 2010.06.03 11:33:40.
