data_PCOD9081953
_publ_section_title
;
Structure prediction by ZEFSAII (Michael W. Deem and Ramdas Pophale) SiO2 
 PCOD9081953
Probable space group: P -1
;
_chemical_formula_sum "Si O2"
_cell_formula_units_Z 16
_cell_length_a 12.962733
_cell_length_b 9.117288
_cell_length_c 8.687553
_cell_angle_alpha 118.024219
_cell_angle_beta 79.458996
_cell_angle_gamma 129.724115
_cell_volume 686.614458
_symmetry_space_group_name_H-M "P -1"
_symmetry_group_IT_number 2
_symmetry_cell_setting 'triclinic'
loop_
_space_group_symop_operation_xyz
x,y,z
-x,-y,-z
loop_
_atom_site_type_symbol
_atom_site_label
_atom_site_fract_x
_atom_site_fract_y
_atom_site_fract_z
Si Si1 0.015626 0.749678 0.778678
Si Si2 0.294590 0.682661 0.850742
Si Si3 0.179407 0.612702 0.545246
Si Si4 0.703920 0.799464 0.034442
Si Si5 0.432062 0.676893 0.064941
Si Si6 0.278445 0.023718 0.197975
Si Si7 0.976192 0.673385 0.099901
Si Si8 0.630386 0.077314 0.603141
O O1 0.078178 0.626522 0.679243
O O2 0.897213 0.623013 0.622323
O O3 0.145589 0.000485 0.853085
O O4 0.960144 0.715926 0.948918
O O5 0.297172 0.687067 0.669363
O O6 0.159719 0.445236 0.822941
O O7 0.420908 0.716521 0.909121
O O8 0.283545 0.858524 0.009769
O O9 0.239726 0.783564 0.475336
O O10 0.588686 0.810924 0.133813
O O11 0.649056 0.569781 0.993978
O O12 0.695081 0.808849 0.855398
O O13 0.357783 0.751933 0.205061
O O14 0.120328 0.888059 0.224755
O O15 0.363465 0.071527 0.353726
O O16 0.000000 0.500000 0.000000
O O17 0.500000 0.000000 0.500000
#
# Coordination Sequence:
#
# PCOD9081953 Si02
#       8
#     2   2   2   2   2   2   2   2
#     4  10  19  32  58  86 114 148 188 230 279 333
#     4  10  19  33  59  87 115 145 187 236 273 330
#     4  11  20  32  56  90 123 142 179 237 288 323
#     4  10  20  41  62  80 105 156 198 228 276 336
#     4  10  23  39  61  79 114 148 195 234 277 337
#     4   9  19  34  59  81 112 145 195 225 271 339
#     4   9  14  31  51  83 110 142 187 224 274 319
#     4  11  24  36  56  89 119 145 184 237 286 330
#
# _framework density 23.302743
#
# number of rings (size 3 to 8) (size 9 to 14) (size 15 to 20)
#    0.000    2.000    3.750    3.000    3.500    1.000 
#    0.000    6.875    2.750    0.000    0.000    0.000 
#    0.000    0.000    0.000    0.000    0.000    0.000 
#
# Total GULP energy -89307.927706 kJ/mol
# GULP energy per Si atom -5581.745482 kJ/mol
# Density = 2.324970 g / cm^3
# Si number density = 23.302743 Si / 1000 Ang^3
#
#
#
# Elastic Constant Matrix: (Units=GPa)
#
#
# Indices 1 2 3 4 5 6 
#
# 1 44.1488 6.1809 16.3230 -1.1710 9.8925 1.2058
# 2 6.1809 92.8289 29.7631 -8.0512 4.3976 6.9739
# 3 16.3230 29.7631 81.4043 -15.7766 33.5746 -9.9269
# 4 -1.1710 -8.0512 -15.7766 27.4738 3.1900 4.5421
# 5 9.8925 4.3976 33.5746 3.1900 30.8321 -5.7753
# 6 1.2058 6.9739 -9.9269 4.5421 -5.7753 29.8228
#
#
#
# Elastic Compliance Matrix: (Units=1/GPa)
#
#
# Indices 1 2 3 4 5 6 
#
# 1 0.025095 -0.000161 -0.003115 0.000353 -0.005251 -0.003085
# 2 -0.000161 0.013361 -0.008092 -0.000712 0.006188 -0.004505
# 3 -0.003115 -0.008092 0.037373 0.023126 -0.040352 0.003122
# 4 0.000353 -0.000712 0.023126 0.054302 -0.032055 -0.006628
# 5 -0.005251 0.006188 -0.040352 -0.032055 0.081621 0.006022
# 6 -0.003085 -0.004505 0.003122 -0.006628 0.006022 0.037924
#
#
# Mechanical properties :
#
#
# Convention : Reuss Voigt Hill
#
# Bulk Modulus (GPa) = 18.83502 35.87955 27.35728
# Shear Modulus (GPa) = 17.23469 28.70008 22.96739
#
# Velocity S-wave (km/s) = 2.72251 3.51325 3.14285
# Velocity P-wave (km/s) = 4.24064 5.64693 4.99354
#
# Compressibility (1/GPa) = 0.05309259
#
# Stress axis : x y z
#
# Youngs Moduli (GPa) = 39.84833 74.84252 26.75715
#
# Poissons Ratio (x) = 0.01205 0.08335
# Poissons Ratio (y) = 0.00642 0.21653
# Poissons Ratio (z) = 0.12413 0.60566
#
# Static dielectric constant tensor:
#      x y z
#    x 1.952550 0.016630 0.070280 
#    y 0.016630 1.880100 -0.023510 
#    z 0.070280 -0.023510 1.953150 
# 
# From -- ./inp_files/218564.got.cif
#   From: 2010.05.17/outbox.cif.g08.bks.cpg/sg2_110_cif.got.tgz:218564.got - 2010.06.03 11:33:40.
