data_PCOD9081628
_publ_section_title
;
Structure prediction by ZEFSAII (Michael W. Deem and Ramdas Pophale) SiO2 
 PCOD9081628
Probable space group: P -1
;
_chemical_formula_sum "Si O2"
_cell_formula_units_Z 16
_cell_length_a 23.902083
_cell_length_b 17.454125
_cell_length_c 8.314871
_cell_angle_alpha 52.919147
_cell_angle_beta 54.581405
_cell_angle_gamma 15.263896
_cell_volume 728.528700
_symmetry_space_group_name_H-M "P -1"
_symmetry_group_IT_number 2
_symmetry_cell_setting 'triclinic'
loop_
_space_group_symop_operation_xyz
x,y,z
-x,-y,-z
loop_
_atom_site_type_symbol
_atom_site_label
_atom_site_fract_x
_atom_site_fract_y
_atom_site_fract_z
Si Si1 0.672325 0.956909 0.849735
Si Si2 0.248507 0.713774 0.104556
Si Si3 0.294333 0.844315 0.008776
Si Si4 0.416367 0.179917 0.215282
Si Si5 0.073510 0.753658 0.268427
Si Si6 0.223186 0.272104 0.557761
Si Si7 0.203014 0.045362 0.552442
Si Si8 0.924294 0.702915 0.061100
O O1 0.631282 0.100813 0.617881
O O2 0.843318 0.649712 0.899238
O O3 0.792504 0.849091 0.936841
O O4 0.467231 0.171879 0.982253
O O5 0.469617 0.430289 0.994554
O O6 0.188884 0.681915 0.273903
O O7 0.279990 0.748191 0.153350
O O8 0.058953 0.011570 0.940408
O O9 0.268476 0.912444 0.779941
O O10 0.111239 0.139583 0.039138
O O11 0.250128 0.458070 0.251798
O O12 0.334303 0.179256 0.342871
O O13 0.635161 0.886954 0.322402
O O14 0.904488 0.900849 0.435652
O O15 0.189139 0.204567 0.718870
O O16 0.994937 0.621265 0.513941
#
# Coordination Sequence:
#
# PCOD9081628 Si02
#       8
#     2   2   2   2   2   2   2   2
#     4   9  17  29  49  78 106 135 167 195 247 320
#     4   9  18  32  54  75  94 128 184 222 245 285
#     4  10  19  32  53  78 102 130 170 220 258 286
#     4   9  15  27  49  76 104 129 163 207 244 291
#     4   9  17  32  55  77  97 131 177 216 245 293
#     4   8  15  26  45  74 102 130 164 196 240 301
#     4   9  18  31  51  78 105 131 165 209 255 303
#     4   9  17  30  48  72 104 136 166 203 246 301
#
# _framework density 21.962071999999999
#
# number of rings (size 3 to 8) (size 9 to 14) (size 15 to 20)
#    0.000    3.000    0.000    2.250    0.000    2.000 
#    0.000    0.000    0.000   45.000    0.000    0.000 
#    0.000    0.000    0.000    0.000    0.000    0.000 
#
# Total GULP energy -89089.781204 kJ/mol
# GULP energy per Si atom -5568.111325 kJ/mol
# Density = 2.191209 g / cm^3
# Si number density = 21.962072 Si / 1000 Ang^3
#
#
#
# Elastic Constant Matrix: (Units=GPa)
#
#
# Indices 1 2 3 4 5 6 
#
# 1 96.4324 16.2877 47.6463 -4.6226 -52.0943 31.4913
# 2 16.2877 55.2357 3.5070 -9.2750 3.2013 7.8153
# 3 47.6463 3.5070 137.9592 -3.5676 -99.5566 31.6325
# 4 -4.6226 -9.2750 -3.5676 33.0399 7.8303 -7.5916
# 5 -52.0943 3.2013 -99.5566 7.8303 117.6303 -37.0441
# 6 31.4913 7.8153 31.6325 -7.5916 -37.0441 35.1433
#
#
#
# Elastic Compliance Matrix: (Units=1/GPa)
#
#
# Indices 1 2 3 4 5 6 
#
# 1 0.016575 -0.004097 -0.000456 -0.002070 0.004194 -0.009557
# 2 -0.004097 0.021367 -0.002504 0.005674 -0.006193 -0.004129
# 3 -0.000456 -0.002504 0.019080 -0.002468 0.016327 0.000467
# 4 -0.002070 0.005674 -0.002468 0.033600 -0.003330 0.006563
# 5 0.004194 -0.006193 0.016327 -0.003330 0.028385 0.012124
# 6 -0.009557 -0.004129 0.000467 0.006563 0.012124 0.051714
#
#
# Mechanical properties :
#
#
# Convention : Reuss Voigt Hill
#
# Bulk Modulus (GPa) = 23.30498 47.16768 35.23633
# Shear Modulus (GPa) = 25.10818 51.97514 38.54166
#
# Velocity S-wave (km/s) = 3.38487 4.87003 4.19372
# Velocity P-wave (km/s) = 5.09028 7.29016 6.28719
#
# Compressibility (1/GPa) = 0.04290929
#
# Stress axis : x y z
#
# Youngs Moduli (GPa) = 60.33304 46.80066 52.40962
#
# Poissons Ratio (x) = 0.19175 0.02387
# Poissons Ratio (y) = 0.24719 0.13123
# Poissons Ratio (z) = 0.02748 0.11719
#
# Static dielectric constant tensor:
#      x y z
#    x 1.891620 -0.029300 -0.018300 
#    y -0.029300 1.818770 0.030230 
#    z -0.018300 0.030230 1.884070 
# 
# From -- ./inp_files/217707.got.cif
#   From: 2010.05.17/outbox.cif.g08.bks.cpg/sg2_109_cif.got.tgz:217707.got - 2010.06.03 11:33:40.
