data_PCOD9081289
_publ_section_title
;
Structure prediction by ZEFSAII (Michael W. Deem and Ramdas Pophale) SiO2 
 PCOD9081289
Probable space group: P -1
;
_chemical_formula_sum "Si O2"
_cell_formula_units_Z 16
_cell_length_a 7.019313
_cell_length_b 7.926663
_cell_length_c 17.736019
_cell_angle_alpha 114.253208
_cell_angle_beta 85.827175
_cell_angle_gamma 123.422490
_cell_volume 735.507783
_symmetry_space_group_name_H-M "P -1"
_symmetry_group_IT_number 2
_symmetry_cell_setting 'triclinic'
loop_
_space_group_symop_operation_xyz
x,y,z
-x,-y,-z
loop_
_atom_site_type_symbol
_atom_site_label
_atom_site_fract_x
_atom_site_fract_y
_atom_site_fract_z
Si Si1 0.634575 0.469246 0.807913
Si Si2 0.714431 0.998040 0.761096
Si Si3 0.803139 0.303845 0.524727
Si Si4 0.966927 0.463315 0.906047
Si Si5 0.847142 0.647318 0.684528
Si Si6 0.985128 0.210396 0.649821
Si Si7 0.266201 0.010486 0.648706
Si Si8 0.346119 0.663162 0.814440
O O1 0.745712 0.453500 0.877795
O O2 0.834261 0.576951 0.757760
O O3 0.525258 0.613236 0.837479
O O4 0.441096 0.226051 0.733619
O O5 0.745206 0.795733 0.714933
O O6 0.486376 0.885588 0.799175
O O7 0.914973 0.220086 0.840967
O O8 0.763249 0.092843 0.691815
O O9 0.703454 0.425705 0.595213
O O10 0.651762 0.086979 0.435873
O O11 0.000000 0.500000 0.500000
O O12 0.920116 0.246150 0.576268
O O13 0.189129 0.649638 0.884786
O O14 0.000000 0.500000 0.000000
O O15 0.104043 0.805468 0.673050
O O16 0.181434 0.451518 0.724956
O O17 0.095444 0.066479 0.623882
#
# Coordination Sequence:
#
# PCOD9081289 Si02
#       8
#     2   2   2   2   2   2   2   2
#     4  10  21  39  62  83 114 159 195 232 293 351
#     4   9  19  37  60  81 112 156 193 235 297 348
#     4  10  19  31  53  86 122 158 200 246 287 332
#     4  11  24  40  62  93 119 144 190 243 292 360
#     4   9  18  35  55  82 116 153 198 240 281 341
#     4   9  17  34  57  83 118 158 202 244 283 340
#     4   9  19  34  55  82 117 159 199 245 292 332
#     4   9  20  40  61  85 118 153 191 237 290 349
#
# _framework density 21.753679999999999
#
# number of rings (size 3 to 8) (size 9 to 14) (size 15 to 20)
#    0.000    2.500    0.000    2.625    0.000    4.500 
#    0.000    5.000    0.000   13.500    0.000    0.000 
#    0.000    0.000    0.000    0.000    0.000    0.000 
#
# Total GULP energy -89272.763328 kJ/mol
# GULP energy per Si atom -5579.547708 kJ/mol
# Density = 2.170417 g / cm^3
# Si number density = 21.753680 Si / 1000 Ang^3
#
#
#
# Elastic Constant Matrix: (Units=GPa)
#
#
# Indices 1 2 3 4 5 6 
#
# 1 74.4585 19.0989 37.1114 -9.5088 10.6205 -8.9544
# 2 19.0989 120.1488 43.3900 -24.0035 11.6158 7.4946
# 3 37.1114 43.3900 136.8118 -29.8094 19.2566 2.2433
# 4 -9.5088 -24.0035 -29.8094 25.4666 -6.4798 -10.2052
# 5 10.6205 11.6158 19.2566 -6.4798 26.0999 -4.9614
# 6 -8.9544 7.4946 2.2433 -10.2052 -4.9614 25.0536
#
#
#
# Elastic Compliance Matrix: (Units=1/GPa)
#
#
# Indices 1 2 3 4 5 6 
#
# 1 0.017095 -0.001007 -0.003258 0.004594 -0.001386 0.008299
# 2 -0.001007 0.010629 -0.001211 0.007509 -0.001698 -0.000709
# 3 -0.003258 -0.001211 0.011406 0.010873 -0.003487 0.001915
# 4 0.004594 0.007509 0.010873 0.076624 0.011871 0.031984
# 5 -0.001386 -0.001698 -0.003487 0.011871 0.047939 0.014653
# 6 0.008299 -0.000709 0.001915 0.031984 0.014653 0.058851
#
#
# Mechanical properties :
#
#
# Convention : Reuss Voigt Hill
#
# Bulk Modulus (GPa) = 35.48963 58.95776 47.22369
# Shear Modulus (GPa) = 20.58565 30.77861 25.68213
#
# Velocity S-wave (km/s) = 3.07955 3.76556 3.43970
# Velocity P-wave (km/s) = 5.38466 6.78728 6.12624
#
# Compressibility (1/GPa) = 0.02817725
#
# Stress axis : x y z
#
# Youngs Moduli (GPa) = 58.49742 94.08323 87.67640
#
# Poissons Ratio (x) = 0.09472 0.28564
# Poissons Ratio (y) = 0.05890 0.10620
# Poissons Ratio (z) = 0.19058 0.11396
#
# Static dielectric constant tensor:
#      x y z
#    x 1.870680 0.012120 -0.017690 
#    y 0.012120 1.838130 -0.001650 
#    z -0.017690 -0.001650 1.760410 
# 
# From -- ./inp_files/493423.got.cif
#   From: 2010.05.17/outbox.cif.g08.bks.cpg/sg2_247_cif.got.tgz:493423.got - 2010.06.03 11:33:40.
