data_PCOD9081526
_publ_section_title
;
Structure prediction by ZEFSAII (Michael W. Deem and Ramdas Pophale) SiO2 
 PCOD9081526
Probable space group: P -1
;
_chemical_formula_sum "Si O2"
_cell_formula_units_Z 16
_cell_length_a 9.577640
_cell_length_b 15.909047
_cell_length_c 15.021773
_cell_angle_alpha 51.009446
_cell_angle_beta 87.392283
_cell_angle_gamma 44.016077
_cell_volume 812.638566
_symmetry_space_group_name_H-M "P -1"
_symmetry_group_IT_number 2
_symmetry_cell_setting 'triclinic'
loop_
_space_group_symop_operation_xyz
x,y,z
-x,-y,-z
loop_
_atom_site_type_symbol
_atom_site_label
_atom_site_fract_x
_atom_site_fract_y
_atom_site_fract_z
Si Si1 0.022962 0.748870 0.289854
Si Si2 0.538811 0.248172 0.530425
Si Si3 0.820640 0.944119 0.974803
Si Si4 0.431474 0.403550 0.242757
Si Si5 0.639471 0.459794 0.111062
Si Si6 0.570702 0.886065 0.273800
Si Si7 0.018240 0.990155 0.821149
Si Si8 0.029745 0.600492 0.967350
O O1 0.855596 0.767687 0.333124
O O2 0.335958 0.485865 0.417204
O O3 0.051354 0.835882 0.289956
O O4 0.822783 0.922195 0.093924
O O5 0.545472 0.253493 0.421084
O O6 0.390743 0.239391 0.575683
O O7 0.864059 0.037191 0.709676
O O8 0.530877 0.095012 0.830741
O O9 0.866311 0.035923 0.880453
O O10 0.121863 0.677158 0.103825
O O11 0.669023 0.335838 0.257088
O O12 0.312785 0.420428 0.148450
O O13 0.909660 0.351726 0.143277
O O14 0.500000 0.500000 0.000000
O O15 0.376322 0.717788 0.987983
O O16 0.281280 0.153561 0.137976
O O17 0.000000 0.500000 0.000000
#
# Coordination Sequence:
#
# PCOD9081526 Si02
#       8
#     2   2   2   2   2   2   2   2
#     4  11  19  31  51  76 102 131 164 204 243 287
#     4  10  20  35  49  71 106 136 159 193 245 308
#     4   8  17  32  51  72  98 130 167 202 242 292
#     4   8  17  33  53  72  96 130 166 198 242 300
#     4   9  17  34  55  73  94 128 168 206 244 287
#     4  10  20  34  51  73 101 137 166 193 244 305
#     4  10  19  32  51  77 100 127 166 209 246 283
#     4  10  19  35  55  76  97 123 165 217 248 274
#
# _framework density 19.688949999999998
#
# number of rings (size 3 to 8) (size 9 to 14) (size 15 to 20)
#    0.000    2.500    0.000    4.500    0.000    0.000 
#    0.000    7.500    0.000    0.000    0.000    0.000 
#    0.000    0.000    0.000    0.000    0.000    0.000 
#
# Total GULP energy -89256.080770 kJ/mol
# GULP energy per Si atom -5578.505048 kJ/mol
# Density = 1.964414 g / cm^3
# Si number density = 19.688950 Si / 1000 Ang^3
#
#
#
# Elastic Constant Matrix: (Units=GPa)
#
#
# Indices 1 2 3 4 5 6 
#
# 1 111.3044 29.4900 15.3332 16.8918 -9.7560 1.5374
# 2 29.4900 47.3817 10.8336 4.8589 -3.8905 1.3123
# 3 15.3332 10.8336 55.8291 22.6018 -11.3076 -6.1714
# 4 16.8918 4.8589 22.6018 34.8958 -9.4935 -8.4422
# 5 -9.7560 -3.8905 -11.3076 -9.4935 14.8847 -1.2857
# 6 1.5374 1.3123 -6.1714 -8.4422 -1.2857 21.3736
#
#
#
# Elastic Compliance Matrix: (Units=1/GPa)
#
#
# Indices 1 2 3 4 5 6 
#
# 1 0.011671 -0.006562 0.000334 -0.004586 0.003093 -0.001966
# 2 -0.006562 0.026009 -0.004114 0.002000 0.000518 -0.001492
# 3 0.000334 -0.004114 0.026500 -0.012797 0.011416 0.003512
# 4 -0.004586 0.002000 -0.012797 0.048448 0.020152 0.016861
# 5 0.003093 0.000518 0.011416 0.020152 0.092302 0.016554
# 6 -0.001966 -0.001492 0.003512 0.016861 0.016554 0.055689
#
#
# Mechanical properties :
#
#
# Convention : Reuss Voigt Hill
#
# Bulk Modulus (GPa) = 22.99115 36.20320 29.59717
# Shear Modulus (GPa) = 16.90324 24.82137 20.86231
#
# Velocity S-wave (km/s) = 2.93322 3.55445 3.25867
# Velocity P-wave (km/s) = 4.81396 5.93911 5.40589
#
# Compressibility (1/GPa) = 0.04349500
#
# Stress axis : x y z
#
# Youngs Moduli (GPa) = 85.68111 38.44879 37.73630
#
# Poissons Ratio (x) = 0.25229 -0.01259
# Poissons Ratio (y) = 0.56221 0.15526
# Poissons Ratio (z) = -0.02859 0.15819
#
# Static dielectric constant tensor:
#      x y z
#    x 1.684850 -0.017000 -0.010180 
#    y -0.017000 1.700950 0.002570 
#    z -0.010180 0.002570 1.721700 
# 
# From -- ./inp_files/169457.got.cif
#   From: 2010.05.17/outbox.cif.g08.bks.cpg/sg2_85_cif.got.tgz:169457.got - 2010.06.03 11:33:40.
