data_PCOD9081620
_publ_section_title
;
Structure prediction by ZEFSAII (Michael W. Deem and Ramdas Pophale) SiO2 
 PCOD9081620
Probable space group: P -1
;
_chemical_formula_sum "Si O2"
_cell_formula_units_Z 16
_cell_length_a 24.191993
_cell_length_b 9.077159
_cell_length_c 14.631776
_cell_angle_alpha 56.455300
_cell_angle_beta 160.741403
_cell_angle_gamma 133.629046
_cell_volume 698.334730
_symmetry_space_group_name_H-M "P -1"
_symmetry_group_IT_number 2
_symmetry_cell_setting 'triclinic'
loop_
_space_group_symop_operation_xyz
x,y,z
-x,-y,-z
loop_
_atom_site_type_symbol
_atom_site_label
_atom_site_fract_x
_atom_site_fract_y
_atom_site_fract_z
Si Si1 0.870810 0.583031 0.683385
Si Si2 0.260349 0.305677 0.719273
Si Si3 0.190616 0.433072 0.747143
Si Si4 0.340906 0.183607 0.174851
Si Si5 0.415275 0.089493 0.142777
Si Si6 0.751204 0.666376 0.856896
Si Si7 0.841666 0.561611 0.852016
Si Si8 0.261536 0.693042 0.921401
O O1 0.868759 0.748219 0.555746
O O2 0.642470 0.334129 0.412661
O O3 0.904109 0.661633 0.812838
O O4 0.032564 0.541869 0.911738
O O5 0.208551 0.423747 0.670666
O O6 0.500000 0.500000 0.000000
O O7 0.257085 0.116538 0.829665
O O8 0.333092 0.669031 0.942132
O O9 0.947664 0.328086 0.418544
O O10 0.264933 0.297847 0.953767
O O11 0.340189 0.025565 0.152764
O O12 0.226182 0.148570 0.104528
O O13 0.590105 0.363922 0.524170
O O14 0.416841 0.908505 0.152091
O O15 0.500000 0.500000 0.500000
O O16 0.872663 0.712917 0.934624
O O17 0.796931 0.520792 0.039298
#
# Coordination Sequence:
#
# PCOD9081620 Si02
#       8
#     2   2   2   2   2   2   2   2
#     4   9  17  30  49  73 101 134 170 201 236 291
#     4   9  17  31  50  72 101 134 163 198 246 297
#     4   9  18  32  52  73  97 131 164 199 251 303
#     4   8  16  30  48  73  99 124 160 199 244 293
#     4   9  18  32  51  77 102 125 161 211 251 284
#     4   9  17  31  51  73  97 132 165 196 245 300
#     4   9  16  29  51  72  94 131 174 198 229 292
#     4  10  19  32  53  77 100 126 163 208 251 294
#
# _framework density 22.911648
#
# number of rings (size 3 to 8) (size 9 to 14) (size 15 to 20)
#    0.000    3.000    0.000    1.500    0.000    2.000 
#    0.000    8.125    0.000   20.250    0.000    0.000 
#    0.000    0.000    0.000    0.000    0.000    0.000 
#
# Total GULP energy -89132.691465 kJ/mol
# GULP energy per Si atom -5570.793217 kJ/mol
# Density = 2.285950 g / cm^3
# Si number density = 22.911648 Si / 1000 Ang^3
#
#
#
# Elastic Constant Matrix: (Units=GPa)
#
#
# Indices 1 2 3 4 5 6 
#
# 1 142.7936 45.0299 10.1629 2.6659 -16.8698 -32.0827
# 2 45.0299 60.6028 16.5566 17.5668 -4.2120 -10.0227
# 3 10.1629 16.5566 81.0344 -20.9442 -2.2879 14.2257
# 4 2.6659 17.5668 -20.9442 23.8304 -4.1437 -3.5695
# 5 -16.8698 -4.2120 -2.2879 -4.1437 36.1948 0.9344
# 6 -32.0827 -10.0227 14.2257 -3.5695 0.9344 13.6913
#
#
#
# Elastic Compliance Matrix: (Units=1/GPa)
#
#
# Indices 1 2 3 4 5 6 
#
# 1 0.029757 0.003327 -0.023219 -0.010682 0.009168 0.092881
# 2 0.003327 0.063937 -0.048936 -0.078659 -0.005309 0.085303
# 3 -0.023219 -0.048936 0.071057 0.079796 0.000810 -0.143315
# 4 -0.010682 -0.078659 0.079796 0.154451 0.011848 -0.126065
# 5 0.009168 -0.005309 0.000810 0.011848 0.032236 0.017645
# 6 0.092881 0.085303 -0.143315 -0.126065 0.017645 0.467970
#
#
# Mechanical properties :
#
#
# Convention : Reuss Voigt Hill
#
# Bulk Modulus (GPa) = 36.90599 47.54772 42.22686
# Shear Modulus (GPa) = 5.17547 28.92206 17.04877
#
# Velocity S-wave (km/s) = 1.50459 3.55678 2.73080
# Velocity P-wave (km/s) = 4.37736 6.13721 5.33041
#
# Compressibility (1/GPa) = 0.02709587
#
# Stress axis : x y z
#
# Youngs Moduli (GPa) = 33.60514 15.64037 14.07324
#
# Poissons Ratio (x) = -0.05204 0.32677
# Poissons Ratio (y) = -0.11181 0.68868
# Poissons Ratio (z) = 0.78028 0.76537
#
# Static dielectric constant tensor:
#      x y z
#    x 1.904170 -0.029920 -0.041150 
#    y -0.029920 1.886850 0.009670 
#    z -0.041150 0.009670 1.879100 
# 
# From -- ./inp_files/177803.got.cif
#   From: 2010.05.17/outbox.cif.g08.bks.cpg/sg2_89_cif.got.tgz:177803.got - 2010.06.03 11:33:40.
