data_PCOD9081316
_publ_section_title
;
Structure prediction by ZEFSAII (Michael W. Deem and Ramdas Pophale) SiO2 
 PCOD9081316
Probable space group: P -1
;
_chemical_formula_sum "Si O2"
_cell_formula_units_Z 13
_cell_length_a 14.470159
_cell_length_b 8.167430
_cell_length_c 8.352651
_cell_angle_alpha 36.964217
_cell_angle_beta 113.417314
_cell_angle_gamma 113.610605
_cell_volume 538.504697
_symmetry_space_group_name_H-M "P -1"
_symmetry_group_IT_number 2
_symmetry_cell_setting 'triclinic'
loop_
_space_group_symop_operation_xyz
x,y,z
-x,-y,-z
loop_
_atom_site_type_symbol
_atom_site_label
_atom_site_fract_x
_atom_site_fract_y
_atom_site_fract_z
Si Si1 0.345446 0.955462 0.826504
Si Si2 0.351141 0.707896 0.543106
Si Si3 0.127354 0.579017 0.584403
Si Si4 0.547417 0.799402 0.956000
Si Si5 0.014880 0.316767 0.304930
Si Si6 0.248119 0.468592 0.332092
Si Si7 0.000000 0.000000 0.000000
O O1 0.432108 0.853422 0.858037
O O2 0.291854 0.194209 0.525591
O O3 0.264307 0.697701 0.027391
O O4 0.399096 0.084918 0.927816
O O5 0.248573 0.656349 0.616504
O O6 0.311411 0.592676 0.431306
O O7 0.399644 0.017572 0.295449
O O8 0.432138 0.512153 0.800970
O O9 0.068532 0.633721 0.663231
O O10 0.090273 0.249000 0.797943
O O11 0.084447 0.794334 0.265071
O O12 0.132879 0.397353 0.365458
O O13 0.000000 0.000000 0.500000
O O14 0.000000 0.500000 0.000000
#
# Coordination Sequence:
#
# PCOD9081316 Si02
#       7
#     2   2   2   2   2   2   1
#     4   9  17  30  50  77 113 141 168 214 269 343
#     4  10  19  31  54  83 111 138 170 220 283 342
#     4  11  22  37  56  83 113 146 184 234 288 334
#     4   9  17  29  48  82 115 138 164 207 279 347
#     4  12  26  41  56  78 111 155 202 238 268 321
#     4  10  19  33  53  78 106 143 183 221 276 324
#     4  10  20  34  58  82 110 140 178 232 286 338
#
# _framework density 24.140923000000001
#
# number of rings (size 3 to 8) (size 9 to 14) (size 15 to 20)
#    0.000    1.846    0.000    5.538    0.000    8.615 
#    0.000    0.000    0.000    0.000    0.000   21.538 
#    0.000    0.000    0.000    0.000    0.000    0.000 
#
# Total GULP energy -72482.527399 kJ/mol
# GULP energy per Si atom -5575.579031 kJ/mol
# Density = 2.408598 g / cm^3
# Si number density = 24.140923 Si / 1000 Ang^3
#
#
#
# Elastic Constant Matrix: (Units=GPa)
#
#
# Indices 1 2 3 4 5 6 
#
# 1 109.7692 17.3461 9.2266 -10.4679 -9.5549 -6.8670
# 2 17.3461 34.1848 41.5529 -8.3040 -2.8810 5.5696
# 3 9.2266 41.5529 160.1498 -35.4380 -1.2073 0.8802
# 4 -10.4679 -8.3040 -35.4380 21.3176 11.3133 -0.1112
# 5 -9.5549 -2.8810 -1.2073 11.3133 42.4276 -3.0768
# 6 -6.8670 5.5696 0.8802 -0.1112 -3.0768 29.8808
#
#
#
# Elastic Compliance Matrix: (Units=1/GPa)
#
#
# Indices 1 2 3 4 5 6 
#
# 1 0.011131 -0.008267 0.003063 0.007132 0.000427 0.004079
# 2 -0.008267 0.051257 -0.015238 -0.011297 0.003422 -0.010695
# 3 0.003063 -0.015238 0.015369 0.024443 -0.006241 0.002540
# 4 0.007132 -0.011297 0.024443 0.099947 -0.025057 0.000816
# 5 0.000427 0.003422 -0.006241 -0.025057 0.030598 0.002701
# 6 0.004079 -0.010695 0.002540 0.000816 0.002701 0.036604
#
#
# Mechanical properties :
#
#
# Convention : Reuss Voigt Hill
#
# Bulk Modulus (GPa) = 27.12080 48.92832 38.02456
# Shear Modulus (GPa) = 16.77384 34.45708 25.61546
#
# Velocity S-wave (km/s) = 2.63882 3.78210 3.26096
# Velocity P-wave (km/s) = 4.53247 6.27568 5.47391
#
# Compressibility (1/GPa) = 0.03687207
#
# Stress axis : x y z
#
# Youngs Moduli (GPa) = 89.83522 19.50945 65.06504
#
# Poissons Ratio (x) = 0.16129 -0.19928
# Poissons Ratio (y) = 0.74271 0.99147
# Poissons Ratio (z) = -0.27514 0.29729
#
# Static dielectric constant tensor:
#      x y z
#    x 1.878660 0.008400 -0.015120 
#    y 0.008400 2.041750 0.049020 
#    z -0.015120 0.049020 1.893260 
# 
# From -- ./inp_files/126164.got.cif
#   From: 2010.05.17/outbox.cif.g08.bks.cpg/sg2_64_cif.got.tgz:126164.got - 2010.06.03 11:33:40.
