data_PCOD9081807
_publ_section_title
;
Structure prediction by ZEFSAII (Michael W. Deem and Ramdas Pophale) SiO2 
 PCOD9081807
Probable space group: P -1
;
_chemical_formula_sum "Si O2"
_cell_formula_units_Z 14
_cell_length_a 10.784067
_cell_length_b 19.178459
_cell_length_c 6.767534
_cell_angle_alpha 48.160260
_cell_angle_beta 45.306986
_cell_angle_gamma 34.705112
_cell_volume 552.687150
_symmetry_space_group_name_H-M "P -1"
_symmetry_group_IT_number 2
_symmetry_cell_setting 'triclinic'
loop_
_space_group_symop_operation_xyz
x,y,z
-x,-y,-z
loop_
_atom_site_type_symbol
_atom_site_label
_atom_site_fract_x
_atom_site_fract_y
_atom_site_fract_z
Si Si1 0.580229 0.873663 0.737148
Si Si2 0.562477 0.410188 0.788181
Si Si3 0.808839 0.139122 0.857662
Si Si4 0.850438 0.965304 0.650393
Si Si5 0.316893 0.163874 0.845926
Si Si6 0.984638 0.377162 0.427282
Si Si7 0.045586 0.564403 0.120019
O O1 0.769767 0.765273 0.574600
O O2 0.500000 0.000000 0.500000
O O3 0.387464 0.861537 0.998547
O O4 0.664044 0.861038 0.889081
O O5 0.500000 0.500000 0.500000
O O6 0.674586 0.269186 0.876664
O O7 0.766370 0.392307 0.704240
O O8 0.315180 0.480770 0.033613
O O9 0.965244 0.136036 0.526862
O O10 0.000000 0.000000 0.000000
O O11 0.590143 0.088082 0.630839
O O12 0.791303 0.897616 0.983627
O O13 0.000000 0.000000 0.500000
O O14 0.131708 0.313482 0.778125
O O15 0.977241 0.480919 0.336656
O O16 0.968553 0.398836 0.164759
#
# Coordination Sequence:
#
# PCOD9081807 Si02
#       7
#     2   2   2   2   2   2   2
#     4  11  20  35  56  88 126 155 192 250 305 353
#     4  10  19  32  55  86 118 150 194 249 296 352
#     4  12  23  38  60  93 125 154 200 255 306 352
#     4  11  22  39  59  86 122 162 199 243 299 363
#     4  10  22  37  58  87 120 156 205 243 291 358
#     4   9  17  29  49  80 114 146 188 238 294 338
#     4   9  17  31  51  80 112 147 191 242 284 343
#
# _framework density 25.330787000000001
#
# number of rings (size 3 to 8) (size 9 to 14) (size 15 to 20)
#    0.000    1.714    2.857    4.286    2.000    1.143 
#    0.000    0.000    0.000    0.857    3.714    6.000 
#    0.000    0.000    0.000    0.000    0.000    0.000 
#
# Total GULP energy -78282.625413 kJ/mol
# GULP energy per Si atom -5591.616101 kJ/mol
# Density = 2.527313 g / cm^3
# Si number density = 25.330787 Si / 1000 Ang^3
#
#
#
# Elastic Constant Matrix: (Units=GPa)
#
#
# Indices 1 2 3 4 5 6 
#
# 1 66.2278 45.0270 40.9006 8.4548 -52.1296 6.2340
# 2 45.0270 227.8016 59.3579 12.2355 -40.7133 8.4563
# 3 40.9006 59.3579 118.8718 13.1548 -48.8332 -2.3639
# 4 8.4548 12.2355 13.1548 54.8775 -6.8890 -5.9079
# 5 -52.1296 -40.7133 -48.8332 -6.8890 66.9182 7.9402
# 6 6.2340 8.4563 -2.3639 -5.9079 7.9402 41.3694
#
#
#
# Elastic Compliance Matrix: (Units=1/GPa)
#
#
# Indices 1 2 3 4 5 6 
#
# 1 0.047524 -0.002031 0.000053 -0.003770 0.037146 -0.014411
# 2 -0.002031 0.005406 -0.001761 -0.000523 0.000495 -0.001069
# 3 0.000053 -0.001761 0.012840 -0.001738 0.008249 -0.000746
# 4 -0.003770 -0.000523 -0.001738 0.019383 -0.002993 0.003918
# 5 0.037146 0.000495 0.008249 -0.002993 0.051743 -0.015586
# 6 -0.014411 -0.001069 -0.000746 0.003918 -0.015586 0.030071
#
#
# Mechanical properties :
#
#
# Convention : Reuss Voigt Hill
#
# Bulk Modulus (GPa) = 17.15476 78.16358 47.65917
# Shear Modulus (GPa) = 25.78965 50.47406 38.13186
#
# Velocity S-wave (km/s) = 3.19425 4.46869 3.88410
# Velocity P-wave (km/s) = 4.51568 7.58616 6.24264
#
# Compressibility (1/GPa) = 0.05829287
#
# Stress axis : x y z
#
# Youngs Moduli (GPa) = 21.04186 184.96808 77.88277
#
# Poissons Ratio (x) = 0.37567 -0.00412
# Poissons Ratio (y) = 0.04274 0.13713
# Poissons Ratio (z) = -0.00111 0.32568
#
# Static dielectric constant tensor:
#      x y z
#    x 2.168440 -0.153750 0.177280 
#    y -0.153750 2.807520 -0.302630 
#    z 0.177280 -0.302630 2.118990 
# 
# From -- ./inp_files/259455.got.cif
#   From: 2010.05.17/outbox.cif.g08.bks.cpg/sg2_130_cif.got.tgz:259455.got - 2010.06.03 11:33:40.
