data_PCOD9081399
_publ_section_title
;
Structure prediction by ZEFSAII (Michael W. Deem and Ramdas Pophale) SiO2 
 PCOD9081399
Probable space group: P -1
;
_chemical_formula_sum "Si O2"
_cell_formula_units_Z 16
_cell_length_a 11.943337
_cell_length_b 12.198492
_cell_length_c 8.424970
_cell_angle_alpha 126.137622
_cell_angle_beta 58.019649
_cell_angle_gamma 109.945575
_cell_volume 840.093495
_symmetry_space_group_name_H-M "P -1"
_symmetry_group_IT_number 2
_symmetry_cell_setting 'triclinic'
loop_
_space_group_symop_operation_xyz
x,y,z
-x,-y,-z
loop_
_atom_site_type_symbol
_atom_site_label
_atom_site_fract_x
_atom_site_fract_y
_atom_site_fract_z
Si Si1 0.938583 0.333045 0.802378
Si Si2 0.149813 0.960192 0.897106
Si Si3 0.764515 0.111379 0.559075
Si Si4 0.545486 0.148718 0.025595
Si Si5 0.114851 0.113022 0.548860
Si Si6 0.261959 0.209528 0.206826
Si Si7 0.900156 0.519904 0.447499
Si Si8 0.231646 0.718777 0.827633
O O1 0.876310 0.222403 0.629468
O O2 0.050925 0.255652 0.747541
O O3 0.005191 0.452828 0.753563
O O4 0.825435 0.352687 0.030557
O O5 0.228208 0.887235 0.634487
O O6 0.155020 0.853182 0.947300
O O7 0.227631 0.099126 0.003855
O O8 0.000000 0.000000 0.000000
O O9 0.640672 0.135013 0.787989
O O10 0.804718 0.957840 0.436577
O O11 0.417532 0.226512 0.132899
O O12 0.625127 0.224972 0.174078
O O13 0.500000 0.000000 0.000000
O O14 0.203456 0.139038 0.350156
O O15 0.000000 0.000000 0.500000
O O16 0.184337 0.346084 0.354661
O O17 0.799909 0.392499 0.378695
O O18 0.000000 0.500000 0.500000
#
# Coordination Sequence:
#
# PCOD9081399 Si02
#       8
#     2   2   2   2   2   2   2   2
#     4   9  18  34  56  84 115 153 197 242 298 353
#     4  12  21  34  59  94 121 152 196 252 312 346
#     4  10  19  31  57  88 121 153 193 250 298 346
#     4  11  21  41  60  85 119 162 209 242 278 356
#     4   9  15  29  52  81 112 148 191 243 294 343
#     4  11  22  38  58  83 121 159 197 246 293 355
#     4  11  23  39  61  90 122 153 193 253 312 356
#     4  11  22  38  62  85 118 161 198 243 296 357
#
# _framework density 19.045499
#
# number of rings (size 3 to 8) (size 9 to 14) (size 15 to 20)
#    0.000    1.500    2.500    6.375    0.000    1.000 
#    0.000    0.000    0.000    6.750    0.000    0.000 
#    0.000    0.000    0.000    0.000    0.000    0.000 
#
# Total GULP energy -89162.375441 kJ/mol
# GULP energy per Si atom -5572.648465 kJ/mol
# Density = 1.900215 g / cm^3
# Si number density = 19.045499 Si / 1000 Ang^3
#
#
#
# Elastic Constant Matrix: (Units=GPa)
#
#
# Indices 1 2 3 4 5 6 
#
# 1 127.3714 45.9644 31.3871 10.4741 3.2077 7.9681
# 2 45.9644 88.3644 26.6042 7.7479 2.2289 3.7007
# 3 31.3871 26.6042 55.5924 4.3548 12.1598 12.0245
# 4 10.4741 7.7479 4.3548 31.2000 10.1788 2.3041
# 5 3.2077 2.2289 12.1598 10.1788 31.4071 5.0564
# 6 7.9681 3.7007 12.0245 2.3041 5.0564 30.0979
#
#
#
# Elastic Compliance Matrix: (Units=1/GPa)
#
#
# Indices 1 2 3 4 5 6 
#
# 1 0.010509 -0.004057 -0.003999 -0.002454 0.001684 -0.000781
# 2 -0.004057 0.015193 -0.005509 -0.002402 0.002047 0.001247
# 3 -0.003999 -0.005509 0.026259 0.002527 -0.008989 -0.007438
# 4 -0.002454 -0.002402 0.002527 0.037257 -0.012501 -0.000817
# 5 0.001684 0.002047 -0.008989 -0.012501 0.039503 -0.002786
# 6 -0.000781 0.001247 -0.007438 -0.000817 -0.002786 0.036781
#
#
# Mechanical properties :
#
#
# Convention : Reuss Voigt Hill
#
# Bulk Modulus (GPa) = 40.27322 53.24886 46.76104
# Shear Modulus (GPa) = 24.88698 29.69916 27.29307
#
# Velocity S-wave (km/s) = 3.61877 3.95318 3.78967
# Velocity P-wave (km/s) = 6.21710 6.98973 6.61471
#
# Compressibility (1/GPa) = 0.02483040
#
# Stress axis : x y z
#
# Youngs Moduli (GPa) = 95.15897 65.82192 38.08160
#
# Poissons Ratio (x) = 0.26704 0.15228
# Poissons Ratio (y) = 0.38606 0.20980
# Poissons Ratio (z) = 0.38053 0.36263
#
# Static dielectric constant tensor:
#      x y z
#    x 1.681070 -0.002720 0.013560 
#    y -0.002720 1.673770 -0.004240 
#    z 0.013560 -0.004240 1.726450 
# 
# From -- ./inp_files/260543.got.cif
#   From: 2010.05.17/outbox.cif.g08.bks.cpg/sg2_131_cif.got.tgz:260543.got - 2010.06.03 11:33:40.
