data_PCOD9081024
_publ_section_title
;
Structure prediction by ZEFSAII (Michael W. Deem and Ramdas Pophale) SiO2 
 PCOD9081024
Probable space group: P -1
;
_chemical_formula_sum "Si O2"
_cell_formula_units_Z 14
_cell_length_a 12.008789
_cell_length_b 11.998093
_cell_length_c 15.231165
_cell_angle_alpha 152.963495
_cell_angle_beta 134.417404
_cell_angle_gamma 39.486062
_cell_volume 633.743464
_symmetry_space_group_name_H-M "P -1"
_symmetry_group_IT_number 2
_symmetry_cell_setting 'triclinic'
loop_
_space_group_symop_operation_xyz
x,y,z
-x,-y,-z
loop_
_atom_site_type_symbol
_atom_site_label
_atom_site_fract_x
_atom_site_fract_y
_atom_site_fract_z
Si Si1 0.050089 0.511482 0.934485
Si Si2 0.332277 0.967090 0.979521
Si Si3 0.680215 0.026005 0.214257
Si Si4 0.393832 0.919613 0.172644
Si Si5 0.821429 0.283766 0.592112
Si Si6 0.693649 0.295024 0.857561
Si Si7 0.450355 0.686960 0.391637
O O1 0.901911 0.495894 0.780813
O O2 0.225795 0.210843 0.827325
O O3 0.127113 0.705620 0.075662
O O4 0.000000 0.500000 0.000000
O O5 0.236402 0.052780 0.892078
O O6 0.421569 0.634681 0.779635
O O7 0.282311 0.003578 0.079900
O O8 0.483387 0.069757 0.130869
O O9 0.710422 0.275371 0.442164
O O10 0.291871 0.885082 0.175920
O O11 0.467610 0.134839 0.391139
O O12 0.553443 0.611597 0.026496
O O13 0.704952 0.314666 0.635032
O O14 0.000000 0.000000 0.500000
O O15 0.622896 0.201203 0.667288
#
# Coordination Sequence:
#
# PCOD9081024 Si02
#       7
#     2   2   2   2   2   2   2
#     4  11  18  34  53  80 108 138 181 219 263 317
#     4  10  20  34  55  77 113 143 170 224 272 324
#     4  10  19  35  50  81 112 138 175 221 275 313
#     4  10  19  35  53  80 112 138 176 222 271 318
#     4  10  19  30  53  76 111 138 172 223 263 315
#     4  10  20  33  55  80 109 142 174 224 271 310
#     4  11  18  34  52  85 108 137 181 217 276 322
#
# _framework density 22.090958000000001
#
# number of rings (size 3 to 8) (size 9 to 14) (size 15 to 20)
#    0.000    1.714    5.714    1.286    0.000    0.571 
#    2.571    0.000    0.000    1.714    0.000    0.000 
#    0.000    0.000    0.000    0.000    0.000    0.000 
#
# Total GULP energy -78066.659703 kJ/mol
# GULP energy per Si atom -5576.189979 kJ/mol
# Density = 2.204068 g / cm^3
# Si number density = 22.090958 Si / 1000 Ang^3
#
#
#
# Elastic Constant Matrix: (Units=GPa)
#
#
# Indices 1 2 3 4 5 6 
#
# 1 114.1039 36.1353 34.4541 -14.8743 6.5534 34.5549
# 2 36.1353 80.6621 34.5293 -21.1892 1.6079 38.0712
# 3 34.4541 34.5293 124.8057 -27.6735 -7.6710 16.0322
# 4 -14.8743 -21.1892 -27.6735 31.6671 4.3871 -7.0651
# 5 6.5534 1.6079 -7.6710 4.3871 32.7132 -6.8092
# 6 34.5549 38.0712 16.0322 -7.0651 -6.8092 36.6374
#
#
#
# Elastic Compliance Matrix: (Units=1/GPa)
#
#
# Indices 1 2 3 4 5 6 
#
# 1 0.014572 0.004249 -0.002355 0.004791 -0.008005 -0.017691
# 2 0.004249 0.033547 -0.003117 0.015268 -0.012974 -0.036970
# 3 -0.002355 -0.003117 0.010799 0.006412 0.002817 0.002495
# 4 0.004791 0.015268 0.006412 0.047476 -0.009877 -0.015870
# 5 -0.008005 -0.012974 0.002817 -0.009877 0.040070 0.025341
# 6 -0.017691 -0.036970 0.002495 -0.015870 0.025341 0.082955
#
#
# Mechanical properties :
#
#
# Convention : Reuss Voigt Hill
#
# Bulk Modulus (GPa) = 17.70842 58.86767 38.28805
# Shear Modulus (GPa) = 19.94502 34.50040 27.22271
#
# Velocity S-wave (km/s) = 3.00802 3.95618 3.51422
# Velocity P-wave (km/s) = 4.48306 6.89740 5.81687
#
# Compressibility (1/GPa) = 0.05647031
#
# Stress axis : x y z
#
# Youngs Moduli (GPa) = 68.62684 29.80902 92.59763
#
# Poissons Ratio (x) = -0.12665 0.21809
# Poissons Ratio (y) = -0.29156 0.28864
# Poissons Ratio (z) = 0.16163 0.09292
#
# Static dielectric constant tensor:
#      x y z
#    x 1.847580 -0.082030 -0.057830 
#    y -0.082030 2.027910 0.100090 
#    z -0.057830 0.100090 1.904480 
# 
# From -- ./inp_files/421001.got.cif
#   From: 2010.05.17/outbox.cif.g08.bks.cpg/sg2_211_cif.got.tgz:421001.got - 2010.06.03 11:33:40.
