data_PCOD9081220
_publ_section_title
;
Structure prediction by ZEFSAII (Michael W. Deem and Ramdas Pophale) SiO2 
 PCOD9081220
Probable space group: P -1
;
_chemical_formula_sum "Si O2"
_cell_formula_units_Z 16
_cell_length_a 12.097202
_cell_length_b 9.151095
_cell_length_c 11.487893
_cell_angle_alpha 114.238682
_cell_angle_beta 141.149061
_cell_angle_gamma 52.471729
_cell_volume 627.430489
_symmetry_space_group_name_H-M "P -1"
_symmetry_group_IT_number 2
_symmetry_cell_setting 'triclinic'
loop_
_space_group_symop_operation_xyz
x,y,z
-x,-y,-z
loop_
_atom_site_type_symbol
_atom_site_label
_atom_site_fract_x
_atom_site_fract_y
_atom_site_fract_z
Si Si1 0.650870 0.916194 0.208086
Si Si2 0.824333 0.239345 0.154195
Si Si3 0.275486 0.650010 0.290750
Si Si4 0.525208 0.170710 0.614113
Si Si5 0.669362 0.740049 0.815054
Si Si6 0.937428 0.845735 0.233667
Si Si7 0.359207 0.397288 0.761069
Si Si8 0.094057 0.172080 0.131820
O O1 0.542868 0.069781 0.271128
O O2 0.863745 0.876615 0.316122
O O3 0.663410 0.729097 0.201147
O O4 0.500000 0.000000 0.000000
O O5 0.801408 0.388858 0.280737
O O6 0.996983 0.207853 0.191605
O O7 0.867150 0.047193 0.184522
O O8 0.594786 0.351143 0.947365
O O9 0.429702 0.720599 0.411668
O O10 0.350326 0.439952 0.249098
O O11 0.174357 0.711404 0.354512
O O12 0.086766 0.764699 0.086617
O O13 0.352624 0.312961 0.604422
O O14 0.500000 0.000000 0.500000
O O15 0.740551 0.044958 0.818967
O O16 0.785181 0.728412 0.785246
O O17 0.821344 0.751999 0.040010
#
# Coordination Sequence:
#
# PCOD9081220 Si02
#       8
#     2   2   2   2   2   2   2   2
#     4  10  19  31  51  84 131 150 184 248 316 357
#     4  11  21  32  62  91 123 151 199 255 311 354
#     4  11  22  36  62  92 121 154 208 253 305 359
#     4  12  25  43  63  85 124 170 209 250 297 361
#     4  10  21  32  56  92 126 155 193 250 310 363
#     4  10  19  32  50  90 122 152 183 250 311 355
#     4  11  22  36  56  93 123 162 197 250 312 359
#     4  11  20  39  62  90 120 154 203 263 302 348
#
# _framework density 25.500831999999999
#
# number of rings (size 3 to 8) (size 9 to 14) (size 15 to 20)
#    0.000    1.250    6.250    2.625    7.000    0.000 
#    0.000    1.250    0.000    0.750    0.000    0.000 
#    0.000    0.000    0.000    0.000    0.000    0.000 
#
# Total GULP energy -89518.474897 kJ/mol
# GULP energy per Si atom -5594.904681 kJ/mol
# Density = 2.544279 g / cm^3
# Si number density = 25.500832 Si / 1000 Ang^3
#
#
#
# Elastic Constant Matrix: (Units=GPa)
#
#
# Indices 1 2 3 4 5 6 
#
# 1 202.6549 57.9061 35.8783 35.0471 7.5324 -7.8133
# 2 57.9061 157.1966 34.6649 40.7686 3.3779 -6.3173
# 3 35.8783 34.6649 56.6445 9.1847 7.4536 3.9959
# 4 35.0471 40.7686 9.1847 38.5641 4.1079 -1.6324
# 5 7.5324 3.3779 7.4536 4.1079 28.1453 14.2197
# 6 -7.8133 -6.3173 3.9959 -1.6324 14.2197 41.6667
#
#
#
# Elastic Compliance Matrix: (Units=1/GPa)
#
#
# Indices 1 2 3 4 5 6 
#
# 1 0.006490 -0.000456 -0.003080 -0.004504 -0.001026 0.001617
# 2 -0.000456 0.009887 -0.004496 -0.009004 0.000830 0.001209
# 3 -0.003080 -0.004496 0.022614 0.002509 -0.003998 -0.001965
# 4 -0.004504 -0.009004 0.002509 0.039445 -0.004445 0.000612
# 5 -0.001026 0.000830 -0.003998 -0.004445 0.045120 -0.015255
# 6 0.001617 0.001209 -0.001965 0.000612 -0.015255 0.029905
#
#
# Mechanical properties :
#
#
# Convention : Reuss Voigt Hill
#
# Bulk Modulus (GPa) = 43.61833 74.82164 59.21998
# Shear Modulus (GPa) = 28.22199 40.87832 34.55016
#
# Velocity S-wave (km/s) = 3.33033 4.00812 3.68484
# Velocity P-wave (km/s) = 5.65066 7.12913 6.43251
#
# Compressibility (1/GPa) = 0.02292614
#
# Stress axis : x y z
#
# Youngs Moduli (GPa) = 154.09396 101.14453 44.21992
#
# Poissons Ratio (x) = 0.04614 0.13620
# Poissons Ratio (y) = 0.07029 0.19882
# Poissons Ratio (z) = 0.47461 0.45475
#
# Static dielectric constant tensor:
#      x y z
#    x 2.043410 -0.035470 0.022370 
#    y -0.035470 1.955880 -0.050030 
#    z 0.022370 -0.050030 2.268980 
# 
# From -- ./inp_files/357773.got.cif
#   From: 2010.05.17/outbox.cif.g08.bks.cpg/sg2_179_cif.got.tgz:357773.got - 2010.06.03 11:33:40.
