data_PCOD9081374
_publ_section_title
;
Structure prediction by ZEFSAII (Michael W. Deem and Ramdas Pophale) SiO2 
 PCOD9081374
Probable space group: P -1
;
_chemical_formula_sum "Si O2"
_cell_formula_units_Z 16
_cell_length_a 14.070461
_cell_length_b 8.485944
_cell_length_c 21.608513
_cell_angle_alpha 52.297597
_cell_angle_beta 21.831309
_cell_angle_gamma 50.888334
_cell_volume 741.447512
_symmetry_space_group_name_H-M "P -1"
_symmetry_group_IT_number 2
_symmetry_cell_setting 'triclinic'
loop_
_space_group_symop_operation_xyz
x,y,z
-x,-y,-z
loop_
_atom_site_type_symbol
_atom_site_label
_atom_site_fract_x
_atom_site_fract_y
_atom_site_fract_z
Si Si1 0.217020 0.263523 0.977844
Si Si2 0.196112 0.910654 0.150497
Si Si3 0.332342 0.299290 0.687546
Si Si4 0.790581 0.332197 0.045486
Si Si5 0.887460 0.274120 0.334236
Si Si6 0.626343 0.543929 0.977615
Si Si7 0.288053 0.204215 0.593642
Si Si8 0.629518 0.387842 0.258059
O O1 0.916877 0.279333 0.135221
O O2 0.327742 0.042999 0.990776
O O3 0.213279 0.429697 0.994088
O O4 0.356728 0.374384 0.814959
O O5 0.988842 0.816972 0.259732
O O6 0.413056 0.731274 0.090436
O O7 0.035040 0.072993 0.257300
O O8 0.639206 0.231986 0.532805
O O9 0.256217 0.547227 0.669419
O O10 0.294311 0.233675 0.655702
O O11 0.100019 0.229209 0.882736
O O12 0.628086 0.286711 0.214283
O O13 0.678663 0.351446 0.039376
O O14 0.104495 0.375309 0.212164
O O15 0.500000 0.500000 0.000000
O O16 0.397641 0.366470 0.447540
O O17 0.500000 0.000000 0.500000
#
# Coordination Sequence:
#
# PCOD9081374 Si02
#       8
#     2   2   2   2   2   2   2   2
#     4   9  17  33  61  88 117 155 199 240 301 363
#     4  12  20  36  61  92 119 159 210 244 291 369
#     4  10  19  34  57  89 121 152 194 252 303 352
#     4   9  19  38  61  84 117 160 198 242 305 358
#     4  10  19  31  56  83 116 150 200 251 289 339
#     4  11  23  38  56  90 123 165 205 252 295 357
#     4  12  22  34  58  94 128 147 202 253 305 356
#     4   9  19  36  56  90 128 154 194 246 318 361
#
# _framework density 21.579409999999999
#
# number of rings (size 3 to 8) (size 9 to 14) (size 15 to 20)
#    0.750    1.000    5.000    1.875    1.750    0.000 
#    0.000    1.250    0.000    0.000    0.000   10.500 
#    0.000    0.000    0.000    0.000    0.000    0.000 
#
# Total GULP energy -89163.188129 kJ/mol
# GULP energy per Si atom -5572.699258 kJ/mol
# Density = 2.153029 g / cm^3
# Si number density = 21.579410 Si / 1000 Ang^3
#
#
#
# Elastic Constant Matrix: (Units=GPa)
#
#
# Indices 1 2 3 4 5 6 
#
# 1 93.2366 0.7798 24.6792 0.3719 -9.8466 20.5317
# 2 0.7798 45.3325 20.7181 15.9923 1.5121 5.0425
# 3 24.6792 20.7181 88.8965 0.1678 -6.8232 4.7565
# 4 0.3719 15.9923 0.1678 33.9070 -2.5737 -1.7031
# 5 -9.8466 1.5121 -6.8232 -2.5737 36.8198 -0.0888
# 6 20.5317 5.0425 4.7565 -1.7031 -0.0888 29.6672
#
#
#
# Elastic Compliance Matrix: (Units=1/GPa)
#
#
# Indices 1 2 3 4 5 6 
#
# 1 0.014220 0.003263 -0.003964 -0.001961 0.002774 -0.009865
# 2 0.003263 0.032271 -0.008243 -0.015820 -0.003104 -0.007340
# 3 -0.003964 -0.008243 0.014322 0.004134 0.002226 0.002092
# 4 -0.001961 -0.015820 0.004134 0.037501 0.003526 0.005546
# 5 0.002774 -0.003104 0.002226 0.003526 0.028684 -0.001461
# 6 -0.009865 -0.007340 0.002092 0.005546 -0.001461 0.041760
#
#
# Mechanical properties :
#
#
# Convention : Reuss Voigt Hill
#
# Bulk Modulus (GPa) = 23.29551 35.53554 29.41553
# Shear Modulus (GPa) = 24.88129 32.16469 28.52299
#
# Velocity S-wave (km/s) = 3.39928 3.86492 3.63956
# Velocity P-wave (km/s) = 5.12109 6.03489 5.59667
#
# Compressibility (1/GPa) = 0.04292672
#
# Stress axis : x y z
#
# Youngs Moduli (GPa) = 70.32132 30.98756 69.82422
#
# Poissons Ratio (x) = -0.10113 0.27678
# Poissons Ratio (y) = -0.22949 0.57554
# Poissons Ratio (z) = 0.27875 0.25542
#
# Static dielectric constant tensor:
#      x y z
#    x 1.868320 0.022660 0.065020 
#    y 0.022660 1.852600 -0.030210 
#    z 0.065020 -0.030210 1.854190 
# 
# From -- ./inp_files/611490.got.cif
#   From: 2010.05.17/outbox.cif.g08.bks.cpg/sg2_306_cif.got.tgz:611490.got - 2010.06.03 11:33:40.
