data_PCOD9081551
_publ_section_title
;
Structure prediction by ZEFSAII (Michael W. Deem and Ramdas Pophale) SiO2 
 PCOD9081551
Probable space group: P -1
;
_chemical_formula_sum "Si O2"
_cell_formula_units_Z 14
_cell_length_a 13.384941
_cell_length_b 11.360408
_cell_length_c 14.464102
_cell_angle_alpha 152.279661
_cell_angle_beta 141.439128
_cell_angle_gamma 54.026623
_cell_volume 594.614266
_symmetry_space_group_name_H-M "P -1"
_symmetry_group_IT_number 2
_symmetry_cell_setting 'triclinic'
loop_
_space_group_symop_operation_xyz
x,y,z
-x,-y,-z
loop_
_atom_site_type_symbol
_atom_site_label
_atom_site_fract_x
_atom_site_fract_y
_atom_site_fract_z
Si Si1 0.914472 0.006522 0.342043
Si Si2 0.223580 0.157579 0.224679
Si Si3 0.411946 0.481119 0.221178
Si Si4 0.895121 0.468059 0.239347
Si Si5 0.901506 0.847176 0.676150
Si Si6 0.591563 0.610613 0.047425
Si Si7 0.209614 0.874834 0.362083
O O1 0.025680 0.876027 0.266114
O O2 0.713163 0.825847 0.064382
O O3 0.000000 0.000000 0.500000
O O4 0.940064 0.313830 0.542029
O O5 0.418412 0.348185 0.479579
O O6 0.150821 0.267087 0.337786
O O7 0.192300 0.852712 0.027621
O O8 0.086992 0.086876 0.993412
O O9 0.272320 0.628053 0.224598
O O10 0.487439 0.485501 0.175199
O O11 0.901075 0.612653 0.443310
O O12 0.756061 0.526374 0.114244
O O13 0.779759 0.980333 0.629343
O O14 0.658599 0.931764 0.333697
O O15 0.500000 0.500000 0.000000
#
# Coordination Sequence:
#
# PCOD9081551 Si02
#       7
#     2   2   2   2   2   2   2
#     4  10  20  40  56  86 122 156 188 241 296 353
#     4  11  22  36  61  88 115 152 195 242 289 341
#     4  12  21  36  61  92 118 147 198 247 289 339
#     4  10  20  37  58  78 115 157 190 230 292 345
#     4   9  21  39  57  85 118 155 193 235 292 351
#     4  10  19  32  51  85 119 143 183 244 291 330
#     4  10  21  36  60  83 115 158 195 235 292 346
#
# _framework density 23.544675999999999
#
# number of rings (size 3 to 8) (size 9 to 14) (size 15 to 20)
#    0.000    2.000    2.857    4.286    0.000    1.714 
#    0.000    2.857    0.000    3.429    0.000    0.000 
#    0.000    0.000    0.000    0.000    0.000    0.000 
#
# Total GULP energy -77934.787632 kJ/mol
# GULP energy per Si atom -5566.770545 kJ/mol
# Density = 2.349109 g / cm^3
# Si number density = 23.544676 Si / 1000 Ang^3
#
#
#
# Elastic Constant Matrix: (Units=GPa)
#
#
# Indices 1 2 3 4 5 6 
#
# 1 70.4023 -17.0811 27.6483 3.9524 0.7327 11.2344
# 2 -17.0811 36.1241 21.3684 3.9508 -4.0848 5.8144
# 3 27.6483 21.3684 147.9182 -9.7869 19.8403 0.3108
# 4 3.9524 3.9508 -9.7869 39.9955 6.9531 2.1990
# 5 0.7327 -4.0848 19.8403 6.9531 52.9596 -5.3537
# 6 11.2344 5.8144 0.3108 2.1990 -5.3537 10.2329
#
#
#
# Elastic Compliance Matrix: (Units=1/GPa)
#
#
# Indices 1 2 3 4 5 6 
#
# 1 0.037897 0.036172 -0.012980 -0.007628 0.002166 -0.058993
# 2 0.036172 0.069229 -0.018177 -0.011868 0.005839 -0.072892
# 3 -0.012980 -0.018177 0.012794 0.005906 -0.004724 0.020450
# 4 -0.007628 -0.011868 0.005906 0.029176 -0.006310 0.005367
# 5 0.002166 0.005839 -0.004724 -0.006310 0.022676 0.007667
# 6 -0.058993 -0.072892 0.020450 0.005367 0.007667 0.206145
#
#
# Mechanical properties :
#
#
# Convention : Reuss Voigt Hill
#
# Bulk Modulus (GPa) = 7.69531 35.36845 21.53188
# Shear Modulus (GPa) = 12.15940 35.47154 23.81547
#
# Velocity S-wave (km/s) = 2.27500 3.88566 3.18386
# Velocity P-wave (km/s) = 3.19003 5.93174 4.76245
#
# Compressibility (1/GPa) = 0.12994921
#
# Stress axis : x y z
#
# Youngs Moduli (GPa) = 26.38720 14.44478 78.16160
#
# Poissons Ratio (x) = -0.52250 1.01457
# Poissons Ratio (y) = -0.95448 1.42077
# Poissons Ratio (z) = 0.34252 0.26257
#
# Static dielectric constant tensor:
#      x y z
#    x 1.986570 -0.068320 0.037360 
#    y -0.068320 1.903330 0.027850 
#    z 0.037360 0.027850 1.959160 
# 
# From -- ./inp_files/532819.got.cif
#   From: 2010.05.17/outbox.cif.g08.bks.cpg/sg2_267_cif.got.tgz:532819.got - 2010.06.03 11:33:40.
