data_PCOD9081197
_publ_section_title
;
Structure prediction by ZEFSAII (Michael W. Deem and Ramdas Pophale) SiO2 
 PCOD9081197
Probable space group: P -1
;
_chemical_formula_sum "Si O2"
_cell_formula_units_Z 16
_cell_length_a 21.984866
_cell_length_b 14.376359
_cell_length_c 23.864325
_cell_angle_alpha 158.878607
_cell_angle_beta 160.483484
_cell_angle_gamma 20.607546
_cell_volume 800.626812
_symmetry_space_group_name_H-M "P -1"
_symmetry_group_IT_number 2
_symmetry_cell_setting 'triclinic'
loop_
_space_group_symop_operation_xyz
x,y,z
-x,-y,-z
loop_
_atom_site_type_symbol
_atom_site_label
_atom_site_fract_x
_atom_site_fract_y
_atom_site_fract_z
Si Si1 0.424787 0.800897 0.528558
Si Si2 0.681072 0.044013 0.842959
Si Si3 0.795578 0.849605 0.268086
Si Si4 0.523910 0.572391 0.745163
Si Si5 0.950232 0.531949 0.120365
Si Si6 0.179447 0.770563 0.397996
Si Si7 0.328112 0.237438 0.444002
Si Si8 0.103912 0.689720 0.882150
O O1 0.484990 0.058841 0.714186
O O2 0.402379 0.668171 0.375721
O O3 0.237131 0.863277 0.441829
O O4 0.624684 0.532098 0.580517
O O5 0.666589 0.912490 0.695767
O O6 0.878901 0.800403 0.910882
O O7 0.744223 0.292959 0.022699
O O8 0.970261 0.692420 0.284290
O O9 0.766425 0.583337 0.118159
O O10 0.609274 0.114157 0.223293
O O11 0.850785 0.990267 0.447451
O O12 0.388246 0.491890 0.624755
O O13 0.725843 0.559867 0.940533
O O14 0.993532 0.690943 0.195311
O O15 0.100024 0.337175 0.327022
O O16 0.500000 0.000000 0.500000
O O17 0.000000 0.000000 0.000000
#
# Coordination Sequence:
#
# PCOD9081197 Si02
#       8
#     2   2   2   2   2   2   2   2
#     4   8  17  37  52  75 103 135 187 211 257 308
#     4   9  18  34  54  74 104 140 178 217 251 317
#     4  11  21  34  52  80 115 133 175 219 266 314
#     4  10  22  32  52  82 111 141 168 223 259 304
#     4  11  19  33  53  81 112 137 170 215 269 318
#     4   9  19  32  56  74 101 146 171 219 260 308
#     4  10  19  31  51  77 107 137 172 211 264 316
#     4  10  19  33  52  74 105 142 173 210 264 321
#
# _framework density 19.984342000000002
#
# number of rings (size 3 to 8) (size 9 to 14) (size 15 to 20)
#    0.000    2.250    2.500    2.250    3.500    0.500 
#    0.000    0.625    0.000    0.000    0.000    5.250 
#    0.000    0.000    0.000    0.000    0.000    0.000 
#
# Total GULP energy -89133.955510 kJ/mol
# GULP energy per Si atom -5570.872219 kJ/mol
# Density = 1.993886 g / cm^3
# Si number density = 19.984342 Si / 1000 Ang^3
#
#
#
# Elastic Constant Matrix: (Units=GPa)
#
#
# Indices 1 2 3 4 5 6 
#
# 1 87.9360 13.1904 57.1213 10.6869 43.5867 11.4785
# 2 13.1904 72.4475 39.7860 7.3076 13.8887 28.3893
# 3 57.1213 39.7860 112.7147 0.3508 45.7084 11.5983
# 4 10.6869 7.3076 0.3508 23.6415 9.2861 3.7567
# 5 43.5867 13.8887 45.7084 9.2861 42.2183 6.0314
# 6 11.4785 28.3893 11.5983 3.7567 6.0314 21.2111
#
#
#
# Elastic Compliance Matrix: (Units=1/GPa)
#
#
# Indices 1 2 3 4 5 6 
#
# 1 0.027880 0.011077 -0.007967 -0.005044 -0.019980 -0.018981
# 2 0.011077 0.040872 -0.015138 -0.009678 0.000918 -0.050968
# 3 -0.007967 -0.015138 0.023758 0.012451 -0.017297 0.014295
# 4 -0.005044 -0.009678 0.012451 0.053563 -0.017493 0.004362
# 5 -0.019980 0.000918 -0.017297 -0.017493 0.066109 0.003342
# 6 -0.018981 -0.050968 0.014295 0.004362 0.003342 0.116093
#
#
# Mechanical properties :
#
#
# Convention : Reuss Voigt Hill
#
# Bulk Modulus (GPa) = 14.60878 54.81042 34.70960
# Shear Modulus (GPa) = 13.32796 28.28087 20.80442
#
# Velocity S-wave (km/s) = 2.58528 3.76593 3.23001
# Velocity P-wave (km/s) = 4.02959 6.81145 5.59613
#
# Compressibility (1/GPa) = 0.06845200
#
# Stress axis : x y z
#
# Youngs Moduli (GPa) = 35.86781 24.46658 42.09177
#
# Poissons Ratio (x) = -0.27100 0.33537
# Poissons Ratio (y) = -0.39729 0.63718
# Poissons Ratio (z) = 0.28578 0.37037
#
# Static dielectric constant tensor:
#      x y z
#    x 1.743470 -0.005070 0.042560 
#    y -0.005070 1.709360 0.024790 
#    z 0.042560 0.024790 1.764780 
# 
# From -- ./inp_files/598182.got.cif
#   From: 2010.05.17/outbox.cif.g08.bks.cpg/sg2_300_cif.got.tgz:598182.got - 2010.06.03 11:33:40.
