data_PCOD9081903
_publ_section_title
;
Structure prediction by ZEFSAII (Michael W. Deem and Ramdas Pophale) SiO2 
 PCOD9081903
Probable space group: P -1
;
_chemical_formula_sum "Si O2"
_cell_formula_units_Z 16
_cell_length_a 11.575625
_cell_length_b 9.740969
_cell_length_c 15.352369
_cell_angle_alpha 149.617725
_cell_angle_beta 119.870821
_cell_angle_gamma 65.189103
_cell_volume 759.020351
_symmetry_space_group_name_H-M "P -1"
_symmetry_group_IT_number 2
_symmetry_cell_setting 'triclinic'
loop_
_space_group_symop_operation_xyz
x,y,z
-x,-y,-z
loop_
_atom_site_type_symbol
_atom_site_label
_atom_site_fract_x
_atom_site_fract_y
_atom_site_fract_z
Si Si1 0.155072 0.128718 0.113011
Si Si2 0.631373 0.947678 0.408083
Si Si3 0.330695 0.922128 0.303323
Si Si4 0.815713 0.502162 0.261032
Si Si5 0.058777 0.901625 0.119141
Si Si6 0.050129 0.730463 0.576890
Si Si7 0.582754 0.528913 0.634516
Si Si8 0.320697 0.551474 0.630874
O O1 0.098266 0.147465 0.200084
O O2 0.294936 0.269292 0.225285
O O3 0.168228 0.801174 0.933081
O O4 0.055769 0.235437 0.058910
O O5 0.671786 0.039340 0.572166
O O6 0.727854 0.709075 0.286447
O O7 0.478966 0.830432 0.287154
O O8 0.633214 0.230160 0.512846
O O9 0.323874 0.231350 0.435116
O O10 0.199143 0.778508 0.134921
O O11 0.734025 0.446369 0.290083
O O12 0.953543 0.667140 0.424944
O O13 0.991233 0.003854 0.238809
O O14 0.209501 0.705099 0.616800
O O15 0.000000 0.500000 0.500000
O O16 0.500000 0.500000 0.500000
O O17 0.474579 0.637145 0.722861
#
# Coordination Sequence:
#
# PCOD9081903 Si02
#       8
#     2   2   2   2   2   2   2   2
#     4  11  23  34  58  90 118 145 182 243 285 326
#     4   9  18  33  59  81 110 152 192 221 274 351
#     4   9  15  31  57  82 103 149 197 229 259 328
#     4  10  18  34  60  90 107 143 200 238 262 322
#     4  11  19  35  57  87 115 146 195 233 277 328
#     4  10  15  30  60  86 104 144 195 237 265 317
#     4  11  24  38  54  82 122 154 176 228 302 347
#     4   9  16  31  55  82 108 146 190 223 271 333
#
# _framework density 21.079803999999999
#
# number of rings (size 3 to 8) (size 9 to 14) (size 15 to 20)
#    0.000    2.000    6.250    2.250    0.000    0.500 
#    0.000    3.125    0.000    6.750    0.000    0.000 
#    0.000    0.000    0.000    0.000    0.000    0.000 
#
# Total GULP energy -89073.903407 kJ/mol
# GULP energy per Si atom -5567.118963 kJ/mol
# Density = 2.103182 g / cm^3
# Si number density = 21.079804 Si / 1000 Ang^3
#
#
#
# Elastic Constant Matrix: (Units=GPa)
#
#
# Indices 1 2 3 4 5 6 
#
# 1 82.8889 28.8389 35.0434 1.1700 19.0706 -20.3707
# 2 28.8389 115.5072 39.0950 -16.7967 9.2890 -28.7776
# 3 35.0434 39.0950 70.2388 -17.9494 17.5802 -12.7464
# 4 1.1700 -16.7967 -17.9494 28.8249 -11.4909 4.3730
# 5 19.0706 9.2890 17.5802 -11.4909 33.1354 -4.6348
# 6 -20.3707 -28.7776 -12.7464 4.3730 -4.6348 32.8789
#
#
#
# Elastic Compliance Matrix: (Units=1/GPa)
#
#
# Indices 1 2 3 4 5 6 
#
# 1 0.020790 -0.000974 -0.008857 -0.012254 -0.010010 0.008813
# 2 -0.000974 0.013122 -0.004642 0.004281 0.002061 0.008803
# 3 -0.008857 -0.004642 0.024691 0.012242 -0.002735 -0.001992
# 4 -0.012254 0.004281 0.012242 0.052690 0.017113 -0.003695
# 5 -0.010010 0.002061 -0.002735 0.017113 0.042504 -0.001742
# 6 0.008813 0.008803 -0.001992 -0.003695 -0.001742 0.043054
#
#
# Mechanical properties :
#
#
# Convention : Reuss Voigt Hill
#
# Bulk Modulus (GPa) = 33.71909 52.73215 43.22562
# Shear Modulus (GPa) = 21.21509 30.01167 25.61338
#
# Velocity S-wave (km/s) = 3.17585 3.77731 3.48956
# Velocity P-wave (km/s) = 5.42943 6.64032 6.06517
#
# Compressibility (1/GPa) = 0.02965679
#
# Stress axis : x y z
#
# Youngs Moduli (GPa) = 48.10095 76.20887 40.50051
#
# Poissons Ratio (x) = 0.07423 0.35871
# Poissons Ratio (y) = 0.04685 0.18800
# Poissons Ratio (z) = 0.42603 0.35375
#
# Static dielectric constant tensor:
#      x y z
#    x 1.867420 -0.035770 -0.026130 
#    y -0.035770 1.800680 -0.041950 
#    z -0.026130 -0.041950 1.826760 
# 
# From -- ./inp_files/569013.got.cif
#   From: 2010.05.17/outbox.cif.g08.bks.cpg/sg2_285_cif.got.tgz:569013.got - 2010.06.03 11:33:40.
