data_PCOD9081391
_publ_section_title
;
Structure prediction by ZEFSAII (Michael W. Deem and Ramdas Pophale) SiO2 
 PCOD9081391
Probable space group: P -1
;
_chemical_formula_sum "Si O2"
_cell_formula_units_Z 16
_cell_length_a 20.455962
_cell_length_b 13.712542
_cell_length_c 10.472554
_cell_angle_alpha 44.241713
_cell_angle_beta 32.677845
_cell_angle_gamma 32.731979
_cell_volume 857.240748
_symmetry_space_group_name_H-M "P -1"
_symmetry_group_IT_number 2
_symmetry_cell_setting 'triclinic'
loop_
_space_group_symop_operation_xyz
x,y,z
-x,-y,-z
loop_
_atom_site_type_symbol
_atom_site_label
_atom_site_fract_x
_atom_site_fract_y
_atom_site_fract_z
Si Si1 0.012966 0.963761 0.363735
Si Si2 0.218115 0.822455 0.940906
Si Si3 0.555064 0.686425 0.229478
Si Si4 0.699631 0.662650 0.743863
Si Si5 0.502615 0.563028 0.075303
Si Si6 0.001841 0.738466 0.412626
Si Si7 0.696055 0.963110 0.549693
Si Si8 0.702247 0.325718 0.465717
O O1 0.991176 0.816807 0.496930
O O2 0.174424 0.885635 0.101358
O O3 0.000000 0.000000 0.500000
O O4 0.880142 0.147367 0.333751
O O5 0.375335 0.617557 0.872314
O O6 0.243262 0.942757 0.709063
O O7 0.083121 0.810227 0.135152
O O8 0.661284 0.509188 0.309502
O O9 0.409748 0.697886 0.406558
O O10 0.469266 0.875196 0.266724
O O11 0.652057 0.663401 0.968235
O O12 0.872056 0.477068 0.603428
O O13 0.685523 0.838490 0.591097
O O14 0.575888 0.663949 0.863194
O O15 0.344638 0.662686 0.320256
O O16 0.500000 0.500000 0.000000
O O17 0.832103 0.828420 0.554431
#
# Coordination Sequence:
#
# PCOD9081391 Si02
#       8
#     2   2   2   2   2   2   2   2
#     4  10  20  34  56  82 105 139 189 227 261 311
#     4   9  20  33  57  81 104 138 184 224 260 318
#     4  10  20  34  53  82 113 137 182 219 280 323
#     4  10  23  34  55  82 111 144 173 225 275 331
#     4  10  19  37  56  77 104 141 185 222 266 320
#     4   9  21  35  54  81 106 145 180 221 267 323
#     4  12  19  37  54  82 115 138 176 226 283 318
#     4  10  19  31  57  82 102 143 182 231 264 312
#
# _framework density 18.664536999999999
#
# number of rings (size 3 to 8) (size 9 to 14) (size 15 to 20)
#    0.750    1.250    2.500    1.875    3.500    0.000 
#    0.000    0.625    0.000    0.750    0.000    0.000 
#    0.000    0.000    0.000    0.000    0.000    0.000 
#
# Total GULP energy -89147.995684 kJ/mol
# GULP energy per Si atom -5571.749730 kJ/mol
# Density = 1.862206 g / cm^3
# Si number density = 18.664537 Si / 1000 Ang^3
#
#
#
# Elastic Constant Matrix: (Units=GPa)
#
#
# Indices 1 2 3 4 5 6 
#
# 1 56.5866 19.5188 5.5491 -3.2048 0.5208 20.5569
# 2 19.5188 113.2070 12.4596 8.4053 -8.9432 16.9346
# 3 5.5491 12.4596 19.4715 2.1210 -2.1593 4.8116
# 4 -3.2048 8.4053 2.1210 27.0477 8.0857 -1.6588
# 5 0.5208 -8.9432 -2.1593 8.0857 18.4614 2.2449
# 6 20.5569 16.9346 4.8116 -1.6588 2.2449 30.4054
#
#
#
# Elastic Compliance Matrix: (Units=1/GPa)
#
#
# Indices 1 2 3 4 5 6 
#
# 1 0.024081 -0.002102 -0.002508 0.003327 -0.001696 -0.014406
# 2 -0.002102 0.011602 -0.003802 -0.006504 0.008745 -0.005439
# 3 -0.002508 -0.003802 0.057748 -0.006618 0.008651 -0.006325
# 4 0.003327 -0.006504 -0.006618 0.048083 -0.025924 0.006958
# 5 -0.001696 0.008745 0.008651 -0.025924 0.072257 -0.011842
# 6 -0.014406 -0.005439 -0.006325 0.006958 -0.011842 0.047913
#
#
# Mechanical properties :
#
#
# Convention : Reuss Voigt Hill
#
# Bulk Modulus (GPa) = 13.05387 29.36890 21.21139
# Shear Modulus (GPa) = 16.44501 25.29873 20.87187
#
# Velocity S-wave (km/s) = 2.97152 3.68563 3.34767
# Velocity P-wave (km/s) = 4.33387 5.82075 5.13145
#
# Compressibility (1/GPa) = 0.07660562
#
# Stress axis : x y z
#
# Youngs Moduli (GPa) = 41.52722 86.19460 17.31653
#
# Poissons Ratio (x) = 0.18116 0.04343
# Poissons Ratio (y) = 0.08728 0.06585
# Poissons Ratio (z) = 0.10416 0.32775
#
# Static dielectric constant tensor:
#      x y z
#    x 1.660130 0.015250 0.004220 
#    y 0.015250 1.661030 0.009680 
#    z 0.004220 0.009680 1.655440 
# 
# From -- ./inp_files/475044.got.cif
#   From: 2010.05.17/outbox.cif.g08.bks.cpg/sg2_238_cif.got.tgz:475044.got - 2010.06.03 11:33:40.
