data_PCOD9081999
_publ_section_title
;
Structure prediction by ZEFSAII (Michael W. Deem and Ramdas Pophale) SiO2 
 PCOD9081999
Probable space group: P -1
;
_chemical_formula_sum "Si O2"
_cell_formula_units_Z 16
_cell_length_a 20.456192
_cell_length_b 12.135579
_cell_length_c 8.827365
_cell_angle_alpha 126.804274
_cell_angle_beta 53.186406
_cell_angle_gamma 159.743504
_cell_volume 601.995657
_symmetry_space_group_name_H-M "P -1"
_symmetry_group_IT_number 2
_symmetry_cell_setting 'triclinic'
loop_
_space_group_symop_operation_xyz
x,y,z
-x,-y,-z
loop_
_atom_site_type_symbol
_atom_site_label
_atom_site_fract_x
_atom_site_fract_y
_atom_site_fract_z
Si Si1 0.891776 0.156985 0.540089
Si Si2 0.480447 0.433373 0.237087
Si Si3 0.049225 0.851976 0.076742
Si Si4 0.788592 0.695075 0.971401
Si Si5 0.368131 0.121120 0.819363
Si Si6 0.213400 0.584669 0.643120
Si Si7 0.899418 0.464708 0.738042
Si Si8 0.547018 0.051911 0.798691
O O1 0.907193 0.339704 0.725123
O O2 0.073108 0.341200 0.492894
O O3 0.937551 0.260844 0.386696
O O4 0.684768 0.804502 0.603889
O O5 0.669003 0.629698 0.179516
O O6 0.505349 0.621074 0.278131
O O7 0.425603 0.256750 0.020643
O O8 0.885866 0.579039 0.955974
O O9 0.162263 0.162536 0.144110
O O10 0.184164 0.935978 0.904886
O O11 0.962579 0.684515 0.217315
O O12 0.657277 0.361883 0.860449
O O13 0.000000 0.000000 0.000000
O O14 0.315022 0.881689 0.700357
O O15 0.379290 0.771629 0.675655
O O16 0.698991 0.159339 0.675137
O O17 0.500000 0.000000 0.000000
#
# Coordination Sequence:
#
# PCOD9081999 Si02
#       8
#     2   2   2   2   2   2   2   2
#     4  11  24  40  63  85 126 165 202 242 299 367
#     4  10  20  35  58  91 118 152 202 253 300 347
#     4  11  20  35  63  91 117 155 204 251 299 347
#     4  11  21  35  58  92 121 152 192 258 305 350
#     4  10  19  32  59  92 114 147 208 259 287 343
#     4  12  21  36  65  92 117 159 204 250 300 355
#     4  11  23  40  60  89 127 159 201 247 303 355
#     4  12  23  38  63  94 123 154 203 253 304 353
#
# _framework density 26.578264999999998
#
# number of rings (size 3 to 8) (size 9 to 14) (size 15 to 20)
#    0.000    1.000    6.250    1.875    0.000    0.500 
#    0.000    2.500    2.750    3.000    0.000    0.000 
#    0.000    0.000    0.000    0.000    0.000    0.000 
#
# Total GULP energy -89115.642324 kJ/mol
# GULP energy per Si atom -5569.727645 kJ/mol
# Density = 2.651777 g / cm^3
# Si number density = 26.578265 Si / 1000 Ang^3
#
#
#
# Elastic Constant Matrix: (Units=GPa)
#
#
# Indices 1 2 3 4 5 6 
#
# 1 92.9523 40.9879 30.1189 -19.5516 9.5281 17.3376
# 2 40.9879 130.5147 43.6957 -37.3388 9.2384 0.7033
# 3 30.1189 43.6957 60.4140 -38.5774 11.0575 -6.5957
# 4 -19.5516 -37.3388 -38.5774 46.0892 -6.3998 15.9311
# 5 9.5281 9.2384 11.0575 -6.3998 24.7716 0.1098
# 6 17.3376 0.7033 -6.5957 15.9311 0.1098 60.0259
#
#
#
# Elastic Compliance Matrix: (Units=1/GPa)
#
#
# Indices 1 2 3 4 5 6 
#
# 1 0.014961 -0.002371 -0.004523 0.002180 -0.002264 -0.005365
# 2 -0.002371 0.011181 -0.003417 0.005606 -0.000278 -0.001309
# 3 -0.004523 -0.003417 0.041324 0.029483 -0.007807 -0.001923
# 4 0.002180 0.005606 0.029483 0.055863 -0.001603 -0.012279
# 5 -0.002264 -0.000278 -0.007807 -0.001603 0.044414 0.000144
# 6 -0.005365 -0.001309 -0.001923 -0.012279 0.000144 0.021272
#
#
# Mechanical properties :
#
#
# Convention : Reuss Voigt Hill
#
# Bulk Modulus (GPa) = 21.34783 57.05400 39.20092
# Shear Modulus (GPa) = 22.19753 37.44921 29.82337
#
# Velocity S-wave (km/s) = 2.89308 3.75776 3.35340
# Velocity P-wave (km/s) = 4.38285 6.35143 5.45665
#
# Compressibility (1/GPa) = 0.04684316
#
# Stress axis : x y z
#
# Youngs Moduli (GPa) = 66.84240 89.43478 24.19917
#
# Poissons Ratio (x) = 0.21209 0.10945
# Poissons Ratio (y) = 0.15851 0.08269
# Poissons Ratio (z) = 0.30232 0.30560
#
# Static dielectric constant tensor:
#      x y z
#    x 2.268440 0.230040 0.057940 
#    y 0.230040 2.372290 0.155730 
#    z 0.057940 0.155730 2.174200 
# 
# From -- ./inp_files/277675.got.cif
#   From: 2010.05.17/outbox.cif.g08.bks.cpg/sg2_139_cif.got.tgz:277675.got - 2010.06.03 11:33:40.
