data_PCOD9081320
_publ_section_title
;
Structure prediction by ZEFSAII (Michael W. Deem and Ramdas Pophale) SiO2 
 PCOD9081320
Probable space group: P -1
;
_chemical_formula_sum "Si O2"
_cell_formula_units_Z 16
_cell_length_a 22.863134
_cell_length_b 14.929975
_cell_length_c 9.998544
_cell_angle_alpha 35.855422
_cell_angle_beta 29.137645
_cell_angle_gamma 28.041980
_cell_volume 769.473761
_symmetry_space_group_name_H-M "P -1"
_symmetry_group_IT_number 2
_symmetry_cell_setting 'triclinic'
loop_
_space_group_symop_operation_xyz
x,y,z
-x,-y,-z
loop_
_atom_site_type_symbol
_atom_site_label
_atom_site_fract_x
_atom_site_fract_y
_atom_site_fract_z
Si Si1 0.489511 0.301955 0.609103
Si Si2 0.552964 0.609897 0.836411
Si Si3 0.652763 0.969102 0.183224
Si Si4 0.982866 0.749414 0.881421
Si Si5 0.254479 0.715082 0.948537
Si Si6 0.278685 0.320331 0.810765
Si Si7 0.019852 0.028605 0.632074
Si Si8 0.668495 0.274438 0.508789
O O1 0.376684 0.268852 0.811828
O O2 0.548869 0.252561 0.703477
O O3 0.408068 0.531994 0.487339
O O4 0.642619 0.210594 0.327463
O O5 0.665219 0.479157 0.891094
O O6 0.642801 0.635156 0.513917
O O7 0.407511 0.812087 0.941250
O O8 0.500000 0.500000 0.000000
O O9 0.699086 0.863224 0.075425
O O10 0.500000 0.000000 0.500000
O O11 0.808698 0.827689 0.126848
O O12 0.107824 0.518574 0.928685
O O13 0.016054 0.817467 0.595352
O O14 0.997729 0.873698 0.809011
O O15 0.088484 0.863929 0.156301
O O16 0.263872 0.690744 0.800072
O O17 0.193308 0.908258 0.472399
#
# Coordination Sequence:
#
# PCOD9081320 Si02
#       8
#     2   2   2   2   2   2   2   2
#     4   9  19  32  57  81 114 154 186 234 281 339
#     4  11  19  34  59  86 115 143 192 239 282 337
#     4  10  25  37  56  84 118 158 188 228 293 357
#     4  11  23  34  58  86 121 148 191 242 288 346
#     4  10  19  31  54  83 118 147 186 238 284 330
#     4  11  20  39  54  85 118 154 185 236 296 342
#     4  11  21  33  57  95 115 148 190 247 294 326
#     4   9  19  34  52  88 119 148 192 240 289 337
#
# _framework density 20.793433
#
# number of rings (size 3 to 8) (size 9 to 14) (size 15 to 20)
#    0.750    1.000    3.750    1.500    5.250    0.000 
#    0.000    0.000    0.000    3.000    0.000    3.500 
#    0.000    0.000    0.000    0.000    0.000    0.000 
#
# Total GULP energy -89186.037894 kJ/mol
# GULP energy per Si atom -5574.127368 kJ/mol
# Density = 2.074611 g / cm^3
# Si number density = 20.793433 Si / 1000 Ang^3
#
#
#
# Elastic Constant Matrix: (Units=GPa)
#
#
# Indices 1 2 3 4 5 6 
#
# 1 76.9021 29.2929 11.1693 -1.9926 -30.9583 9.7917
# 2 29.2929 106.5160 24.2027 21.0274 -28.0568 11.8568
# 3 11.1693 24.2027 64.5743 16.6137 -13.5608 9.2554
# 4 -1.9926 21.0274 16.6137 30.2907 -3.6306 -4.9647
# 5 -30.9583 -28.0568 -13.5608 -3.6306 35.5799 6.7139
# 6 9.7917 11.8568 9.2554 -4.9647 6.7139 24.1064
#
#
#
# Elastic Compliance Matrix: (Units=1/GPa)
#
#
# Indices 1 2 3 4 5 6 
#
# 1 0.027020 0.003305 0.005288 -0.003532 0.032371 -0.024374
# 2 0.003305 0.018834 0.004161 -0.016068 0.021744 -0.021569
# 3 0.005288 0.004161 0.025045 -0.017655 0.019968 -0.023007
# 4 -0.003532 -0.016068 -0.017655 0.056446 -0.023165 0.034193
# 5 0.032371 0.021744 0.019968 -0.023165 0.090254 -0.061418
# 6 -0.024374 -0.021569 -0.023007 0.034193 -0.061418 0.094973
#
#
# Mechanical properties :
#
#
# Convention : Reuss Voigt Hill
#
# Bulk Modulus (GPa) = 10.37275 41.92472 26.14873
# Shear Modulus (GPa) = 15.66410 30.21722 22.94066
#
# Velocity S-wave (km/s) = 2.74764 3.81623 3.32515
# Velocity P-wave (km/s) = 3.88141 6.29480 5.22924
#
# Compressibility (1/GPa) = 0.09640649
#
# Stress axis : x y z
#
# Youngs Moduli (GPa) = 37.00956 53.09445 39.92809
#
# Poissons Ratio (x) = -0.17546 -0.21113
# Poissons Ratio (y) = -0.12231 -0.16614
# Poissons Ratio (z) = -0.19570 -0.22092
#
# Static dielectric constant tensor:
#      x y z
#    x 1.788920 -0.011010 -0.016410 
#    y -0.011010 1.750070 -0.012020 
#    z -0.016410 -0.012020 1.778060 
# 
# From -- ./inp_files/303683.got.cif
#   From: 2010.05.17/outbox.cif.g08.bks.cpg/sg2_152_cif.got.tgz:303683.got - 2010.06.03 11:33:40.
