data_PCOD9081074
_publ_section_title
;
Structure prediction by ZEFSAII (Michael W. Deem and Ramdas Pophale) SiO2 
 PCOD9081074
Probable space group: P -1
;
_chemical_formula_sum "Si O2"
_cell_formula_units_Z 16
_cell_length_a 12.576063
_cell_length_b 21.431290
_cell_length_c 8.898485
_cell_angle_alpha 96.009569
_cell_angle_beta 113.761190
_cell_angle_gamma 26.925017
_cell_volume 784.376792
_symmetry_space_group_name_H-M "P -1"
_symmetry_group_IT_number 2
_symmetry_cell_setting 'triclinic'
loop_
_space_group_symop_operation_xyz
x,y,z
-x,-y,-z
loop_
_atom_site_type_symbol
_atom_site_label
_atom_site_fract_x
_atom_site_fract_y
_atom_site_fract_z
Si Si1 0.233020 0.799448 0.181848
Si Si2 0.460177 0.552550 0.149797
Si Si3 0.127098 0.070591 0.706893
Si Si4 0.152819 0.657352 0.404590
Si Si5 0.655051 0.020035 0.504389
Si Si6 0.312306 0.210415 0.834132
Si Si7 0.455983 0.823596 0.280262
Si Si8 0.756197 0.887538 0.818553
O O1 0.407720 0.653659 0.161968
O O2 0.439995 0.758217 0.285400
O O3 0.130274 0.831380 0.301490
O O4 0.895014 0.982515 0.946903
O O5 0.772858 0.380835 0.384764
O O6 0.500000 0.500000 0.000000
O O7 0.110837 0.702828 0.045354
O O8 0.084387 0.166772 0.723595
O O9 0.119192 0.066295 0.521726
O O10 0.475332 0.877551 0.924368
O O11 0.500000 0.500000 0.500000
O O12 0.016037 0.659212 0.281251
O O13 0.508444 0.152559 0.544586
O O14 0.401597 0.100002 0.302390
O O15 0.801904 0.902536 0.691216
O O16 0.290725 0.278854 0.724178
O O17 0.520312 0.051504 0.822410
#
# Coordination Sequence:
#
# PCOD9081074 Si02
#       8
#     2   2   2   2   2   2   2   2
#     4  10  20  40  57  85 116 155 193 246 281 345
#     4  12  24  36  57  89 120 150 187 246 304 341
#     4  11  20  35  58  87 117 151 191 242 293 340
#     4  12  23  34  55  89 123 151 181 243 310 345
#     4  10  19  30  61  85 109 149 195 243 275 335
#     4  10  20  37  60  84 113 160 197 237 284 349
#     4   9  20  38  63  80 112 155 210 233 273 339
#     4  10  19  37  55  83 120 148 199 238 286 344
#
# _framework density 20.39836
#
# number of rings (size 3 to 8) (size 9 to 14) (size 15 to 20)
#    0.000    1.500    6.250    1.125    5.250    0.500 
#    0.000    0.625    0.000    0.000    0.000    2.625 
#    0.000    0.000    0.000    0.000    0.000    0.000 
#
# Total GULP energy -89233.415193 kJ/mol
# GULP energy per Si atom -5577.088450 kJ/mol
# Density = 2.035193 g / cm^3
# Si number density = 20.398360 Si / 1000 Ang^3
#
#
#
# Elastic Constant Matrix: (Units=GPa)
#
#
# Indices 1 2 3 4 5 6 
#
# 1 157.6333 30.7695 18.7482 5.9831 2.5518 4.0731
# 2 30.7695 52.5679 5.2158 14.7140 -8.6500 -2.3002
# 3 18.7482 5.2158 44.6711 3.2676 -8.1116 2.6906
# 4 5.9831 14.7140 3.2676 21.2199 -9.0978 2.5271
# 5 2.5518 -8.6500 -8.1116 -9.0978 32.9286 8.3950
# 6 4.0731 -2.3002 2.6906 2.5271 8.3950 24.1087
#
#
#
# Elastic Compliance Matrix: (Units=1/GPa)
#
#
# Indices 1 2 3 4 5 6 
#
# 1 0.007671 -0.004797 -0.003075 0.000773 -0.002215 -0.000720
# 2 -0.004797 0.027143 0.000113 -0.017385 0.001534 0.004676
# 3 -0.003075 0.000113 0.025382 0.000989 0.008129 -0.005237
# 4 0.000773 -0.017385 0.000989 0.068609 0.018536 -0.015546
# 5 -0.002215 0.001534 0.008129 0.018536 0.042428 -0.017103
# 6 -0.000720 0.004676 -0.005237 -0.015546 -0.017103 0.050216
#
#
# Mechanical properties :
#
#
# Convention : Reuss Voigt Hill
#
# Bulk Modulus (GPa) = 22.38243 40.48216 31.43229
# Shear Modulus (GPa) = 19.85229 28.99403 24.42316
#
# Velocity S-wave (km/s) = 3.12305 3.77422 3.46397
# Velocity P-wave (km/s) = 4.89909 6.23553 5.60727
#
# Compressibility (1/GPa) = 0.04467791
#
# Stress axis : x y z
#
# Youngs Moduli (GPa) = 130.35951 36.84172 39.39765
#
# Poissons Ratio (x) = 0.17675 0.12114
# Poissons Ratio (y) = 0.62540 -0.00445
# Poissons Ratio (z) = 0.40082 -0.00416
#
# Static dielectric constant tensor:
#      x y z
#    x 1.761170 -0.065300 -0.017580 
#    y -0.065300 1.766490 -0.002440 
#    z -0.017580 -0.002440 1.777020 
# 
# From -- ./inp_files/281978.got.cif
#   From: 2010.05.17/outbox.cif.g08.bks.cpg/sg2_141_cif.got.tgz:281978.got - 2010.06.03 11:33:40.
