data_PCOD9081235
_publ_section_title
;
Structure prediction by ZEFSAII (Michael W. Deem and Ramdas Pophale) SiO2 
 PCOD9081235
Probable space group: P -1
;
_chemical_formula_sum "Si O2"
_cell_formula_units_Z 16
_cell_length_a 22.092732
_cell_length_b 11.691837
_cell_length_c 12.337509
_cell_angle_alpha 142.291917
_cell_angle_beta 26.704562
_cell_angle_gamma 156.337074
_cell_volume 568.274064
_symmetry_space_group_name_H-M "P -1"
_symmetry_group_IT_number 2
_symmetry_cell_setting 'triclinic'
loop_
_space_group_symop_operation_xyz
x,y,z
-x,-y,-z
loop_
_atom_site_type_symbol
_atom_site_label
_atom_site_fract_x
_atom_site_fract_y
_atom_site_fract_z
Si Si1 0.239651 0.971293 0.390902
Si Si2 0.864194 0.365436 0.887824
Si Si3 0.294171 0.102034 0.646172
Si Si4 0.227511 0.368178 0.677523
Si Si5 0.014801 0.218673 0.698274
Si Si6 0.656276 0.520476 0.026700
Si Si7 0.399042 0.817956 0.323750
Si Si8 0.427464 0.268085 0.856799
O O1 0.218905 0.955630 0.539789
O O2 0.148679 0.073856 0.573008
O O3 0.480967 0.232696 0.162778
O O4 0.141956 0.701837 0.277089
O O5 0.997048 0.360623 0.743109
O O6 0.899137 0.620671 0.038837
O O7 0.629454 0.087649 0.104101
O O8 0.545441 0.404404 0.461301
O O9 0.208754 0.212365 0.906258
O O10 0.296241 0.911739 0.569130
O O11 0.201190 0.423042 0.639515
O O12 0.000000 0.000000 0.500000
O O13 0.812369 0.025446 0.953511
O O14 0.562119 0.600523 0.170860
O O15 0.712033 0.435280 0.777290
O O16 0.443483 0.770182 0.332345
O O17 0.500000 0.500000 0.000000
#
# Coordination Sequence:
#
# PCOD9081235 Si02
#       8
#     2   2   2   2   2   2   2   2
#     4  10  19  33  53  84 111 143 187 228 268 313
#     4   9  18  32  50  78 110 140 174 231 271 319
#     4  10  20  31  54  84 110 143 188 230 263 317
#     4  10  19  31  52  79 111 137 182 222 279 319
#     4  11  20  34  57  81 113 145 180 226 276 331
#     4   9  17  31  51  72 110 141 175 218 273 316
#     4   8  17  31  48  77 110 137 179 221 273 318
#     4   9  19  34  55  80 112 147 178 218 282 333
#
# _framework density 28.155429000000002
#
# number of rings (size 3 to 8) (size 9 to 14) (size 15 to 20)
#    0.000    2.500    1.250    2.625    3.500    6.000 
#    0.000    0.000    5.500    3.000    0.000    4.375 
#    0.000    0.000    0.000    0.000    0.000    0.000 
#
# Total GULP energy -89535.879449 kJ/mol
# GULP energy per Si atom -5595.992466 kJ/mol
# Density = 2.809135 g / cm^3
# Si number density = 28.155429 Si / 1000 Ang^3
#
#
#
# Elastic Constant Matrix: (Units=GPa)
#
#
# Indices 1 2 3 4 5 6 
#
# 1 83.9767 13.6532 -0.1161 0.8981 14.4106 9.2997
# 2 13.6532 99.5708 31.1646 16.0993 7.1424 2.5274
# 3 -0.1161 31.1646 112.8681 19.4013 -2.9374 17.8900
# 4 0.8981 16.0993 19.4013 62.8188 7.2752 8.9164
# 5 14.4106 7.1424 -2.9374 7.2752 30.9169 8.1714
# 6 9.2997 2.5274 17.8900 8.9164 8.1714 41.6305
#
#
#
# Elastic Compliance Matrix: (Units=1/GPa)
#
#
# Indices 1 2 3 4 5 6 
#
# 1 0.013359 -0.001718 0.000528 0.001036 -0.005425 -0.002264
# 2 -0.001718 0.011736 -0.003268 -0.001987 -0.002268 0.001947
# 3 0.000528 -0.003268 0.011006 -0.002274 0.003364 -0.004822
# 4 0.001036 -0.001987 -0.002274 0.017876 -0.003864 -0.002204
# 5 -0.005425 -0.002268 0.003364 -0.003864 0.038427 -0.006811
# 6 -0.002264 0.001947 -0.004822 -0.002204 -0.006811 0.028290
#
#
# Mechanical properties :
#
#
# Convention : Reuss Voigt Hill
#
# Bulk Modulus (GPa) = 36.78678 42.86877 39.82778
# Shear Modulus (GPa) = 36.05669 43.85417 39.95543
#
# Velocity S-wave (km/s) = 3.58247 3.95089 3.77118
# Velocity P-wave (km/s) = 5.49601 6.00596 5.75663
#
# Compressibility (1/GPa) = 0.02718368
#
# Stress axis : x y z
#
# Youngs Moduli (GPa) = 74.85797 85.20653 90.86229
#
# Poissons Ratio (x) = 0.14636 -0.04794
# Poissons Ratio (y) = 0.12859 0.29696
# Poissons Ratio (z) = -0.03949 0.27847
#
# Static dielectric constant tensor:
#      x y z
#    x 2.203960 -0.000100 0.066090 
#    y -0.000100 2.236450 -0.136540 
#    z 0.066090 -0.136540 2.246860 
# 
# From -- ./inp_files/252532.got.cif
#   From: 2010.05.17/outbox.cif.g08.bks.cpg/sg2_127_cif.got.tgz:252532.got - 2010.06.03 11:33:40.
