data_PCOD9081875
_publ_section_title
;
Structure prediction by ZEFSAII (Michael W. Deem and Ramdas Pophale) SiO2 
 PCOD9081875
Probable space group: P -1
;
_chemical_formula_sum "Si O2"
_cell_formula_units_Z 16
_cell_length_a 16.815908
_cell_length_b 11.615117
_cell_length_c 11.219138
_cell_angle_alpha 139.374981
_cell_angle_beta 69.745849
_cell_angle_gamma 139.352451
_cell_volume 781.332422
_symmetry_space_group_name_H-M "P -1"
_symmetry_group_IT_number 2
_symmetry_cell_setting 'triclinic'
loop_
_space_group_symop_operation_xyz
x,y,z
-x,-y,-z
loop_
_atom_site_type_symbol
_atom_site_label
_atom_site_fract_x
_atom_site_fract_y
_atom_site_fract_z
Si Si1 0.049896 0.762835 0.110944
Si Si2 0.348789 0.206233 0.409423
Si Si3 0.535820 0.802830 0.225356
Si Si4 0.994936 0.680306 0.796938
Si Si5 0.643058 0.539716 0.174528
Si Si6 0.806154 0.023514 0.298875
Si Si7 0.261888 0.654066 0.044580
Si Si8 0.711524 0.397720 0.732738
O O1 0.210258 0.071429 0.318082
O O2 0.053933 0.760820 0.963570
O O3 0.000000 0.500000 0.000000
O O4 0.911820 0.652970 0.120904
O O5 0.500000 0.500000 0.500000
O O6 0.364786 0.310921 0.615493
O O7 0.314206 0.939227 0.211358
O O8 0.382730 0.581056 0.199099
O O9 0.642920 0.824557 0.217008
O O10 0.629436 0.132996 0.473276
O O11 0.495298 0.717953 0.041547
O O12 0.116744 0.891992 0.798515
O O13 0.900655 0.342204 0.556852
O O14 0.881835 0.652815 0.821707
O O15 0.783830 0.821376 0.239718
O O16 0.667864 0.388180 0.097012
O O17 0.302862 0.696991 0.197373
#
# Coordination Sequence:
#
# PCOD9081875 Si02
#       8
#     2   2   2   2   2   2   2   2
#     4   9  18  38  62  82 112 165 196 240 301 352
#     4  11  24  39  62  89 118 152 203 255 296 351
#     4   9  17  30  54  82 114 158 190 228 291 362
#     4   9  18  33  57  85 120 149 202 251 292 344
#     4  11  22  37  61  86 118 160 198 235 307 362
#     4  10  19  32  56  89 119 153 195 248 294 363
#     4   9  20  40  63  84 117 158 198 245 298 360
#     4   8  15  33  55  80 117 156 190 231 295 353
#
# _framework density 20.47784
#
# number of rings (size 3 to 8) (size 9 to 14) (size 15 to 20)
#    0.000    2.500    0.000    3.375    1.750    1.000 
#    0.000    5.625   16.500    0.000    0.000    0.000 
#    0.000    0.000    0.000    0.000    0.000    0.000 
#
# Total GULP energy -89119.557004 kJ/mol
# GULP energy per Si atom -5569.972313 kJ/mol
# Density = 2.043123 g / cm^3
# Si number density = 20.477840 Si / 1000 Ang^3
#
#
#
# Elastic Constant Matrix: (Units=GPa)
#
#
# Indices 1 2 3 4 5 6 
#
# 1 102.1372 22.8546 35.8310 5.6111 0.5348 17.7337
# 2 22.8546 83.1559 27.8183 7.0203 3.8899 8.0886
# 3 35.8310 27.8183 78.4583 14.0369 10.5217 6.3396
# 4 5.6111 7.0203 14.0369 23.6098 3.1850 1.5273
# 5 0.5348 3.8899 10.5217 3.1850 42.0064 -1.1034
# 6 17.7337 8.0886 6.3396 1.5273 -1.1034 15.6450
#
#
#
# Elastic Compliance Matrix: (Units=1/GPa)
#
#
# Indices 1 2 3 4 5 6 
#
# 1 0.014138 -0.000913 -0.005305 0.000824 0.000818 -0.013426
# 2 -0.000913 0.014173 -0.003961 -0.001301 -0.000330 -0.004584
# 3 -0.005305 -0.003961 0.018403 -0.008100 -0.003531 0.001146
# 4 0.000824 -0.001301 -0.008100 0.047680 -0.001522 -0.001740
# 5 0.000818 -0.000330 -0.003531 -0.001522 0.024894 0.002578
# 6 -0.013426 -0.004584 0.001146 -0.001740 0.002578 0.081395
#
#
# Mechanical properties :
#
#
# Convention : Reuss Voigt Hill
#
# Bulk Modulus (GPa) = 37.94174 48.52882 43.23528
# Shear Modulus (GPa) = 21.75573 28.06873 24.91223
#
# Velocity S-wave (km/s) = 3.26299 3.70630 3.49169
# Velocity P-wave (km/s) = 5.72403 6.48577 6.11677
#
# Compressibility (1/GPa) = 0.02635620
#
# Stress axis : x y z
#
# Youngs Moduli (GPa) = 70.73284 70.55830 54.33919
#
# Poissons Ratio (x) = 0.06440 0.28828
# Poissons Ratio (y) = 0.06456 0.21522
# Poissons Ratio (z) = 0.37525 0.27946
#
# Static dielectric constant tensor:
#      x y z
#    x 1.786630 0.020520 -0.028750 
#    y 0.020520 1.735770 -0.006130 
#    z -0.028750 -0.006130 1.780840 
# 
# From -- ./inp_files/465143.got.cif
#   From: 2010.05.17/outbox.cif.g08.bks.cpg/sg2_233_cif.got.tgz:465143.got - 2010.06.03 11:33:40.
