data_PCOD9081367
_publ_section_title
;
Structure prediction by ZEFSAII (Michael W. Deem and Ramdas Pophale) SiO2 
 PCOD9081367
Probable space group: P -1
;
_chemical_formula_sum "Si O2"
_cell_formula_units_Z 16
_cell_length_a 20.210621
_cell_length_b 16.069709
_cell_length_c 9.150827
_cell_angle_alpha 37.667867
_cell_angle_beta 144.951648
_cell_angle_gamma 151.371076
_cell_volume 788.453979
_symmetry_space_group_name_H-M "P -1"
_symmetry_group_IT_number 2
_symmetry_cell_setting 'triclinic'
loop_
_space_group_symop_operation_xyz
x,y,z
-x,-y,-z
loop_
_atom_site_type_symbol
_atom_site_label
_atom_site_fract_x
_atom_site_fract_y
_atom_site_fract_z
Si Si1 0.908069 0.731587 0.683881
Si Si2 0.791757 0.902276 0.397496
Si Si3 0.916123 0.734539 0.241189
Si Si4 0.151007 0.535948 0.267938
Si Si5 0.328198 0.941223 0.631549
Si Si6 0.645240 0.064930 0.970180
Si Si7 0.756539 0.858846 0.722090
Si Si8 0.970226 0.320121 0.737715
O O1 0.808398 0.780645 0.496777
O O2 0.814957 0.547650 0.680888
O O3 0.037038 0.900769 0.578076
O O4 0.000395 0.716755 0.996304
O O5 0.735060 0.810206 0.581551
O O6 0.688632 0.958801 0.114037
O O7 0.892464 0.585412 0.502457
O O8 0.914406 0.682422 0.144909
O O9 0.789005 0.748644 0.022838
O O10 0.080940 0.933975 0.276092
O O11 0.279924 0.747134 0.232071
O O12 0.000000 0.500000 0.000000
O O13 0.196189 0.829958 0.426677
O O14 0.466690 0.952580 0.822409
O O15 0.364782 0.130835 0.446433
O O16 0.290013 0.882200 0.817044
O O17 0.000000 0.500000 0.500000
#
# Coordination Sequence:
#
# PCOD9081367 Si02
#       8
#     2   2   2   2   2   2   2   2
#     4  11  21  32  56  88 116 141 185 237 292 329
#     4  10  19  34  54  83 113 150 184 235 282 337
#     4  10  19  31  56  81 111 145 185 235 279 328
#     4  12  20  35  57  87 113 146 190 243 278 327
#     4   9  20  37  60  81 108 155 194 224 273 351
#     4  10  20  38  61  80 111 154 197 228 276 339
#     4   9  16  34  55  81 106 147 189 231 275 337
#     4  11  21  34  56  87 116 141 183 239 290 332
#
# _framework density 20.292878000000002
#
# number of rings (size 3 to 8) (size 9 to 14) (size 15 to 20)
#    0.000    1.750    3.750    3.000    0.000    0.000 
#    0.000    1.250    2.750    3.000    0.000    0.000 
#    0.000    0.000    0.000    0.000    0.000    0.000 
#
# Total GULP energy -89068.938442 kJ/mol
# GULP energy per Si atom -5566.808653 kJ/mol
# Density = 2.024669 g / cm^3
# Si number density = 20.292878 Si / 1000 Ang^3
#
#
#
# Elastic Constant Matrix: (Units=GPa)
#
#
# Indices 1 2 3 4 5 6 
#
# 1 75.1768 8.7489 17.6658 5.6088 36.8238 -8.0738
# 2 8.7489 17.8529 16.2484 -7.2453 6.0354 -5.7782
# 3 17.6658 16.2484 85.1412 -13.0446 19.0659 4.8599
# 4 5.6088 -7.2453 -13.0446 22.0291 -3.1018 1.1405
# 5 36.8238 6.0354 19.0659 -3.1018 51.7432 -5.1338
# 6 -8.0738 -5.7782 4.8599 1.1405 -5.1338 16.7011
#
#
#
# Elastic Compliance Matrix: (Units=1/GPa)
#
#
# Indices 1 2 3 4 5 6 
#
# 1 0.023777 -0.007582 -0.002254 -0.012341 -0.015387 0.005640
# 2 -0.007582 0.091606 -0.015532 0.021876 0.004978 0.032584
# 3 -0.002254 -0.015532 0.017790 0.006113 -0.004095 -0.013316
# 4 -0.012341 0.021876 0.006113 0.060499 0.007404 -0.002032
# 5 -0.015387 0.004978 -0.004095 0.007404 0.032129 0.004846
# 6 0.005640 0.032584 -0.013316 -0.002032 0.004846 0.079379
#
#
# Mechanical properties :
#
#
# Convention : Reuss Voigt Hill
#
# Bulk Modulus (GPa) = 12.13029 29.27746 20.70387
# Shear Modulus (GPa) = 13.04132 27.12854 20.08493
#
# Velocity S-wave (km/s) = 2.53781 3.66026 3.14945
# Velocity P-wave (km/s) = 3.81810 5.68526 4.84252
#
# Compressibility (1/GPa) = 0.08243827
#
# Stress axis : x y z
#
# Youngs Moduli (GPa) = 42.05679 10.91629 56.20998
#
# Poissons Ratio (x) = 0.08277 0.12667
# Poissons Ratio (y) = 0.31889 0.87305
# Poissons Ratio (z) = 0.09478 0.16955
#
# Static dielectric constant tensor:
#      x y z
#    x 1.778230 -0.026050 0.010610 
#    y -0.026050 1.729810 -0.008000 
#    z 0.010610 -0.008000 1.767400 
# 
# From -- ./inp_files/258194.got.cif
#   From: 2010.05.17/outbox.cif.g08.bks.cpg/sg2_130_cif.got.tgz:258194.got - 2010.06.03 11:33:40.
