data_PCOD9081601
_publ_section_title
;
Structure prediction by ZEFSAII (Michael W. Deem and Ramdas Pophale) SiO2 
 PCOD9081601
Probable space group: P -1
;
_chemical_formula_sum "Si O2"
_cell_formula_units_Z 14
_cell_length_a 8.657670
_cell_length_b 11.654265
_cell_length_c 7.868270
_cell_angle_alpha 118.283153
_cell_angle_beta 114.241806
_cell_angle_gamma 89.618234
_cell_volume 619.775779
_symmetry_space_group_name_H-M "P -1"
_symmetry_group_IT_number 2
_symmetry_cell_setting 'triclinic'
loop_
_space_group_symop_operation_xyz
x,y,z
-x,-y,-z
loop_
_atom_site_type_symbol
_atom_site_label
_atom_site_fract_x
_atom_site_fract_y
_atom_site_fract_z
Si Si1 0.695012 0.579867 0.176163
Si Si2 0.150618 0.057778 0.970469
Si Si3 0.800807 0.202087 0.293552
Si Si4 0.842365 0.392157 0.935234
Si Si5 0.154755 0.317757 0.339090
Si Si6 0.346183 0.578244 0.460697
Si Si7 0.026288 0.204732 0.740219
O O1 0.726105 0.654786 0.419918
O O2 0.794793 0.687751 0.157320
O O3 0.500000 0.500000 0.000000
O O4 0.792496 0.458302 0.127845
O O5 0.073082 0.079556 0.765266
O O6 0.264161 0.948189 0.916469
O O7 0.220936 0.207632 0.179144
O O8 0.000000 0.000000 0.000000
O O9 0.666365 0.294479 0.338449
O O10 0.959496 0.269656 0.288183
O O11 0.903069 0.193122 0.511892
O O12 0.686493 0.381719 0.719506
O O13 0.914137 0.260128 0.872990
O O14 0.000000 0.500000 0.000000
O O15 0.182751 0.458612 0.356171
O O16 0.500000 0.500000 0.500000
#
# Coordination Sequence:
#
# PCOD9081601 Si02
#       7
#     2   2   2   2   2   2   2
#     4  10  19  32  52  83 116 149 185 231 289 343
#     4  10  20  35  57  86 113 147 195 244 283 331
#     4   9  20  36  57  82 112 153 191 228 287 347
#     4   9  18  33  53  79 111 149 187 228 283 338
#     4  10  20  33  54  83 113 145 190 239 280 333
#     4  11  21  35  57  87 116 147 189 242 288 335
#     4   9  18  34  56  80 113 152 191 234 281 345
#
# _framework density 22.588812999999998
#
# number of rings (size 3 to 8) (size 9 to 14) (size 15 to 20)
#    0.000    2.286    0.000    4.286    0.000    2.286 
#    0.000    0.714    0.000    3.429    0.000   21.000 
#    0.000    0.000    0.000    0.000    0.000    0.000 
#
# Total GULP energy -78037.419496 kJ/mol
# GULP energy per Si atom -5574.101393 kJ/mol
# Density = 2.253740 g / cm^3
# Si number density = 22.588813 Si / 1000 Ang^3
#
#
#
# Elastic Constant Matrix: (Units=GPa)
#
#
# Indices 1 2 3 4 5 6 
#
# 1 90.4046 39.5543 34.3082 1.5759 -8.4833 -30.6119
# 2 39.5543 111.8590 29.9515 8.7377 -15.5208 -24.1678
# 3 34.3082 29.9515 80.9755 2.9568 -25.2369 -19.1908
# 4 1.5759 8.7377 2.9568 36.0989 -14.6620 -21.6037
# 5 -8.4833 -15.5208 -25.2369 -14.6620 33.9212 2.4433
# 6 -30.6119 -24.1678 -19.1908 -21.6037 2.4433 46.1607
#
#
#
# Elastic Compliance Matrix: (Units=1/GPa)
#
#
# Indices 1 2 3 4 5 6 
#
# 1 0.018413 -0.002883 -0.001815 0.011320 0.005752 0.014940
# 2 -0.002883 0.011610 -0.000580 0.002051 0.004712 0.004636
# 3 -0.001815 -0.000580 0.023162 0.016087 0.022424 0.014464
# 4 0.011320 0.002051 0.016087 0.070222 0.042787 0.045869
# 5 0.005752 0.004712 0.022424 0.042787 0.065937 0.032139
# 6 0.014940 0.004636 0.014464 0.045869 0.032139 0.059778
#
#
# Mechanical properties :
#
#
# Convention : Reuss Voigt Hill
#
# Bulk Modulus (GPa) = 23.45842 54.54079 38.99961
# Shear Modulus (GPa) = 18.25562 35.19784 26.72673
#
# Velocity S-wave (km/s) = 2.84592 3.95168 3.44348
# Velocity P-wave (km/s) = 4.60505 6.70959 5.75435
#
# Compressibility (1/GPa) = 0.04262861
#
# Stress axis : x y z
#
# Youngs Moduli (GPa) = 54.30966 86.13315 43.17379
#
# Poissons Ratio (x) = 0.24834 0.07834
# Poissons Ratio (y) = 0.15659 0.02506
# Poissons Ratio (z) = 0.09855 0.04999
#
# Static dielectric constant tensor:
#      x y z
#    x 1.883250 -0.039840 -0.004060 
#    y -0.039840 1.899860 -0.001970 
#    z -0.004060 -0.001970 1.971280 
# 
# From -- ./inp_files/174772.got.cif
#   From: 2010.05.17/outbox.cif.g08.bks.cpg/sg2_88_cif.got.tgz:174772.got - 2010.06.03 11:33:40.
