data_PCOD9081752
_publ_section_title
;
Structure prediction by ZEFSAII (Michael W. Deem and Ramdas Pophale) SiO2 
 PCOD9081752
Probable space group: P -1
;
_chemical_formula_sum "Si O2"
_cell_formula_units_Z 16
_cell_length_a 11.663375
_cell_length_b 11.096464
_cell_length_c 6.538788
_cell_angle_alpha 60.680995
_cell_angle_beta 90.770802
_cell_angle_gamma 108.728974
_cell_volume 688.118097
_symmetry_space_group_name_H-M "P -1"
_symmetry_group_IT_number 2
_symmetry_cell_setting 'triclinic'
loop_
_space_group_symop_operation_xyz
x,y,z
-x,-y,-z
loop_
_atom_site_type_symbol
_atom_site_label
_atom_site_fract_x
_atom_site_fract_y
_atom_site_fract_z
Si Si1 0.158062 0.424134 0.013100
Si Si2 0.300804 0.860759 0.527731
Si Si3 0.095344 0.053317 0.643666
Si Si4 0.405373 0.656215 0.952198
Si Si5 0.003645 0.211125 0.873866
Si Si6 0.944370 0.345979 0.396126
Si Si7 0.633638 0.816942 0.585526
Si Si8 0.536567 0.169882 0.789476
O O1 0.297718 0.502853 0.021292
O O2 0.115823 0.286895 0.969638
O O3 0.118785 0.542593 0.782222
O O4 0.070671 0.385134 0.242404
O O5 0.350022 0.780232 0.770340
O O6 0.154975 0.809949 0.554034
O O7 0.345158 0.805264 0.369462
O O8 0.359434 0.035637 0.411884
O O9 0.046425 0.134855 0.750279
O O10 0.225916 0.160819 0.470995
O O11 0.000000 0.000000 0.500000
O O12 0.099153 0.910133 0.890897
O O13 0.532468 0.684034 0.813307
O O14 0.434739 0.702538 0.147816
O O15 0.958663 0.327942 0.654114
O O16 0.572448 0.823477 0.361700
O O17 0.500000 0.000000 0.000000
#
# Coordination Sequence:
#
# PCOD9081752 Si02
#       8
#     2   2   2   2   2   2   2   2
#     4  10  22  40  61  93 132 165 202 249 315 376
#     4  10  19  32  54  88 126 156 201 248 304 368
#     4  11  26  44  65  92 120 161 215 267 310 357
#     4  10  21  36  55  87 128 161 195 248 305 373
#     4  11  23  42  65  88 122 164 210 262 311 365
#     4  10  22  37  64  95 126 165 204 254 312 374
#     4  11  21  36  58  88 121 160 209 252 308 366
#     4  11  19  32  55  87 123 162 194 246 311 366
#
# _framework density 23.251821
#
# number of rings (size 3 to 8) (size 9 to 14) (size 15 to 20)
#    0.000    1.500    2.500    3.375    1.750    8.000 
#    0.000    0.625    0.000    3.750    0.000    0.000 
#    0.000    0.000    0.000    0.000    0.000    0.000 
#
# Total GULP energy -89432.114528 kJ/mol
# GULP energy per Si atom -5589.507158 kJ/mol
# Density = 2.319890 g / cm^3
# Si number density = 23.251821 Si / 1000 Ang^3
#
#
#
# Elastic Constant Matrix: (Units=GPa)
#
#
# Indices 1 2 3 4 5 6 
#
# 1 125.1657 38.5652 34.1626 2.7129 -16.0543 32.6917
# 2 38.5652 93.0125 34.3006 15.4063 -0.9447 39.6622
# 3 34.1626 34.3006 104.6747 7.4090 6.9864 19.6109
# 4 2.7129 15.4063 7.4090 41.8636 1.1130 -2.6896
# 5 -16.0543 -0.9447 6.9864 1.1130 21.3753 -13.7762
# 6 32.6917 39.6622 19.6109 -2.6896 -13.7762 39.3139
#
#
#
# Elastic Compliance Matrix: (Units=1/GPa)
#
#
# Indices 1 2 3 4 5 6 
#
# 1 0.011180 -0.002242 -0.002837 0.000213 0.007236 -0.003069
# 2 -0.002242 0.028942 0.000585 -0.012342 -0.023642 -0.036755
# 3 -0.002837 0.000585 0.012989 -0.002595 -0.012097 -0.009127
# 4 0.000213 -0.012342 -0.002595 0.029830 0.011587 0.019670
# 5 0.007236 -0.023642 -0.012097 0.011587 0.090960 0.056535
# 6 -0.003069 -0.036755 -0.009127 0.019670 0.056535 0.090779
#
#
# Mechanical properties :
#
#
# Convention : Reuss Voigt Hill
#
# Bulk Modulus (GPa) = 22.66385 59.65664 41.16024
# Shear Modulus (GPa) = 17.33854 34.89885 26.11870
#
# Velocity S-wave (km/s) = 2.73369 3.87836 3.35520
# Velocity P-wave (km/s) = 4.44211 6.76521 5.72278
#
# Compressibility (1/GPa) = 0.04412313
#
# Stress axis : x y z
#
# Youngs Moduli (GPa) = 89.44802 34.55142 76.99068
#
# Poissons Ratio (x) = 0.07747 0.21842
# Poissons Ratio (y) = 0.20056 -0.04507
# Poissons Ratio (z) = 0.25376 -0.02023
#
# Static dielectric constant tensor:
#      x y z
#    x 1.898180 -0.032630 0.023520 
#    y -0.032630 1.940000 -0.055730 
#    z 0.023520 -0.055730 1.895200 
# 
# From -- ./inp_files/69206.got.cif
#   From: 2010.05.17/outbox.cif.g08.bks.cpg/sg2_35_cif.got.tgz:69206.got - 2010.06.03 11:33:40.
