data_PCOD9081926
_publ_section_title
;
Structure prediction by ZEFSAII (Michael W. Deem and Ramdas Pophale) SiO2 
 PCOD9081926
Probable space group: P -1
;
_chemical_formula_sum "Si O2"
_cell_formula_units_Z 16
_cell_length_a 12.218702
_cell_length_b 14.376684
_cell_length_c 16.295955
_cell_angle_alpha 38.128261
_cell_angle_beta 142.667509
_cell_angle_gamma 151.254020
_cell_volume 794.616679
_symmetry_space_group_name_H-M "P -1"
_symmetry_group_IT_number 2
_symmetry_cell_setting 'triclinic'
loop_
_space_group_symop_operation_xyz
x,y,z
-x,-y,-z
loop_
_atom_site_type_symbol
_atom_site_label
_atom_site_fract_x
_atom_site_fract_y
_atom_site_fract_z
Si Si1 0.183382 0.888132 0.870688
Si Si2 0.262394 0.386334 0.107765
Si Si3 0.788566 0.577299 0.269302
Si Si4 0.119802 0.658202 0.828882
Si Si5 0.974779 0.832772 0.049270
Si Si6 0.528073 0.060125 0.713174
Si Si7 0.696712 0.190105 0.540107
Si Si8 0.604223 0.249003 0.793047
O O1 0.182081 0.774182 0.871315
O O2 0.908493 0.771478 0.812009
O O3 0.358331 0.124170 0.786525
O O4 0.291393 0.850464 0.036775
O O5 0.548592 0.525694 0.192865
O O6 0.206669 0.533478 0.965914
O O7 0.167472 0.247867 0.065335
O O8 0.826988 0.635132 0.156556
O O9 0.749710 0.380506 0.399812
O O10 0.050163 0.760479 0.338021
O O11 0.827413 0.488480 0.766395
O O12 0.271726 0.831119 0.730073
O O13 0.249242 0.926049 0.138897
O O14 0.000000 0.000000 0.000000
O O15 0.593175 0.148857 0.599290
O O16 0.537906 0.191796 0.698185
O O17 0.500000 0.000000 0.500000
#
# Coordination Sequence:
#
# PCOD9081926 Si02
#       8
#     2   2   2   2   2   2   2   2
#     4   9  18  32  52  88 123 148 179 224 292 359
#     4  11  20  35  58  84 123 153 178 237 297 351
#     4  10  24  40  57  81 113 154 198 238 287 340
#     4  10  19  32  57  90 121 147 184 227 292 359
#     4  11  22  35  54  88 124 151 184 235 295 355
#     4  10  20  34  57  82 111 152 191 230 287 335
#     4  10  24  42  59  77 110 156 211 249 274 330
#     4   9  16  32  51  81 117 145 178 227 276 346
#
# _framework density 20.135494999999999
#
# number of rings (size 3 to 8) (size 9 to 14) (size 15 to 20)
#    0.000    2.000    2.500    2.625    5.250    1.000 
#    2.250    0.000    0.000    3.000    0.000    7.875 
#    0.000    0.000    0.000    0.000    0.000    0.000 
#
# Total GULP energy -89219.109176 kJ/mol
# GULP energy per Si atom -5576.194324 kJ/mol
# Density = 2.008967 g / cm^3
# Si number density = 20.135495 Si / 1000 Ang^3
#
#
#
# Elastic Constant Matrix: (Units=GPa)
#
#
# Indices 1 2 3 4 5 6 
#
# 1 80.1122 43.7034 25.7106 0.5757 -17.7838 15.2776
# 2 43.7034 143.2617 25.8231 -1.7987 -13.4672 26.4370
# 3 25.7106 25.8231 34.6204 -5.4842 -15.3705 -0.5887
# 4 0.5757 -1.7987 -5.4842 22.8205 4.4068 -6.5019
# 5 -17.7838 -13.4672 -15.3705 4.4068 19.6011 -2.6303
# 6 15.2776 26.4370 -0.5887 -6.5019 -2.6303 38.4683
#
#
#
# Elastic Compliance Matrix: (Units=1/GPa)
#
#
# Indices 1 2 3 4 5 6 
#
# 1 0.020731 -0.002195 -0.010853 -0.007252 0.009418 -0.007473
# 2 -0.002195 0.009949 -0.006575 -0.002479 -0.000630 -0.006529
# 3 -0.010853 -0.006575 0.057073 0.011656 0.029608 0.013697
# 4 -0.007252 -0.002479 0.011656 0.052054 -0.009110 0.012937
# 5 0.009418 -0.000630 0.029608 -0.009110 0.084582 0.001389
# 6 -0.007473 -0.006529 0.013697 0.012937 0.001389 0.035941
#
#
# Mechanical properties :
#
#
# Convention : Reuss Voigt Hill
#
# Bulk Modulus (GPa) = 20.61485 49.82983 35.22234
# Shear Modulus (GPa) = 15.83558 27.02845 21.43202
#
# Velocity S-wave (km/s) = 2.80742 3.66776 3.26604
# Velocity P-wave (km/s) = 4.55731 6.53740 5.63501
#
# Compressibility (1/GPa) = 0.04850873
#
# Stress axis : x y z
#
# Youngs Moduli (GPa) = 48.23777 100.51034 17.52133
#
# Poissons Ratio (x) = 0.22057 0.19016
# Poissons Ratio (y) = 0.10586 0.11520
# Poissons Ratio (z) = 0.52353 0.66081
#
# Static dielectric constant tensor:
#      x y z
#    x 1.729250 0.041130 0.002750 
#    y 0.041130 1.762410 0.008510 
#    z 0.002750 0.008510 1.715040 
# 
# From -- ./inp_files/503900.got.cif
#   From: 2010.05.17/outbox.cif.g08.bks.cpg/sg2_252_cif.got.tgz:503900.got - 2010.06.03 11:33:40.
