data_PCOD9081883
_publ_section_title
;
Structure prediction by ZEFSAII (Michael W. Deem and Ramdas Pophale) SiO2 
 PCOD9081883
Probable space group: P -1
;
_chemical_formula_sum "Si O2"
_cell_formula_units_Z 16
_cell_length_a 8.147789
_cell_length_b 14.942339
_cell_length_c 11.885769
_cell_angle_alpha 97.199821
_cell_angle_beta 61.964749
_cell_angle_gamma 144.620975
_cell_volume 638.442459
_symmetry_space_group_name_H-M "P -1"
_symmetry_group_IT_number 2
_symmetry_cell_setting 'triclinic'
loop_
_space_group_symop_operation_xyz
x,y,z
-x,-y,-z
loop_
_atom_site_type_symbol
_atom_site_label
_atom_site_fract_x
_atom_site_fract_y
_atom_site_fract_z
Si Si1 0.328041 0.067243 0.401277
Si Si2 0.393573 0.442771 0.764028
Si Si3 0.323285 0.276464 0.174219
Si Si4 0.438398 0.303383 0.897150
Si Si5 0.604943 0.909882 0.055874
Si Si6 0.967669 0.240035 0.646423
Si Si7 0.485685 0.896763 0.425518
Si Si8 0.710045 0.254948 0.086056
O O1 0.643147 0.200564 0.226344
O O2 0.091335 0.879026 0.415246
O O3 0.534288 0.171922 0.468968
O O4 0.000000 0.000000 0.500000
O O5 0.688265 0.644241 0.725762
O O6 0.505692 0.397979 0.785815
O O7 0.301345 0.393389 0.652757
O O8 0.047701 0.346082 0.928143
O O9 0.616210 0.323503 0.127790
O O10 0.904163 0.063150 0.268084
O O11 0.465548 0.364157 0.018321
O O12 0.593832 0.267004 0.865622
O O13 0.013089 0.097931 0.992076
O O14 0.367785 0.890946 0.177824
O O15 0.617774 0.912828 0.918104
O O16 0.824718 0.245523 0.591488
O O17 0.500000 0.000000 0.500000
#
# Coordination Sequence:
#
# PCOD9081883 Si02
#       8
#     2   2   2   2   2   2   2   2
#     4  11  21  37  64  92 114 155 211 254 285 351
#     4  11  23  37  61  94 126 158 193 249 317 363
#     4  11  21  39  58  88 127 164 194 243 311 369
#     4  10  19  32  56  91 122 154 194 242 306 358
#     4   9  18  34  60  88 124 150 192 262 307 337
#     4  10  21  39  59  90 120 154 197 255 301 348
#     4  10  22  39  61  84 116 162 207 247 291 343
#     4  10  21  36  60  91 125 153 201 249 306 356
#
# _framework density 25.06099
#
# number of rings (size 3 to 8) (size 9 to 14) (size 15 to 20)
#    0.000    1.750    2.500    2.250    1.750    3.000 
#    0.000    2.500    0.000    0.750    0.000    0.000 
#    0.000    0.000    0.000    0.000    0.000    0.000 
#
# Total GULP energy -89097.339900 kJ/mol
# GULP energy per Si atom -5568.583744 kJ/mol
# Density = 2.500395 g / cm^3
# Si number density = 25.060990 Si / 1000 Ang^3
#
#
#
# Elastic Constant Matrix: (Units=GPa)
#
#
# Indices 1 2 3 4 5 6 
#
# 1 96.4307 39.4081 36.8348 8.6429 29.4331 -0.5623
# 2 39.4081 95.3746 26.3111 28.6386 21.6940 15.3448
# 3 36.8348 26.3111 122.9787 15.9003 29.2840 8.8051
# 4 8.6429 28.6386 15.9003 30.8077 16.9924 -0.0946
# 5 29.4331 21.6940 29.2840 16.9924 56.8719 13.2156
# 6 -0.5623 15.3448 8.8051 -0.0946 13.2156 38.1981
#
#
#
# Elastic Compliance Matrix: (Units=1/GPa)
#
#
# Indices 1 2 3 4 5 6 
#
# 1 0.016483 -0.007887 -0.002917 0.008793 -0.008266 0.006965
# 2 -0.007887 0.019917 0.000214 -0.018777 0.004233 -0.009678
# 3 -0.002917 0.000214 0.010070 -0.003255 -0.002407 -0.001625
# 4 0.008793 -0.018777 -0.003255 0.058229 -0.016421 0.014248
# 5 -0.008266 0.004233 -0.002407 -0.016421 0.029030 -0.011352
# 6 0.006965 -0.009678 -0.001625 0.014248 -0.011352 0.034507
#
#
# Mechanical properties :
#
#
# Convention : Reuss Voigt Hill
#
# Bulk Modulus (GPa) = 39.54165 57.76576 48.65371
# Shear Modulus (GPa) = 25.27233 39.32421 32.29827
#
# Velocity S-wave (km/s) = 3.17903 3.96553 3.59386
# Velocity P-wave (km/s) = 5.41178 6.63833 6.05619
#
# Compressibility (1/GPa) = 0.02528979
#
# Stress axis : x y z
#
# Youngs Moduli (GPa) = 60.66938 50.20777 99.30716
#
# Poissons Ratio (x) = 0.39597 0.28967
# Poissons Ratio (y) = 0.47848 -0.02121
# Poissons Ratio (z) = 0.17697 -0.01072
#
# Static dielectric constant tensor:
#      x y z
#    x 2.545350 0.011280 0.217780 
#    y 0.011280 2.051370 -0.057430 
#    z 0.217780 -0.057430 2.074670 
# 
# From -- ./inp_files/397465.got.cif
#   From: 2010.05.17/outbox.cif.g08.bks.cpg/sg2_199_cif.got.tgz:397465.got - 2010.06.03 11:33:40.
