data_PCOD9081506
_publ_section_title
;
Structure prediction by ZEFSAII (Michael W. Deem and Ramdas Pophale) SiO2 
 PCOD9081506
Probable space group: P -1
;
_chemical_formula_sum "Si O2"
_cell_formula_units_Z 16
_cell_length_a 14.968639
_cell_length_b 8.987904
_cell_length_c 6.611318
_cell_angle_alpha 78.357091
_cell_angle_beta 132.199258
_cell_angle_gamma 92.787573
_cell_volume 640.721357
_symmetry_space_group_name_H-M "P -1"
_symmetry_group_IT_number 2
_symmetry_cell_setting 'triclinic'
loop_
_space_group_symop_operation_xyz
x,y,z
-x,-y,-z
loop_
_atom_site_type_symbol
_atom_site_label
_atom_site_fract_x
_atom_site_fract_y
_atom_site_fract_z
Si Si1 0.743936 0.126284 0.931259
Si Si2 0.075817 0.589851 0.377388
Si Si3 0.914036 0.887224 0.002957
Si Si4 0.490648 0.953327 0.260102
Si Si5 0.667284 0.532548 0.135554
Si Si6 0.441882 0.734473 0.728902
Si Si7 0.286007 0.292063 0.431812
Si Si8 0.139733 0.588988 0.996621
O O1 0.647614 0.081301 0.960076
O O2 0.661870 0.213239 0.604476
O O3 0.827254 0.253162 0.084415
O O4 0.823724 0.980770 0.997658
O O5 0.803881 0.470541 0.299945
O O6 0.115196 0.613609 0.195903
O O7 0.000210 0.749854 0.273894
O O8 0.983428 0.463922 0.261140
O O9 0.827251 0.807392 0.736612
O O10 0.000000 0.000000 0.000000
O O11 0.594012 0.813757 0.423649
O O12 0.500000 0.000000 0.500000
O O13 0.521413 0.109710 0.160604
O O14 0.608301 0.382640 0.160012
O O15 0.690812 0.642989 0.329965
O O16 0.559600 0.638105 0.830194
O O17 0.246020 0.445375 0.198897
#
# Coordination Sequence:
#
# PCOD9081506 Si02
#       8
#     2   2   2   2   2   2   2   2
#     4  11  19  35  53  81 106 138 174 215 271 304
#     4   9  17  30  47  78 105 129 168 218 267 303
#     4  11  18  28  53  78 108 132 172 223 266 304
#     4  10  21  35  50  75 111 139 174 215 259 315
#     4  10  20  34  55  77 110 139 173 215 259 316
#     4  10  19  36  53  74 109 144 171 214 259 315
#     4  10  19  32  50  82 104 136 173 214 270 301
#     4   9  17  30  50  77 105 128 172 221 261 306
#
# _framework density 24.971854
#
# number of rings (size 3 to 8) (size 9 to 14) (size 15 to 20)
#    0.000    2.000    6.250    0.750    0.000    1.000 
#    0.000    0.000    0.000    1.500    0.000    0.000 
#    0.000    0.000    0.000    0.000    0.000    0.000 
#
# Total GULP energy -89557.263112 kJ/mol
# GULP energy per Si atom -5597.328944 kJ/mol
# Density = 2.491502 g / cm^3
# Si number density = 24.971854 Si / 1000 Ang^3
#
#
#
# Elastic Constant Matrix: (Units=GPa)
#
#
# Indices 1 2 3 4 5 6 
#
# 1 122.8384 70.6946 42.8600 -8.7510 40.0731 4.7288
# 2 70.6946 184.4845 48.3621 -7.1091 27.7748 6.1076
# 3 42.8600 48.3621 116.7171 -27.0944 28.1432 -17.3007
# 4 -8.7510 -7.1091 -27.0944 43.1252 -9.1429 21.8085
# 5 40.0731 27.7748 28.1432 -9.1429 46.5788 -3.4980
# 6 4.7288 6.1076 -17.3007 21.8085 -3.4980 54.1334
#
#
#
# Elastic Compliance Matrix: (Units=1/GPa)
#
#
# Indices 1 2 3 4 5 6 
#
# 1 0.013654 -0.003376 -0.001731 0.000304 -0.008782 -0.002055
# 2 -0.003376 0.007302 -0.001892 -0.000218 -0.000430 -0.001073
# 3 -0.001731 -0.001892 0.012409 0.005379 -0.003679 0.001926
# 4 0.000304 -0.000218 0.005379 0.032803 0.002205 -0.011356
# 5 -0.008782 -0.000430 -0.003679 0.002205 0.031998 0.000819
# 6 -0.002055 -0.001073 0.001926 -0.011356 0.000819 0.024017
#
#
# Mechanical properties :
#
#
# Convention : Reuss Voigt Hill
#
# Bulk Modulus (GPa) = 51.63941 83.09705 67.36823
# Shear Modulus (GPa) = 35.05401 46.24236 40.64819
#
# Velocity S-wave (km/s) = 3.75072 4.30790 4.03893
# Velocity P-wave (km/s) = 6.28340 7.62184 6.98476
#
# Compressibility (1/GPa) = 0.01936505
#
# Stress axis : x y z
#
# Youngs Moduli (GPa) = 73.24071 136.94637 80.58853
#
# Poissons Ratio (x) = 0.46237 0.13953
# Poissons Ratio (y) = 0.24728 0.15247
# Poissons Ratio (z) = 0.12681 0.25910
#
# Static dielectric constant tensor:
#      x y z
#    x 2.084410 -0.007430 -0.067230 
#    y -0.007430 1.958440 0.036720 
#    z -0.067230 0.036720 1.997240 
# 
# From -- ./inp_files/238702.got.cif
#   From: 2010.05.17/outbox.cif.g08.bks.cpg/sg2_120_cif.got.tgz:238702.got - 2010.06.03 11:33:40.
