data_PCOD9081409
_publ_section_title
;
Structure prediction by ZEFSAII (Michael W. Deem and Ramdas Pophale) SiO2 
 PCOD9081409
Probable space group: P -1
;
_chemical_formula_sum "Si O2"
_cell_formula_units_Z 16
_cell_length_a 13.972685
_cell_length_b 13.094297
_cell_length_c 10.414682
_cell_angle_alpha 73.290592
_cell_angle_beta 139.946279
_cell_angle_gamma 137.877527
_cell_volume 625.526590
_symmetry_space_group_name_H-M "P -1"
_symmetry_group_IT_number 2
_symmetry_cell_setting 'triclinic'
loop_
_space_group_symop_operation_xyz
x,y,z
-x,-y,-z
loop_
_atom_site_type_symbol
_atom_site_label
_atom_site_fract_x
_atom_site_fract_y
_atom_site_fract_z
Si Si1 0.984394 0.796740 0.482340
Si Si2 0.078191 0.107390 0.880154
Si Si3 0.583361 0.901992 0.569960
Si Si4 0.809514 0.489593 0.292551
Si Si5 0.026492 0.494047 0.880463
Si Si6 0.110459 0.335012 0.944551
Si Si7 0.757330 0.965653 0.100506
Si Si8 0.562758 0.086468 0.861039
O O1 0.296759 0.940373 0.730676
O O2 0.994058 0.867003 0.600654
O O3 0.943834 0.851341 0.300003
O O4 0.796955 0.576340 0.355444
O O5 0.240631 0.299429 0.057289
O O6 0.173115 0.048412 0.958318
O O7 0.783044 0.925530 0.719761
O O8 0.298217 0.710047 0.422607
O O9 0.508207 0.906666 0.352442
O O10 0.812009 0.124203 0.776655
O O11 0.929650 0.629783 0.245818
O O12 0.499314 0.260163 0.027630
O O13 0.000000 0.500000 0.500000
O O14 0.213775 0.499823 0.067055
O O15 0.000000 0.500000 0.000000
O O16 0.186972 0.688289 0.910335
O O17 0.646151 0.016776 0.948872
#
# Coordination Sequence:
#
# PCOD9081409 Si02
#       8
#     2   2   2   2   2   2   2   2
#     4  10  20  36  52  83 114 148 187 225 267 328
#     4   8  20  36  54  78 114 151 178 227 272 334
#     4   8  17  37  53  75 106 134 186 232 272 314
#     4  11  21  34  55  84 116 146 178 226 276 325
#     4  10  19  31  58  85  98 140 187 237 278 318
#     4   9  18  34  54  77 108 138 184 222 274 324
#     4  12  21  34  57  80 120 149 182 222 278 330
#     4  10  19  33  51  84 108 137 187 229 270 324
#
# _framework density 25.578448999999999
#
# number of rings (size 3 to 8) (size 9 to 14) (size 15 to 20)
#    0.750    1.500    2.500    1.875    1.750    2.000 
#    0.000    4.375    0.000    3.000    0.000    0.000 
#    0.000    0.000    0.000    0.000    0.000    0.000 
#
# Total GULP energy -89230.673413 kJ/mol
# GULP energy per Si atom -5576.917088 kJ/mol
# Density = 2.552023 g / cm^3
# Si number density = 25.578449 Si / 1000 Ang^3
#
#
#
# Elastic Constant Matrix: (Units=GPa)
#
#
# Indices 1 2 3 4 5 6 
#
# 1 131.2164 42.7913 5.8951 6.6689 3.4349 -40.4586
# 2 42.7913 156.8521 30.7889 19.3288 9.9657 -28.4103
# 3 5.8951 30.7889 29.5861 11.9257 0.3093 -7.0537
# 4 6.6689 19.3288 11.9257 40.7962 -3.7085 -3.4223
# 5 3.4349 9.9657 0.3093 -3.7085 34.3164 -1.5353
# 6 -40.4586 -28.4103 -7.0537 -3.4223 -1.5353 50.5463
#
#
#
# Elastic Compliance Matrix: (Units=1/GPa)
#
#
# Indices 1 2 3 4 5 6 
#
# 1 0.010504 -0.001726 0.001861 -0.000832 -0.000315 0.007631
# 2 -0.001726 0.009237 -0.007920 -0.001798 -0.002520 0.002506
# 3 0.001861 -0.007920 0.046283 -0.009772 0.000768 0.002859
# 4 -0.000832 -0.001798 -0.009772 0.028614 0.003741 -0.000989
# 5 -0.000315 -0.002520 0.000768 0.003741 0.030284 -0.000389
# 6 0.007631 0.002506 0.002859 -0.000989 -0.000389 0.027621
#
#
# Mechanical properties :
#
#
# Convention : Reuss Voigt Hill
#
# Bulk Modulus (GPa) = 19.81986 52.95613 36.38799
# Shear Modulus (GPa) = 27.03748 41.01041 34.02394
#
# Velocity S-wave (km/s) = 3.25474 4.00849 3.65112
# Velocity P-wave (km/s) = 4.67867 6.49402 5.65961
#
# Compressibility (1/GPa) = 0.05045444
#
# Stress axis : x y z
#
# Youngs Moduli (GPa) = 95.20385 108.26533 21.60632
#
# Poissons Ratio (x) = 0.18689 -0.04022
# Poissons Ratio (y) = 0.16434 0.17111
# Poissons Ratio (z) = -0.17721 0.85741
#
# Static dielectric constant tensor:
#      x y z
#    x 2.132800 -0.078120 -0.048460 
#    y -0.078120 2.043830 -0.010070 
#    z -0.048460 -0.010070 2.188610 
# 
# From -- ./inp_files/530596.got.cif
#   From: 2010.05.17/outbox.cif.g08.bks.cpg/sg2_266_cif.got.tgz:530596.got - 2010.06.03 11:33:40.
