data_PCOD9081294
_publ_section_title
;
Structure prediction by ZEFSAII (Michael W. Deem and Ramdas Pophale) SiO2 
 PCOD9081294
Probable space group: P -1
;
_chemical_formula_sum "Si O2"
_cell_formula_units_Z 12
_cell_length_a 13.028208
_cell_length_b 10.476284
_cell_length_c 13.531122
_cell_angle_alpha 79.916388
_cell_angle_beta 158.370105
_cell_angle_gamma 89.426628
_cell_volume 589.425690
_symmetry_space_group_name_H-M "P -1"
_symmetry_group_IT_number 2
_symmetry_cell_setting 'triclinic'
loop_
_space_group_symop_operation_xyz
x,y,z
-x,-y,-z
loop_
_atom_site_type_symbol
_atom_site_label
_atom_site_fract_x
_atom_site_fract_y
_atom_site_fract_z
Si Si1 0.818366 0.906556 0.857142
Si Si2 0.297035 0.419611 0.508540
Si Si3 0.965352 0.373835 0.045899
Si Si4 0.640196 0.300122 0.255181
Si Si5 0.879471 0.755710 0.134543
Si Si6 0.056232 0.590596 0.627190
O O1 0.986540 0.752702 0.970312
O O2 0.500000 0.000000 0.500000
O O3 0.789046 0.870326 0.949676
O O4 0.000000 0.000000 0.000000
O O5 0.225849 0.332393 0.370492
O O6 0.028967 0.591893 0.242395
O O7 0.233443 0.362392 0.563376
O O8 0.627847 0.418846 0.788431
O O9 0.000000 0.500000 0.000000
O O10 0.870923 0.287009 0.373200
O O11 0.846734 0.257436 0.544957
O O12 0.424591 0.220578 0.076888
O O13 0.374793 0.473283 0.985363
O O14 0.000000 0.500000 0.500000
#
# Coordination Sequence:
#
# PCOD9081294 Si02
#       6
#     2   2   2   2   2   2
#     4  12  27  44  64  89 124 169 218 256 301 375
#     4  11  22  35  60  93 130 159 198 255 320 366
#     4  12  25  40  63  91 126 164 207 257 319 364
#     4  10  19  31  53  88 126 159 196 248 312 363
#     4  11  21  36  60  88 124 159 208 250 307 361
#     4  10  19  31  54  90 135 157 193 249 319 370
#
# _framework density 20.358802000000001
#
# number of rings (size 3 to 8) (size 9 to 14) (size 15 to 20)
#    0.000    1.000    5.000    4.500    4.667    0.000 
#    0.000    0.000    0.000    0.000    0.000   23.333 
#    0.000    0.000    0.000    0.000    0.000    0.000 
#
# Total GULP energy -66963.180268 kJ/mol
# GULP energy per Si atom -5580.265022 kJ/mol
# Density = 2.031246 g / cm^3
# Si number density = 20.358802 Si / 1000 Ang^3
#
#
#
# Elastic Constant Matrix: (Units=GPa)
#
#
# Indices 1 2 3 4 5 6 
#
# 1 128.8763 30.8827 50.5951 4.3681 6.3508 32.4902
# 2 30.8827 82.0705 26.3661 18.3067 9.6904 18.8485
# 3 50.5951 26.3661 108.2527 30.3114 -10.2332 21.6397
# 4 4.3681 18.3067 30.3114 34.3273 7.0274 -2.5171
# 5 6.3508 9.6904 -10.2332 7.0274 39.1425 10.3542
# 6 32.4902 18.8485 21.6397 -2.5171 10.3542 37.7580
#
#
#
# Elastic Compliance Matrix: (Units=1/GPa)
#
#
# Indices 1 2 3 4 5 6 
#
# 1 0.011603 -0.002290 -0.005433 0.004664 -0.002308 -0.004783
# 2 -0.002290 0.016758 0.001896 -0.011139 0.000964 -0.008488
# 3 -0.005433 0.001896 0.022361 -0.024100 0.014463 -0.014659
# 4 0.004664 -0.011139 -0.024100 0.062189 -0.022237 0.025603
# 5 -0.002308 0.000964 0.014463 -0.022237 0.038432 -0.018805
# 6 -0.004783 -0.008488 -0.014659 0.025603 -0.018805 0.050103
#
#
# Mechanical properties :
#
#
# Convention : Reuss Voigt Hill
#
# Bulk Modulus (GPa) = 25.59749 59.43193 42.51471
# Shear Modulus (GPa) = 22.11206 36.33594 29.22400
#
# Velocity S-wave (km/s) = 3.29921 4.22925 3.79284
# Velocity P-wave (km/s) = 5.20706 7.28727 6.33316
#
# Compressibility (1/GPa) = 0.03906633
#
# Stress axis : x y z
#
# Youngs Moduli (GPa) = 86.18800 59.67445 44.72058
#
# Poissons Ratio (x) = 0.13665 0.24297
# Poissons Ratio (y) = 0.19736 -0.08477
# Poissons Ratio (z) = 0.46827 -0.11311
#
# Static dielectric constant tensor:
#      x y z
#    x 1.791460 0.000370 0.018420 
#    y 0.000370 1.720120 -0.010050 
#    z 0.018420 -0.010050 1.770200 
# 
# From -- ./inp_files/528536.got.cif
#   From: 2010.05.17/outbox.cif.g08.bks.cpg/sg2_265_cif.got.tgz:528536.got - 2010.06.03 11:33:40.
