data_PCOD9081411
_publ_section_title
;
Structure prediction by ZEFSAII (Michael W. Deem and Ramdas Pophale) SiO2 
 PCOD9081411
Probable space group: P -1
;
_chemical_formula_sum "Si O2"
_cell_formula_units_Z 14
_cell_length_a 12.894985
_cell_length_b 10.296383
_cell_length_c 10.625576
_cell_angle_alpha 57.107795
_cell_angle_beta 135.602919
_cell_angle_gamma 144.534496
_cell_volume 570.046573
_symmetry_space_group_name_H-M "P -1"
_symmetry_group_IT_number 2
_symmetry_cell_setting 'triclinic'
loop_
_space_group_symop_operation_xyz
x,y,z
-x,-y,-z
loop_
_atom_site_type_symbol
_atom_site_label
_atom_site_fract_x
_atom_site_fract_y
_atom_site_fract_z
Si Si1 0.073489 0.762423 0.023780
Si Si2 0.280194 0.737344 0.419634
Si Si3 0.252784 0.203046 0.897812
Si Si4 0.171135 0.372671 0.358772
Si Si5 0.531269 0.023475 0.161400
Si Si6 0.717696 0.437239 0.239986
Si Si7 0.738822 0.887246 0.344428
O O1 0.096064 0.699695 0.211035
O O2 0.306817 0.890855 0.102667
O O3 0.897725 0.601693 0.847449
O O4 0.078176 0.950731 0.930363
O O5 0.304016 0.600834 0.428723
O O6 0.210887 0.612521 0.556225
O O7 0.500000 0.000000 0.500000
O O8 0.167722 0.310800 0.792586
O O9 0.300558 0.202729 0.789077
O O10 0.471301 0.321002 0.099262
O O11 0.268162 0.274836 0.495072
O O12 0.952226 0.155039 0.360553
O O13 0.606853 0.906804 0.305077
O O14 0.687955 0.284842 0.188930
O O15 0.500000 0.000000 0.000000
#
# Coordination Sequence:
#
# PCOD9081411 Si02
#       7
#     2   2   2   2   2   2   2
#     4  10  21  37  63  87 118 151 199 244 292 346
#     4  12  21  37  58  89 118 158 203 235 285 362
#     4   9  16  32  55  85 108 148 194 236 279 337
#     4  10  21  36  61  86 117 158 195 243 288 350
#     4  11  18  35  59  90 120 149 194 249 294 347
#     4  10  19  31  58  86 116 147 197 241 284 336
#     4  10  19  36  62  87 117 147 203 243 290 347
#
# _framework density 24.559398000000002
#
# number of rings (size 3 to 8) (size 9 to 14) (size 15 to 20)
#    0.000    1.714    8.571    0.429    0.000    0.000 
#    0.000    1.429    0.000    0.857    0.000    0.000 
#    0.000    0.000    0.000    0.000    0.000    0.000 
#
# Total GULP energy -77975.987768 kJ/mol
# GULP energy per Si atom -5569.713412 kJ/mol
# Density = 2.450350 g / cm^3
# Si number density = 24.559398 Si / 1000 Ang^3
#
#
#
# Elastic Constant Matrix: (Units=GPa)
#
#
# Indices 1 2 3 4 5 6 
#
# 1 56.3793 58.2569 31.8583 -9.4691 -0.5261 -23.3421
# 2 58.2569 193.7114 81.0051 -23.2416 6.0072 -44.1409
# 3 31.8583 81.0051 148.1143 -24.8773 -17.5362 -18.9408
# 4 -9.4691 -23.2416 -24.8773 41.3009 -9.1397 8.5416
# 5 -0.5261 6.0072 -17.5362 -9.1397 24.3668 -4.6893
# 6 -23.3421 -44.1409 -18.9408 8.5416 -4.6893 39.4512
#
#
#
# Elastic Compliance Matrix: (Units=1/GPa)
#
#
# Indices 1 2 3 4 5 6 
#
# 1 0.028879 -0.005908 -0.000976 0.001468 0.003882 0.010151
# 2 -0.005908 0.009943 -0.004117 -0.000343 -0.004675 0.005171
# 3 -0.000976 -0.004117 0.011979 0.007336 0.012454 0.000459
# 4 0.001468 -0.000343 0.007336 0.032865 0.017526 -0.001026
# 5 0.003882 -0.004675 0.012454 0.017526 0.059019 0.006266
# 6 0.010151 0.005171 0.000459 -0.001026 0.006266 0.038327
#
#
# Mechanical properties :
#
#
# Convention : Reuss Voigt Hill
#
# Bulk Modulus (GPa) = 34.72448 82.27175 58.49812
# Shear Modulus (GPa) = 23.51688 36.16275 29.83982
#
# Velocity S-wave (km/s) = 3.09779 3.84143 3.48948
# Velocity P-wave (km/s) = 5.19276 7.29707 6.33293
#
# Compressibility (1/GPa) = 0.02879812
#
# Stress axis : x y z
#
# Youngs Moduli (GPa) = 34.62728 100.57460 83.48264
#
# Poissons Ratio (x) = 0.59418 0.08150
# Poissons Ratio (y) = 0.20457 0.34370
# Poissons Ratio (z) = 0.03381 0.41406
#
# Static dielectric constant tensor:
#      x y z
#    x 2.496280 -0.108990 -0.062710 
#    y -0.108990 2.035890 0.068150 
#    z -0.062710 0.068150 2.077510 
# 
# From -- ./inp_files/444257.got.cif
#   From: 2010.05.17/outbox.cif.g08.bks.cpg/sg2_223_cif.got.tgz:444257.got - 2010.06.03 11:33:40.
