data_PCOD9081776
_publ_section_title
;
Structure prediction by ZEFSAII (Michael W. Deem and Ramdas Pophale) SiO2 
 PCOD9081776
Probable space group: P -1
;
_chemical_formula_sum "Si O2"
_cell_formula_units_Z 14
_cell_length_a 7.899645
_cell_length_b 13.959129
_cell_length_c 9.519435
_cell_angle_alpha 48.612033
_cell_angle_beta 132.234716
_cell_angle_gamma 122.960402
_cell_volume 573.646794
_symmetry_space_group_name_H-M "P -1"
_symmetry_group_IT_number 2
_symmetry_cell_setting 'triclinic'
loop_
_space_group_symop_operation_xyz
x,y,z
-x,-y,-z
loop_
_atom_site_type_symbol
_atom_site_label
_atom_site_fract_x
_atom_site_fract_y
_atom_site_fract_z
Si Si1 0.218629 0.365742 0.595440
Si Si2 0.407673 0.764228 0.983181
Si Si3 0.040418 0.800229 0.153794
Si Si4 0.685982 0.966834 0.747452
Si Si5 0.577937 0.350820 0.478132
Si Si6 0.245642 0.593270 0.796736
Si Si7 0.918346 0.628128 0.898036
O O1 0.332468 0.515253 0.521697
O O2 0.109880 0.318983 0.731150
O O3 0.993595 0.349977 0.388949
O O4 0.417461 0.282395 0.763789
O O5 0.531169 0.900454 0.856486
O O6 0.396043 0.666154 0.936514
O O7 0.145197 0.738975 0.916640
O O8 0.274109 0.753187 0.281161
O O9 0.141714 0.906020 0.227230
O O10 0.860588 0.867951 0.897607
O O11 0.500000 0.000000 0.500000
O O12 0.650295 0.375788 0.329049
O O13 0.300247 0.327764 0.340670
O O14 0.177894 0.440137 0.942356
O O15 0.000000 0.500000 0.000000
#
# Coordination Sequence:
#
# PCOD9081776 Si02
#       7
#     2   2   2   2   2   2   2
#     4  10  19  33  56  84 114 137 176 227 274 323
#     4  10  21  37  54  81 115 143 181 225 275 323
#     4   9  20  33  54  84 104 137 181 233 267 309
#     4  10  19  37  59  77 104 141 190 230 270 311
#     4  11  19  36  56  85 118 140 178 227 268 326
#     4  10  19  32  55  81 111 145 182 214 269 328
#     4  10  20  35  52  80 119 151 171 217 274 333
#
# _framework density 24.405263000000001
#
# number of rings (size 3 to 8) (size 9 to 14) (size 15 to 20)
#    0.000    2.000    2.857    3.857    0.000    0.571 
#    2.571    0.714    0.000    0.857    0.000    0.000 
#    0.000    0.000    0.000    0.000    0.000    0.000 
#
# Total GULP energy -78225.396382 kJ/mol
# GULP energy per Si atom -5587.528313 kJ/mol
# Density = 2.434972 g / cm^3
# Si number density = 24.405263 Si / 1000 Ang^3
#
#
#
# Elastic Constant Matrix: (Units=GPa)
#
#
# Indices 1 2 3 4 5 6 
#
# 1 107.4298 16.3451 47.4424 11.7810 27.8039 8.7394
# 2 16.3451 49.2822 27.4094 9.8339 4.8602 20.8674
# 3 47.4424 27.4094 219.7062 22.1297 50.8401 11.2458
# 4 11.7810 9.8339 22.1297 39.2541 9.5736 12.8382
# 5 27.8039 4.8602 50.8401 9.5736 52.2975 14.7256
# 6 8.7394 20.8674 11.2458 12.8382 14.7256 24.4221
#
#
#
# Elastic Compliance Matrix: (Units=1/GPa)
#
#
# Indices 1 2 3 4 5 6 
#
# 1 0.011703 -0.004610 -0.000541 -0.002126 -0.006255 0.004890
# 2 -0.004610 0.040389 -0.005921 0.004517 0.015394 -0.041791
# 3 -0.000541 -0.005921 0.007118 -0.003196 -0.007861 0.008395
# 4 -0.002126 0.004517 -0.003196 0.032774 0.003766 -0.021127
# 5 -0.006255 0.015394 -0.007861 0.003766 0.036834 -0.031485
# 6 0.004890 -0.041791 0.008395 -0.021127 -0.031485 0.101129
#
#
# Mechanical properties :
#
#
# Convention : Reuss Voigt Hill
#
# Bulk Modulus (GPa) = 26.97840 62.09021 44.53430
# Shear Modulus (GPa) = 18.90735 42.20947 30.55841
#
# Velocity S-wave (km/s) = 2.78641 4.16327 3.54238
# Velocity P-wave (km/s) = 4.62930 6.97187 5.91766
#
# Compressibility (1/GPa) = 0.03706669
#
# Stress axis : x y z
#
# Youngs Moduli (GPa) = 85.44900 24.75897 140.48519
#
# Poissons Ratio (x) = 0.11414 0.07594
# Poissons Ratio (y) = 0.39392 0.83187
# Poissons Ratio (z) = 0.04619 0.14661
#
# Static dielectric constant tensor:
#      x y z
#    x 2.095220 -0.002250 -0.024060 
#    y -0.002250 1.926830 0.005440 
#    z -0.024060 0.005440 1.963690 
# 
# From -- ./inp_files/267731.got.cif
#   From: 2010.05.17/outbox.cif.g08.bks.cpg/sg2_134_cif.got.tgz:267731.got - 2010.06.03 11:33:40.
