data_PCOD9081125
_publ_section_title
;
Structure prediction by ZEFSAII (Michael W. Deem and Ramdas Pophale) SiO2 
 PCOD9081125
Probable space group: P -1
;
_chemical_formula_sum "Si O2"
_cell_formula_units_Z 16
_cell_length_a 13.881578
_cell_length_b 17.036904
_cell_length_c 16.141217
_cell_angle_alpha 51.798219
_cell_angle_beta 27.179966
_cell_angle_gamma 72.777229
_cell_volume 968.054051
_symmetry_space_group_name_H-M "P -1"
_symmetry_group_IT_number 2
_symmetry_cell_setting 'triclinic'
loop_
_space_group_symop_operation_xyz
x,y,z
-x,-y,-z
loop_
_atom_site_type_symbol
_atom_site_label
_atom_site_fract_x
_atom_site_fract_y
_atom_site_fract_z
Si Si1 0.427785 0.890009 0.877861
Si Si2 0.882251 0.146133 0.709538
Si Si3 0.812013 0.683802 0.398497
Si Si4 0.100820 0.108181 0.423413
Si Si5 0.414340 0.580733 0.190629
Si Si6 0.464527 0.281958 0.278397
Si Si7 0.365022 0.892644 0.747736
Si Si8 0.888305 0.554079 0.662852
O O1 0.387678 0.935741 0.964513
O O2 0.087699 0.743184 0.210882
O O3 0.643276 0.869144 0.738952
O O4 0.501863 0.970183 0.682596
O O5 0.853284 0.066842 0.703028
O O6 0.163906 0.194059 0.512067
O O7 0.984586 0.293695 0.513292
O O8 0.610688 0.518540 0.661222
O O9 0.630152 0.710439 0.563774
O O10 0.005879 0.780972 0.107839
O O11 0.268874 0.259750 0.158388
O O12 0.000000 0.000000 0.500000
O O13 0.333941 0.517195 0.200165
O O14 0.167772 0.579857 0.405058
O O15 0.567689 0.202426 0.251133
O O16 0.711474 0.436876 0.946896
O O17 0.500000 0.000000 0.500000
#
# Coordination Sequence:
#
# PCOD9081125 Si02
#       8
#     2   2   2   2   2   2   2   2
#     4   9  18  34  45  70  97 123 164 200 235 287
#     4  11  18  31  50  70 100 133 162 197 238 292
#     4   9  18  30  49  70  96 125 157 206 242 285
#     4  12  23  32  46  68 104 143 165 191 232 291
#     4  11  16  29  46  70 100 125 165 195 239 291
#     4  11  17  27  46  73  96 125 160 187 241 299
#     4  10  19  31  48  73 103 126 152 206 261 293
#     4  11  16  26  52  72  94 130 154 202 247 283
#
# _framework density 16.528003999999999
#
# number of rings (size 3 to 8) (size 9 to 14) (size 15 to 20)
#    0.750    0.750    7.500    1.875    0.000    1.000 
#    0.000    0.000    0.000    0.000    0.000    0.875 
#    0.000    3.250    0.000    0.000    0.000    0.000 
#
# Total GULP energy -89067.423819 kJ/mol
# GULP energy per Si atom -5566.713989 kJ/mol
# Density = 1.649039 g / cm^3
# Si number density = 16.528004 Si / 1000 Ang^3
#
#
#
# Elastic Constant Matrix: (Units=GPa)
#
#
# Indices 1 2 3 4 5 6 
#
# 1 48.2093 34.0410 36.1512 -1.0175 34.4796 5.2522
# 2 34.0410 107.5145 27.4679 17.9270 21.8256 20.1438
# 3 36.1512 27.4679 51.2580 10.5197 35.9876 6.1100
# 4 -1.0175 17.9270 10.5197 29.3525 3.8861 0.6015
# 5 34.4796 21.8256 35.9876 3.8861 34.2733 2.5109
# 6 5.2522 20.1438 6.1100 0.6015 2.5109 15.9302
#
#
#
# Elastic Compliance Matrix: (Units=1/GPa)
#
#
# Indices 1 2 3 4 5 6 
#
# 1 0.099501 -0.018243 -0.008526 0.028545 -0.083175 0.005565
# 2 -0.018243 0.019172 0.005573 -0.014374 0.003414 -0.020361
# 3 -0.008526 0.005573 0.090236 -0.024260 -0.085175 -0.024504
# 4 0.028545 -0.014374 -0.024260 0.052359 -0.001220 0.016284
# 5 -0.083175 0.003414 -0.085175 -0.001220 0.198454 0.024540
# 6 0.005565 -0.020361 -0.024504 0.016284 0.024540 0.091601
#
#
# Mechanical properties :
#
#
# Convention : Reuss Voigt Hill
#
# Bulk Modulus (GPa) = 6.00542 44.70020 25.35281
# Shear Modulus (GPa) = 7.70155 23.19933 15.45044
#
# Velocity S-wave (km/s) = 2.16097 3.75058 3.06077
# Velocity P-wave (km/s) = 3.14130 6.77197 5.27861
#
# Compressibility (1/GPa) = 0.16651618
#
# Stress axis : x y z
#
# Youngs Moduli (GPa) = 10.05015 52.15992 11.08205
#
# Poissons Ratio (x) = 0.95157 0.09448
# Poissons Ratio (y) = 0.18335 -0.06176
# Poissons Ratio (z) = 0.08568 -0.29067
#
# Static dielectric constant tensor:
#      x y z
#    x 1.577840 0.039880 0.019040 
#    y 0.039880 1.593960 0.024430 
#    z 0.019040 0.024430 1.598160 
# 
# From -- ./inp_files/522325.got.cif
#   From: 2010.05.17/outbox.cif.g08.bks.cpg/sg2_262_cif.got.tgz:522325.got - 2010.06.03 11:33:40.
