data_PCOD9081519
_publ_section_title
;
Structure prediction by ZEFSAII (Michael W. Deem and Ramdas Pophale) SiO2 
 PCOD9081519
Probable space group: P -1
;
_chemical_formula_sum "Si O2"
_cell_formula_units_Z 12
_cell_length_a 11.966347
_cell_length_b 9.060090
_cell_length_c 6.846403
_cell_angle_alpha 107.868338
_cell_angle_beta 126.774332
_cell_angle_gamma 55.730491
_cell_volume 490.821575
_symmetry_space_group_name_H-M "P -1"
_symmetry_group_IT_number 2
_symmetry_cell_setting 'triclinic'
loop_
_space_group_symop_operation_xyz
x,y,z
-x,-y,-z
loop_
_atom_site_type_symbol
_atom_site_label
_atom_site_fract_x
_atom_site_fract_y
_atom_site_fract_z
Si Si1 0.090324 0.489171 0.892580
Si Si2 0.002379 0.042283 0.251983
Si Si3 0.503422 0.755574 0.155288
Si Si4 0.214143 0.176008 0.409794
Si Si5 0.796797 0.897026 0.094351
Si Si6 0.695656 0.388439 0.970922
O O1 0.943834 0.627091 0.661362
O O2 0.182408 0.279902 0.852967
O O3 0.213143 0.564427 0.080755
O O4 0.000000 0.500000 0.000000
O O5 0.164973 0.052535 0.436777
O O6 0.844783 0.237620 0.190342
O O7 0.958853 0.912295 0.274397
O O8 0.000000 0.000000 0.000000
O O9 0.626592 0.817508 0.377052
O O10 0.417453 0.698352 0.211802
O O11 0.362341 0.917116 0.952368
O O12 0.598139 0.574512 0.057228
O O13 0.224646 0.123397 0.170515
#
# Coordination Sequence:
#
# PCOD9081519 Si02
#       6
#     2   2   2   2   2   2
#     4   9  18  33  50  70  97 130 162 197 244 288
#     4   8  15  29  49  68  91 126 164 196 229 280
#     4  10  19  32  51  74  99 128 163 200 238 288
#     4   9  17  31  52  74  94 126 170 203 229 279
#     4   9  17  31  49  72 100 128 158 196 246 290
#     4   9  19  33  50  70 100 133 158 195 250 291
#
# _framework density 24.448801
#
# number of rings (size 3 to 8) (size 9 to 14) (size 15 to 20)
#    0.000    3.000    0.000    1.500    0.000    3.333 
#    0.000    5.000    0.000   10.000    0.000    0.000 
#    0.000    0.000    0.000    0.000    0.000    0.000 
#
# Total GULP energy -66965.249692 kJ/mol
# GULP energy per Si atom -5580.437474 kJ/mol
# Density = 2.439315 g / cm^3
# Si number density = 24.448801 Si / 1000 Ang^3
#
#
#
# Elastic Constant Matrix: (Units=GPa)
#
#
# Indices 1 2 3 4 5 6 
#
# 1 148.3666 29.0128 51.2766 4.4933 50.9625 38.9866
# 2 29.0128 138.9965 28.1647 -7.9329 14.0122 -4.3473
# 3 51.2766 28.1647 104.9324 13.7539 46.1745 16.2860
# 4 4.4933 -7.9329 13.7539 23.4794 10.6810 9.7353
# 5 50.9625 14.0122 46.1745 10.6810 52.4976 21.6678
# 6 38.9866 -4.3473 16.2860 9.7353 21.6678 59.4365
#
#
#
# Elastic Compliance Matrix: (Units=1/GPa)
#
#
# Indices 1 2 3 4 5 6 
#
# 1 0.011503 -0.001192 -0.001343 0.004051 -0.008498 -0.004830
# 2 -0.001192 0.008198 -0.002095 0.003863 -0.000613 0.001546
# 3 -0.001343 -0.002095 0.016617 -0.005210 -0.012319 0.001519
# 4 0.004051 0.003863 -0.005210 0.052700 -0.008416 -0.006511
# 5 -0.008498 -0.000613 -0.012319 -0.008416 0.042099 -0.005064
# 6 -0.004830 0.001546 0.001519 -0.006511 -0.005064 0.022602
#
#
# Mechanical properties :
#
#
# Convention : Reuss Voigt Hill
#
# Bulk Modulus (GPa) = 36.95760 67.68930 52.32345
# Shear Modulus (GPa) = 29.07012 46.00547 37.53779
#
# Velocity S-wave (km/s) = 3.45196 4.34257 3.92262
# Velocity P-wave (km/s) = 5.57110 7.27256 6.47794
#
# Compressibility (1/GPa) = 0.02705803
#
# Stress axis : x y z
#
# Youngs Moduli (GPa) = 86.93672 121.97720 60.18093
#
# Poissons Ratio (x) = 0.14540 0.08083
# Poissons Ratio (y) = 0.10363 0.12605
# Poissons Ratio (z) = 0.11676 0.25549
#
# Static dielectric constant tensor:
#      x y z
#    x 2.032910 -0.025220 -0.054250 
#    y -0.025220 1.998490 0.071910 
#    z -0.054250 0.071910 2.009260 
# 
# From -- ./inp_files/144577.got.cif
#   From: 2010.05.17/outbox.cif.g08.bks.cpg/sg2_73_cif.got.tgz:144577.got - 2010.06.03 11:33:40.
