data_PCOD9081113
_publ_section_title
;
Structure prediction by ZEFSAII (Michael W. Deem and Ramdas Pophale) SiO2 
 PCOD9081113
Probable space group: P -1
;
_chemical_formula_sum "Si O2"
_cell_formula_units_Z 16
_cell_length_a 7.529141
_cell_length_b 14.711775
_cell_length_c 8.922925
_cell_angle_alpha 136.383679
_cell_angle_beta 114.954927
_cell_angle_gamma 59.217677
_cell_volume 583.540398
_symmetry_space_group_name_H-M "P -1"
_symmetry_group_IT_number 2
_symmetry_cell_setting 'triclinic'
loop_
_space_group_symop_operation_xyz
x,y,z
-x,-y,-z
loop_
_atom_site_type_symbol
_atom_site_label
_atom_site_fract_x
_atom_site_fract_y
_atom_site_fract_z
Si Si1 0.174278 0.215499 0.687133
Si Si2 0.144721 0.714403 0.785201
Si Si3 0.937572 0.453325 0.714444
Si Si4 0.079364 0.978774 0.214619
Si Si5 0.711676 0.714401 0.785199
Si Si6 0.629777 0.546673 0.285554
Si Si7 0.322297 0.021227 0.785383
Si Si8 0.581858 0.215499 0.687132
O O1 0.187268 0.128614 0.737777
O O2 0.397263 0.229079 0.752680
O O3 0.995639 0.363762 0.779340
O O4 0.144856 0.114039 0.421629
O O5 0.150106 0.637964 0.539488
O O6 0.325992 0.609471 0.826251
O O7 0.926825 0.719335 0.792321
O O8 0.140347 0.872916 0.970290
O O9 0.781320 0.609469 0.826249
O O10 0.158110 0.452277 0.720772
O O11 0.206716 0.871387 0.262226
O O12 0.840497 0.018492 0.217981
O O13 0.613454 0.637962 0.539486
O O14 0.584109 0.872915 0.970285
O O15 0.443820 0.636237 0.220659
O O16 0.451308 0.885961 0.578373
#
# Coordination Sequence:
#
# PCOD9081113 Si02
#       8
#     2   2   2   2   2   2   2   2
#     4  10  19  31  48  69  94 123 153 188 228 270
#     4   8  15  29  48  69  92 119 153 190 227 270
#     4   8  15  29  48  69  92 119 153 190 227 270
#     4  10  19  31  48  69  94 123 153 188 228 270
#     4   8  15  29  48  69  92 119 153 190 227 270
#     4   8  15  29  48  69  92 119 153 190 227 270
#     4  10  19  31  48  69  94 123 153 188 228 270
#     4  10  19  31  48  69  94 123 153 188 228 270
#
# _framework density 27.418839999999999
#
# number of rings (size 3 to 8) (size 9 to 14) (size 15 to 20)
#    0.000    3.000    0.000    4.500    0.000    2.000 
#    0.000    0.000    0.000    9.000    0.000   14.000 
#    0.000    0.000    0.000    0.000    0.000    0.000 
#
# Total GULP energy -89538.654315 kJ/mol
# GULP energy per Si atom -5596.165895 kJ/mol
# Density = 2.735643 g / cm^3
# Si number density = 27.418840 Si / 1000 Ang^3
#
#
#
# Elastic Constant Matrix: (Units=GPa)
#
#
# Indices 1 2 3 4 5 6 
#
# 1 110.0036 17.8972 14.0466 -5.2980 0.0129 -4.4792
# 2 17.8972 162.7447 0.7991 26.3635 2.9894 8.9445
# 3 14.0466 0.7991 123.6155 29.2075 1.5772 -1.7851
# 4 -5.2980 26.3635 29.2075 47.3475 1.3923 2.5608
# 5 0.0129 2.9894 1.5772 1.3923 24.8234 -1.6473
# 6 -4.4792 8.9445 -1.7851 2.5608 -1.6473 21.6299
#
#
#
# Elastic Compliance Matrix: (Units=1/GPa)
#
#
# Indices 1 2 3 4 5 6 
#
# 1 0.009831 -0.001690 -0.001790 0.003015 0.000292 0.002252
# 2 -0.001690 0.007276 0.001261 -0.004844 -0.000866 -0.002747
# 3 -0.001790 0.001261 0.009974 -0.007085 -0.000338 0.000744
# 4 0.003015 -0.004844 -0.007085 0.028621 -0.000666 -0.001397
# 5 0.000292 -0.000866 -0.000338 -0.000666 0.040684 0.003568
# 6 0.002252 -0.002747 0.000744 -0.001397 0.003568 0.048333
#
#
# Mechanical properties :
#
#
# Convention : Reuss Voigt Hill
#
# Bulk Modulus (GPa) = 44.16252 51.31662 47.73957
# Shear Modulus (GPa) = 31.90728 43.00156 37.45442
#
# Velocity S-wave (km/s) = 3.41500 3.96450 3.69997
# Velocity P-wave (km/s) = 5.62950 6.30181 5.97512
#
# Compressibility (1/GPa) = 0.02264364
#
# Stress axis : x y z
#
# Youngs Moduli (GPa) = 101.71993 137.44139 100.26094
#
# Poissons Ratio (x) = 0.23225 0.17943
# Poissons Ratio (y) = 0.17189 -0.12642
# Poissons Ratio (z) = 0.18204 -0.17330
#
# Static dielectric constant tensor:
#      x y z
#    x 1.952470 0.021690 -0.013110 
#    y 0.021690 2.174390 -0.088490 
#    z -0.013110 -0.088490 2.244940 
# 
# From -- ./inp_files/257093.got.cif
#   From: 2010.05.17/outbox.cif.g08.bks.cpg/sg2_129_cif.got.tgz:257093.got - 2010.06.03 11:33:40.
