data_PCOD9081701
_publ_section_title
;
Structure prediction by ZEFSAII (Michael W. Deem and Ramdas Pophale) SiO2 
 PCOD9081701
Probable space group: P -1
;
_chemical_formula_sum "Si O2"
_cell_formula_units_Z 16
_cell_length_a 29.149130
_cell_length_b 10.663981
_cell_length_c 23.291270
_cell_angle_alpha 152.903394
_cell_angle_beta 162.673660
_cell_angle_gamma 36.451378
_cell_volume 925.267846
_symmetry_space_group_name_H-M "P -1"
_symmetry_group_IT_number 2
_symmetry_cell_setting 'triclinic'
loop_
_space_group_symop_operation_xyz
x,y,z
-x,-y,-z
loop_
_atom_site_type_symbol
_atom_site_label
_atom_site_fract_x
_atom_site_fract_y
_atom_site_fract_z
Si Si1 0.123260 0.755638 0.025471
Si Si2 0.154221 0.138428 0.324214
Si Si3 0.929487 0.273039 0.684921
Si Si4 0.853135 0.410763 0.833435
Si Si5 0.403091 0.659312 0.252479
Si Si6 0.407552 0.762927 0.875484
Si Si7 0.693597 0.786186 0.141043
Si Si8 0.369595 0.699173 0.580834
O O1 0.260029 0.633341 0.116261
O O2 0.195705 0.023911 0.265336
O O3 0.028106 0.851927 0.899768
O O4 0.988511 0.509451 0.801103
O O5 0.276216 0.459931 0.613501
O O6 0.160229 0.897121 0.278801
O O7 0.780982 0.323697 0.564546
O O8 0.855678 0.951928 0.438686
O O9 0.084925 0.349477 0.944375
O O10 0.696901 0.378538 0.594532
O O11 0.000000 0.500000 0.000000
O O12 0.531759 0.506539 0.364032
O O13 0.500000 0.000000 0.500000
O O14 0.319404 0.491661 0.026354
O O15 0.327274 0.964105 0.824988
O O16 0.540052 0.706051 0.967953
O O17 0.508207 0.969343 0.130677
#
# Coordination Sequence:
#
# PCOD9081701 Si02
#       8
#     2   2   2   2   2   2   2   2
#     4  10  21  31  52  82 105 133 171 222 260 303
#     4  10  19  32  54  79 106 134 181 212 259 307
#     4   9  17  35  57  75 103 139 174 215 253 310
#     4   9  19  33  55  77 101 141 178 217 248 306
#     4  11  23  32  51  80 110 135 167 222 269 307
#     4   9  16  30  54  78 105 138 167 220 257 308
#     4   9  17  31  51  78 110 134 169 211 270 308
#     4   9  20  36  53  79 105 140 175 206 264 313
#
# _framework density 17.292290000000001
#
# number of rings (size 3 to 8) (size 9 to 14) (size 15 to 20)
#    0.000    2.500    1.250    1.500    7.000    1.000 
#    0.000    2.500    0.000    0.750    3.250    0.000 
#    0.000    0.000    0.000    0.000    0.000    0.000 
#
# Total GULP energy -89131.841991 kJ/mol
# GULP energy per Si atom -5570.740124 kJ/mol
# Density = 1.725293 g / cm^3
# Si number density = 17.292290 Si / 1000 Ang^3
#
#
#
# Elastic Constant Matrix: (Units=GPa)
#
#
# Indices 1 2 3 4 5 6 
#
# 1 49.2985 31.5594 42.6190 -0.2596 -14.8979 -1.3111
# 2 31.5594 52.5273 46.3022 4.2843 -11.0044 0.9434
# 3 42.6190 46.3022 133.3178 13.0690 -25.3365 4.0167
# 4 -0.2596 4.2843 13.0690 27.2283 4.9475 -3.0923
# 5 -14.8979 -11.0044 -25.3365 4.9475 27.4903 1.4440
# 6 -1.3111 0.9434 4.0167 -3.0923 1.4440 25.2848
#
#
#
# Elastic Compliance Matrix: (Units=1/GPa)
#
#
# Indices 1 2 3 4 5 6 
#
# 1 0.038425 -0.017107 -0.005380 0.004594 0.008002 0.003590
# 2 -0.017107 0.035224 -0.006608 -0.002563 -0.000725 -0.001424
# 3 -0.005380 -0.006608 0.014124 -0.007865 0.009069 -0.003756
# 4 0.004594 -0.002563 -0.007865 0.044416 -0.014190 0.007826
# 5 0.008002 -0.000725 0.009069 -0.014190 0.051633 -0.005683
# 6 0.003590 -0.001424 -0.003756 0.007826 -0.005683 0.041667
#
#
# Mechanical properties :
#
#
# Convention : Reuss Voigt Hill
#
# Bulk Modulus (GPa) = 33.80484 52.90053 43.35269
# Shear Modulus (GPa) = 17.03354 23.64490 20.33922
#
# Velocity S-wave (km/s) = 3.14193 3.70180 3.43330
# Velocity P-wave (km/s) = 5.72310 6.99496 6.39075
#
# Compressibility (1/GPa) = 0.02958156
#
# Stress axis : x y z
#
# Youngs Moduli (GPa) = 26.02488 28.38995 70.80361
#
# Poissons Ratio (x) = 0.48566 0.38094
# Poissons Ratio (y) = 0.44520 0.46790
# Poissons Ratio (z) = 0.14002 0.18761
#
# Static dielectric constant tensor:
#      x y z
#    x 1.592460 0.008160 -0.026730 
#    y 0.008160 1.568820 -0.014610 
#    z -0.026730 -0.014610 1.635410 
# 
# From -- ./inp_files/354401.got.cif
#   From: 2010.05.17/outbox.cif.g08.bks.cpg/sg2_178_cif.got.tgz:354401.got - 2010.06.03 11:33:40.
