data_PCOD9081896
_publ_section_title
;
Structure prediction by ZEFSAII (Michael W. Deem and Ramdas Pophale) SiO2 
 PCOD9081896
Probable space group: P -1
;
_chemical_formula_sum "Si O2"
_cell_formula_units_Z 14
_cell_length_a 9.137348
_cell_length_b 13.143116
_cell_length_c 22.383961
_cell_angle_alpha 34.717818
_cell_angle_beta 130.775392
_cell_angle_gamma 149.308073
_cell_volume 767.991430
_symmetry_space_group_name_H-M "P -1"
_symmetry_group_IT_number 2
_symmetry_cell_setting 'triclinic'
loop_
_space_group_symop_operation_xyz
x,y,z
-x,-y,-z
loop_
_atom_site_type_symbol
_atom_site_label
_atom_site_fract_x
_atom_site_fract_y
_atom_site_fract_z
Si Si1 0.527717 0.766866 0.473888
Si Si2 0.199575 0.709014 0.302665
Si Si3 0.314891 0.757909 0.022262
Si Si4 0.794513 0.663596 0.749846
Si Si5 0.836311 0.618894 0.645865
Si Si6 0.419622 0.737959 0.593423
Si Si7 0.297657 0.801868 0.858962
O O1 0.337816 0.705272 0.398483
O O2 0.642091 0.644580 0.554809
O O3 0.369415 0.673620 0.540488
O O4 0.825290 0.087000 0.406441
O O5 0.200316 0.580426 0.307323
O O6 0.867779 0.518006 0.323667
O O7 0.418048 0.019365 0.192031
O O8 0.375438 0.587991 0.129684
O O9 0.968009 0.524438 0.058716
O O10 0.364131 0.851928 0.922522
O O11 0.500000 0.000000 0.000000
O O12 0.759072 0.557398 0.725104
O O13 0.681975 0.786347 0.658284
O O14 0.130052 0.866391 0.761022
O O15 0.500000 0.000000 0.500000
#
# Coordination Sequence:
#
# PCOD9081896 Si02
#       7
#     2   2   2   2   2   2   2
#     4  10  20  36  50  78 110 153 201 233 261 334
#     4  12  21  34  57  84 114 150 190 237 280 328
#     4   9  17  37  64  85 108 138 187 245 291 327
#     4   9  19  38  57  84 117 143 190 237 273 345
#     4  10  19  32  57  79 108 148 198 238 272 312
#     4  11  23  37  54  80 124 164 181 221 290 331
#     4   9  20  33  60  89 105 138 195 235 279 336
#
# _framework density 18.229368999999998
#
# number of rings (size 3 to 8) (size 9 to 14) (size 15 to 20)
#    0.857    1.143    2.857    1.714    0.000    1.143 
#    0.000    2.143    0.000    0.857    0.000    0.000 
#    0.000    0.000    0.000    0.000    0.000    0.000 
#
# Total GULP energy -77959.359408 kJ/mol
# GULP energy per Si atom -5568.525672 kJ/mol
# Density = 1.818788 g / cm^3
# Si number density = 18.229369 Si / 1000 Ang^3
#
#
#
# Elastic Constant Matrix: (Units=GPa)
#
#
# Indices 1 2 3 4 5 6 
#
# 1 69.3235 23.7559 23.1723 -3.9865 -13.4411 4.2374
# 2 23.7559 56.8037 16.6048 4.6847 -12.5128 -2.3809
# 3 23.1723 16.6048 64.0290 8.5671 -15.8100 2.5187
# 4 -3.9865 4.6847 8.5671 28.7698 3.1278 -7.2585
# 5 -13.4411 -12.5128 -15.8100 3.1278 26.7152 -8.5861
# 6 4.2374 -2.3809 2.5187 -7.2585 -8.5861 21.7425
#
#
#
# Elastic Compliance Matrix: (Units=1/GPa)
#
#
# Indices 1 2 3 4 5 6 
#
# 1 0.019206 -0.006356 -0.005220 0.004651 0.002656 -0.001233
# 2 -0.006356 0.023274 -0.001131 -0.003747 0.009540 0.006435
# 3 -0.005220 -0.001131 0.021472 -0.008113 0.010443 -0.000178
# 4 0.004651 -0.003747 -0.008113 0.041914 -0.005438 0.011468
# 5 0.002656 0.009540 0.010443 -0.005438 0.056410 0.019778
# 6 -0.001233 0.006435 -0.000178 0.011468 0.019778 0.058597
#
#
# Mechanical properties :
#
#
# Convention : Reuss Voigt Hill
#
# Bulk Modulus (GPa) = 25.95016 35.24693 30.59854
# Shear Modulus (GPa) = 19.29500 23.88704 21.59102
#
# Velocity S-wave (km/s) = 3.25692 3.62382 3.44526
# Velocity P-wave (km/s) = 5.33007 6.07344 5.71385
#
# Compressibility (1/GPa) = 0.03853541
#
# Stress axis : x y z
#
# Youngs Moduli (GPa) = 52.06677 42.96668 46.57272
#
# Poissons Ratio (x) = 0.27312 0.24313
# Poissons Ratio (y) = 0.33096 0.05269
# Poissons Ratio (z) = 0.27181 0.04861
#
# Static dielectric constant tensor:
#      x y z
#    x 1.614390 0.025450 -0.023060 
#    y 0.025450 1.644310 -0.022640 
#    z -0.023060 -0.022640 1.666600 
# 
# From -- ./inp_files/104704.got.cif
#   From: 2010.05.17/outbox.cif.g08.bks.cpg/sg2_53_cif.got.tgz:104704.got - 2010.06.03 11:33:40.
