data_PCOD9081561
_publ_section_title
;
Structure prediction by ZEFSAII (Michael W. Deem and Ramdas Pophale) SiO2 
 PCOD9081561
Probable space group: P -1
;
_chemical_formula_sum "Si O2"
_cell_formula_units_Z 16
_cell_length_a 15.337189
_cell_length_b 11.522729
_cell_length_c 13.095924
_cell_angle_alpha 137.834031
_cell_angle_beta 145.532345
_cell_angle_gamma 41.549909
_cell_volume 819.823589
_symmetry_space_group_name_H-M "P -1"
_symmetry_group_IT_number 2
_symmetry_cell_setting 'triclinic'
loop_
_space_group_symop_operation_xyz
x,y,z
-x,-y,-z
loop_
_atom_site_type_symbol
_atom_site_label
_atom_site_fract_x
_atom_site_fract_y
_atom_site_fract_z
Si Si1 0.709172 0.510886 0.401702
Si Si2 0.870367 0.513818 0.029392
Si Si3 0.184121 0.346750 0.596135
Si Si4 0.786819 0.754859 0.773322
Si Si5 0.978643 0.147959 0.352276
Si Si6 0.043970 0.226513 0.851788
Si Si7 0.829064 0.096477 0.958127
Si Si8 0.637702 0.498918 0.960051
O O1 0.727311 0.652274 0.424847
O O2 0.688033 0.626340 0.561013
O O3 0.872476 0.326761 0.431971
O O4 0.556741 0.448781 0.190259
O O5 0.021485 0.375677 0.153189
O O6 0.893668 0.393290 0.869261
O O7 0.910018 0.694540 0.155620
O O8 0.703514 0.549018 0.950215
O O9 0.000000 0.500000 0.500000
O O10 0.145565 0.172369 0.489106
O O11 0.286845 0.411565 0.820650
O O12 0.806004 0.795003 0.937084
O O13 0.745046 0.945638 0.797730
O O14 0.877053 0.149701 0.151052
O O15 0.994776 0.959543 0.302989
O O16 0.716999 0.278063 0.910069
O O17 0.000000 0.000000 0.000000
#
# Coordination Sequence:
#
# PCOD9081561 Si02
#       8
#     2   2   2   2   2   2   2   2
#     4  11  22  33  51  81 117 144 165 211 278 321
#     4   9  17  35  61  77 102 135 184 225 262 299
#     4  10  19  32  52  76 106 140 174 210 260 314
#     4   9  18  34  55  78 102 137 179 218 262 313
#     4  10  19  34  57  78 104 142 180 216 264 314
#     4   8  18  36  63  77  98 133 190 230 253 299
#     4  11  18  31  56  78 103 137 178 219 258 313
#     4  12  21  33  52  83 113 140 174 216 265 323
#
# _framework density 19.516393999999998
#
# number of rings (size 3 to 8) (size 9 to 14) (size 15 to 20)
#    0.750    1.250    3.750    2.625    0.000    0.500 
#    0.000    3.750    0.000    0.000    0.000    0.000 
#    0.000    0.000    0.000    0.000    0.000    0.000 
#
# Total GULP energy -89118.188594 kJ/mol
# GULP energy per Si atom -5569.886787 kJ/mol
# Density = 1.947197 g / cm^3
# Si number density = 19.516394 Si / 1000 Ang^3
#
#
#
# Elastic Constant Matrix: (Units=GPa)
#
#
# Indices 1 2 3 4 5 6 
#
# 1 50.2913 20.3662 16.9880 7.8180 12.3282 16.2553
# 2 20.3662 50.1806 16.4345 31.9474 12.6479 21.0956
# 3 16.9880 16.4345 101.4386 18.1739 4.0613 7.9909
# 4 7.8180 31.9474 18.1739 33.5442 1.5145 11.0967
# 5 12.3282 12.6479 4.0613 1.5145 26.8254 11.3336
# 6 16.2553 21.0956 7.9909 11.0967 11.3336 20.0518
#
#
#
# Elastic Compliance Matrix: (Units=1/GPa)
#
#
# Indices 1 2 3 4 5 6 
#
# 1 0.029296 -0.009289 -0.003736 0.009657 -0.002009 -0.016696
# 2 -0.009289 0.086298 0.003529 -0.069078 -0.017648 -0.036463
# 3 -0.003736 0.003529 0.011512 -0.008781 -0.001340 0.000345
# 4 0.009657 -0.069078 -0.008781 0.096453 0.023242 0.001831
# 5 -0.002009 -0.017648 -0.001340 0.023242 0.055293 -0.023385
# 6 -0.016696 -0.036463 0.000345 0.001831 -0.023385 0.113834
#
#
# Mechanical properties :
#
#
# Convention : Reuss Voigt Hill
#
# Bulk Modulus (GPa) = 9.24952 34.38753 21.81853
# Shear Modulus (GPa) = 11.16784 25.95907 18.56345
#
# Velocity S-wave (km/s) = 2.39472 3.65103 3.08745
# Velocity P-wave (km/s) = 3.52078 5.95243 4.89016
#
# Compressibility (1/GPa) = 0.10811370
#
# Stress axis : x y z
#
# Youngs Moduli (GPa) = 34.13463 11.58782 86.86787
#
# Poissons Ratio (x) = 0.10764 0.32451
# Poissons Ratio (y) = 0.31709 -0.30659
# Poissons Ratio (z) = 0.12752 -0.04090
#
# Static dielectric constant tensor:
#      x y z
#    x 1.723700 0.010280 -0.032330 
#    y 0.010280 1.699920 0.013420 
#    z -0.032330 0.013420 1.727390 
# 
# From -- ./inp_files/532736.got.cif
#   From: 2010.05.17/outbox.cif.g08.bks.cpg/sg2_267_cif.got.tgz:532736.got - 2010.06.03 11:33:40.
