data_PCOD9081095
_publ_section_title
;
Structure prediction by ZEFSAII (Michael W. Deem and Ramdas Pophale) SiO2 
 PCOD9081095
Probable space group: P -1
;
_chemical_formula_sum "Si O2"
_cell_formula_units_Z 12
_cell_length_a 8.238792
_cell_length_b 15.446444
_cell_length_c 6.124126
_cell_angle_alpha 106.612595
_cell_angle_beta 66.473991
_cell_angle_gamma 126.137973
_cell_volume 575.747117
_symmetry_space_group_name_H-M "P -1"
_symmetry_group_IT_number 2
_symmetry_cell_setting 'triclinic'
loop_
_space_group_symop_operation_xyz
x,y,z
-x,-y,-z
loop_
_atom_site_type_symbol
_atom_site_label
_atom_site_fract_x
_atom_site_fract_y
_atom_site_fract_z
Si Si1 0.742662 0.466897 0.321391
Si Si2 0.332020 0.976546 0.261734
Si Si3 0.966784 0.219887 0.955961
Si Si4 0.639376 0.165266 0.476727
Si Si5 0.410883 0.411513 0.795685
Si Si6 0.806646 0.345436 0.841688
O O1 0.603874 0.417383 0.574210
O O2 0.685476 0.547268 0.303462
O O3 0.993977 0.542069 0.272505
O O4 0.694027 0.377747 0.102082
O O5 0.351926 0.909305 0.396019
O O6 0.422861 0.093229 0.404382
O O7 0.111136 0.893992 0.202355
O O8 0.500000 0.000000 0.000000
O O9 0.836008 0.200265 0.234422
O O10 0.891624 0.282459 0.887623
O O11 0.217187 0.297544 0.900883
O O12 0.671665 0.266197 0.663039
O O13 0.500000 0.500000 0.000000
#
# Coordination Sequence:
#
# PCOD9081095 Si02
#       6
#     2   2   2   2   2   2
#     4   9  19  32  45  66  95 122 153 189 220 263
#     4   8  15  27  44  69  93 115 145 186 227 266
#     4   9  17  28  46  70  93 118 150 189 225 262
#     4   9  15  26  46  70  92 114 147 187 229 269
#     4  10  19  31  46  65  92 126 156 181 221 271
#     4   9  17  30  47  68  93 120 151 189 227 260
#
# _framework density 20.842486000000001
#
# number of rings (size 3 to 8) (size 9 to 14) (size 15 to 20)
#    0.000    3.000    0.000    1.000    0.000    2.667 
#    0.000    5.000    0.000    1.000    0.000   40.833 
#    0.000    0.000    0.000    0.000    0.000    0.000 
#
# Total GULP energy -66855.431065 kJ/mol
# GULP energy per Si atom -5571.285922 kJ/mol
# Density = 2.079505 g / cm^3
# Si number density = 20.842486 Si / 1000 Ang^3
#
#
#
# Elastic Constant Matrix: (Units=GPa)
#
#
# Indices 1 2 3 4 5 6 
#
# 1 21.2209 18.5371 21.7514 -9.8256 1.4068 2.8238
# 2 18.5371 146.4895 98.0129 15.0702 1.1729 47.2979
# 3 21.7514 98.0129 164.1450 8.1186 -4.5369 28.2947
# 4 -9.8256 15.0702 8.1186 46.1543 -1.6109 7.3450
# 5 1.4068 1.1729 -4.5369 -1.6109 20.6294 -2.8785
# 6 2.8238 47.2979 28.2947 7.3450 -2.8785 33.4162
#
#
#
# Elastic Compliance Matrix: (Units=1/GPa)
#
#
# Indices 1 2 3 4 5 6 
#
# 1 0.068105 -0.008871 -0.006015 0.017094 -0.003029 0.007876
# 2 -0.008871 0.019901 -0.007029 -0.003986 -0.005321 -0.021049
# 3 -0.006015 -0.007029 0.010935 -0.001065 0.003372 0.001723
# 4 0.017094 -0.003986 -0.001065 0.026943 0.000826 -0.000752
# 5 -0.003029 -0.005321 0.003372 0.000826 0.051066 0.009149
# 6 0.007876 -0.021049 0.001723 -0.000752 0.009149 0.058547
#
#
# Mechanical properties :
#
#
# Convention : Reuss Voigt Hill
#
# Bulk Modulus (GPa) = 18.14500 67.60648 42.87574
# Shear Modulus (GPa) = 16.79556 32.94358 24.86957
#
# Velocity S-wave (km/s) = 2.84180 3.97999 3.45804
# Velocity P-wave (km/s) = 4.41502 7.32309 6.04649
#
# Compressibility (1/GPa) = 0.05511159
#
# Stress axis : x y z
#
# Youngs Moduli (GPa) = 14.68317 50.24935 91.44736
#
# Poissons Ratio (x) = 0.44577 0.55001
# Poissons Ratio (y) = 0.13026 0.64279
# Poissons Ratio (z) = 0.08831 0.35320
#
# Static dielectric constant tensor:
#      x y z
#    x 1.773670 0.020920 0.014660 
#    y 0.020920 1.806280 0.009300 
#    z 0.014660 0.009300 1.733110 
# 
# From -- ./inp_files/20179.got.cif
#   From: 2010.05.17/outbox.cif.g08.bks.cpg/sg2_11_cif.got.tgz:20179.got - 2010.06.03 11:33:40.
