data_PCOD9081921
_publ_section_title
;
Structure prediction by ZEFSAII (Michael W. Deem and Ramdas Pophale) SiO2 
 PCOD9081921
Probable space group: P -1
;
_chemical_formula_sum "Si O2"
_cell_formula_units_Z 16
_cell_length_a 20.371547
_cell_length_b 5.560072
_cell_length_c 12.672476
_cell_angle_alpha 45.610154
_cell_angle_beta 52.961783
_cell_angle_gamma 66.872471
_cell_volume 817.732110
_symmetry_space_group_name_H-M "P -1"
_symmetry_group_IT_number 2
_symmetry_cell_setting 'triclinic'
loop_
_space_group_symop_operation_xyz
x,y,z
-x,-y,-z
loop_
_atom_site_type_symbol
_atom_site_label
_atom_site_fract_x
_atom_site_fract_y
_atom_site_fract_z
Si Si1 0.960648 0.122423 0.649461
Si Si2 0.797913 0.315724 0.813955
Si Si3 0.425164 0.172529 0.077079
Si Si4 0.274269 0.639135 0.365466
Si Si5 0.119773 0.935082 0.485350
Si Si6 0.520624 0.145762 0.681389
Si Si7 0.604556 0.822455 0.502672
Si Si8 0.637671 0.133881 0.152762
O O1 0.879018 0.094939 0.807890
O O2 0.921978 0.092743 0.579962
O O3 0.000000 0.500000 0.500000
O O4 0.041434 0.906136 0.648540
O O5 0.754737 0.331400 0.736174
O O6 0.833834 0.697822 0.674356
O O7 0.728539 0.187173 0.001701
O O8 0.340879 0.946671 0.221467
O O9 0.421836 0.138099 0.769077
O O10 0.407057 0.522405 0.934032
O O11 0.500000 0.000000 0.000000
O O12 0.192198 0.679655 0.501833
O O13 0.321800 0.316603 0.455265
O O14 0.557450 0.486973 0.598038
O O15 0.549237 0.840640 0.821402
O O16 0.552488 0.046581 0.564293
O O17 0.636157 0.037439 0.305988
#
# Coordination Sequence:
#
# PCOD9081921 Si02
#       8
#     2   2   2   2   2   2   2   2
#     4   8  16  30  53  86 117 144 182 240 295 352
#     4  10  19  32  57  88 114 148 195 248 298 345
#     4  11  22  38  61  87 117 155 205 258 302 344
#     4  10  20  35  56  82 117 158 200 239 297 360
#     4   9  16  32  54  83 117 148 189 237 291 359
#     4  11  24  44  59  82 118 168 207 246 299 360
#     4  11  26  41  60  83 122 166 207 246 295 361
#     4  12  22  38  60  86 118 152 204 257 301 341
#
# _framework density 19.566310000000001
#
# number of rings (size 3 to 8) (size 9 to 14) (size 15 to 20)
#    0.000    1.750    1.250    4.125    1.750    2.000 
#    0.000    0.000    0.000    0.750    0.000   29.750 
#    0.000    0.000    0.000    0.000    0.000    0.000 
#
# Total GULP energy -89201.279872 kJ/mol
# GULP energy per Si atom -5575.079992 kJ/mol
# Density = 1.952178 g / cm^3
# Si number density = 19.566310 Si / 1000 Ang^3
#
#
#
# Elastic Constant Matrix: (Units=GPa)
#
#
# Indices 1 2 3 4 5 6 
#
# 1 90.1175 22.5008 50.4234 12.7794 -22.7199 -0.7239
# 2 22.5008 53.8767 32.6037 19.0675 -12.7449 -8.8619
# 3 50.4234 32.6037 116.9446 22.1284 -1.0038 -11.1398
# 4 12.7794 19.0675 22.1284 28.5064 -13.4548 -6.1843
# 5 -22.7199 -12.7449 -1.0038 -13.4548 37.0949 7.7488
# 6 -0.7239 -8.8619 -11.1398 -6.1843 7.7488 42.6081
#
#
#
# Elastic Compliance Matrix: (Units=1/GPa)
#
#
# Indices 1 2 3 4 5 6 
#
# 1 0.019325 -0.001859 -0.009075 0.005189 0.013705 -0.004170
# 2 -0.001859 0.027362 -0.004302 -0.012098 0.003303 0.002178
# 3 -0.009075 -0.004302 0.015734 -0.009600 -0.010854 0.003645
# 4 0.005189 -0.012098 -0.009600 0.057546 0.019668 -0.000162
# 5 0.013705 0.003303 -0.010854 0.019668 0.044835 -0.007217
# 6 -0.004170 0.002178 0.003645 -0.000162 -0.007217 0.026094
#
#
# Mechanical properties :
#
#
# Convention : Reuss Voigt Hill
#
# Bulk Modulus (GPa) = 31.30111 52.44385 41.87248
# Shear Modulus (GPa) = 21.55022 32.00260 26.77641
#
# Velocity S-wave (km/s) = 3.32233 4.04864 3.70333
# Velocity P-wave (km/s) = 5.54521 6.97973 6.30341
#
# Compressibility (1/GPa) = 0.03194775
#
# Stress axis : x y z
#
# Youngs Moduli (GPa) = 51.74738 36.54763 63.55608
#
# Poissons Ratio (x) = 0.06794 0.57680
# Poissons Ratio (y) = 0.09620 0.27341
# Poissons Ratio (z) = 0.46963 0.15722
#
# Static dielectric constant tensor:
#      x y z
#    x 1.338710 -0.108040 -0.015780 
#    y -0.108040 1.773160 0.042950 
#    z -0.015780 0.042950 1.700540 
# 
# From -- ./inp_files/468252.got.cif
#   From: 2010.05.17/outbox.cif.g08.bks.cpg/sg2_235_cif.got.tgz:468252.got - 2010.06.03 11:33:40.
