data_PCOD9081444
_publ_section_title
;
Structure prediction by ZEFSAII (Michael W. Deem and Ramdas Pophale) SiO2 
 PCOD9081444
Probable space group: P -1
;
_chemical_formula_sum "Si O2"
_cell_formula_units_Z 14
_cell_length_a 10.237643
_cell_length_b 14.389045
_cell_length_c 21.531548
_cell_angle_alpha 21.365567
_cell_angle_beta 142.917213
_cell_angle_gamma 147.569561
_cell_volume 618.572538
_symmetry_space_group_name_H-M "P -1"
_symmetry_group_IT_number 2
_symmetry_cell_setting 'triclinic'
loop_
_space_group_symop_operation_xyz
x,y,z
-x,-y,-z
loop_
_atom_site_type_symbol
_atom_site_label
_atom_site_fract_x
_atom_site_fract_y
_atom_site_fract_z
Si Si1 0.454570 0.163220 0.569345
Si Si2 0.146774 0.833652 0.016469
Si Si3 0.246584 0.503186 0.351878
Si Si4 0.501032 0.753414 0.611780
Si Si5 0.743112 0.995644 0.287698
Si Si6 0.296771 0.677346 0.044874
Si Si7 0.019011 0.704288 0.322785
O O1 0.383629 0.416941 0.402069
O O2 0.455936 0.143001 0.508491
O O3 0.272808 0.919530 0.699590
O O4 0.725703 0.229879 0.650982
O O5 0.425308 0.075716 0.987512
O O6 0.989634 0.003985 0.843936
O O7 0.080300 0.620603 0.182605
O O8 0.153945 0.682388 0.049333
O O9 0.467162 0.754289 0.315805
O O10 0.124901 0.209742 0.528479
O O11 0.681100 0.612281 0.778207
O O12 0.231699 0.488596 0.687005
O O13 0.500000 0.000000 0.500000
O O14 0.797880 0.221658 0.114022
O O15 0.000000 0.500000 0.500000
#
# Coordination Sequence:
#
# PCOD9081444 Si02
#       7
#     2   2   2   2   2   2   2
#     4   9  16  32  47  72 100 118 151 200 243 271
#     4   9  15  26  46  71  94 120 158 200 228 278
#     4   8  14  26  46  73  96 121 153 195 243 274
#     4  10  19  32  48  69  98 131 163 187 229 289
#     4   8  15  24  48  72  96 116 156 198 236 278
#     4   9  15  26  46  72  91 119 166 192 227 270
#     4   9  19  28  48  75  99 121 150 203 251 262
#
# _framework density 22.632752
#
# number of rings (size 3 to 8) (size 9 to 14) (size 15 to 20)
#    0.857    2.286    1.429    0.000    6.000    0.000 
#    0.000    7.143    0.000    3.429    0.000    4.000 
#    0.000    0.000    0.000    0.000    0.000    0.000 
#
# Total GULP energy -77973.635584 kJ/mol
# GULP energy per Si atom -5569.545399 kJ/mol
# Density = 2.258124 g / cm^3
# Si number density = 22.632752 Si / 1000 Ang^3
#
#
#
# Elastic Constant Matrix: (Units=GPa)
#
#
# Indices 1 2 3 4 5 6 
#
# 1 75.2889 30.4952 68.5382 -2.5381 -4.5031 -23.6976
# 2 30.4952 58.6973 38.1749 -4.4818 4.7791 -8.3625
# 3 68.5382 38.1749 201.6389 18.0486 -2.1828 -17.4272
# 4 -2.5381 -4.4818 18.0486 29.3296 -6.9080 2.3504
# 5 -4.5031 4.7791 -2.1828 -6.9080 46.1265 1.1936
# 6 -23.6976 -8.3625 -17.4272 2.3504 1.1936 37.8297
#
#
#
# Elastic Compliance Matrix: (Units=1/GPa)
#
#
# Indices 1 2 3 4 5 6 
#
# 1 0.026847 -0.007533 -0.007170 0.005517 0.003594 0.011394
# 2 -0.007533 0.022729 -0.002165 0.003601 -0.002632 -0.000833
# 3 -0.007170 -0.002165 0.008290 -0.006229 -0.000997 -0.000733
# 4 0.005517 0.003601 -0.006229 0.040467 0.005965 -0.001320
# 5 0.003594 -0.002632 -0.000997 0.005965 0.023146 0.000109
# 6 0.011394 -0.000833 -0.000733 -0.001320 0.000109 0.033128
#
#
# Mechanical properties :
#
#
# Convention : Reuss Voigt Hill
#
# Bulk Modulus (GPa) = 41.44244 67.78239 54.61242
# Shear Modulus (GPa) = 25.45991 35.88497 30.67244
#
# Velocity S-wave (km/s) = 3.35761 3.98619 3.68533
# Velocity P-wave (km/s) = 5.77772 7.15543 6.50316
#
# Compressibility (1/GPa) = 0.02412986
#
# Stress axis : x y z
#
# Youngs Moduli (GPa) = 37.24768 43.99634 120.63184
#
# Poissons Ratio (x) = 0.33144 0.86488
# Poissons Ratio (y) = 0.28060 0.26120
# Poissons Ratio (z) = 0.26705 0.09526
#
# Static dielectric constant tensor:
#      x y z
#    x 1.848790 0.043070 -0.030480 
#    y 0.043070 1.935810 -0.011850 
#    z -0.030480 -0.011850 1.907220 
# 
# From -- ./inp_files/354384.got.cif
#   From: 2010.05.17/outbox.cif.g08.bks.cpg/sg2_178_cif.got.tgz:354384.got - 2010.06.03 11:33:40.
