data_PCOD9081950
_publ_section_title
;
Structure prediction by ZEFSAII (Michael W. Deem and Ramdas Pophale) SiO2 
 PCOD9081950
Probable space group: P -1
;
_chemical_formula_sum "Si O2"
_cell_formula_units_Z 16
_cell_length_a 12.184678
_cell_length_b 17.818303
_cell_length_c 14.230717
_cell_angle_alpha 26.195916
_cell_angle_beta 146.972059
_cell_angle_gamma 145.326560
_cell_volume 711.123123
_symmetry_space_group_name_H-M "P -1"
_symmetry_group_IT_number 2
_symmetry_cell_setting 'triclinic'
loop_
_space_group_symop_operation_xyz
x,y,z
-x,-y,-z
loop_
_atom_site_type_symbol
_atom_site_label
_atom_site_fract_x
_atom_site_fract_y
_atom_site_fract_z
Si Si1 0.256341 0.827905 0.026956
Si Si2 0.921764 0.481808 0.228106
Si Si3 0.860191 0.611085 0.226139
Si Si4 0.295343 0.347236 0.740134
Si Si5 0.375230 0.339201 0.462140
Si Si6 0.237177 0.958296 0.063100
Si Si7 0.037194 0.665106 0.764768
Si Si8 0.305068 0.024457 0.644344
O O1 0.043017 0.671226 0.057629
O O2 0.440681 0.739533 0.282046
O O3 0.242106 0.961508 0.949810
O O4 0.296653 0.918598 0.854797
O O5 0.785357 0.519636 0.174507
O O6 0.102560 0.411239 0.487471
O O7 0.847945 0.365360 0.213656
O O8 0.028738 0.803609 0.114003
O O9 0.000000 0.500000 0.500000
O O10 0.696805 0.623714 0.174636
O O11 0.508764 0.466897 0.712025
O O12 0.249084 0.143188 0.910340
O O13 0.207288 0.344465 0.414647
O O14 0.262098 0.205669 0.445964
O O15 0.457519 0.917317 0.291551
O O16 0.151947 0.868374 0.649252
O O17 0.000000 0.500000 0.000000
#
# Coordination Sequence:
#
# PCOD9081950 Si02
#       8
#     2   2   2   2   2   2   2   2
#     4   9  19  35  54  80 114 146 182 233 278 329
#     4   9  20  34  54  81 111 150 184 228 283 325
#     4   9  18  37  57  82 111 140 184 241 283 316
#     4  10  20  34  60  84 107 141 193 242 272 320
#     4  10  22  36  55  82 113 150 187 229 281 328
#     4  10  19  32  58  86 108 140 189 233 276 328
#     4  12  23  36  54  81 121 153 185 224 274 349
#     4  11  21  36  52  81 119 153 178 223 286 339
#
# _framework density 22.49962
#
# number of rings (size 3 to 8) (size 9 to 14) (size 15 to 20)
#    0.000    2.000    1.250    5.250    3.500    1.000 
#    0.000    0.000    0.000    9.750    0.000    0.000 
#    0.000    0.000    0.000    0.000    0.000    0.000 
#
# Total GULP energy -89299.761871 kJ/mol
# GULP energy per Si atom -5581.235117 kJ/mol
# Density = 2.244841 g / cm^3
# Si number density = 22.499620 Si / 1000 Ang^3
#
#
#
# Elastic Constant Matrix: (Units=GPa)
#
#
# Indices 1 2 3 4 5 6 
#
# 1 89.7390 25.4510 8.6875 0.3739 -1.3633 -21.1480
# 2 25.4510 69.0235 1.4156 -17.7151 -2.6773 -24.3056
# 3 8.6875 1.4156 46.0772 -8.2643 -0.6169 -7.6947
# 4 0.3739 -17.7151 -8.2643 30.8517 -1.6756 6.3681
# 5 -1.3633 -2.6773 -0.6169 -1.6756 24.1626 -4.0493
# 6 -21.1480 -24.3056 -7.6947 6.3681 -4.0493 36.0576
#
#
#
# Elastic Compliance Matrix: (Units=1/GPa)
#
#
# Indices 1 2 3 4 5 6 
#
# 1 0.013925 -0.004123 -0.002293 -0.004289 0.000938 0.005761
# 2 -0.004123 0.024006 0.004579 0.012655 0.005624 0.013138
# 3 -0.002293 0.004579 0.024460 0.008148 0.002541 0.005807
# 4 -0.004289 0.012655 0.008148 0.041982 0.004420 0.000836
# 5 0.000938 0.005624 0.002541 0.004420 0.043948 0.009038
# 6 0.005761 0.013138 0.005807 0.000836 0.009038 0.042075
#
#
# Mechanical properties :
#
#
# Convention : Reuss Voigt Hill
#
# Bulk Modulus (GPa) = 17.03126 30.66089 23.84607
# Shear Modulus (GPa) = 23.40363 29.50010 26.45186
#
# Velocity S-wave (km/s) = 3.22868 3.62489 3.43251
# Velocity P-wave (km/s) = 4.63521 5.58361 5.13137
#
# Compressibility (1/GPa) = 0.05871557
#
# Stress axis : x y z
#
# Youngs Moduli (GPa) = 71.81577 41.65557 40.88363
#
# Poissons Ratio (x) = 0.17175 0.09376
# Poissons Ratio (y) = 0.29610 -0.18720
# Poissons Ratio (z) = 0.16469 -0.19073
#
# Static dielectric constant tensor:
#      x y z
#    x 1.853010 -0.038940 0.031620 
#    y -0.038940 1.909360 0.027360 
#    z 0.031620 0.027360 1.866020 
# 
# From -- ./inp_files/523211.got.cif
#   From: 2010.05.17/outbox.cif.g08.bks.cpg/sg2_262_cif.got.tgz:523211.got - 2010.06.03 11:33:40.
