data_PCOD9081861
_publ_section_title
;
Structure prediction by ZEFSAII (Michael W. Deem and Ramdas Pophale) SiO2 
 PCOD9081861
Probable space group: P -1
;
_chemical_formula_sum "Si O2"
_cell_formula_units_Z 16
_cell_length_a 8.315506
_cell_length_b 11.906992
_cell_length_c 14.315480
_cell_angle_alpha 89.685529
_cell_angle_beta 137.430226
_cell_angle_gamma 68.726951
_cell_volume 805.608732
_symmetry_space_group_name_H-M "P -1"
_symmetry_group_IT_number 2
_symmetry_cell_setting 'triclinic'
loop_
_space_group_symop_operation_xyz
x,y,z
-x,-y,-z
loop_
_atom_site_type_symbol
_atom_site_label
_atom_site_fract_x
_atom_site_fract_y
_atom_site_fract_z
Si Si1 0.764317 0.673727 0.322688
Si Si2 0.687330 0.352262 0.538276
Si Si3 0.987688 0.327165 0.990534
Si Si4 0.775450 0.350295 0.109426
Si Si5 0.552814 0.634049 0.754552
Si Si6 0.591130 0.152806 0.995071
Si Si7 0.949474 0.372677 0.372783
Si Si8 0.056055 0.156525 0.852611
O O1 0.510813 0.789335 0.153679
O O2 0.794891 0.532797 0.319164
O O3 0.046914 0.655995 0.399085
O O4 0.787256 0.690960 0.443036
O O5 0.500000 0.500000 0.500000
O O6 0.523241 0.329754 0.386337
O O7 0.808064 0.244457 0.672583
O O8 0.893267 0.332156 0.055996
O O9 0.300471 0.299406 0.132580
O O10 0.782019 0.474415 0.858272
O O11 0.975964 0.223186 0.919657
O O12 0.989419 0.337323 0.281337
O O13 0.500000 0.500000 0.000000
O O14 0.682235 0.245352 0.081452
O O15 0.273921 0.662714 0.687360
O O16 0.321451 0.165293 0.930772
O O17 0.836680 0.997858 0.100072
#
# Coordination Sequence:
#
# PCOD9081861 Si02
#       8
#     2   2   2   2   2   2   2   2
#     4   9  19  33  58  83 112 147 189 232 283 336
#     4  10  19  32  56  85 114 145 184 240 282 330
#     4  11  22  33  55  87 115 151 184 235 288 333
#     4  12  22  34  58  86 116 149 191 239 280 334
#     4  10  20  33  53  85 114 139 185 237 285 328
#     4  10  21  40  60  83 114 154 192 230 282 346
#     4  10  19  35  54  85 112 142 187 238 283 329
#     4  10  22  39  60  83 115 154 191 229 285 346
#
# _framework density 19.860758000000001
#
# number of rings (size 3 to 8) (size 9 to 14) (size 15 to 20)
#    0.000    1.750    3.750    0.750    3.500    0.500 
#    0.000    1.250    0.000    7.500    0.000    0.000 
#    0.000    0.000    0.000    0.000    0.000    0.000 
#
# Total GULP energy -89388.166496 kJ/mol
# GULP energy per Si atom -5586.760406 kJ/mol
# Density = 1.981555 g / cm^3
# Si number density = 19.860758 Si / 1000 Ang^3
#
#
#
# Elastic Constant Matrix: (Units=GPa)
#
#
# Indices 1 2 3 4 5 6 
#
# 1 70.6116 30.4494 36.5781 7.8287 -21.1048 -4.7753
# 2 30.4494 99.8132 52.9838 4.4970 -28.9073 3.3324
# 3 36.5781 52.9838 128.3484 11.1087 -43.5513 -7.2510
# 4 7.8287 4.4970 11.1087 33.0170 -1.2205 -3.7951
# 5 -21.1048 -28.9073 -43.5513 -1.2205 34.8168 10.5936
# 6 -4.7753 3.3324 -7.2510 -3.7951 10.5936 27.1879
#
#
#
# Elastic Compliance Matrix: (Units=1/GPa)
#
#
# Indices 1 2 3 4 5 6 
#
# 1 0.018563 -0.002676 -0.001524 -0.003266 0.007011 -0.000006
# 2 -0.002676 0.015376 -0.002411 -0.001091 0.010265 -0.007150
# 3 -0.001524 -0.002411 0.015077 -0.004114 0.016713 -0.003038
# 4 -0.003266 -0.001091 -0.004114 0.033017 -0.008859 0.006524
# 5 0.007011 0.010265 0.016713 -0.008859 0.069339 -0.023823
# 6 -0.000006 -0.007150 -0.003038 0.006524 -0.023823 0.047039
#
#
# Mechanical properties :
#
#
# Convention : Reuss Voigt Hill
#
# Bulk Modulus (GPa) = 27.93864 59.86619 43.90241
# Shear Modulus (GPa) = 22.36507 30.92180 26.64343
#
# Velocity S-wave (km/s) = 3.35937 3.95008 3.66664
# Velocity P-wave (km/s) = 5.39861 7.14230 6.33078
#
# Compressibility (1/GPa) = 0.03579273
#
# Stress axis : x y z
#
# Youngs Moduli (GPa) = 53.87169 65.03802 66.32802
#
# Poissons Ratio (x) = 0.17403 0.10110
# Poissons Ratio (y) = 0.14415 0.15991
# Poissons Ratio (z) = 0.08211 0.15680
#
# Static dielectric constant tensor:
#      x y z
#    x 1.752330 -0.002680 0.004050 
#    y -0.002680 1.644200 0.021800 
#    z 0.004050 0.021800 1.729550 
# 
# From -- ./inp_files/277552.got.cif
#   From: 2010.05.17/outbox.cif.g08.bks.cpg/sg2_139_cif.got.tgz:277552.got - 2010.06.03 11:33:40.
