data_PCOD9081115
_publ_section_title
;
Structure prediction by ZEFSAII (Michael W. Deem and Ramdas Pophale) SiO2 
 PCOD9081115
Probable space group: P -1
;
_chemical_formula_sum "Si O2"
_cell_formula_units_Z 12
_cell_length_a 16.159208
_cell_length_b 6.712227
_cell_length_c 5.590245
_cell_angle_alpha 76.022042
_cell_angle_beta 123.802039
_cell_angle_gamma 101.382843
_cell_volume 487.435278
_symmetry_space_group_name_H-M "P -1"
_symmetry_group_IT_number 2
_symmetry_cell_setting 'triclinic'
loop_
_space_group_symop_operation_xyz
x,y,z
-x,-y,-z
loop_
_atom_site_type_symbol
_atom_site_label
_atom_site_fract_x
_atom_site_fract_y
_atom_site_fract_z
Si Si1 0.114897 0.045194 0.238732
Si Si2 0.385029 0.876184 0.124719
Si Si3 0.869876 0.418891 0.583196
Si Si4 0.458434 0.719507 0.791811
Si Si5 0.894055 0.450186 0.116250
Si Si6 0.167300 0.018310 0.832626
O O1 0.159411 0.823771 0.390185
O O2 0.129295 0.130298 0.504186
O O3 0.160207 0.132448 0.040144
O O4 0.000000 0.000000 0.000000
O O5 0.410700 0.735054 0.440399
O O6 0.458452 0.085818 0.154286
O O7 0.392101 0.769208 0.905643
O O8 0.277843 0.955497 0.985291
O O9 0.836661 0.491137 0.253786
O O10 0.992198 0.449470 0.748515
O O11 0.840846 0.497255 0.770817
O O12 0.500000 0.500000 0.000000
O O13 0.900095 0.201057 0.197255
#
# Coordination Sequence:
#
# PCOD9081115 Si02
#       6
#     2   2   2   2   2   2
#     4  10  19  31  48  70 104 147 188 233 283 333
#     4  10  21  38  63  91 121 158 194 245 306 360
#     4   8  14  25  40  59  83 120 166 207 256 306
#     4  10  21  40  64  90 122 156 193 239 306 381
#     4   8  14  25  42  60  84 119 161 211 255 303
#     4  10  19  33  51  74 105 142 191 239 284 341
#
# _framework density 24.618653999999999
#
# number of rings (size 3 to 8) (size 9 to 14) (size 15 to 20)
#    0.000    2.667    0.000    2.000    0.000    0.000 
#    0.000    3.333    0.000    4.000    0.000    0.000 
#    0.000    0.000    0.000    0.000    0.000    0.000 
#
# Total GULP energy -66912.937727 kJ/mol
# GULP energy per Si atom -5576.078144 kJ/mol
# Density = 2.456262 g / cm^3
# Si number density = 24.618654 Si / 1000 Ang^3
#
#
#
# Elastic Constant Matrix: (Units=GPa)
#
#
# Indices 1 2 3 4 5 6 
#
# 1 143.5597 10.8272 88.4530 9.5049 -35.3875 -26.9225
# 2 10.8272 71.8651 44.6860 -29.0026 -30.3803 2.8632
# 3 88.4530 44.6860 206.5911 -21.1331 -81.0268 -12.2118
# 4 9.5049 -29.0026 -21.1331 50.9253 -5.3311 -17.3645
# 5 -35.3875 -30.3803 -81.0268 -5.3311 73.1962 11.7590
# 6 -26.9225 2.8632 -12.2118 -17.3645 11.7590 24.3560
#
#
#
# Elastic Compliance Matrix: (Units=1/GPa)
#
#
# Indices 1 2 3 4 5 6 
#
# 1 0.011804 -0.000219 -0.005287 -0.001119 -0.002022 0.010600
# 2 -0.000219 0.025544 0.001857 0.018206 0.013188 0.004299
# 3 -0.005287 0.001857 0.012625 0.008732 0.012774 0.000326
# 4 -0.001119 0.018206 0.008732 0.043895 0.015925 0.024607
# 5 -0.002022 0.013188 0.012774 0.015925 0.033838 -0.002363
# 6 0.010600 0.004299 0.000326 0.024607 -0.002363 0.071117
#
#
# Mechanical properties :
#
#
# Convention : Reuss Voigt Hill
#
# Bulk Modulus (GPa) = 23.43325 78.88315 51.15820
# Shear Modulus (GPa) = 22.69151 48.23213 35.46182
#
# Velocity S-wave (km/s) = 3.03928 4.43105 3.79944
# Velocity P-wave (km/s) = 4.67498 7.63483 6.33032
#
# Compressibility (1/GPa) = 0.04267441
#
# Stress axis : x y z
#
# Youngs Moduli (GPa) = 84.71974 39.14815 79.20752
#
# Poissons Ratio (x) = 0.00859 0.41878
# Poissons Ratio (y) = 0.01859 -0.14713
# Poissons Ratio (z) = 0.44793 -0.07272
#
# Static dielectric constant tensor:
#      x y z
#    x 1.917920 -0.009400 -0.078650 
#    y -0.009400 1.965990 0.031730 
#    z -0.078650 0.031730 2.040240 
# 
# From -- ./inp_files/86265.got.cif
#   From: 2010.05.17/outbox.cif.g08.bks.cpg/sg2_44_cif.got.tgz:86265.got - 2010.06.03 11:33:40.
