data_PCOD9081212
_publ_section_title
;
Structure prediction by ZEFSAII (Michael W. Deem and Ramdas Pophale) SiO2 
 PCOD9081212
Probable space group: P -1
;
_chemical_formula_sum "Si O2"
_cell_formula_units_Z 16
_cell_length_a 19.878659
_cell_length_b 9.234486
_cell_length_c 11.094854
_cell_angle_alpha 81.908486
_cell_angle_beta 33.100578
_cell_angle_gamma 102.531065
_cell_volume 864.525879
_symmetry_space_group_name_H-M "P -1"
_symmetry_group_IT_number 2
_symmetry_cell_setting 'triclinic'
loop_
_space_group_symop_operation_xyz
x,y,z
-x,-y,-z
loop_
_atom_site_type_symbol
_atom_site_label
_atom_site_fract_x
_atom_site_fract_y
_atom_site_fract_z
Si Si1 0.111948 0.394890 0.499371
Si Si2 0.098184 0.983460 0.252053
Si Si3 0.009857 0.280712 0.936779
Si Si4 0.254843 0.697869 0.601971
Si Si5 0.636075 0.649760 0.866628
Si Si6 0.212161 0.778474 0.391402
Si Si7 0.411895 0.145878 0.891926
Si Si8 0.939413 0.056207 0.290721
O O1 0.270747 0.426040 0.222184
O O2 0.139785 0.587334 0.451708
O O3 0.980975 0.233359 0.626089
O O4 0.065853 0.305372 0.713678
O O5 0.066225 0.054636 0.172265
O O6 0.277553 0.093970 0.006109
O O7 0.000000 0.000000 0.500000
O O8 0.848845 0.255245 0.183317
O O9 0.981767 0.123116 0.083019
O O10 0.141725 0.475742 0.782053
O O11 0.283598 0.771919 0.411497
O O12 0.416578 0.778221 0.414061
O O13 0.500000 0.500000 0.000000
O O14 0.567863 0.699621 0.068971
O O15 0.771632 0.851377 0.580032
O O16 0.085053 0.806042 0.620596
O O17 0.336245 0.957377 0.104264
#
# Coordination Sequence:
#
# PCOD9081212 Si02
#       8
#     2   2   2   2   2   2   2   2
#     4  10  20  33  55  82 108 139 182 222 262 321
#     4  11  20  38  51  77 113 150 174 210 273 329
#     4   9  18  35  55  81 106 138 184 223 263 311
#     4   9  18  32  56  81 107 138 174 229 273 308
#     4  10  19  31  51  80 109 135 173 225 270 310
#     4   9  17  32  56  83 105 135 178 230 272 311
#     4  11  20  35  54  78 114 142 175 219 277 322
#     4   9  19  35  58  76 110 148 176 213 269 327
#
# _framework density 18.507254
#
# number of rings (size 3 to 8) (size 9 to 14) (size 15 to 20)
#    0.000    2.250    3.750    2.625    0.000    4.500 
#    0.000    1.250    0.000    0.000    0.000    0.000 
#    0.000    0.000    0.000    0.000    0.000    0.000 
#
# Total GULP energy -89199.510483 kJ/mol
# GULP energy per Si atom -5574.969405 kJ/mol
# Density = 1.846513 g / cm^3
# Si number density = 18.507254 Si / 1000 Ang^3
#
#
#
# Elastic Constant Matrix: (Units=GPa)
#
#
# Indices 1 2 3 4 5 6 
#
# 1 47.9334 19.6224 28.8803 -5.9004 -34.6652 -5.4134
# 2 19.6224 127.9747 13.2967 -0.4469 -13.3172 3.6312
# 3 28.8803 13.2967 61.2913 9.0724 -23.4848 -12.5168
# 4 -5.9004 -0.4469 9.0724 15.8280 1.7493 -2.3632
# 5 -34.6652 -13.3172 -23.4848 1.7493 39.3076 -1.6076
# 6 -5.4134 3.6312 -12.5168 -2.3632 -1.6076 22.8248
#
#
#
# Elastic Compliance Matrix: (Units=1/GPa)
#
#
# Indices 1 2 3 4 5 6 
#
# 1 0.084838 -0.005266 -0.016168 0.036863 0.062565 0.020316
# 2 -0.005266 0.008548 -0.000651 -0.001596 -0.002200 -0.003286
# 3 -0.016168 -0.000651 0.032540 -0.023606 0.006509 0.012128
# 4 0.036863 -0.001596 -0.023606 0.089792 0.014129 0.006344
# 5 0.062565 -0.002200 0.006509 0.014129 0.084201 0.026151
# 6 0.020316 -0.003286 0.012128 0.006344 0.026151 0.058302
#
#
# Mechanical properties :
#
#
# Convention : Reuss Voigt Hill
#
# Bulk Modulus (GPa) = 12.23144 40.08868 26.16006
# Shear Modulus (GPa) = 11.63759 27.28541 19.46150
#
# Velocity S-wave (km/s) = 2.51033 3.84384 3.24630
# Velocity P-wave (km/s) = 3.87630 6.43492 5.31196
#
# Compressibility (1/GPa) = 0.08175653
#
# Stress axis : x y z
#
# Youngs Moduli (GPa) = 11.78716 116.98948 30.73149
#
# Poissons Ratio (x) = 0.61601 0.49687
# Poissons Ratio (y) = 0.06207 0.02001
# Poissons Ratio (z) = 0.19057 0.07618
#
# Static dielectric constant tensor:
#      x y z
#    x 1.651010 -0.010380 0.010510 
#    y -0.010380 1.677670 0.005510 
#    z 0.010510 0.005510 1.630200 
# 
# From -- ./inp_files/303829.got.cif
#   From: 2010.05.17/outbox.cif.g08.bks.cpg/sg2_152_cif.got.tgz:303829.got - 2010.06.03 11:33:40.
