data_PCOD9081112
_publ_section_title
;
Structure prediction by ZEFSAII (Michael W. Deem and Ramdas Pophale) SiO2 
 PCOD9081112
Probable space group: P -1
;
_chemical_formula_sum "Si O2"
_cell_formula_units_Z 16
_cell_length_a 7.777832
_cell_length_b 5.504067
_cell_length_c 15.816131
_cell_angle_alpha 98.370258
_cell_angle_beta 62.406453
_cell_angle_gamma 95.702980
_cell_volume 593.283504
_symmetry_space_group_name_H-M "P -1"
_symmetry_group_IT_number 2
_symmetry_cell_setting 'triclinic'
loop_
_space_group_symop_operation_xyz
x,y,z
-x,-y,-z
loop_
_atom_site_type_symbol
_atom_site_label
_atom_site_fract_x
_atom_site_fract_y
_atom_site_fract_z
Si Si1 0.609940 0.387295 0.658164
Si Si2 0.432494 0.804133 0.104964
Si Si3 0.757955 0.905392 0.639744
Si Si4 0.175468 0.141250 0.577728
Si Si5 0.148459 0.069933 0.894608
Si Si6 0.232165 0.551648 0.812691
Si Si7 0.298276 0.643883 0.550922
Si Si8 0.566043 0.691958 0.878897
O O1 0.617735 0.133201 0.693917
O O2 0.384408 0.450739 0.704713
O O3 0.729870 0.339768 0.543291
O O4 0.700548 0.647022 0.682250
O O5 0.326169 0.559989 0.151220
O O6 0.643873 0.861094 0.103448
O O7 0.321988 0.053870 0.153329
O O8 0.475433 0.746892 0.994602
O O9 0.759627 0.851483 0.535589
O O10 0.966766 0.008771 0.622565
O O11 0.301220 0.934975 0.588591
O O12 0.156942 0.434188 0.613298
O O13 0.150577 0.818478 0.825767
O O14 0.104962 0.317592 0.864019
O O15 0.000000 0.000000 0.000000
O O16 0.380150 0.628186 0.859548
O O17 0.500000 0.500000 0.500000
#
# Coordination Sequence:
#
# PCOD9081112 Si02
#       8
#     2   2   2   2   2   2   2   2
#     4  10  19  31  49  72  98 126 161 207 252 291
#     4   8  14  25  42  63  83 106 139 181 221 264
#     4   9  17  30  49  72  95 121 155 201 254 289
#     4   9  17  30  49  72  96 122 160 207 241 278
#     4  10  19  31  48  69  93 124 161 193 231 288
#     4  10  19  31  48  70  94 121 155 201 246 284
#     4  10  19  31  49  73  99 134 174 199 228 284
#     4   8  14  25  42  63  84 106 137 179 228 269
#
# _framework density 26.968557000000001
#
# number of rings (size 3 to 8) (size 9 to 14) (size 15 to 20)
#    0.000    2.750    0.000    2.250    0.000    3.000 
#    0.000    0.000    0.000    4.500    0.000    0.000 
#    0.000    0.000    0.000    0.000    0.000    0.000 
#
# Total GULP energy -89233.038304 kJ/mol
# GULP energy per Si atom -5577.064894 kJ/mol
# Density = 2.690718 g / cm^3
# Si number density = 26.968557 Si / 1000 Ang^3
#
#
#
# Elastic Constant Matrix: (Units=GPa)
#
#
# Indices 1 2 3 4 5 6 
#
# 1 48.0773 10.0954 8.2548 -6.6108 0.7476 -5.7130
# 2 10.0954 231.2122 43.8690 -25.4416 14.5585 -31.3587
# 3 8.2548 43.8690 84.6487 -9.1577 -1.1253 8.5269
# 4 -6.6108 -25.4416 -9.1577 50.2950 2.6659 -2.9951
# 5 0.7476 14.5585 -1.1253 2.6659 25.8755 -3.5196
# 6 -5.7130 -31.3587 8.5269 -2.9951 -3.5196 25.6652
#
#
#
# Elastic Compliance Matrix: (Units=1/GPa)
#
#
# Indices 1 2 3 4 5 6 
#
# 1 0.022513 0.001083 -0.003170 0.003425 -0.000704 0.007690
# 2 0.001083 0.007175 -0.004520 0.003745 -0.003222 0.010505
# 3 -0.003170 -0.004520 0.015550 -0.000638 0.001851 -0.011215
# 4 0.003425 0.003745 -0.000638 0.022758 -0.003528 0.007722
# 5 -0.000704 -0.003222 0.001851 -0.003528 0.040992 0.000501
# 6 0.007690 0.010505 -0.011215 0.007722 0.000501 0.058206
#
#
# Mechanical properties :
#
#
# Convention : Reuss Voigt Hill
#
# Bulk Modulus (GPa) = 31.22690 54.26407 42.74548
# Shear Modulus (GPa) = 26.16668 40.48174 33.32421
#
# Velocity S-wave (km/s) = 3.11829 3.87857 3.51902
# Velocity P-wave (km/s) = 4.95672 6.34213 5.69174
#
# Compressibility (1/GPa) = 0.03202367
#
# Stress axis : x y z
#
# Youngs Moduli (GPa) = 44.41971 139.37291 64.30695
#
# Poissons Ratio (x) = -0.15091 0.20386
# Poissons Ratio (y) = -0.04810 0.29066
# Poissons Ratio (z) = 0.14081 0.62994
#
# Static dielectric constant tensor:
#      x y z
#    x 2.358870 -0.169160 0.218380 
#    y -0.169160 2.296160 -0.056990 
#    z 0.218380 -0.056990 2.267360 
# 
# From -- ./inp_files/52509.got.cif
#   From: 2010.05.17/outbox.cif.g08.bks.cpg/sg2_27_cif.got.tgz:52509.got - 2010.06.03 11:33:40.
