data_PCOD9081954
_publ_section_title
;
Structure prediction by ZEFSAII (Michael W. Deem and Ramdas Pophale) SiO2 
 PCOD9081954
Probable space group: P -1
;
_chemical_formula_sum "Si O2"
_cell_formula_units_Z 14
_cell_length_a 19.479566
_cell_length_b 9.741351
_cell_length_c 15.516392
_cell_angle_alpha 30.622819
_cell_angle_beta 24.794699
_cell_angle_gamma 47.870969
_cell_volume 538.446586
_symmetry_space_group_name_H-M "P -1"
_symmetry_group_IT_number 2
_symmetry_cell_setting 'triclinic'
loop_
_space_group_symop_operation_xyz
x,y,z
-x,-y,-z
loop_
_atom_site_type_symbol
_atom_site_label
_atom_site_fract_x
_atom_site_fract_y
_atom_site_fract_z
Si Si1 0.196037 0.448551 0.594738
Si Si2 0.089024 0.496432 0.991635
Si Si3 0.771845 0.568137 0.791833
Si Si4 0.028954 0.267674 0.701957
Si Si5 0.687659 0.837459 0.080264
Si Si6 0.399206 0.321152 0.919845
Si Si7 0.478815 0.950137 0.390464
O O1 0.175455 0.427442 0.527248
O O2 0.405846 0.639973 0.290657
O O3 0.054488 0.543476 0.747993
O O4 0.113451 0.091103 0.914773
O O5 0.142536 0.227370 0.069510
O O6 0.291079 0.812421 0.618750
O O7 0.000000 0.500000 0.000000
O O8 0.131844 0.270266 0.495087
O O9 0.741998 0.763935 0.793533
O O10 0.555729 0.271138 0.180929
O O11 0.903685 0.433163 0.747461
O O12 0.500000 0.500000 0.500000
O O13 0.671058 0.894753 0.968470
O O14 0.663494 0.040020 0.070856
O O15 0.436034 0.659026 0.658766
#
# Coordination Sequence:
#
# PCOD9081954 Si02
#       7
#     2   2   2   2   2   2   2
#     4  11  21  37  58  87 116 150 195 237 290 338
#     4  10  19  32  58  86 115 146 192 243 281 337
#     4  11  22  39  58  85 119 155 193 236 288 343
#     4  10  24  37  57  83 122 151 190 240 290 340
#     4   8  17  33  55  88 109 152 193 233 278 348
#     4  10  19  34  62  83 115 152 194 232 287 347
#     4  10  19  34  60  88 114 156 195 232 285 351
#
# _framework density 26.000722
#
# number of rings (size 3 to 8) (size 9 to 14) (size 15 to 20)
#    0.000    2.286    1.429    4.714    4.000    0.571 
#    0.000    0.000    3.143    4.286    0.000    0.000 
#    0.000    0.000    0.000    0.000    0.000    0.000 
#
# Total GULP energy -78502.796452 kJ/mol
# GULP energy per Si atom -5607.342604 kJ/mol
# Density = 2.594154 g / cm^3
# Si number density = 26.000722 Si / 1000 Ang^3
#
#
#
# Elastic Constant Matrix: (Units=GPa)
#
#
# Indices 1 2 3 4 5 6 
#
# 1 188.6319 31.8459 57.9450 22.0221 -10.6901 6.4195
# 2 31.8459 75.1111 28.4024 18.4651 -3.0035 10.3240
# 3 57.9450 28.4024 120.9836 25.2916 -15.2423 -3.7223
# 4 22.0221 18.4651 25.2916 56.6058 6.5602 4.6410
# 5 -10.6901 -3.0035 -15.2423 6.5602 55.4556 9.8511
# 6 6.4195 10.3240 -3.7223 4.6410 9.8511 40.9613
#
#
#
# Elastic Compliance Matrix: (Units=1/GPa)
#
#
# Indices 1 2 3 4 5 6 
#
# 1 0.006500 -0.001405 -0.002516 -0.000956 0.000771 -0.000970
# 2 -0.001405 0.016261 -0.002404 -0.003482 0.001064 -0.003958
# 3 -0.002516 -0.002404 0.011184 -0.003681 0.002572 0.001815
# 4 -0.000956 -0.003482 -0.003681 0.021322 -0.003762 -0.000818
# 5 0.000771 0.001064 0.002572 -0.003762 0.020206 -0.004588
# 6 -0.000970 -0.003958 0.001815 -0.000818 -0.004588 0.026924
#
#
# Mechanical properties :
#
#
# Convention : Reuss Voigt Hill
#
# Bulk Modulus (GPa) = 46.96072 69.01259 57.98665
# Shear Modulus (GPa) = 40.93463 48.37342 44.65403
#
# Velocity S-wave (km/s) = 3.97213 4.31799 4.14867
# Velocity P-wave (km/s) = 6.25601 7.17358 6.73045
#
# Compressibility (1/GPa) = 0.02129439
#
# Stress axis : x y z
#
# Youngs Moduli (GPa) = 153.85176 61.49599 89.40973
#
# Poissons Ratio (x) = 0.08641 0.22496
# Poissons Ratio (y) = 0.21619 0.21496
# Poissons Ratio (z) = 0.38710 0.14785
#
# Static dielectric constant tensor:
#      x y z
#    x 1.986390 -0.000460 0.004780 
#    y -0.000460 2.089180 -0.062770 
#    z 0.004780 -0.062770 2.035420 
# 
# From -- ./inp_files/577674.got.cif
#   From: 2010.05.17/outbox.cif.g08.bks.cpg/sg2_289_cif.got.tgz:577674.got - 2010.06.03 11:33:40.
