data_PCOD9081803
_publ_section_title
;
Structure prediction by ZEFSAII (Michael W. Deem and Ramdas Pophale) SiO2 
 PCOD9081803
Probable space group: P -1
;
_chemical_formula_sum "Si O2"
_cell_formula_units_Z 16
_cell_length_a 11.580108
_cell_length_b 7.503355
_cell_length_c 16.039147
_cell_angle_alpha 75.030194
_cell_angle_beta 143.108964
_cell_angle_gamma 121.256794
_cell_volume 681.014382
_symmetry_space_group_name_H-M "P -1"
_symmetry_group_IT_number 2
_symmetry_cell_setting 'triclinic'
loop_
_space_group_symop_operation_xyz
x,y,z
-x,-y,-z
loop_
_atom_site_type_symbol
_atom_site_label
_atom_site_fract_x
_atom_site_fract_y
_atom_site_fract_z
Si Si1 0.703797 0.396276 0.679520
Si Si2 0.875318 0.489994 0.014453
Si Si3 0.669020 0.768210 0.989638
Si Si4 0.142778 0.497265 0.428588
Si Si5 0.696980 0.341524 0.091862
Si Si6 0.504561 0.609400 0.745137
Si Si7 0.848484 0.858773 0.783629
Si Si8 0.317796 0.974815 0.468079
O O1 0.712705 0.452627 0.580081
O O2 0.774866 0.616957 0.741435
O O3 0.464892 0.179391 0.589087
O O4 0.901378 0.348760 0.819281
O O5 0.681083 0.532943 0.871574
O O6 0.746314 0.296730 0.031907
O O7 0.000000 0.500000 0.000000
O O8 0.718948 0.579088 0.066032
O O9 0.553714 0.806021 0.997363
O O10 0.484247 0.674779 0.818828
O O11 0.893375 0.983131 0.056480
O O12 0.268976 0.448535 0.580044
O O13 0.886190 0.355696 0.262244
O O14 0.186393 0.730940 0.454954
O O15 0.658167 0.815302 0.746996
O O16 0.845494 0.978674 0.684312
O O17 0.500000 0.000000 0.500000
#
# Coordination Sequence:
#
# PCOD9081803 Si02
#       8
#     2   2   2   2   2   2   2   2
#     4  10  21  34  56  84 122 152 184 239 306 345
#     4  10  20  37  58  87 117 152 188 250 296 347
#     4  10  22  37  59  86 118 161 197 242 287 352
#     4  10  20  38  59  87 115 160 195 242 293 354
#     4   9  20  41  60  82 116 162 203 228 295 358
#     4  11  22  33  59  91 121 145 201 254 291 338
#     4  12  20  34  57  93 118 151 196 247 296 346
#     4  10  19  32  55  85 119 154 192 240 295 357
#
# _framework density 23.494364999999998
#
# number of rings (size 3 to 8) (size 9 to 14) (size 15 to 20)
#    0.000    1.750    5.000    0.750    1.750    1.500 
#    0.000    2.500    0.000    0.000    0.000    5.250 
#    0.000    0.000    0.000    0.000    0.000    0.000 
#
# Total GULP energy -89108.663768 kJ/mol
# GULP energy per Si atom -5569.291486 kJ/mol
# Density = 2.344089 g / cm^3
# Si number density = 23.494365 Si / 1000 Ang^3
#
#
#
# Elastic Constant Matrix: (Units=GPa)
#
#
# Indices 1 2 3 4 5 6 
#
# 1 89.0892 -5.6857 -0.1814 -4.5168 -4.8103 10.5992
# 2 -5.6857 58.0179 10.9880 5.4555 -0.6401 -11.1161
# 3 -0.1814 10.9880 136.8077 -34.8564 -8.2908 -1.0795
# 4 -4.5168 5.4555 -34.8564 25.6474 -2.6953 2.3990
# 5 -4.8103 -0.6401 -8.2908 -2.6953 24.7322 0.4807
# 6 10.5992 -11.1161 -1.0795 2.3990 0.4807 15.6336
#
#
#
# Elastic Compliance Matrix: (Units=1/GPa)
#
#
# Indices 1 2 3 4 5 6 
#
# 1 0.013036 -0.001913 0.002151 0.007123 0.004202 -0.011272
# 2 -0.001913 0.023468 -0.005972 -0.015732 -0.003872 0.020105
# 3 0.002151 -0.005972 0.013758 0.021908 0.007426 -0.008345
# 4 0.007123 -0.015732 0.021908 0.077707 0.017315 -0.026959
# 5 0.004202 -0.003872 0.007426 0.017315 0.045704 -0.009152
# 6 -0.011272 0.020105 -0.008345 -0.026959 -0.009152 0.089744
#
#
# Mechanical properties :
#
#
# Convention : Reuss Voigt Hill
#
# Bulk Modulus (GPa) = 25.77617 32.68407 29.23012
# Shear Modulus (GPa) = 17.37216 31.78888 24.58052
#
# Velocity S-wave (km/s) = 2.72217 3.68236 3.23806
# Velocity P-wave (km/s) = 4.56895 5.65874 5.14280
#
# Compressibility (1/GPa) = 0.03879552
#
# Stress axis : x y z
#
# Youngs Moduli (GPa) = 76.71010 42.61088 72.68480
#
# Poissons Ratio (x) = 0.08151 -0.15637
# Poissons Ratio (y) = 0.14675 0.43406
# Poissons Ratio (z) = -0.16503 0.25446
#
# Static dielectric constant tensor:
#      x y z
#    x 1.975500 -0.074080 -0.000240 
#    y -0.074080 1.997920 -0.019960 
#    z -0.000240 -0.019960 1.972910 
# 
# From -- ./inp_files/514335.got.cif
#   From: 2010.05.17/outbox.cif.g08.bks.cpg/sg2_258_cif.got.tgz:514335.got - 2010.06.03 11:33:40.
