data_PCOD9081655
_publ_section_title
;
Structure prediction by ZEFSAII (Michael W. Deem and Ramdas Pophale) SiO2 
 PCOD9081655
Probable space group: P -1
;
_chemical_formula_sum "Si O2"
_cell_formula_units_Z 16
_cell_length_a 7.083038
_cell_length_b 11.623551
_cell_length_c 10.214545
_cell_angle_alpha 96.348733
_cell_angle_beta 81.631390
_cell_angle_gamma 53.137096
_cell_volume 644.530553
_symmetry_space_group_name_H-M "P -1"
_symmetry_group_IT_number 2
_symmetry_cell_setting 'triclinic'
loop_
_space_group_symop_operation_xyz
x,y,z
-x,-y,-z
loop_
_atom_site_type_symbol
_atom_site_label
_atom_site_fract_x
_atom_site_fract_y
_atom_site_fract_z
Si Si1 0.114124 0.742640 0.419064
Si Si2 0.727311 0.131890 0.761263
Si Si3 0.876035 0.399658 0.856781
Si Si4 0.275373 0.866028 0.747817
Si Si5 0.014582 0.431093 0.277528
Si Si6 0.658428 0.309633 0.029265
Si Si7 0.294837 0.117197 0.300310
Si Si8 0.627214 0.574278 0.547071
O O1 0.233558 0.818497 0.374099
O O2 0.030726 0.713308 0.287416
O O3 0.317387 0.577795 0.435076
O O4 0.880589 0.831528 0.548903
O O5 0.622149 0.043411 0.763481
O O6 0.601429 0.264939 0.893790
O O7 0.004058 0.007970 0.766170
O O8 0.984481 0.486582 0.838404
O O9 0.584479 0.531928 0.881264
O O10 0.870846 0.321867 0.976300
O O11 0.285134 0.807701 0.883724
O O12 0.463152 0.898789 0.709964
O O13 0.366724 0.728771 0.625858
O O14 0.121874 0.260050 0.237693
O O15 0.199754 0.419354 0.364734
O O16 0.756146 0.539126 0.389661
#
# Coordination Sequence:
#
# PCOD9081655 Si02
#       8
#     2   2   2   2   2   2   2   2
#     4   9  17  35  57  82 107 141 182 224 269 322
#     4  11  24  34  53  85 113 144 180 216 270 330
#     4   9  15  30  58  84  96 143 195 214 264 322
#     4  11  20  37  56  81 110 144 180 226 268 313
#     4   8  13  28  52  80  97 131 181 220 258 313
#     4  10  19  32  53  81 107 145 185 220 261 320
#     4  10  20  36  57  80 112 144 174 221 279 326
#     4   8  14  28  57  77  99 139 178 218 269 311
#
# _framework density 24.824269999999999
#
# number of rings (size 3 to 8) (size 9 to 14) (size 15 to 20)
#    0.000    2.500    3.750    3.000    0.000    1.000 
#    0.000    2.500    0.000    6.750    0.000    0.000 
#    0.000    0.000    0.000    0.000    0.000    0.000 
#
# Total GULP energy -89441.735993 kJ/mol
# GULP energy per Si atom -5590.108500 kJ/mol
# Density = 2.476777 g / cm^3
# Si number density = 24.824270 Si / 1000 Ang^3
#
#
#
# Elastic Constant Matrix: (Units=GPa)
#
#
# Indices 1 2 3 4 5 6 
#
# 1 72.9564 26.1449 19.2706 -7.7899 -10.9311 29.1274
# 2 26.1449 101.3644 23.8966 -10.7868 3.4253 47.3178
# 3 19.2706 23.8966 90.8606 -17.6047 -12.0023 19.1627
# 4 -7.7899 -10.7868 -17.6047 43.0816 10.7304 -8.1049
# 5 -10.9311 3.4253 -12.0023 10.7304 21.4385 -3.3440
# 6 29.1274 47.3178 19.1627 -8.1049 -3.3440 53.5539
#
#
#
# Elastic Compliance Matrix: (Units=1/GPa)
#
#
# Indices 1 2 3 4 5 6 
#
# 1 0.018951 -0.000967 -0.001006 -0.000951 0.008371 -0.008714
# 2 -0.000967 0.018075 -0.001961 0.002800 -0.008194 -0.014830
# 3 -0.001006 -0.001961 0.013425 0.003126 0.005486 -0.001709
# 4 -0.000951 0.002800 0.003126 0.028415 -0.013344 0.000392
# 5 0.008371 -0.008194 0.005486 -0.013344 0.062378 0.002599
# 6 -0.008714 -0.014830 -0.001709 0.000392 0.002599 0.037349
#
#
# Mechanical properties :
#
#
# Convention : Reuss Voigt Hill
#
# Bulk Modulus (GPa) = 23.48283 44.86728 34.17505
# Shear Modulus (GPa) = 24.91843 36.67275 30.79559
#
# Velocity S-wave (km/s) = 3.17171 3.84773 3.52596
# Velocity P-wave (km/s) = 4.78468 6.15250 5.51119
#
# Compressibility (1/GPa) = 0.04258431
#
# Stress axis : x y z
#
# Youngs Moduli (GPa) = 52.76854 55.32535 74.48519
#
# Poissons Ratio (x) = 0.05351 0.07490
# Poissons Ratio (y) = 0.05104 0.14604
# Poissons Ratio (z) = 0.05306 0.10847
#
# Static dielectric constant tensor:
#      x y z
#    x 2.101800 0.053660 0.096610 
#    y 0.053660 1.981440 -0.030800 
#    z 0.096610 -0.030800 1.996100 
# 
# From -- ./inp_files/387782.got.cif
#   From: 2010.05.17/outbox.cif.g08.bks.cpg/sg2_194_cif.got.tgz:387782.got - 2010.06.03 11:33:40.
