data_PCOD9081755
_publ_section_title
;
Structure prediction by ZEFSAII (Michael W. Deem and Ramdas Pophale) SiO2 
 PCOD9081755
Probable space group: P -1
;
_chemical_formula_sum "Si O2"
_cell_formula_units_Z 14
_cell_length_a 15.526566
_cell_length_b 9.400565
_cell_length_c 14.550150
_cell_angle_alpha 93.369138
_cell_angle_beta 131.815065
_cell_angle_gamma 45.444280
_cell_volume 719.419211
_symmetry_space_group_name_H-M "P -1"
_symmetry_group_IT_number 2
_symmetry_cell_setting 'triclinic'
loop_
_space_group_symop_operation_xyz
x,y,z
-x,-y,-z
loop_
_atom_site_type_symbol
_atom_site_label
_atom_site_fract_x
_atom_site_fract_y
_atom_site_fract_z
Si Si1 0.851171 0.041869 0.317839
Si Si2 0.293824 0.132235 0.306475
Si Si3 0.177359 0.869668 0.018288
Si Si4 0.757528 0.127313 0.663880
Si Si5 0.745257 0.201122 0.451867
Si Si6 0.781686 0.858830 0.946865
Si Si7 0.433352 0.733548 0.037142
O O1 0.827126 0.035152 0.408276
O O2 0.701490 0.096321 0.149415
O O3 0.698609 0.360402 0.206546
O O4 0.132077 0.775229 0.473708
O O5 0.342933 0.070196 0.229456
O O6 0.500000 0.000000 0.500000
O O7 0.290264 0.977606 0.337923
O O8 0.014217 0.507525 0.131665
O O9 0.034679 0.017010 0.132356
O O10 0.439423 0.544858 0.243047
O O11 0.101648 0.114489 0.999421
O O12 0.260090 0.804872 0.968424
O O13 0.500000 0.500000 0.500000
O O14 0.828305 0.048404 0.602778
O O15 0.592246 0.107821 0.904581
#
# Coordination Sequence:
#
# PCOD9081755 Si02
#       7
#     2   2   2   2   2   2   2
#     4   9  16  31  58  92 119 149 185 242 293 344
#     4  11  24  39  58  80 115 164 196 235 289 351
#     4   9  19  36  57  87 114 146 191 242 291 335
#     4  12  24  36  58  88 123 149 194 249 293 344
#     4  10  19  32  54  90 121 146 184 239 295 340
#     4   9  20  39  57  81 113 151 200 231 285 351
#     4   8  16  33  60  84 116 147 192 243 282 342
#
# _framework density 19.460141
#
# number of rings (size 3 to 8) (size 9 to 14) (size 15 to 20)
#    0.857    1.429    1.429    1.714    0.000    5.714 
#    0.000    0.000    0.000    1.714    0.000    0.000 
#    0.000    0.000    0.000    0.000    0.000    0.000 
#
# Total GULP energy -77941.155241 kJ/mol
# GULP energy per Si atom -5567.225374 kJ/mol
# Density = 1.941585 g / cm^3
# Si number density = 19.460141 Si / 1000 Ang^3
#
#
#
# Elastic Constant Matrix: (Units=GPa)
#
#
# Indices 1 2 3 4 5 6 
#
# 1 49.4317 17.6942 30.1339 -0.1979 -1.6444 3.4707
# 2 17.6942 88.8288 50.3889 12.0685 -4.4963 -0.9833
# 3 30.1339 50.3889 125.3201 21.0718 3.3633 8.3347
# 4 -0.1979 12.0685 21.0718 30.2409 -5.8498 -6.5411
# 5 -1.6444 -4.4963 3.3633 -5.8498 30.6948 8.5096
# 6 3.4707 -0.9833 8.3347 -6.5411 8.5096 35.3573
#
#
#
# Elastic Compliance Matrix: (Units=1/GPa)
#
#
# Indices 1 2 3 4 5 6 
#
# 1 0.024894 -0.002115 -0.006125 0.005695 0.002981 -0.000722
# 2 -0.002115 0.015088 -0.005414 -0.001622 0.002075 0.001104
# 3 -0.006125 -0.005414 0.013397 -0.008605 -0.003254 -0.003516
# 4 0.005695 -0.001622 -0.008605 0.042763 0.007042 0.007640
# 5 0.002981 0.002075 -0.003254 0.007042 0.036680 -0.006993
# 6 -0.000722 0.001104 -0.003516 0.007640 -0.006993 0.032310
#
#
# Mechanical properties :
#
#
# Convention : Reuss Voigt Hill
#
# Bulk Modulus (GPa) = 38.35817 51.11274 44.73546
# Shear Modulus (GPa) = 24.85958 30.28283 27.57120
#
# Velocity S-wave (km/s) = 3.57804 3.94908 3.76813
# Velocity P-wave (km/s) = 6.06826 6.86411 6.47842
#
# Compressibility (1/GPa) = 0.02607006
#
# Stress axis : x y z
#
# Youngs Moduli (GPa) = 40.17111 66.27832 74.64182
#
# Poissons Ratio (x) = 0.14019 0.45717
# Poissons Ratio (y) = 0.08497 0.40413
# Poissons Ratio (z) = 0.24604 0.35885
#
# Static dielectric constant tensor:
#      x y z
#    x 1.706050 -0.068670 0.002800 
#    y -0.068670 1.725410 0.021810 
#    z 0.002800 0.021810 1.742700 
# 
# From -- ./inp_files/527565.got.cif
#   From: 2010.05.17/outbox.cif.g08.bks.cpg/sg2_264_cif.got.tgz:527565.got - 2010.06.03 11:33:40.
