data_PCOD9081393
_publ_section_title
;
Structure prediction by ZEFSAII (Michael W. Deem and Ramdas Pophale) SiO2 
 PCOD9081393
Probable space group: P -1
;
_chemical_formula_sum "Si O2"
_cell_formula_units_Z 16
_cell_length_a 20.949280
_cell_length_b 12.292949
_cell_length_c 8.620121
_cell_angle_alpha 80.238818
_cell_angle_beta 77.571423
_cell_angle_gamma 148.828404
_cell_volume 801.653983
_symmetry_space_group_name_H-M "P -1"
_symmetry_group_IT_number 2
_symmetry_cell_setting 'triclinic'
loop_
_space_group_symop_operation_xyz
x,y,z
-x,-y,-z
loop_
_atom_site_type_symbol
_atom_site_label
_atom_site_fract_x
_atom_site_fract_y
_atom_site_fract_z
Si Si1 0.074884 0.520537 0.849970
Si Si2 0.732312 0.267279 0.033386
Si Si3 0.095473 0.760624 0.320389
Si Si4 0.610467 0.037657 0.595840
Si Si5 0.779891 0.687184 0.536245
Si Si6 0.949983 0.742063 0.592267
Si Si7 0.406953 0.113795 0.037594
Si Si8 0.365613 0.683246 0.540796
O O1 0.955695 0.304622 0.818064
O O2 0.260568 0.841586 0.594734
O O3 0.126577 0.513555 0.956947
O O4 0.000000 0.500000 0.000000
O O5 0.781330 0.439305 0.848737
O O6 0.718871 0.137091 0.966362
O O7 0.544372 0.975402 0.279091
O O8 0.000000 0.500000 0.500000
O O9 0.026212 0.757936 0.452421
O O10 0.302068 0.059508 0.153832
O O11 0.589399 0.962603 0.798256
O O12 0.429578 0.765557 0.662703
O O13 0.706977 0.307955 0.459221
O O14 0.884831 0.743379 0.526272
O O15 0.732364 0.575120 0.414163
O O16 0.599648 0.423258 0.789734
O O17 0.903161 0.982997 0.433855
#
# Coordination Sequence:
#
# PCOD9081393 Si02
#       8
#     2   2   2   2   2   2   2   2
#     4  11  19  31  52  86 114 141 180 234 287 328
#     4  10  19  33  58  84 111 145 190 232 278 335
#     4  12  21  36  60  88 116 148 190 240 284 334
#     4  10  19  31  57  84 116 141 190 235 284 329
#     4  10  23  39  59  82 119 153 190 233 282 347
#     4  11  22  40  59  84 114 156 192 230 287 340
#     4  11  20  36  59  87 112 150 187 241 280 335
#     4   9  19  35  55  86 112 146 184 240 281 331
#
# _framework density 19.958734
#
# number of rings (size 3 to 8) (size 9 to 14) (size 15 to 20)
#    0.000    1.500    3.750    2.250    0.000    2.500 
#    0.000    1.250    0.000   11.250    0.000    0.000 
#    0.000    0.000    0.000    0.000    0.000    0.000 
#
# Total GULP energy -89137.236761 kJ/mol
# GULP energy per Si atom -5571.077298 kJ/mol
# Density = 1.991331 g / cm^3
# Si number density = 19.958734 Si / 1000 Ang^3
#
#
#
# Elastic Constant Matrix: (Units=GPa)
#
#
# Indices 1 2 3 4 5 6 
#
# 1 71.0877 20.6138 13.8004 5.5794 -20.4960 -1.5368
# 2 20.6138 102.4480 9.5714 10.1939 1.0292 -2.3052
# 3 13.8004 9.5714 31.0965 8.4084 -10.4289 -2.1753
# 4 5.5794 10.1939 8.4084 30.5634 3.1394 0.8375
# 5 -20.4960 1.0292 -10.4289 3.1394 26.1555 3.9341
# 6 -1.5368 -2.3052 -2.1753 0.8375 3.9341 26.9820
#
#
#
# Elastic Compliance Matrix: (Units=1/GPa)
#
#
# Indices 1 2 3 4 5 6 
#
# 1 0.020385 -0.003788 -0.001585 -0.003640 0.016159 -0.001533
# 2 -0.003788 0.011022 -0.002602 -0.001850 -0.004400 0.001215
# 3 -0.001585 -0.002602 0.042905 -0.012453 0.017311 0.001009
# 4 -0.003640 -0.001850 -0.012453 0.038708 -0.012273 -0.000781
# 5 0.016159 -0.004400 0.017311 -0.012273 0.060420 -0.006489
# 6 -0.001533 0.001215 0.001009 -0.000781 -0.006489 0.038130
#
#
# Mechanical properties :
#
#
# Convention : Reuss Voigt Hill
#
# Bulk Modulus (GPa) = 17.13421 32.51148 24.82284
# Shear Modulus (GPa) = 20.24509 27.44994 23.84752
#
# Velocity S-wave (km/s) = 3.18834 3.71257 3.46040
# Velocity P-wave (km/s) = 4.70717 5.89087 5.33197
#
# Compressibility (1/GPa) = 0.05836278
#
# Stress axis : x y z
#
# Youngs Moduli (GPa) = 49.05665 90.72751 23.30708
#
# Poissons Ratio (x) = 0.34370 0.03693
# Poissons Ratio (y) = 0.18584 0.06064
# Poissons Ratio (z) = 0.07773 0.23605
#
# Static dielectric constant tensor:
#      x y z
#    x 1.805160 0.011280 -0.064190 
#    y 0.011280 1.755530 0.016690 
#    z -0.064190 0.016690 1.705300 
# 
# From -- ./inp_files/239869.got.cif
#   From: 2010.05.17/outbox.cif.g08.bks.cpg/sg2_120_cif.got.tgz:239869.got - 2010.06.03 11:33:40.
