data_PCOD9081821
_publ_section_title
;
Structure prediction by ZEFSAII (Michael W. Deem and Ramdas Pophale) SiO2 
 PCOD9081821
Probable space group: P -1
;
_chemical_formula_sum "Si O2"
_cell_formula_units_Z 16
_cell_length_a 14.367320
_cell_length_b 10.585457
_cell_length_c 10.913861
_cell_angle_alpha 90.356347
_cell_angle_beta 39.847556
_cell_angle_gamma 118.935385
_cell_volume 706.265361
_symmetry_space_group_name_H-M "P -1"
_symmetry_group_IT_number 2
_symmetry_cell_setting 'triclinic'
loop_
_space_group_symop_operation_xyz
x,y,z
-x,-y,-z
loop_
_atom_site_type_symbol
_atom_site_label
_atom_site_fract_x
_atom_site_fract_y
_atom_site_fract_z
Si Si1 0.252350 0.192608 0.718642
Si Si2 0.926135 0.376199 0.840186
Si Si3 0.103259 0.877435 0.318215
Si Si4 0.656815 0.563744 0.734049
Si Si5 0.539234 0.853568 0.686458
Si Si6 0.646742 0.474655 0.481647
Si Si7 0.838665 0.234703 0.509925
Si Si8 0.443678 0.752505 0.067747
O O1 0.337706 0.174039 0.512829
O O2 0.433648 0.272018 0.637650
O O3 0.274546 0.357965 0.680693
O O4 0.000000 0.000000 0.000000
O O5 0.871209 0.224201 0.801970
O O6 0.138890 0.469901 0.703284
O O7 0.999021 0.553055 0.700550
O O8 0.693724 0.257357 0.137052
O O9 0.064415 0.806760 0.497153
O O10 0.874472 0.788862 0.509017
O O11 0.320552 0.100912 0.103961
O O12 0.568409 0.487893 0.687978
O O13 0.500000 0.500000 0.000000
O O14 0.710784 0.456175 0.723825
O O15 0.480528 0.773974 0.885500
O O16 0.703575 0.078173 0.539159
O O17 0.665900 0.191231 0.773819
#
# Coordination Sequence:
#
# PCOD9081821 Si02
#       8
#     2   2   2   2   2   2   2   2
#     4  11  27  50  67  82 123 176 223 269 311 368
#     4  11  20  37  66  97 130 159 204 264 324 369
#     4  10  19  32  55  89 133 170 189 242 304 377
#     4  11  23  37  61  95 129 165 204 251 318 384
#     4  11  23  38  67 100 126 168 218 254 308 383
#     4  10  25  45  67  90 123 168 215 263 323 373
#     4  11  19  34  62 101 133 164 194 246 322 387
#     4  11  19  35  62  98 137 158 198 246 318 385
#
# _framework density 22.654375000000002
#
# number of rings (size 3 to 8) (size 9 to 14) (size 15 to 20)
#    0.000    1.250    5.000    2.625    0.000    8.000 
#    0.000    1.250    0.000    0.000    0.000    0.000 
#    0.000    0.000    0.000    0.000    0.000    0.000 
#
# Total GULP energy -89318.167917 kJ/mol
# GULP energy per Si atom -5582.385495 kJ/mol
# Density = 2.260281 g / cm^3
# Si number density = 22.654375 Si / 1000 Ang^3
#
#
#
# Elastic Constant Matrix: (Units=GPa)
#
#
# Indices 1 2 3 4 5 6 
#
# 1 61.6981 19.2801 17.3994 -8.2751 -18.8794 17.2997
# 2 19.2801 54.4552 47.3325 -8.4483 -16.5871 17.3164
# 3 17.3994 47.3325 115.7020 -17.1277 -22.5049 18.4808
# 4 -8.2751 -8.4483 -17.1277 36.8426 3.9125 -5.8771
# 5 -18.8794 -16.5871 -22.5049 3.9125 23.4822 -8.1882
# 6 17.2997 17.3164 18.4808 -5.8771 -8.1882 30.0535
#
#
#
# Elastic Compliance Matrix: (Units=1/GPa)
#
#
# Indices 1 2 3 4 5 6 
#
# 1 0.024215 -0.002298 0.002366 0.002821 0.016497 -0.009024
# 2 -0.002298 0.033789 -0.010234 0.000025 0.008924 -0.009417
# 3 0.002366 -0.010234 0.014820 0.003991 0.007611 -0.001725
# 4 0.002821 0.000025 0.003991 0.029792 0.001935 0.002261
# 5 0.016497 0.008924 0.007611 0.001935 0.069083 -0.000118
# 6 -0.009024 -0.009417 -0.001725 0.002261 -0.000118 0.045365
#
#
# Mechanical properties :
#
#
# Convention : Reuss Voigt Hill
#
# Bulk Modulus (GPa) = 19.05007 44.43102 31.74054
# Shear Modulus (GPa) = 19.61603 27.93187 23.77395
#
# Velocity S-wave (km/s) = 2.94578 3.51516 3.24299
# Velocity P-wave (km/s) = 4.47185 6.01084 5.29753
#
# Compressibility (1/GPa) = 0.05249326
#
# Stress axis : x y z
#
# Youngs Moduli (GPa) = 41.29630 29.59546 67.47557
#
# Poissons Ratio (x) = 0.06802 -0.15967
# Poissons Ratio (y) = 0.09491 0.69051
# Poissons Ratio (z) = -0.09772 0.30287
#
# Static dielectric constant tensor:
#      x y z
#    x 1.904730 -0.024440 -0.057960 
#    y -0.024440 1.912510 0.031140 
#    z -0.057960 0.031140 1.836370 
# 
# From -- ./inp_files/452345.got.cif
#   From: 2010.05.17/outbox.cif.g08.bks.cpg/sg2_227_cif.got.tgz:452345.got - 2010.06.03 11:33:40.
