data_PCOD9081344
_publ_section_title
;
Structure prediction by ZEFSAII (Michael W. Deem and Ramdas Pophale) SiO2 
 PCOD9081344
Probable space group: P -1
;
_chemical_formula_sum "Si O2"
_cell_formula_units_Z 16
_cell_length_a 9.801386
_cell_length_b 8.795764
_cell_length_c 14.542355
_cell_angle_alpha 62.580218
_cell_angle_beta 81.167093
_cell_angle_gamma 34.985914
_cell_volume 573.126773
_symmetry_space_group_name_H-M "P -1"
_symmetry_group_IT_number 2
_symmetry_cell_setting 'triclinic'
loop_
_space_group_symop_operation_xyz
x,y,z
-x,-y,-z
loop_
_atom_site_type_symbol
_atom_site_label
_atom_site_fract_x
_atom_site_fract_y
_atom_site_fract_z
Si Si1 0.084369 0.234903 0.021098
Si Si2 0.184043 0.271946 0.454274
Si Si3 0.354101 0.725518 0.595238
Si Si4 0.168266 0.617976 0.270476
Si Si5 0.260804 0.669918 0.822182
Si Si6 0.281976 0.611572 0.071694
Si Si7 0.120948 0.454182 0.807303
Si Si8 0.560577 0.155098 0.733177
O O1 0.180408 0.209344 0.919422
O O2 0.806052 0.431789 0.981960
O O3 0.000000 0.500000 0.000000
O O4 0.296530 0.939669 0.156391
O O5 0.069727 0.532144 0.322479
O O6 0.000000 0.500000 0.500000
O O7 0.500000 0.000000 0.500000
O O8 0.176611 0.076352 0.486619
O O9 0.635409 0.519974 0.634068
O O10 0.258097 0.765994 0.694931
O O11 0.424345 0.467566 0.614482
O O12 0.324252 0.458707 0.203218
O O13 0.944366 0.996557 0.192575
O O14 0.519076 0.443439 0.918503
O O15 0.198435 0.540883 0.838316
O O16 0.000000 0.000000 0.000000
O O17 0.328698 0.270925 0.754235
O O18 0.799316 0.825144 0.739840
#
# Coordination Sequence:
#
# PCOD9081344 Si02
#       8
#     2   2   2   2   2   2   2   2
#     4  10  22  41  57  82 119 161 209 249 300 364
#     4  10  19  31  55  85 118 158 192 247 309 364
#     4   9  17  31  53  82 119 146 196 244 305 352
#     4  10  19  34  52  81 123 151 197 245 310 360
#     4  10  19  34  58  82 118 154 196 248 299 358
#     4  11  24  39  56  86 122 164 205 252 312 361
#     4  10  20  35  59  79 115 152 198 243 289 350
#     4  10  19  34  55  80 110 148 192 249 286 349
#
# _framework density 27.917033
#
# number of rings (size 3 to 8) (size 9 to 14) (size 15 to 20)
#    0.000    2.000    2.500    2.625    1.750    0.500 
#    9.000    0.000    0.000    0.000    0.000    7.000 
#    0.000    0.000    0.000    0.000    0.000    0.000 
#
# Total GULP energy -89214.424457 kJ/mol
# GULP energy per Si atom -5575.901529 kJ/mol
# Density = 2.785349 g / cm^3
# Si number density = 27.917033 Si / 1000 Ang^3
#
#
#
# Elastic Constant Matrix: (Units=GPa)
#
#
# Indices 1 2 3 4 5 6 
#
# 1 187.3105 44.0364 39.8675 -16.2237 -28.7815 -28.2918
# 2 44.0364 129.5457 19.4360 -9.4452 -7.9244 -19.9815
# 3 39.8675 19.4360 85.4835 -9.0183 -38.7233 -5.0690
# 4 -16.2237 -9.4452 -9.0183 35.5517 -0.4915 -3.3107
# 5 -28.7815 -7.9244 -38.7233 -0.4915 61.2808 -3.9851
# 6 -28.2918 -19.9815 -5.0690 -3.3107 -3.9851 50.8896
#
#
#
# Elastic Compliance Matrix: (Units=1/GPa)
#
#
# Indices 1 2 3 4 5 6 
#
# 1 0.007145 -0.001277 -0.001318 0.002971 0.002625 0.003738
# 2 -0.001277 0.008874 -0.001025 0.001776 0.000096 0.002795
# 3 -0.001318 -0.001025 0.017927 0.003985 0.010722 0.001749
# 4 0.002971 0.001776 0.003985 0.031513 0.004732 0.005167
# 5 0.002625 0.000096 0.010722 0.004732 0.024690 0.004806
# 6 0.003738 0.002795 0.001749 0.005167 0.004806 0.023713
#
#
# Mechanical properties :
#
#
# Convention : Reuss Voigt Hill
#
# Bulk Modulus (GPa) = 37.44608 67.66884 52.55746
# Shear Modulus (GPa) = 38.46047 49.47772 43.96910
#
# Velocity S-wave (km/s) = 3.71573 4.21445 3.97292
# Velocity P-wave (km/s) = 5.64369 6.92633 6.31765
#
# Compressibility (1/GPa) = 0.02670506
#
# Stress axis : x y z
#
# Youngs Moduli (GPa) = 139.96300 112.69157 55.78134
#
# Poissons Ratio (x) = 0.14393 0.07350
# Poissons Ratio (y) = 0.17877 0.05720
# Poissons Ratio (z) = 0.18441 0.11556
#
# Static dielectric constant tensor:
#      x y z
#    x -0.855480 1.593320 0.530330 
#    y 1.593320 1.461790 -0.246840 
#    z 0.530330 -0.246840 2.265530 
# 
# From -- ./inp_files/556993.got.cif
#   From: 2010.05.17/outbox.cif.g08.bks.cpg/sg2_279_cif.got.tgz:556993.got - 2010.06.03 11:33:40.
