data_PCOD9081745
_publ_section_title
;
Structure prediction by ZEFSAII (Michael W. Deem and Ramdas Pophale) SiO2 
 PCOD9081745
Probable space group: P -1
;
_chemical_formula_sum "Si O2"
_cell_formula_units_Z 16
_cell_length_a 8.607479
_cell_length_b 8.825377
_cell_length_c 17.359034
_cell_angle_alpha 73.721056
_cell_angle_beta 141.530988
_cell_angle_gamma 115.287057
_cell_volume 738.283986
_symmetry_space_group_name_H-M "P -1"
_symmetry_group_IT_number 2
_symmetry_cell_setting 'triclinic'
loop_
_space_group_symop_operation_xyz
x,y,z
-x,-y,-z
loop_
_atom_site_type_symbol
_atom_site_label
_atom_site_fract_x
_atom_site_fract_y
_atom_site_fract_z
Si Si1 0.714964 0.157588 0.368916
Si Si2 0.462626 0.379623 0.427806
Si Si3 0.212185 0.685211 0.043520
Si Si4 0.165578 0.111021 0.460934
Si Si5 0.459808 0.337388 0.688975
Si Si6 0.487353 0.495631 0.905147
Si Si7 0.827762 0.847536 0.901594
Si Si8 0.068625 0.446392 0.630352
O O1 0.403444 0.113824 0.239954
O O2 0.847005 0.359564 0.392421
O O3 0.865782 0.099589 0.365536
O O4 0.779143 0.060670 0.480303
O O5 0.500000 0.500000 0.500000
O O6 0.263058 0.202860 0.405479
O O7 0.385305 0.477173 0.313419
O O8 0.751719 0.371680 0.521825
O O9 0.359756 0.731442 0.176968
O O10 0.411731 0.652075 0.064967
O O11 0.000000 0.500000 0.000000
O O12 0.046119 0.802847 0.942079
O O13 0.331473 0.224782 0.581179
O O14 0.238722 0.363731 0.656128
O O15 0.668770 0.676465 0.912983
O O16 0.193038 0.457718 0.762230
O O17 0.500000 0.500000 0.000000
O O18 0.000000 0.000000 0.000000
#
# Coordination Sequence:
#
# PCOD9081745 Si02
#       8
#     2   2   2   2   2   2   2   2
#     4  10  20  36  55  79 117 147 183 228 281 338
#     4  10  19  32  54  87 106 141 188 229 266 333
#     4   9  19  36  54  85 110 147 192 229 275 345
#     4  10  21  36  57  82 113 148 188 228 280 332
#     4  10  19  34  60  81 109 149 182 231 282 335
#     4   9  20  36  58  84 113 145 186 241 283 326
#     4  10  20  36  58  81 112 153 191 223 282 344
#     4  10  19  35  57  82 115 142 184 229 286 337
#
# _framework density 21.671876000000001
#
# number of rings (size 3 to 8) (size 9 to 14) (size 15 to 20)
#    0.000    2.250    2.500    1.875    0.000    5.000 
#    0.000    1.250    0.000    0.000    3.250    0.000 
#    0.000    0.000    0.000    0.000    0.000    0.000 
#
# Total GULP energy -89308.870642 kJ/mol
# GULP energy per Si atom -5581.804415 kJ/mol
# Density = 2.162255 g / cm^3
# Si number density = 21.671876 Si / 1000 Ang^3
#
#
#
# Elastic Constant Matrix: (Units=GPa)
#
#
# Indices 1 2 3 4 5 6 
#
# 1 76.9205 15.1307 34.5569 -20.8919 -0.4248 1.7701
# 2 15.1307 72.4864 14.7065 -13.6161 12.6689 -3.3509
# 3 34.5569 14.7065 103.7507 -14.6608 11.9906 -6.2005
# 4 -20.8919 -13.6161 -14.6608 28.4681 -6.5885 -0.1247
# 5 -0.4248 12.6689 11.9906 -6.5885 38.9697 -5.4107
# 6 1.7701 -3.3509 -6.2005 -0.1247 -5.4107 32.3532
#
#
#
# Elastic Compliance Matrix: (Units=1/GPa)
#
#
# Indices 1 2 3 4 5 6 
#
# 1 0.018645 -0.001517 -0.004935 0.011319 0.003931 -0.001422
# 2 -0.001517 0.015962 -0.000478 0.005350 -0.004016 0.000994
# 3 -0.004935 -0.000478 0.012058 0.001664 -0.003046 0.002029
# 4 0.011319 0.005350 0.001664 0.048301 0.006244 0.001484
# 5 0.003931 -0.004016 -0.003046 0.006244 0.029522 0.003747
# 6 -0.001422 0.000994 0.002029 0.001484 0.003747 0.032111
#
#
# Mechanical properties :
#
#
# Convention : Reuss Voigt Hill
#
# Bulk Modulus (GPa) = 30.48266 42.43842 36.46054
# Shear Modulus (GPa) = 27.56430 32.54246 30.05338
#
# Velocity S-wave (km/s) = 3.57023 3.87925 3.72794
# Velocity P-wave (km/s) = 5.57597 6.29996 5.94899
#
# Compressibility (1/GPa) = 0.03280553
#
# Stress axis : x y z
#
# Youngs Moduli (GPa) = 53.63468 62.64815 82.93094
#
# Poissons Ratio (x) = 0.09505 0.40925
# Poissons Ratio (y) = 0.08137 0.03962
# Poissons Ratio (z) = 0.26468 0.02993
#
# Static dielectric constant tensor:
#      x y z
#    x 1.813510 -0.030840 -0.005770 
#    y -0.030840 1.865760 0.021630 
#    z -0.005770 0.021630 1.825720 
# 
# From -- ./inp_files/557146.got.cif
#   From: 2010.05.17/outbox.cif.g08.bks.cpg/sg2_279_cif.got.tgz:557146.got - 2010.06.03 11:33:40.
