data_PCOD9081627
_publ_section_title
;
Structure prediction by ZEFSAII (Michael W. Deem and Ramdas Pophale) SiO2 
 PCOD9081627
Probable space group: P -1
;
_chemical_formula_sum "Si O2"
_cell_formula_units_Z 12
_cell_length_a 12.328116
_cell_length_b 9.557631
_cell_length_c 9.203615
_cell_angle_alpha 49.119065
_cell_angle_beta 97.242076
_cell_angle_gamma 63.710530
_cell_volume 580.455088
_symmetry_space_group_name_H-M "P -1"
_symmetry_group_IT_number 2
_symmetry_cell_setting 'triclinic'
loop_
_space_group_symop_operation_xyz
x,y,z
-x,-y,-z
loop_
_atom_site_type_symbol
_atom_site_label
_atom_site_fract_x
_atom_site_fract_y
_atom_site_fract_z
Si Si1 0.414234 0.862331 0.655304
Si Si2 0.933234 0.295935 0.106517
Si Si3 0.789809 0.210248 0.361027
Si Si4 0.174592 0.449261 0.692145
Si Si5 0.132678 0.414245 0.382102
Si Si6 0.336365 0.176004 0.161467
O O1 0.274784 0.134915 0.526823
O O2 0.417498 0.929916 0.442928
O O3 0.369434 0.702803 0.746956
O O4 0.564720 0.757596 0.832381
O O5 0.856487 0.199080 0.224217
O O6 0.920590 0.361777 0.891138
O O7 0.833386 0.576993 0.973045
O O8 0.101960 0.072134 0.351530
O O9 0.803947 0.371594 0.358315
O O10 0.185715 0.432266 0.533196
O O11 0.009930 0.553918 0.632062
O O12 0.305495 0.179015 0.985305
#
# Coordination Sequence:
#
# PCOD9081627 Si02
#       6
#     2   2   2   2   2   2
#     4  10  19  34  56  76  98 131 172 208 245 295
#     4   9  18  32  52  74 101 130 166 206 247 291
#     4  10  19  32  53  78 100 128 169 213 247 286
#     4  10  21  34  51  76 104 133 166 205 252 296
#     4  10  20  35  52  73 104 137 165 201 250 304
#     4   9  19  34  54  76  99 133 170 204 247 301
#
# _framework density 20.673432999999999
#
# number of rings (size 3 to 8) (size 9 to 14) (size 15 to 20)
#    0.000    2.333    0.000    4.000    0.000    8.667 
#    0.000    1.667    0.000   10.000    0.000    0.000 
#    0.000    0.000    0.000    0.000    0.000    0.000 
#
# Total GULP energy -66877.526168 kJ/mol
# GULP energy per Si atom -5573.127181 kJ/mol
# Density = 2.062638 g / cm^3
# Si number density = 20.673433 Si / 1000 Ang^3
#
#
#
# Elastic Constant Matrix: (Units=GPa)
#
#
# Indices 1 2 3 4 5 6 
#
# 1 98.9465 39.6203 33.6351 17.9525 -1.8490 30.0113
# 2 39.6203 69.3636 52.2954 33.0573 -5.2681 11.9933
# 3 33.6351 52.2954 126.7036 39.8495 -1.7267 4.4908
# 4 17.9525 33.0573 39.8495 41.2098 -1.0090 0.0655
# 5 -1.8490 -5.2681 -1.7267 -1.0090 38.3542 3.7112
# 6 30.0113 11.9933 4.4908 0.0655 3.7112 20.0549
#
#
#
# Elastic Compliance Matrix: (Units=1/GPa)
#
#
# Indices 1 2 3 4 5 6 
#
# 1 0.023030 -0.003159 -0.001844 -0.005575 0.003622 -0.032813
# 2 -0.003159 0.032615 -0.006179 -0.018668 0.004937 -0.014246
# 3 -0.001844 -0.006179 0.012911 -0.006752 -0.000897 0.003752
# 4 -0.005575 -0.018668 -0.006752 0.048067 -0.003962 0.021594
# 5 0.003622 0.004937 -0.000897 -0.003962 0.028073 -0.013353
# 6 -0.032813 -0.014246 0.003752 0.021594 -0.013353 0.109047
#
#
# Mechanical properties :
#
#
# Convention : Reuss Voigt Hill
#
# Bulk Modulus (GPa) = 21.64941 60.67946 41.16444
# Shear Modulus (GPa) = 17.15240 31.22128 24.18684
#
# Velocity S-wave (km/s) = 2.88355 3.89036 3.42416
# Velocity P-wave (km/s) = 4.64557 7.04237 5.96558
#
# Compressibility (1/GPa) = 0.04619063
#
# Stress axis : x y z
#
# Youngs Moduli (GPa) = 43.42185 30.66096 77.45359
#
# Poissons Ratio (x) = 0.09685 0.14284
# Poissons Ratio (y) = 0.13716 0.47862
# Poissons Ratio (z) = 0.08008 0.18947
#
# Static dielectric constant tensor:
#      x y z
#    x 1.783860 -0.016150 -0.026820 
#    y -0.016150 1.734880 -0.007230 
#    z -0.026820 -0.007230 1.826280 
# 
# From -- ./inp_files/148274.got.cif
#   From: 2010.05.17/outbox.cif.g08.bks.cpg/sg2_75_cif.got.tgz:148274.got - 2010.06.03 11:33:40.
