data_PCOD9081715
_publ_section_title
;
Structure prediction by ZEFSAII (Michael W. Deem and Ramdas Pophale) SiO2 
 PCOD9081715
Probable space group: P -1
;
_chemical_formula_sum "Si O2"
_cell_formula_units_Z 16
_cell_length_a 10.754618
_cell_length_b 16.684028
_cell_length_c 9.563246
_cell_angle_alpha 81.792232
_cell_angle_beta 79.387994
_cell_angle_gamma 149.595320
_cell_volume 678.817100
_symmetry_space_group_name_H-M "P -1"
_symmetry_group_IT_number 2
_symmetry_cell_setting 'triclinic'
loop_
_space_group_symop_operation_xyz
x,y,z
-x,-y,-z
loop_
_atom_site_type_symbol
_atom_site_label
_atom_site_fract_x
_atom_site_fract_y
_atom_site_fract_z
Si Si1 0.332141 0.702401 0.959751
Si Si2 0.189910 0.415156 0.731316
Si Si3 0.711362 0.721233 0.780218
Si Si4 0.947533 0.245967 0.548138
Si Si5 0.675236 0.919286 0.567694
Si Si6 0.678417 0.119533 0.124994
Si Si7 0.195071 0.415680 0.171704
Si Si8 0.051821 0.521497 0.648734
O O1 0.573193 0.815608 0.759771
O O2 0.409205 0.842826 0.922086
O O3 0.000000 0.500000 0.000000
O O4 0.238985 0.622367 0.156100
O O5 0.495591 0.591629 0.718657
O O6 0.126843 0.471680 0.687939
O O7 0.171727 0.358656 0.602845
O O8 0.908995 0.218693 0.936813
O O9 0.775112 0.664551 0.821309
O O10 0.495081 0.625961 0.976165
O O11 0.044533 0.953387 0.613520
O O12 0.130554 0.397976 0.350236
O O13 0.806178 0.082873 0.548218
O O14 0.639826 0.109475 0.708925
O O15 0.368142 0.749283 0.580093
O O16 0.894157 0.259182 0.180359
O O17 0.000000 0.500000 0.500000
#
# Coordination Sequence:
#
# PCOD9081715 Si02
#       8
#     2   2   2   2   2   2   2   2
#     4   8  16  32  53  76 102 134 172 213 257 305
#     4  10  21  34  52  77 110 140 168 214 260 307
#     4   9  19  36  52  74 106 143 175 202 256 314
#     4  10  19  32  54  82 105 133 175 219 258 299
#     4   9  19  36  57  76 102 141 176 208 252 318
#     4   9  17  31  50  78 107 135 171 212 264 306
#     4   9  18  31  51  77 107 136 169 217 256 303
#     4  10  21  37  55  78 106 134 169 219 269 303
#
# _framework density 23.570412999999999
#
# number of rings (size 3 to 8) (size 9 to 14) (size 15 to 20)
#    0.000    2.750    0.000    0.750    0.000    7.500 
#    0.000   10.000    0.000    1.500    0.000    0.000 
#    0.000    0.000    0.000    0.000    0.000    0.000 
#
# Total GULP energy -89298.907396 kJ/mol
# GULP energy per Si atom -5581.181712 kJ/mol
# Density = 2.351677 g / cm^3
# Si number density = 23.570413 Si / 1000 Ang^3
#
#
#
# Elastic Constant Matrix: (Units=GPa)
#
#
# Indices 1 2 3 4 5 6 
#
# 1 48.5492 22.3494 19.6307 -4.9183 4.8170 4.7147
# 2 22.3494 99.3731 73.9704 13.0983 -14.0862 3.7472
# 3 19.6307 73.9704 258.2865 -1.9143 -5.2185 24.0056
# 4 -4.9183 13.0983 -1.9143 47.1274 3.6948 -2.4966
# 5 4.8170 -14.0862 -5.2185 3.6948 31.1563 -7.2841
# 6 4.7147 3.7472 24.0056 -2.4966 -7.2841 24.0806
#
#
#
# Elastic Compliance Matrix: (Units=1/GPa)
#
#
# Indices 1 2 3 4 5 6 
#
# 1 0.026434 -0.008559 0.000956 0.005587 -0.010163 -0.007291
# 2 -0.008559 0.017753 -0.004853 -0.006535 0.010794 0.006339
# 3 0.000956 -0.004853 0.005682 0.001602 -0.002941 -0.005820
# 4 0.005587 -0.006535 0.001602 0.024145 -0.006693 -0.001195
# 5 -0.010163 0.010794 -0.002941 -0.006693 0.042446 0.015388
# 6 -0.007291 0.006339 -0.005820 -0.001195 0.015388 0.052301
#
#
# Mechanical properties :
#
#
# Convention : Reuss Voigt Hill
#
# Bulk Modulus (GPa) = 40.06939 70.90109 55.48524
# Shear Modulus (GPa) = 24.75351 39.82341 32.28846
#
# Velocity S-wave (km/s) = 3.24419 4.11487 3.70519
# Velocity P-wave (km/s) = 5.57403 7.26100 6.47271
#
# Compressibility (1/GPa) = 0.02495670
#
# Stress axis : x y z
#
# Youngs Moduli (GPa) = 37.83075 56.32902 175.98475
#
# Poissons Ratio (x) = 0.48209 -0.16820
# Poissons Ratio (y) = 0.32378 0.85409
# Poissons Ratio (z) = -0.03616 0.27338
#
# Static dielectric constant tensor:
#      x y z
#    x 2.038650 -0.048330 -0.046300 
#    y -0.048330 1.864070 -0.004420 
#    z -0.046300 -0.004420 1.990290 
# 
# From -- ./inp_files/272819.got.cif
#   From: 2010.05.17/outbox.cif.g08.bks.cpg/sg2_137_cif.got.tgz:272819.got - 2010.06.03 11:33:40.
