data_PCOD9081656
_publ_section_title
;
Structure prediction by ZEFSAII (Michael W. Deem and Ramdas Pophale) SiO2 
 PCOD9081656
Probable space group: P -1
;
_chemical_formula_sum "Si O2"
_cell_formula_units_Z 16
_cell_length_a 7.496025
_cell_length_b 17.164924
_cell_length_c 11.860853
_cell_angle_alpha 59.623702
_cell_angle_beta 128.048376
_cell_angle_gamma 146.651870
_cell_volume 660.514082
_symmetry_space_group_name_H-M "P -1"
_symmetry_group_IT_number 2
_symmetry_cell_setting 'triclinic'
loop_
_space_group_symop_operation_xyz
x,y,z
-x,-y,-z
loop_
_atom_site_type_symbol
_atom_site_label
_atom_site_fract_x
_atom_site_fract_y
_atom_site_fract_z
Si Si1 0.271038 0.479931 0.330713
Si Si2 0.369907 0.742632 0.458059
Si Si3 0.305820 0.872715 0.185715
Si Si4 0.685790 0.682580 0.940011
Si Si5 0.484387 0.801742 0.701675
Si Si6 0.441786 0.561740 0.694542
Si Si7 0.562285 0.702221 0.114683
Si Si8 0.583716 0.901153 0.902582
O O1 0.500000 0.500000 0.500000
O O2 0.278445 0.415440 0.274859
O O3 0.425070 0.618206 0.238144
O O4 0.881638 0.368224 0.309270
O O5 0.505337 0.848987 0.333565
O O6 0.475134 0.828507 0.550287
O O7 0.491313 0.677452 0.577598
O O8 0.947894 0.596856 0.374314
O O9 0.988619 0.811034 0.193763
O O10 0.502031 0.027879 0.130732
O O11 0.066861 0.764601 0.068772
O O12 0.763993 0.810440 0.837253
O O13 0.505696 0.580296 0.839210
O O14 0.459920 0.623364 0.011971
O O15 0.489684 0.873051 0.753349
O O16 0.435568 0.765617 0.003168
O O17 0.000000 0.000000 0.000000
#
# Coordination Sequence:
#
# PCOD9081656 Si02
#       8
#     2   2   2   2   2   2   2   2
#     4  12  21  33  52  80 121 141 168 217 276 334
#     4  10  19  32  53  81 108 141 182 217 267 317
#     4   9  16  33  55  81 106 133 184 231 261 303
#     4   8  18  32  55  78 104 138 184 220 260 312
#     4  10  19  33  53  84 109 142 177 216 273 327
#     4  10  19  34  51  77 115 143 173 221 265 323
#     4   8  17  31  50  81 106 135 171 221 270 309
#     4   9  17  33  55  79 107 134 179 236 265 301
#
# _framework density 24.223555999999999
#
# number of rings (size 3 to 8) (size 9 to 14) (size 15 to 20)
#    0.750    1.750    3.750    0.000    0.000    4.500 
#    0.000    0.000    5.500    1.500    0.000    0.000 
#    0.000    0.000    0.000    0.000    0.000    0.000 
#
# Total GULP energy -89162.133969 kJ/mol
# GULP energy per Si atom -5572.633373 kJ/mol
# Density = 2.416842 g / cm^3
# Si number density = 24.223556 Si / 1000 Ang^3
#
#
#
# Elastic Constant Matrix: (Units=GPa)
#
#
# Indices 1 2 3 4 5 6 
#
# 1 38.9613 23.5593 12.6956 -8.5265 1.5096 -11.8262
# 2 23.5593 43.6915 41.9749 -13.2724 -0.1372 -23.8658
# 3 12.6956 41.9749 155.5488 -14.2370 -13.3816 -16.6125
# 4 -8.5265 -13.2724 -14.2370 33.7136 -14.7794 4.4280
# 5 1.5096 -0.1372 -13.3816 -14.7794 23.9065 -3.9440
# 6 -11.8262 -23.8658 -16.6125 4.4280 -3.9440 29.6092
#
#
#
# Elastic Compliance Matrix: (Units=1/GPa)
#
#
# Indices 1 2 3 4 5 6 
#
# 1 0.039694 -0.026434 0.003609 0.001502 -0.000319 -0.003694
# 2 -0.026434 0.079590 -0.010957 0.021288 0.016825 0.046503
# 3 0.003609 -0.010957 0.010026 0.004455 0.007846 -0.001387
# 4 0.001502 0.021288 0.004455 0.055406 0.039620 0.017250
# 5 -0.000319 0.016825 0.007846 0.039620 0.074433 0.021826
# 6 -0.003694 0.046503 -0.001387 0.017250 0.021826 0.069330
#
#
# Mechanical properties :
#
#
# Convention : Reuss Voigt Hill
#
# Bulk Modulus (GPa) = 16.19555 43.85125 30.02340
# Shear Modulus (GPa) = 12.00119 28.11066 20.05592
#
# Velocity S-wave (km/s) = 2.22825 3.41026 2.88054
# Velocity P-wave (km/s) = 3.64973 5.80073 4.84608
#
# Compressibility (1/GPa) = 0.06174536
#
# Stress axis : x y z
#
# Youngs Moduli (GPa) = 25.19260 12.56443 99.74261
#
# Poissons Ratio (x) = 0.33212 -0.35995
# Poissons Ratio (y) = 0.66593 1.09292
# Poissons Ratio (z) = -0.09092 0.13767
#
# Static dielectric constant tensor:
#      x y z
#    x 1.931070 0.002310 -0.004480 
#    y 0.002310 2.081450 -0.013280 
#    z -0.004480 -0.013280 1.972970 
# 
# From -- ./inp_files/405493.got.cif
#   From: 2010.05.17/outbox.cif.g08.bks.cpg/sg2_203_cif.got.tgz:405493.got - 2010.06.03 11:33:40.
