data_PCOD9081066
_publ_section_title
;
Structure prediction by ZEFSAII (Michael W. Deem and Ramdas Pophale) SiO2 
 PCOD9081066
Probable space group: P -1
;
_chemical_formula_sum "Si O2"
_cell_formula_units_Z 16
_cell_length_a 12.965068
_cell_length_b 12.149573
_cell_length_c 7.557663
_cell_angle_alpha 68.914441
_cell_angle_beta 147.756815
_cell_angle_gamma 116.132934
_cell_volume 570.009290
_symmetry_space_group_name_H-M "P -1"
_symmetry_group_IT_number 2
_symmetry_cell_setting 'triclinic'
loop_
_space_group_symop_operation_xyz
x,y,z
-x,-y,-z
loop_
_atom_site_type_symbol
_atom_site_label
_atom_site_fract_x
_atom_site_fract_y
_atom_site_fract_z
Si Si1 0.143622 0.068571 0.829677
Si Si2 0.653947 0.111887 0.875096
Si Si3 0.802094 0.123828 0.466337
Si Si4 0.915814 0.504455 0.664924
Si Si5 0.773672 0.382358 0.178619
Si Si6 0.550757 0.530092 0.262792
Si Si7 0.935945 0.237850 0.926323
Si Si8 0.333293 0.265117 0.243957
O O1 0.964972 0.046645 0.728441
O O2 0.241724 0.210711 0.948402
O O3 0.000000 0.000000 0.500000
O O4 0.334898 0.016209 0.118473
O O5 0.483071 0.181249 0.556083
O O6 0.867080 0.193273 0.050646
O O7 0.661770 0.089461 0.110449
O O8 0.858838 0.270877 0.419669
O O9 0.777738 0.135723 0.633002
O O10 0.837736 0.489775 0.356537
O O11 0.791342 0.565344 0.578944
O O12 0.145097 0.571621 0.921169
O O13 0.880943 0.365423 0.751306
O O14 0.535501 0.359909 0.859565
O O15 0.452078 0.407361 0.302914
O O16 0.500000 0.500000 0.000000
O O17 0.151337 0.250032 0.133250
#
# Coordination Sequence:
#
# PCOD9081066 Si02
#       8
#     2   2   2   2   2   2   2   2
#     4   9  21  41  65  91 125 164 211 264 314 370
#     4  11  22  42  63  92 128 162 211 265 314 365
#     4   9  21  39  62  91 125 165 208 259 307 374
#     4   9  16  30  55  85 118 160 205 244 297 372
#     4   9  17  32  55  85 123 159 205 251 300 365
#     4  10  19  30  57  96 122 161 208 246 303 383
#     4  10  20  38  65  88 124 170 205 254 316 372
#     4  11  21  37  65  95 125 166 210 258 315 372
#
# _framework density 28.069717000000001
#
# number of rings (size 3 to 8) (size 9 to 14) (size 15 to 20)
#    0.000    2.250    2.500    0.375    5.250    2.000 
#    0.000    6.250    0.000    8.250    0.000    0.000 
#    0.000    0.000    0.000    0.000    0.000    0.000 
#
# Total GULP energy -89069.091399 kJ/mol
# GULP energy per Si atom -5566.818212 kJ/mol
# Density = 2.800583 g / cm^3
# Si number density = 28.069717 Si / 1000 Ang^3
#
#
#
# Elastic Constant Matrix: (Units=GPa)
#
#
# Indices 1 2 3 4 5 6 
#
# 1 151.8982 56.0040 80.6711 8.4020 31.0658 -8.3252
# 2 56.0040 72.5143 29.5533 -6.0991 17.9722 -21.5886
# 3 80.6711 29.5533 130.6512 -24.0455 20.8261 -11.1204
# 4 8.4020 -6.0991 -24.0455 33.3529 -16.7749 11.6890
# 5 31.0658 17.9722 20.8261 -16.7749 67.3142 -4.5425
# 6 -8.3252 -21.5886 -11.1204 11.6890 -4.5425 52.3112
#
#
#
# Elastic Compliance Matrix: (Units=1/GPa)
#
#
# Indices 1 2 3 4 5 6 
#
# 1 0.018813 -0.009510 -0.011736 -0.018562 -0.007131 0.000103
# 2 -0.009510 0.022902 0.002412 0.005500 -0.000618 0.007168
# 3 -0.011736 0.002412 0.016946 0.017919 0.003932 -0.000932
# 4 -0.018562 0.005500 0.017919 0.059632 0.015819 -0.008826
# 5 -0.007131 -0.000618 0.003932 0.015819 0.020884 -0.002275
# 6 0.000103 0.007168 -0.000932 -0.008826 -0.002275 0.023667
#
#
# Mechanical properties :
#
#
# Convention : Reuss Voigt Hill
#
# Bulk Modulus (GPa) = 47.63141 76.39115 62.01128
# Shear Modulus (GPa) = 24.09527 43.18468 33.63997
#
# Velocity S-wave (km/s) = 2.93304 3.92660 3.46561
# Velocity P-wave (km/s) = 5.33630 6.91603 6.17687
#
# Compressibility (1/GPa) = 0.02099455
#
# Stress axis : x y z
#
# Youngs Moduli (GPa) = 53.15433 43.66498 59.00948
#
# Poissons Ratio (x) = 0.41525 0.69252
# Poissons Ratio (y) = 0.50549 -0.14236
# Poissons Ratio (z) = 0.62381 -0.10534
#
# Static dielectric constant tensor:
#      x y z
#    x 2.190940 0.013540 0.017260 
#    y 0.013540 2.173680 0.138410 
#    z 0.017260 0.138410 2.597980 
# 
# From -- ./inp_files/311359.got.cif
#   From: 2010.05.17/outbox.cif.g08.bks.cpg/sg2_156_cif.got.tgz:311359.got - 2010.06.03 11:33:40.
