data_PCOD9081146
_publ_section_title
;
Structure prediction by ZEFSAII (Michael W. Deem and Ramdas Pophale) SiO2 
 PCOD9081146
Probable space group: P -1
;
_chemical_formula_sum "Si O2"
_cell_formula_units_Z 14
_cell_length_a 5.244336
_cell_length_b 14.231444
_cell_length_c 9.162530
_cell_angle_alpha 103.582575
_cell_angle_beta 102.826182
_cell_angle_gamma 117.508427
_cell_volume 544.533724
_symmetry_space_group_name_H-M "P -1"
_symmetry_group_IT_number 2
_symmetry_cell_setting 'triclinic'
loop_
_space_group_symop_operation_xyz
x,y,z
-x,-y,-z
loop_
_atom_site_type_symbol
_atom_site_label
_atom_site_fract_x
_atom_site_fract_y
_atom_site_fract_z
Si Si1 0.306271 0.470582 0.818440
Si Si2 0.166496 0.093888 0.272075
Si Si3 0.372424 0.572992 0.579738
Si Si4 0.820977 0.827839 0.013259
Si Si5 0.430048 0.668584 0.332423
Si Si6 0.338952 0.804129 0.133591
Si Si7 0.644825 0.048493 0.376122
O O1 0.448438 0.576732 0.760569
O O2 0.351710 0.373514 0.715516
O O3 0.500000 0.500000 0.000000
O O4 0.056928 0.574264 0.223869
O O5 0.519193 0.127704 0.347213
O O6 0.127653 0.152036 0.145543
O O7 0.990560 0.956329 0.155835
O O8 0.003431 0.102267 0.401366
O O9 0.500000 0.500000 0.500000
O O10 0.476012 0.674920 0.515319
O O11 0.000000 0.500000 0.500000
O O12 0.466524 0.771874 0.999611
O O13 0.980813 0.762865 0.070545
O O14 0.459115 0.770200 0.276710
O O15 0.492065 0.939967 0.209513
O O16 0.500000 0.000000 0.500000
#
# Coordination Sequence:
#
# PCOD9081146 Si02
#       7
#     2   2   2   2   2   2   2
#     4  10  19  33  55  81 104 133 172 215 257 310
#     4   9  17  30  49  70  94 127 171 220 246 295
#     4   8  16  30  50  74  98 130 172 200 241 313
#     4   9  17  30  49  73  93 126 173 212 255 294
#     4  10  19  33  53  77 104 139 172 212 260 312
#     4  10  19  31  51  73 101 133 171 214 254 308
#     4  10  19  31  49  74 100 134 178 212 253 298
#
# _framework density 25.710070000000002
#
# number of rings (size 3 to 8) (size 9 to 14) (size 15 to 20)
#    0.000    2.571    0.000    2.571    0.000    3.429 
#    0.000    0.000    9.429    0.000    3.714    0.000 
#    0.000    0.000    0.000    0.000    0.000    0.000 
#
# Total GULP energy -78175.573304 kJ/mol
# GULP energy per Si atom -5583.969522 kJ/mol
# Density = 2.565155 g / cm^3
# Si number density = 25.710070 Si / 1000 Ang^3
#
#
#
# Elastic Constant Matrix: (Units=GPa)
#
#
# Indices 1 2 3 4 5 6 
#
# 1 163.5451 29.7916 46.9119 -13.0466 -27.4373 -17.5480
# 2 29.7916 74.7960 15.7758 -18.8192 -6.0233 -23.7020
# 3 46.9119 15.7758 131.2181 -23.8478 -6.3280 -13.9597
# 4 -13.0466 -18.8192 -23.8478 43.1478 -4.1807 5.6073
# 5 -27.4373 -6.0233 -6.3280 -4.1807 42.3899 -4.0728
# 6 -17.5480 -23.7020 -13.9597 5.6073 -4.0728 41.1232
#
#
#
# Elastic Compliance Matrix: (Units=1/GPa)
#
#
# Indices 1 2 3 4 5 6 
#
# 1 0.008144 -0.001443 -0.002090 0.000868 0.005062 0.002317
# 2 -0.001443 0.019094 0.000799 0.007380 0.003588 0.010010
# 3 -0.002090 0.000799 0.009402 0.004709 0.000841 0.002202
# 4 0.000868 0.007380 0.004709 0.029433 0.005480 0.002752
# 5 0.005062 0.003588 0.000841 0.005480 0.028678 0.006607
# 6 0.002317 0.010010 0.002202 0.002752 0.006607 0.032102
#
#
# Mechanical properties :
#
#
# Convention : Reuss Voigt Hill
#
# Bulk Modulus (GPa) = 32.07797 61.61309 46.84553
# Shear Modulus (GPa) = 35.03599 43.80417 39.42008
#
# Velocity S-wave (km/s) = 3.69553 4.13216 3.91993
# Velocity P-wave (km/s) = 5.54194 6.83980 6.22479
#
# Compressibility (1/GPa) = 0.03117405
#
# Stress axis : x y z
#
# Youngs Moduli (GPa) = 122.79097 52.37374 106.35487
#
# Poissons Ratio (x) = 0.07556 0.22225
# Poissons Ratio (y) = 0.17715 -0.08503
# Poissons Ratio (z) = 0.25660 -0.04187
#
# Static dielectric constant tensor:
#      x y z
#    x 2.005670 0.064930 0.005910 
#    y 0.064930 2.103060 0.054060 
#    z 0.005910 0.054060 2.038330 
# 
# From -- ./inp_files/135331.got.cif
#   From: 2010.05.17/outbox.cif.g08.bks.cpg/sg2_68_cif.got.tgz:135331.got - 2010.06.03 11:33:40.
