data_PCOD9081849
_publ_section_title
;
Structure prediction by ZEFSAII (Michael W. Deem and Ramdas Pophale) SiO2 
 PCOD9081849
Probable space group: P -1
;
_chemical_formula_sum "Si O2"
_cell_formula_units_Z 16
_cell_length_a 12.714794
_cell_length_b 16.052031
_cell_length_c 11.192507
_cell_angle_alpha 84.639378
_cell_angle_beta 144.394758
_cell_angle_gamma 124.387674
_cell_volume 711.607634
_symmetry_space_group_name_H-M "P -1"
_symmetry_group_IT_number 2
_symmetry_cell_setting 'triclinic'
loop_
_space_group_symop_operation_xyz
x,y,z
-x,-y,-z
loop_
_atom_site_type_symbol
_atom_site_label
_atom_site_fract_x
_atom_site_fract_y
_atom_site_fract_z
Si Si1 0.399572 0.722019 0.278913
Si Si2 0.242573 0.061253 0.613898
Si Si3 0.389741 0.617803 0.738828
Si Si4 0.956082 0.714951 0.817101
Si Si5 0.714744 0.620080 0.866989
Si Si6 0.272970 0.724369 0.760332
Si Si7 0.093113 0.602036 0.247994
Si Si8 0.540508 0.027611 0.176131
O O1 0.728929 0.870926 0.486332
O O2 0.401737 0.716004 0.424122
O O3 0.212027 0.567953 0.073819
O O4 0.160832 0.709776 0.037001
O O5 0.211519 0.951994 0.565063
O O6 0.599487 0.208455 0.996105
O O7 0.000000 0.000000 0.500000
O O8 0.655497 0.667519 0.904418
O O9 0.475950 0.723172 0.899258
O O10 0.118878 0.450948 0.572729
O O11 0.184836 0.590747 0.454032
O O12 0.829883 0.697504 0.832172
O O13 0.641597 0.564552 0.465911
O O14 0.201593 0.874853 0.955681
O O15 0.972950 0.649927 0.144111
O O16 0.341169 0.831099 0.726538
O O17 0.500000 0.000000 0.000000
#
# Coordination Sequence:
#
# PCOD9081849 Si02
#       8
#     2   2   2   2   2   2   2   2
#     4   9  17  32  54  82 114 135 179 235 280 308
#     4  10  19  35  58  84 110 137 184 235 267 325
#     4  11  21  41  55  77 121 144 184 229 271 341
#     4   9  17  32  55  82 113 139 184 234 275 321
#     4  10  19  32  57  86 105 147 183 227 280 320
#     4  10  22  39  56  76 111 156 178 221 288 326
#     4  10  19  32  56  83 109 141 180 230 276 323
#     4   9  18  35  55  76 107 146 179 224 277 319
#
# _framework density 22.484300000000001
#
# number of rings (size 3 to 8) (size 9 to 14) (size 15 to 20)
#    0.000    2.250    2.500    1.500    1.750    3.000 
#    2.250    1.875    0.000    2.250    0.000    0.000 
#    0.000    0.000    0.000    0.000    0.000    0.000 
#
# Total GULP energy -89345.880116 kJ/mol
# GULP energy per Si atom -5584.117507 kJ/mol
# Density = 2.243312 g / cm^3
# Si number density = 22.484300 Si / 1000 Ang^3
#
#
#
# Elastic Constant Matrix: (Units=GPa)
#
#
# Indices 1 2 3 4 5 6 
#
# 1 144.9880 61.3852 22.9914 17.2462 18.2301 -5.2240
# 2 61.3852 133.6403 22.2724 26.1418 12.6325 9.7866
# 3 22.9914 22.2724 28.2032 4.1751 3.4644 1.7697
# 4 17.2462 26.1418 4.1751 21.1236 3.3110 10.2907
# 5 18.2301 12.6325 3.4644 3.3110 33.3553 5.8884
# 6 -5.2240 9.7866 1.7697 10.2907 5.8884 46.1742
#
#
#
# Elastic Compliance Matrix: (Units=1/GPa)
#
#
# Indices 1 2 3 4 5 6 
#
# 1 0.010070 -0.002676 -0.005077 -0.004987 -0.004092 0.003534
# 2 -0.002676 0.011965 -0.005418 -0.011374 -0.001392 0.000081
# 3 -0.005077 -0.005418 0.043491 0.003092 0.000325 -0.001823
# 4 -0.004987 -0.011374 0.003092 0.071604 0.002165 -0.014507
# 5 -0.004092 -0.001392 0.000325 0.002165 0.033363 -0.004918
# 6 0.003534 0.000081 -0.001823 -0.014507 -0.004918 0.025970
#
#
# Mechanical properties :
#
#
# Convention : Reuss Voigt Hill
#
# Bulk Modulus (GPa) = 25.52008 57.79218 41.65613
# Shear Modulus (GPa) = 21.19827 33.47610 27.33719
#
# Velocity S-wave (km/s) = 3.07384 3.86277 3.49066
# Velocity P-wave (km/s) = 4.89620 6.75676 5.90028
#
# Compressibility (1/GPa) = 0.03918483
#
# Stress axis : x y z
#
# Youngs Moduli (GPa) = 99.30299 83.57468 22.99302
#
# Poissons Ratio (x) = 0.22364 0.11673
# Poissons Ratio (y) = 0.26573 0.12458
# Poissons Ratio (z) = 0.50416 0.45283
#
# Static dielectric constant tensor:
#      x y z
#    x 1.845550 -0.019000 0.032870 
#    y -0.019000 1.864400 -0.012580 
#    z 0.032870 -0.012580 1.937130 
# 
# From -- ./inp_files/252201.got.cif
#   From: 2010.05.17/outbox.cif.g08.bks.cpg/sg2_127_cif.got.tgz:252201.got - 2010.06.03 11:33:40.
