data_PCOD9081524
_publ_section_title
;
Structure prediction by ZEFSAII (Michael W. Deem and Ramdas Pophale) SiO2 
 PCOD9081524
Probable space group: P -1
;
_chemical_formula_sum "Si O2"
_cell_formula_units_Z 16
_cell_length_a 30.580747
_cell_length_b 8.203822
_cell_length_c 17.024824
_cell_angle_alpha 32.303469
_cell_angle_beta 16.070740
_cell_angle_gamma 35.081887
_cell_volume 631.315445
_symmetry_space_group_name_H-M "P -1"
_symmetry_group_IT_number 2
_symmetry_cell_setting 'triclinic'
loop_
_space_group_symop_operation_xyz
x,y,z
-x,-y,-z
loop_
_atom_site_type_symbol
_atom_site_label
_atom_site_fract_x
_atom_site_fract_y
_atom_site_fract_z
Si Si1 0.852042 0.621182 0.297245
Si Si2 0.024631 0.798364 0.229030
Si Si3 0.511456 0.855656 0.814889
Si Si4 0.292518 0.995652 0.268196
Si Si5 0.408898 0.885177 0.804590
Si Si6 0.349292 0.593188 0.471489
Si Si7 0.268825 0.943816 0.869376
Si Si8 0.072610 0.659436 0.032571
O O1 0.700114 0.859534 0.475687
O O2 0.779002 0.319003 0.512109
O O3 0.949841 0.491402 0.257085
O O4 0.965983 0.844931 0.962252
O O5 0.056448 0.602883 0.175582
O O6 0.851020 0.761117 0.577972
O O7 0.153665 0.763346 0.088217
O O8 0.414553 0.904610 0.880713
O O9 0.500000 0.500000 0.000000
O O10 0.435254 0.048260 0.940332
O O11 0.333648 0.901856 0.324174
O O12 0.478301 0.552527 0.790117
O O13 0.545377 0.118239 0.447864
O O14 0.261946 0.943675 0.976085
O O15 0.253100 0.300119 0.724977
O O16 0.252567 0.634645 0.701931
O O17 0.000000 0.000000 0.000000
#
# Coordination Sequence:
#
# PCOD9081524 Si02
#       8
#     2   2   2   2   2   2   2   2
#     4  10  16  28  46  70  98 126 153 198 242 281
#     4  11  18  31  46  73 100 128 161 201 234 282
#     4  10  17  29  48  78  99 120 151 207 249 286
#     4  11  18  27  51  76 100 122 157 198 253 285
#     4   9  17  30  50  74  99 117 166 198 244 281
#     4  10  15  30  48  74 101 120 156 204 241 278
#     4   9  17  30  53  69  92 133 161 200 235 280
#     4  10  20  26  46  74 106 122 160 203 238 281
#
# _framework density 25.343907000000002
#
# number of rings (size 3 to 8) (size 9 to 14) (size 15 to 20)
#    0.750    1.250    7.500    1.125    0.000    0.000 
#    0.000    1.875    0.000    0.000    0.000    4.375 
#    0.000    0.000    0.000    0.000    0.000    0.000 
#
# Total GULP energy -89113.697852 kJ/mol
# GULP energy per Si atom -5569.606116 kJ/mol
# Density = 2.528622 g / cm^3
# Si number density = 25.343907 Si / 1000 Ang^3
#
#
#
# Elastic Constant Matrix: (Units=GPa)
#
#
# Indices 1 2 3 4 5 6 
#
# 1 164.6395 10.7619 49.4976 19.1540 5.7939 -21.3589
# 2 10.7619 30.6300 17.6291 -2.0414 8.2078 -0.8019
# 3 49.4976 17.6291 122.9622 34.0797 11.1883 7.7186
# 4 19.1540 -2.0414 34.0797 29.0249 7.9460 12.6739
# 5 5.7939 8.2078 11.1883 7.9460 39.9724 6.3034
# 6 -21.3589 -0.8019 7.7186 12.6739 6.3034 28.1841
#
#
#
# Elastic Compliance Matrix: (Units=1/GPa)
#
#
# Indices 1 2 3 4 5 6 
#
# 1 0.009372 -0.002784 -0.001343 -0.009924 -0.000319 0.011925
# 2 -0.002784 0.042919 -0.009753 0.021296 -0.009001 -0.005781
# 3 -0.001343 -0.009753 0.015066 -0.019108 0.001325 0.002875
# 4 -0.009924 0.021296 -0.019108 0.083534 -0.008295 -0.037391
# 5 -0.000319 -0.009001 0.001325 -0.008295 0.028751 -0.003561
# 6 0.011925 -0.005781 0.002875 -0.037391 -0.003561 0.061177
#
#
# Mechanical properties :
#
#
# Convention : Reuss Voigt Hill
#
# Bulk Modulus (GPa) = 25.25351 52.66767 38.96059
# Shear Modulus (GPa) = 17.74442 35.45915 26.60179
#
# Velocity S-wave (km/s) = 2.64890 3.74454 3.24332
# Velocity P-wave (km/s) = 4.39790 6.28663 5.42509
#
# Compressibility (1/GPa) = 0.03959846
#
# Stress axis : x y z
#
# Youngs Moduli (GPa) = 106.69628 23.29962 66.37349
#
# Poissons Ratio (x) = 0.06487 0.08911
# Poissons Ratio (y) = 0.29705 0.64734
# Poissons Ratio (z) = 0.14325 0.22724
#
# Static dielectric constant tensor:
#      x y z
#    x 2.191540 0.026720 -0.064390 
#    y 0.026720 2.076130 0.077170 
#    z -0.064390 0.077170 2.126410 
# 
# From -- ./inp_files/454091.got.cif
#   From: 2010.05.17/outbox.cif.g08.bks.cpg/sg2_228_cif.got.tgz:454091.got - 2010.06.03 11:33:40.
