data_PCOD9081047
_publ_section_title
;
Structure prediction by ZEFSAII (Michael W. Deem and Ramdas Pophale) SiO2 
 PCOD9081047
Probable space group: P -1
;
_chemical_formula_sum "Si O2"
_cell_formula_units_Z 16
_cell_length_a 13.106425
_cell_length_b 7.287946
_cell_length_c 11.578813
_cell_angle_alpha 59.985682
_cell_angle_beta 109.453638
_cell_angle_gamma 62.902844
_cell_volume 584.837416
_symmetry_space_group_name_H-M "P -1"
_symmetry_group_IT_number 2
_symmetry_cell_setting 'triclinic'
loop_
_space_group_symop_operation_xyz
x,y,z
-x,-y,-z
loop_
_atom_site_type_symbol
_atom_site_label
_atom_site_fract_x
_atom_site_fract_y
_atom_site_fract_z
Si Si1 0.299964 0.612656 0.499991
Si Si2 0.352864 0.694035 0.266815
Si Si3 0.072898 0.706686 0.812234
Si Si4 0.424998 0.850594 0.875392
Si Si5 0.866756 0.797246 0.166481
Si Si6 0.189784 0.295518 0.167689
Si Si7 0.741104 0.356456 0.282822
Si Si8 0.232821 0.191840 0.487397
O O1 0.333947 0.528130 0.402138
O O2 0.459440 0.521325 0.628342
O O3 0.272659 0.516869 0.635844
O O4 0.115034 0.990065 0.310430
O O5 0.306010 0.962181 0.247327
O O6 0.226327 0.895741 0.048971
O O7 0.106180 0.449011 0.827554
O O8 0.115845 0.822598 0.701261
O O9 0.190657 0.514557 0.028861
O O10 0.258134 0.067650 0.819697
O O11 0.383539 0.024453 0.683423
O O12 0.500000 0.500000 0.000000
O O13 0.581945 0.701951 0.051534
O O14 0.057843 0.557508 0.349230
O O15 0.233678 0.241373 0.335661
O O16 0.000000 0.500000 0.000000
O O17 0.762589 0.071507 0.406476
#
# Coordination Sequence:
#
# PCOD9081047 Si02
#       8
#     2   2   2   2   2   2   2   2
#     4  11  18  31  53  84 117 146 182 230 291 337
#     4  10  19  30  55  85 116 140 186 244 278 331
#     4  11  22  34  60  87 120 150 179 247 301 339
#     4  10  24  38  55  82 114 159 196 237 272 347
#     4  11  19  36  56  87 113 142 196 237 295 329
#     4  11  17  36  55  88 113 147 190 238 286 332
#     4  11  21  38  53  86 122 153 186 233 297 341
#     4  11  20  37  62  81 116 155 199 230 272 349
#
# _framework density 27.358029999999999
#
# number of rings (size 3 to 8) (size 9 to 14) (size 15 to 20)
#    0.000    1.250    7.500    0.750    0.000    0.500 
#    0.000    0.625    0.000    0.000    6.500    8.750 
#    0.000    0.000    0.000    0.000    0.000    0.000 
#
# Total GULP energy -89275.437443 kJ/mol
# GULP energy per Si atom -5579.714840 kJ/mol
# Density = 2.729576 g / cm^3
# Si number density = 27.358030 Si / 1000 Ang^3
#
#
#
# Elastic Constant Matrix: (Units=GPa)
#
#
# Indices 1 2 3 4 5 6 
#
# 1 45.5176 56.3612 39.0976 5.2441 -9.8927 -11.9209
# 2 56.3612 142.5194 49.1384 -2.7776 -0.8460 -37.7170
# 3 39.0976 49.1384 272.3281 41.4064 -3.5465 -26.8045
# 4 5.2441 -2.7776 41.4064 53.5351 -21.9347 0.7361
# 5 -9.8927 -0.8460 -3.5465 -21.9347 29.5203 5.3006
# 6 -11.9209 -37.7170 -26.8045 0.7361 5.3006 52.8316
#
#
#
# Elastic Compliance Matrix: (Units=1/GPa)
#
#
# Indices 1 2 3 4 5 6 
#
# 1 0.057642 -0.022791 -0.006020 0.008578 0.025938 -0.009040
# 2 -0.022791 0.018018 0.001105 -0.001963 -0.010121 0.009324
# 3 -0.006020 0.001105 0.005509 -0.006349 -0.006575 0.002974
# 4 0.008578 -0.001963 -0.006349 0.034532 0.028802 -0.006058
# 5 0.025938 -0.010121 -0.006575 0.028802 0.064976 -0.011629
# 6 -0.009040 0.009324 0.002974 -0.006058 -0.011629 0.026305
#
#
# Mechanical properties :
#
#
# Convention : Reuss Voigt Hill
#
# Bulk Modulus (GPa) = 38.82249 83.28439 61.05344
# Shear Modulus (GPa) = 18.45162 48.22859 33.34010
#
# Velocity S-wave (km/s) = 2.59983 4.20321 3.49472
# Velocity P-wave (km/s) = 4.82012 7.35285 6.21683
#
# Compressibility (1/GPa) = 0.02575827
#
# Stress axis : x y z
#
# Youngs Moduli (GPa) = 17.34849 55.50067 181.51205
#
# Poissons Ratio (x) = 1.26493 1.09261
# Poissons Ratio (y) = 0.39539 -0.20063
# Poissons Ratio (z) = 0.10443 -0.06135
#
# Static dielectric constant tensor:
#      x y z
#    x 2.638970 0.124360 0.011160 
#    y 0.124360 2.204090 0.073580 
#    z 0.011160 0.073580 2.296670 
# 
# From -- ./inp_files/464373.got.cif
#   From: 2010.05.17/outbox.cif.g08.bks.cpg/sg2_233_cif.got.tgz:464373.got - 2010.06.03 11:33:40.
