data_PCOD9081133
_publ_section_title
;
Structure prediction by ZEFSAII (Michael W. Deem and Ramdas Pophale) SiO2 
 PCOD9081133
Probable space group: P -1
;
_chemical_formula_sum "Si O2"
_cell_formula_units_Z 16
_cell_length_a 16.274611
_cell_length_b 5.270699
_cell_length_c 12.324925
_cell_angle_alpha 111.518469
_cell_angle_beta 132.382714
_cell_angle_gamma 52.977269
_cell_volume 622.113850
_symmetry_space_group_name_H-M "P -1"
_symmetry_group_IT_number 2
_symmetry_cell_setting 'triclinic'
loop_
_space_group_symop_operation_xyz
x,y,z
-x,-y,-z
loop_
_atom_site_type_symbol
_atom_site_label
_atom_site_fract_x
_atom_site_fract_y
_atom_site_fract_z
Si Si1 0.750514 0.010530 0.040765
Si Si2 0.247009 0.239597 0.235009
Si Si3 0.041366 0.773277 0.265399
Si Si4 0.700347 0.965128 0.306494
Si Si5 0.769377 0.087700 0.618271
Si Si6 0.595855 0.697197 0.924985
Si Si7 0.423149 0.360531 0.352726
Si Si8 0.853330 0.288988 0.425248
O O1 0.653919 0.388358 0.003242
O O2 0.775136 0.859618 0.918968
O O3 0.686191 0.850630 0.028193
O O4 0.893299 0.927899 0.190404
O O5 0.263210 0.031002 0.322399
O O6 0.426322 0.041898 0.332593
O O7 0.091086 0.519380 0.174845
O O8 0.136784 0.598736 0.426103
O O9 0.084653 0.025496 0.306237
O O10 0.693082 0.077184 0.444351
O O11 0.801852 0.587455 0.346669
O O12 0.557494 0.057698 0.158118
O O13 0.756556 0.155470 0.324283
O O14 0.717050 0.457780 0.672355
O O15 0.601750 0.583567 0.787055
O O16 0.500000 0.500000 0.500000
O O17 0.000000 0.000000 0.500000
#
# Coordination Sequence:
#
# PCOD9081133 Si02
#       8
#     2   2   2   2   2   2   2   2
#     4  11  24  37  56  87 127 169 200 230 276 358
#     4  10  20  34  52  85 119 166 202 238 286 335
#     4  10  23  38  59  85 120 157 203 248 295 346
#     4  11  22  40  64  90 122 148 193 251 301 358
#     4  10  19  33  55  84 117 158 201 244 291 328
#     4  11  23  37  57  87 123 166 197 233 291 348
#     4  10  19  31  48  80 122 162 201 238 277 341
#     4  11  24  43  69  93 112 145 194 258 315 349
#
# _framework density 25.718762999999999
#
# number of rings (size 3 to 8) (size 9 to 14) (size 15 to 20)
#    0.000    1.500    3.750    1.500    1.750    2.000 
#    0.000    0.000    0.000    4.500    0.000    0.000 
#    0.000    0.000    0.000    0.000    0.000    0.000 
#
# Total GULP energy -89201.943668 kJ/mol
# GULP energy per Si atom -5575.121479 kJ/mol
# Density = 2.566023 g / cm^3
# Si number density = 25.718763 Si / 1000 Ang^3
#
#
#
# Elastic Constant Matrix: (Units=GPa)
#
#
# Indices 1 2 3 4 5 6 
#
# 1 99.3632 20.5410 32.7804 0.1429 17.9829 21.0005
# 2 20.5410 105.8412 29.1511 -13.5202 8.5059 11.8592
# 3 32.7804 29.1511 144.5803 10.1635 35.8899 11.9473
# 4 0.1429 -13.5202 10.1635 38.8891 -12.9150 -2.2836
# 5 17.9829 8.5059 35.8899 -12.9150 46.7718 8.2640
# 6 21.0005 11.8592 11.9473 -2.2836 8.2640 58.6295
#
#
#
# Elastic Compliance Matrix: (Units=1/GPa)
#
#
# Indices 1 2 3 4 5 6 
#
# 1 0.012097 -0.001567 -0.001233 -0.001545 -0.003252 -0.003367
# 2 -0.001567 0.011138 -0.002750 0.005312 0.002376 -0.001259
# 3 -0.001233 -0.002750 0.010416 -0.006611 -0.008819 -0.000139
# 4 -0.001545 0.005312 -0.006611 0.033970 0.014051 0.000169
# 5 -0.003252 0.002376 -0.008819 0.014051 0.033136 -0.001642
# 6 -0.003367 -0.001259 -0.000139 0.000169 -0.001642 0.018783
#
#
# Mechanical properties :
#
#
# Convention : Reuss Voigt Hill
#
# Bulk Modulus (GPa) = 44.34100 57.19218 50.76659
# Shear Modulus (GPa) = 36.19072 46.67889 41.43480
#
# Velocity S-wave (km/s) = 3.75530 4.26487 4.01817
# Velocity P-wave (km/s) = 6.00676 6.82188 6.42725
#
# Compressibility (1/GPa) = 0.02255249
#
# Stress axis : x y z
#
# Youngs Moduli (GPa) = 82.66506 89.78090 96.00664
#
# Poissons Ratio (x) = 0.14068 0.11836
# Poissons Ratio (y) = 0.12953 0.26398
# Poissons Ratio (z) = 0.10191 0.24686
#
# Static dielectric constant tensor:
#      x y z
#    x 2.115290 -0.138620 0.089890 
#    y -0.138620 2.273460 -0.079260 
#    z 0.089890 -0.079260 2.231570 
# 
# From -- ./inp_files/83144.got.cif
#   From: 2010.05.17/outbox.cif.g08.bks.cpg/sg2_42_cif.got.tgz:83144.got - 2010.06.03 11:33:40.
