data_PCOD9081124
_publ_section_title
;
Structure prediction by ZEFSAII (Michael W. Deem and Ramdas Pophale) SiO2 
 PCOD9081124
Probable space group: P -1
;
_chemical_formula_sum "Si O2"
_cell_formula_units_Z 15
_cell_length_a 8.077740
_cell_length_b 6.813617
_cell_length_c 14.246393
_cell_angle_alpha 76.984315
_cell_angle_beta 41.309154
_cell_angle_gamma 82.514840
_cell_volume 503.381174
_symmetry_space_group_name_H-M "P -1"
_symmetry_group_IT_number 2
_symmetry_cell_setting 'triclinic'
loop_
_space_group_symop_operation_xyz
x,y,z
-x,-y,-z
loop_
_atom_site_type_symbol
_atom_site_label
_atom_site_fract_x
_atom_site_fract_y
_atom_site_fract_z
Si Si1 0.167547 0.331588 0.314869
Si Si2 0.242268 0.224434 0.925591
Si Si3 0.810795 0.112997 0.863925
Si Si4 0.294382 0.705237 0.857103
Si Si5 0.526044 0.277939 0.412704
Si Si6 0.053959 0.766793 0.400039
Si Si7 0.500000 0.500000 0.000000
Si Si8 0.620815 0.760321 0.331894
O O1 0.427912 0.234393 0.237744
O O2 0.953560 0.217121 0.484222
O O3 0.160402 0.553060 0.345190
O O4 0.224762 0.388567 0.176343
O O5 0.284911 0.462322 0.909578
O O6 0.409289 0.176627 0.769688
O O7 0.959126 0.216587 0.005477
O O8 0.259264 0.079643 0.020977
O O9 0.627231 0.285318 0.954832
O O10 0.821406 0.085847 0.748714
O O11 0.096755 0.186897 0.759922
O O12 0.287324 0.770543 0.744311
O O13 0.241685 0.248959 0.500326
O O14 0.581180 0.518517 0.371444
O O15 0.551494 0.179494 0.514186
#
# Coordination Sequence:
#
# PCOD9081124 Si02
#       8
#     2   2   2   2   2   2   1   2
#     4   9  16  31  51  72  93 126 164 198 237 285
#     4  10  19  31  48  73 102 127 159 200 237 280
#     4  10  19  32  48  74 100 128 159 196 239 285
#     4   9  18  32  50  71  97 130 163 195 237 285
#     4   8  15  29  48  73  97 129 163 193 234 284
#     4   8  16  30  49  70  96 128 165 196 233 283
#     4  10  20  32  50  72  96 122 160 198 242 288
#     4   9  16  28  49  74 101 127 157 195 240 283
#
# _framework density 29.798492
#
# number of rings (size 3 to 8) (size 9 to 14) (size 15 to 20)
#    0.000    2.933    0.000    1.200    0.000    0.000 
#    0.000   10.000    0.000    0.000    0.000  117.600 
#    0.000    0.000    0.000    0.000    0.000    0.000 
#
# Total GULP energy -83681.493173 kJ/mol
# GULP energy per Si atom -5578.766212 kJ/mol
# Density = 2.973067 g / cm^3
# Si number density = 29.798492 Si / 1000 Ang^3
#
#
#
# Elastic Constant Matrix: (Units=GPa)
#
#
# Indices 1 2 3 4 5 6 
#
# 1 100.5744 49.9228 52.5816 -11.1797 14.9140 -9.4523
# 2 49.9228 169.8941 68.3562 -5.4595 -0.2082 -26.2261
# 3 52.5816 68.3562 263.5784 -34.8931 50.9816 -16.3391
# 4 -11.1797 -5.4595 -34.8931 42.0748 -18.3644 13.6866
# 5 14.9140 -0.2082 50.9816 -18.3644 56.2554 -6.5485
# 6 -9.4523 -26.2261 -16.3391 13.6866 -6.5485 30.2458
#
#
#
# Elastic Compliance Matrix: (Units=1/GPa)
#
#
# Indices 1 2 3 4 5 6 
#
# 1 0.012544 -0.003271 -0.001140 0.001288 -0.001946 -0.000536
# 2 -0.003271 0.008689 -0.002024 -0.002559 0.002732 0.007169
# 3 -0.001140 -0.002024 0.005614 0.002708 -0.004046 -0.001180
# 4 0.001288 -0.002559 0.002708 0.033426 0.006468 -0.014079
# 5 -0.001946 0.002732 -0.004046 0.006468 0.024303 0.001910
# 6 -0.000536 0.007169 -0.001180 -0.014079 0.001910 0.045258
#
#
# Mechanical properties :
#
#
# Convention : Reuss Voigt Hill
#
# Bulk Modulus (GPa) = 71.54587 97.30758 84.42673
# Shear Modulus (GPa) = 33.92959 49.92763 41.92861
#
# Velocity S-wave (km/s) = 3.37803 4.09774 3.75516
# Velocity P-wave (km/s) = 6.26712 7.42393 6.86992
#
# Compressibility (1/GPa) = 0.01397705
#
# Stress axis : x y z
#
# Youngs Moduli (GPa) = 79.71861 115.08578 178.11509
#
# Poissons Ratio (x) = 0.37644 0.20314
# Poissons Ratio (y) = 0.26076 0.36048
# Poissons Ratio (z) = 0.09092 0.23292
#
# Static dielectric constant tensor:
#      x y z
#    x 2.699240 0.192490 0.058880 
#    y 0.192490 2.374930 -0.100380 
#    z 0.058880 -0.100380 2.397730 
# 
# From -- ./inp_files/391349.got.cif
#   From: 2010.05.17/outbox.cif.g08.bks.cpg/sg2_196_cif.got.tgz:391349.got - 2010.06.03 11:33:40.
