data_PCOD9081774
_publ_section_title
;
Structure prediction by ZEFSAII (Michael W. Deem and Ramdas Pophale) SiO2 
 PCOD9081774
Probable space group: P -1
;
_chemical_formula_sum "Si O2"
_cell_formula_units_Z 16
_cell_length_a 17.159479
_cell_length_b 6.210780
_cell_length_c 8.644664
_cell_angle_alpha 105.129023
_cell_angle_beta 64.469931
_cell_angle_gamma 103.972808
_cell_volume 793.678900
_symmetry_space_group_name_H-M "P -1"
_symmetry_group_IT_number 2
_symmetry_cell_setting 'triclinic'
loop_
_space_group_symop_operation_xyz
x,y,z
-x,-y,-z
loop_
_atom_site_type_symbol
_atom_site_label
_atom_site_fract_x
_atom_site_fract_y
_atom_site_fract_z
Si Si1 0.196647 0.074111 0.493647
Si Si2 0.127792 0.582103 0.313666
Si Si3 0.033063 0.245249 0.593021
Si Si4 0.395993 0.024564 0.852694
Si Si5 0.566203 0.336110 0.789376
Si Si6 0.721423 0.673087 0.834580
Si Si7 0.495829 0.649742 0.683374
Si Si8 0.358547 0.013678 0.526639
O O1 0.109929 0.185462 0.627453
O O2 0.245667 0.232657 0.345488
O O3 0.170632 0.821525 0.397070
O O4 0.260922 0.048581 0.576027
O O5 0.079231 0.421227 0.459320
O O6 0.201170 0.435169 0.169253
O O7 0.054302 0.648924 0.271030
O O8 0.000000 0.000000 0.500000
O O9 0.485960 0.149792 0.875501
O O10 0.409130 0.764310 0.795097
O O11 0.390807 0.075062 0.683159
O O12 0.315075 0.117436 0.015547
O O13 0.641739 0.467793 0.852870
O O14 0.513090 0.516402 0.793895
O O15 0.619137 0.230900 0.586037
O O16 0.500000 0.500000 0.500000
O O17 0.579965 0.834541 0.617424
#
# Coordination Sequence:
#
# PCOD9081774 Si02
#       8
#     2   2   2   2   2   2   2   2
#     4  10  19  32  55  81 108 135 178 216 258 321
#     4   9  17  33  54  79 112 135 166 218 266 311
#     4   8  16  31  55  85 105 134 170 213 259 316
#     4  11  24  34  51  77 105 145 187 222 268 311
#     4  11  20  36  54  70 104 148 187 224 262 305
#     4  11  22  34  51  81 111 138 176 227 271 308
#     4  11  19  36  54  68  98 145 189 227 259 304
#     4  11  20  35  54  76 100 141 189 219 258 319
#
# _framework density 20.159286000000002
#
# number of rings (size 3 to 8) (size 9 to 14) (size 15 to 20)
#    0.000    1.750    5.000    1.125    0.000    1.500 
#    0.000    0.000    0.000    0.750    0.000   29.750 
#    0.000    0.000    0.000    0.000    0.000    0.000 
#
# Total GULP energy -89085.753744 kJ/mol
# GULP energy per Si atom -5567.859609 kJ/mol
# Density = 2.011340 g / cm^3
# Si number density = 20.159286 Si / 1000 Ang^3
#
#
#
# Elastic Constant Matrix: (Units=GPa)
#
#
# Indices 1 2 3 4 5 6 
#
# 1 128.3931 36.5795 31.4904 23.1500 -32.2015 -34.0396
# 2 36.5795 72.2761 15.2913 9.3169 -10.5655 -13.4956
# 3 31.4904 15.2913 42.3285 19.0913 -14.2297 -8.2679
# 4 23.1500 9.3169 19.0913 32.6583 -12.0771 -13.4025
# 5 -32.2015 -10.5655 -14.2297 -12.0771 23.1757 12.3836
# 6 -34.0396 -13.4956 -8.2679 -13.4025 12.3836 37.4169
#
#
#
# Elastic Compliance Matrix: (Units=1/GPa)
#
#
# Indices 1 2 3 4 5 6 
#
# 1 0.014894 -0.003448 -0.004424 0.000795 0.012897 0.007346
# 2 -0.003448 0.016622 -0.003286 0.000518 -0.000242 0.002398
# 3 -0.004424 -0.003286 0.037924 -0.016899 0.010174 -0.006250
# 4 0.000795 0.000518 -0.016899 0.048058 0.010107 0.011045
# 5 0.012897 -0.000242 0.010174 0.010107 0.076672 -0.007862
# 6 0.007346 0.002398 -0.006250 0.011045 -0.007862 0.039451
#
#
# Mechanical properties :
#
#
# Convention : Reuss Voigt Hill
#
# Bulk Modulus (GPa) = 21.22021 45.52446 33.37233
# Shear Modulus (GPa) = 18.40646 29.29262 23.84954
#
# Velocity S-wave (km/s) = 3.02495 3.81604 3.44329
# Velocity P-wave (km/s) = 4.76965 6.48441 5.69197
#
# Compressibility (1/GPa) = 0.04712490
#
# Stress axis : x y z
#
# Youngs Moduli (GPa) = 67.13906 60.16228 26.36853
#
# Poissons Ratio (x) = 0.20744 0.11664
# Poissons Ratio (y) = 0.23149 0.08665
# Poissons Ratio (z) = 0.29700 0.19770
#
# Static dielectric constant tensor:
#      x y z
#    x 1.763520 0.017120 -0.029860 
#    y 0.017120 1.828960 0.048720 
#    z -0.029860 0.048720 1.729640 
# 
# From -- ./inp_files/39981.got.cif
#   From: 2010.05.17/outbox.cif.g08.bks.cpg/sg2_20_cif.got.tgz:39981.got - 2010.06.03 11:33:40.
