data_PCOD9081660
_publ_section_title
;
Structure prediction by ZEFSAII (Michael W. Deem and Ramdas Pophale) SiO2 
 PCOD9081660
Probable space group: P -1
;
_chemical_formula_sum "Si O2"
_cell_formula_units_Z 16
_cell_length_a 14.351846
_cell_length_b 9.068733
_cell_length_c 23.124329
_cell_angle_alpha 60.554586
_cell_angle_beta 159.837573
_cell_angle_gamma 119.010017
_cell_volume 900.615031
_symmetry_space_group_name_H-M "P -1"
_symmetry_group_IT_number 2
_symmetry_cell_setting 'triclinic'
loop_
_space_group_symop_operation_xyz
x,y,z
-x,-y,-z
loop_
_atom_site_type_symbol
_atom_site_label
_atom_site_fract_x
_atom_site_fract_y
_atom_site_fract_z
Si Si1 0.994806 0.066077 0.051232
Si Si2 0.416929 0.921828 0.737213
Si Si3 0.789410 0.468918 0.748427
Si Si4 0.557517 0.459108 0.357751
Si Si5 0.714700 0.748016 0.555607
Si Si6 0.699718 0.643988 0.881934
Si Si7 0.483373 0.939049 0.568379
Si Si8 0.063959 0.231461 0.437418
O O1 0.082710 0.262052 0.053805
O O2 0.225770 0.017326 0.239069
O O3 0.000000 0.000000 0.000000
O O4 0.695774 0.009610 0.908656
O O5 0.511961 0.782010 0.773741
O O6 0.218633 0.829309 0.686236
O O7 0.258581 0.075130 0.588532
O O8 0.674890 0.506700 0.737727
O O9 0.759081 0.629198 0.658788
O O10 0.579681 0.319120 0.629831
O O11 0.101469 0.427180 0.941488
O O12 0.474843 0.478734 0.238917
O O13 0.603727 0.260229 0.434543
O O14 0.801426 0.598495 0.486997
O O15 0.932306 0.729041 0.635913
O O16 0.713706 0.941100 0.537225
O O17 0.500000 0.000000 0.500000
#
# Coordination Sequence:
#
# PCOD9081660 Si02
#       8
#     2   2   2   2   2   2   2   2
#     4   9  17  32  56  82 105 134 182 228 269 320
#     4  10  20  37  58  80 105 149 190 229 260 331
#     4  10  19  32  53  81 112 141 180 226 272 328
#     4  10  20  34  54  85 113 138 177 229 281 330
#     4  10  19  34  53  77 113 148 180 220 271 332
#     4  10  19  33  56  85 111 137 176 235 286 316
#     4  11  20  34  58  87 114 142 176 230 290 328
#     4  10  21  37  56  80 108 148 192 218 271 327
#
# _framework density 17.765637000000002
#
# number of rings (size 3 to 8) (size 9 to 14) (size 15 to 20)
#    0.000    2.000    1.250    5.625    0.000    1.500 
#    0.000    0.625    0.000    0.750    0.000    0.000 
#    0.000    0.000    0.000    0.000    0.000    0.000 
#
# Total GULP energy -89107.429648 kJ/mol
# GULP energy per Si atom -5569.214353 kJ/mol
# Density = 1.772520 g / cm^3
# Si number density = 17.765637 Si / 1000 Ang^3
#
#
#
# Elastic Constant Matrix: (Units=GPa)
#
#
# Indices 1 2 3 4 5 6 
#
# 1 66.2895 22.6945 45.1702 6.4877 4.6878 3.4415
# 2 22.6945 72.3792 27.4067 -5.0396 16.7867 -8.9915
# 3 45.1702 27.4067 73.2735 -0.2631 0.2637 0.2097
# 4 6.4877 -5.0396 -0.2631 21.0098 6.3678 4.4948
# 5 4.6878 16.7867 0.2637 6.3678 27.9582 5.6558
# 6 3.4415 -8.9915 0.2097 4.4948 5.6558 25.4121
#
#
#
# Elastic Compliance Matrix: (Units=1/GPa)
#
#
# Indices 1 2 3 4 5 6 
#
# 1 0.028500 -0.004157 -0.016041 -0.009440 0.000767 -0.003699
# 2 -0.004157 0.023781 -0.006263 0.009974 -0.018078 0.011288
# 3 -0.016041 -0.006263 0.025871 0.002367 0.006078 -0.002029
# 4 -0.009440 0.009974 0.002367 0.058578 -0.017427 -0.001695
# 5 0.000767 -0.018078 0.006078 -0.017427 0.053516 -0.015379
# 6 -0.003699 0.011288 -0.002029 -0.001695 -0.015379 0.047586
#
#
# Mechanical properties :
#
#
# Convention : Reuss Voigt Hill
#
# Bulk Modulus (GPa) = 39.63569 44.72055 42.17812
# Shear Modulus (GPa) = 16.71322 22.65408 19.68365
#
# Velocity S-wave (km/s) = 3.07051 3.57482 3.33222
# Velocity P-wave (km/s) = 5.91011 6.50125 6.21272
#
# Compressibility (1/GPa) = 0.02522979
#
# Stress axis : x y z
#
# Youngs Moduli (GPa) = 35.08717 42.05085 38.65330
#
# Poissons Ratio (x) = 0.17482 0.62002
# Poissons Ratio (y) = 0.14587 0.24210
# Poissons Ratio (z) = 0.56282 0.26338
#
# Static dielectric constant tensor:
#      x y z
#    x 1.616130 -0.023580 -0.028820 
#    y -0.023580 1.657890 -0.005380 
#    z -0.028820 -0.005380 1.667010 
# 
# From -- ./inp_files/319887.got.cif
#   From: 2010.05.17/outbox.cif.g08.bks.cpg/sg2_160_cif.got.tgz:319887.got - 2010.06.03 11:33:40.
