data_PCOD9081134
_publ_section_title
;
Structure prediction by ZEFSAII (Michael W. Deem and Ramdas Pophale) SiO2 
 PCOD9081134
Probable space group: P -1
;
_chemical_formula_sum "Si O2"
_cell_formula_units_Z 16
_cell_length_a 9.317070
_cell_length_b 15.130402
_cell_length_c 5.580509
_cell_angle_alpha 72.582762
_cell_angle_beta 69.432987
_cell_angle_gamma 57.049181
_cell_volume 612.170551
_symmetry_space_group_name_H-M "P -1"
_symmetry_group_IT_number 2
_symmetry_cell_setting 'triclinic'
loop_
_space_group_symop_operation_xyz
x,y,z
-x,-y,-z
loop_
_atom_site_type_symbol
_atom_site_label
_atom_site_fract_x
_atom_site_fract_y
_atom_site_fract_z
Si Si1 0.304187 0.993773 0.354351
Si Si2 0.286857 0.106102 0.764332
Si Si3 0.221442 0.809618 0.509205
Si Si4 0.024469 0.715417 0.961831
Si Si5 0.372682 0.310314 0.563126
Si Si6 0.692421 0.351795 0.772539
Si Si7 0.163355 0.535071 0.716550
Si Si8 0.661129 0.653598 0.944051
O O1 0.513033 0.916887 0.345089
O O2 0.213889 0.920786 0.452454
O O3 0.245871 0.067985 0.566093
O O4 0.288496 0.043890 0.058991
O O5 0.139114 0.226031 0.814419
O O6 0.076895 0.798841 0.754040
O O7 0.420278 0.721541 0.546095
O O8 0.212141 0.770278 0.279861
O O9 0.006698 0.649121 0.805643
O O10 0.193757 0.640722 0.085270
O O11 0.224962 0.436875 0.572659
O O12 0.336165 0.286875 0.339625
O O13 0.370929 0.273738 0.864416
O O14 0.705670 0.421923 0.491371
O O15 0.500697 0.373049 0.937091
O O16 0.183626 0.463929 0.997650
#
# Coordination Sequence:
#
# PCOD9081134 Si02
#       8
#     2   2   2   2   2   2   2   2
#     4  10  24  48  68  84 111 155 204 244 295 367
#     4  10  25  46  68  86 111 155 202 244 299 362
#     4  10  22  35  59  92 122 153 192 248 297 343
#     4  11  22  34  58  92 128 150 193 248 300 340
#     4   9  18  31  47  80 118 157 192 224 277 344
#     4  10  19  31  48  88 127 156 191 235 290 345
#     4   9  20  29  49  80 125 165 191 226 280 347
#     4   9  17  29  44  71 121 160 192 219 269 338
#
# _framework density 26.136506000000001
#
# number of rings (size 3 to 8) (size 9 to 14) (size 15 to 20)
#    0.750    1.500    1.250    1.125    7.000    2.000 
#    0.000    0.000    0.000    0.750    0.000    1.750 
#    0.000    0.000    0.000    0.000    0.000    0.000 
#
# Total GULP energy -89140.345913 kJ/mol
# GULP energy per Si atom -5571.271620 kJ/mol
# Density = 2.607702 g / cm^3
# Si number density = 26.136506 Si / 1000 Ang^3
#
#
#
# Elastic Constant Matrix: (Units=GPa)
#
#
# Indices 1 2 3 4 5 6 
#
# 1 87.6411 23.4278 47.9695 2.8573 9.3897 11.8812
# 2 23.4278 66.0295 45.5574 15.9408 1.3573 6.9404
# 3 47.9695 45.5574 155.5735 -1.5200 4.3832 10.0509
# 4 2.8573 15.9408 -1.5200 46.9629 0.1740 -10.2326
# 5 9.3897 1.3573 4.3832 0.1740 41.0127 12.3149
# 6 11.8812 6.9404 10.0509 -10.2326 12.3149 42.8719
#
#
#
# Elastic Compliance Matrix: (Units=1/GPa)
#
#
# Indices 1 2 3 4 5 6 
#
# 1 0.014568 -0.002164 -0.003650 -0.000785 -0.002149 -0.002401
# 2 -0.002164 0.022342 -0.005735 -0.008557 0.001664 -0.004193
# 3 -0.003650 -0.005735 0.009234 0.002558 -0.000096 0.000413
# 4 -0.000785 -0.008557 0.002558 0.026054 -0.002287 0.007878
# 5 -0.002149 0.001664 -0.000096 -0.002287 0.027249 -0.008024
# 6 -0.002401 -0.004193 0.000413 0.007878 -0.008024 0.028758
#
#
# Mechanical properties :
#
#
# Convention : Reuss Voigt Hill
#
# Bulk Modulus (GPa) = 43.39318 60.35039 51.87179
# Shear Modulus (GPa) = 31.44968 38.98879 35.21923
#
# Velocity S-wave (km/s) = 3.47260 3.86649 3.67483
# Velocity P-wave (km/s) = 5.71989 6.56305 6.15592
#
# Compressibility (1/GPa) = 0.02304509
#
# Stress axis : x y z
#
# Youngs Moduli (GPa) = 68.64383 44.75915 108.29990
#
# Poissons Ratio (x) = 0.09687 0.39530
# Poissons Ratio (y) = 0.14857 0.62107
# Poissons Ratio (z) = 0.25055 0.25668
#
# Static dielectric constant tensor:
#      x y z
#    x 2.139150 -0.028650 -0.006940 
#    y -0.028650 2.093800 -0.030070 
#    z -0.006940 -0.030070 2.066190 
# 
# From -- ./inp_files/81306.got.cif
#   From: 2010.05.17/outbox.cif.g08.bks.cpg/sg2_41_cif.got.tgz:81306.got - 2010.06.03 11:33:40.
