data_PCOD9081838
_publ_section_title
;
Structure prediction by ZEFSAII (Michael W. Deem and Ramdas Pophale) SiO2 
 PCOD9081838
Probable space group: P -1
;
_chemical_formula_sum "Si O2"
_cell_formula_units_Z 16
_cell_length_a 16.911841
_cell_length_b 10.377148
_cell_length_c 10.475437
_cell_angle_alpha 55.552705
_cell_angle_beta 133.118023
_cell_angle_gamma 145.112201
_cell_volume 767.495314
_symmetry_space_group_name_H-M "P -1"
_symmetry_group_IT_number 2
_symmetry_cell_setting 'triclinic'
loop_
_space_group_symop_operation_xyz
x,y,z
-x,-y,-z
loop_
_atom_site_type_symbol
_atom_site_label
_atom_site_fract_x
_atom_site_fract_y
_atom_site_fract_z
Si Si1 0.914987 0.800517 0.414889
Si Si2 0.441665 0.545056 0.526410
Si Si3 0.703552 0.313011 0.443943
Si Si4 0.233339 0.043840 0.626609
Si Si5 0.420169 0.727839 0.921245
Si Si6 0.457864 0.805101 0.201273
Si Si7 0.358798 0.065244 0.288509
Si Si8 0.285604 0.126345 0.914047
O O1 0.819829 0.555180 0.502087
O O2 0.794172 0.786771 0.215439
O O3 0.000000 0.000000 0.500000
O O4 0.067196 0.887408 0.463271
O O5 0.500000 0.500000 0.500000
O O6 0.311636 0.298469 0.581113
O O7 0.393048 0.655467 0.340442
O O8 0.582570 0.732317 0.671453
O O9 0.712042 0.364312 0.274204
O O10 0.525688 0.172317 0.362706
O O11 0.722439 0.154627 0.595510
O O12 0.362473 0.068895 0.689356
O O13 0.213023 0.972348 0.792252
O O14 0.531984 0.998657 0.887888
O O15 0.377422 0.669574 0.055645
O O16 0.528406 0.695869 0.012984
O O17 0.265622 0.021310 0.085833
#
# Coordination Sequence:
#
# PCOD9081838 Si02
#       8
#     2   2   2   2   2   2   2   2
#     4  10  20  36  52  74 111 150 180 210 270 336
#     4  10  19  32  56  80 105 141 178 229 268 313
#     4  10  20  33  57  82 109 141 173 234 275 314
#     4   9  19  34  53  77 106 148 182 207 268 331
#     4   9  17  32  55  83 106 131 178 227 280 306
#     4   9  17  32  56  80 108 135 177 230 262 320
#     4  10  19  33  54  86 109 129 183 234 278 306
#     4   9  19  33  54  79 108 137 175 230 266 320
#
# _framework density 20.847033
#
# number of rings (size 3 to 8) (size 9 to 14) (size 15 to 20)
#    0.000    2.500    1.250    1.500    0.000    6.500 
#    0.000    3.125    5.500    3.750    0.000    0.000 
#    0.000    0.000    0.000    0.000    0.000    0.000 
#
# Total GULP energy -89082.487152 kJ/mol
# GULP energy per Si atom -5567.655447 kJ/mol
# Density = 2.079958 g / cm^3
# Si number density = 20.847033 Si / 1000 Ang^3
#
#
#
# Elastic Constant Matrix: (Units=GPa)
#
#
# Indices 1 2 3 4 5 6 
#
# 1 52.9992 15.2947 35.4581 1.0239 0.7883 -6.9156
# 2 15.2947 87.0460 48.4756 -7.8946 11.1258 -6.4582
# 3 35.4581 48.4756 116.9803 -12.5730 -5.5041 6.9548
# 4 1.0239 -7.8946 -12.5730 17.9291 -5.3064 -0.6350
# 5 0.7883 11.1258 -5.5041 -5.3064 33.3448 1.5344
# 6 -6.9156 -6.4582 6.9548 -0.6350 1.5344 18.0294
#
#
#
# Elastic Compliance Matrix: (Units=1/GPa)
#
#
# Indices 1 2 3 4 5 6 
#
# 1 0.028780 0.002925 -0.012330 -0.010205 -0.006098 0.017003
# 2 0.002925 0.018249 -0.009672 -0.000993 -0.008468 0.012075
# 3 -0.012330 -0.009672 0.018955 0.011921 0.009275 -0.015876
# 4 -0.010205 -0.000993 0.011921 0.068072 0.013725 -0.007639
# 5 -0.006098 -0.008468 0.009275 0.013725 0.037210 -0.011634
# 6 0.017003 0.012075 -0.015876 -0.007639 -0.011634 0.073157
#
#
# Mechanical properties :
#
#
# Convention : Reuss Voigt Hill
#
# Bulk Modulus (GPa) = 35.93233 50.60914 43.27073
# Shear Modulus (GPa) = 17.13190 24.38048 20.75619
#
# Velocity S-wave (km/s) = 2.86980 3.42350 3.15880
# Velocity P-wave (km/s) = 5.31551 6.32109 5.83998
#
# Compressibility (1/GPa) = 0.02783009
#
# Stress axis : x y z
#
# Youngs Moduli (GPa) = 34.74646 54.79871 52.75558
#
# Poissons Ratio (x) = -0.16030 0.65050
# Poissons Ratio (y) = -0.10164 0.51024
# Poissons Ratio (z) = 0.42844 0.53000
#
# Static dielectric constant tensor:
#      x y z
#    x 1.831950 -0.019170 -0.008990 
#    y -0.019170 1.787950 0.000740 
#    z -0.008990 0.000740 1.848050 
# 
# From -- ./inp_files/436836.got.cif
#   From: 2010.05.17/outbox.cif.g08.bks.cpg/sg2_219_cif.got.tgz:436836.got - 2010.06.03 11:33:40.
