data_PCOD9081555
_publ_section_title
;
Structure prediction by ZEFSAII (Michael W. Deem and Ramdas Pophale) SiO2 
 PCOD9081555
Probable space group: P -1
;
_chemical_formula_sum "Si O2"
_cell_formula_units_Z 16
_cell_length_a 16.520718
_cell_length_b 16.939294
_cell_length_c 7.885198
_cell_angle_alpha 103.021060
_cell_angle_beta 67.615248
_cell_angle_gamma 158.651618
_cell_volume 685.715115
_symmetry_space_group_name_H-M "P -1"
_symmetry_group_IT_number 2
_symmetry_cell_setting 'triclinic'
loop_
_space_group_symop_operation_xyz
x,y,z
-x,-y,-z
loop_
_atom_site_type_symbol
_atom_site_label
_atom_site_fract_x
_atom_site_fract_y
_atom_site_fract_z
Si Si1 0.156100 0.119839 0.105165
Si Si2 0.113687 0.516556 0.554039
Si Si3 0.339521 0.624602 0.759058
Si Si4 0.957667 0.397526 0.130601
Si Si5 0.169449 0.874666 0.501080
Si Si6 0.060265 0.229552 0.866714
Si Si7 0.627632 0.965173 0.199830
Si Si8 0.260494 0.389632 0.173370
O O1 0.438730 0.335515 0.934379
O O2 0.198821 0.244682 0.215146
O O3 0.006060 0.917203 0.219274
O O4 0.000000 0.000000 0.000000
O O5 0.227711 0.572230 0.658034
O O6 0.866228 0.248368 0.587260
O O7 0.329565 0.694727 0.325505
O O8 0.928078 0.426410 0.335012
O O9 0.187431 0.532887 0.993168
O O10 0.266623 0.467162 0.731288
O O11 0.632769 0.902455 0.658618
O O12 0.000000 0.500000 0.000000
O O13 0.709154 0.127216 0.166272
O O14 0.268693 0.957310 0.653930
O O15 0.898915 0.683948 0.630310
O O16 0.163031 0.309508 0.017130
O O17 0.796108 0.050354 0.996746
#
# Coordination Sequence:
#
# PCOD9081555 Si02
#       8
#     2   2   2   2   2   2   2   2
#     4   9  17  31  54  78  99 125 161 202 246 294
#     4  10  19  32  52  72  98 137 169 203 251 292
#     4   9  20  35  49  72 103 131 168 209 243 290
#     4   9  18  34  52  72 101 134 167 209 250 286
#     4  10  20  33  50  74 102 132 165 203 246 294
#     4   9  17  32  53  73  98 133 166 203 248 290
#     4   9  18  33  51  74 101 128 169 212 242 287
#     4   9  18  32  52  77 100 125 164 206 242 291
#
# _framework density 23.333303000000001
#
# number of rings (size 3 to 8) (size 9 to 14) (size 15 to 20)
#    0.000    2.750    0.000    1.125    0.000    3.000 
#    0.000    8.125    0.000    7.500    0.000    0.000 
#    0.000    0.000    0.000    0.000    0.000    0.000 
#
# Total GULP energy -89369.766971 kJ/mol
# GULP energy per Si atom -5585.610436 kJ/mol
# Density = 2.328020 g / cm^3
# Si number density = 23.333303 Si / 1000 Ang^3
#
#
#
# Elastic Constant Matrix: (Units=GPa)
#
#
# Indices 1 2 3 4 5 6 
#
# 1 95.1135 46.4243 14.9989 -23.7229 10.1196 -22.6980
# 2 46.4243 83.1499 29.8040 -28.9484 9.5493 -19.3758
# 3 14.9989 29.8040 52.7118 -21.4091 12.6181 -5.1015
# 4 -23.7229 -28.9484 -21.4091 39.3450 -5.6779 14.5006
# 5 10.1196 9.5493 12.6181 -5.6779 17.1955 -12.6659
# 6 -22.6980 -19.3758 -5.1015 14.5006 -12.6659 51.9519
#
#
#
# Elastic Compliance Matrix: (Units=1/GPa)
#
#
# Indices 1 2 3 4 5 6 
#
# 1 0.015617 -0.007202 0.002434 0.004027 -0.003964 0.002286
# 2 -0.007202 0.021494 -0.007687 0.006567 0.002184 0.002814
# 3 0.002434 -0.007687 0.032594 0.013164 -0.022441 -0.007748
# 4 0.004027 0.006567 0.013164 0.041672 -0.007840 -0.008041
# 5 -0.003964 0.002184 -0.022441 -0.007840 0.088328 0.020602
# 6 0.002286 0.002814 -0.007748 -0.008041 0.020602 0.027803
#
#
# Mechanical properties :
#
#
# Convention : Reuss Voigt Hill
#
# Bulk Modulus (GPa) = 22.32372 45.93661 34.13017
# Shear Modulus (GPa) = 18.70222 31.01501 24.85861
#
# Velocity S-wave (km/s) = 2.83419 3.64980 3.26754
# Velocity P-wave (km/s) = 4.50536 6.12301 5.37539
#
# Compressibility (1/GPa) = 0.04479540
#
# Stress axis : x y z
#
# Youngs Moduli (GPa) = 64.03414 46.52465 30.68087
#
# Poissons Ratio (x) = 0.33505 -0.07468
# Poissons Ratio (y) = 0.46115 0.23584
# Poissons Ratio (z) = -0.15587 0.35763
#
# Static dielectric constant tensor:
#      x y z
#    x 1.908430 -0.005410 0.024020 
#    y -0.005410 1.890500 0.003050 
#    z 0.024020 0.003050 1.885150 
# 
# From -- ./inp_files/44769.got.cif
#   From: 2010.05.17/outbox.cif.g08.bks.cpg/sg2_23_cif.got.tgz:44769.got - 2010.06.03 11:33:40.
