data_PCOD9081375
_publ_section_title
;
Structure prediction by ZEFSAII (Michael W. Deem and Ramdas Pophale) SiO2 
 PCOD9081375
Probable space group: P -1
;
_chemical_formula_sum "Si O2"
_cell_formula_units_Z 14
_cell_length_a 11.285550
_cell_length_b 7.942863
_cell_length_c 12.894221
_cell_angle_alpha 55.560470
_cell_angle_beta 141.584372
_cell_angle_gamma 104.674239
_cell_volume 550.189592
_symmetry_space_group_name_H-M "P -1"
_symmetry_group_IT_number 2
_symmetry_cell_setting 'triclinic'
loop_
_space_group_symop_operation_xyz
x,y,z
-x,-y,-z
loop_
_atom_site_type_symbol
_atom_site_label
_atom_site_fract_x
_atom_site_fract_y
_atom_site_fract_z
Si Si1 0.049208 0.241362 0.633786
Si Si2 0.768638 0.201387 0.291948
Si Si3 0.286748 0.735836 0.233175
Si Si4 0.424221 0.032369 0.099681
Si Si5 0.154016 0.960240 0.270183
Si Si6 0.241193 0.358123 0.235661
Si Si7 0.622037 0.594648 0.914319
O O1 0.021835 0.859620 0.480352
O O2 0.000000 0.500000 0.500000
O O3 0.284012 0.117038 0.873566
O O4 0.916805 0.193315 0.651867
O O5 0.647244 0.041452 0.244585
O O6 0.603859 0.364151 0.208354
O O7 0.760993 0.354430 0.134917
O O8 0.307181 0.485187 0.327131
O O9 0.421751 0.805208 0.218542
O O10 0.295189 0.826256 0.321216
O O11 0.055397 0.874820 0.983880
O O12 0.316701 0.220317 0.048667
O O13 0.254312 0.110515 0.347624
O O14 0.355904 0.376240 0.201797
O O15 0.000000 0.500000 0.000000
#
# Coordination Sequence:
#
# PCOD9081375 Si02
#       7
#     2   2   2   2   2   2   2
#     4  11  18  29  56  86 103 145 189 218 279 333
#     4   9  18  32  56  80 113 145 176 235 272 316
#     4   9  17  31  55  79 108 144 183 228 272 324
#     4   9  17  33  55  81 109 138 188 223 268 333
#     4   9  18  31  50  81 108 139 189 226 265 336
#     4  10  19  31  56  84 109 146 185 228 280 320
#     4   9  16  33  53  80 110 140 184 224 269 329
#
# _framework density 25.445772999999999
#
# number of rings (size 3 to 8) (size 9 to 14) (size 15 to 20)
#    0.857    1.714    2.857    0.000    2.000    0.000 
#    0.000    3.571    0.000   17.143    0.000    0.000 
#    0.000    0.000    0.000    0.000    0.000    0.000 
#
# Total GULP energy -78325.720712 kJ/mol
# GULP energy per Si atom -5594.694337 kJ/mol
# Density = 2.538786 g / cm^3
# Si number density = 25.445773 Si / 1000 Ang^3
#
#
#
# Elastic Constant Matrix: (Units=GPa)
#
#
# Indices 1 2 3 4 5 6 
#
# 1 85.5775 40.2852 37.0755 -7.3614 0.2103 17.5152
# 2 40.2852 203.8321 44.1824 11.1929 -12.2425 16.5098
# 3 37.0755 44.1824 117.0660 12.0419 9.7931 11.3311
# 4 -7.3614 11.1929 12.0419 44.2024 1.8548 -8.7991
# 5 0.2103 -12.2425 9.7931 1.8548 29.9669 6.8604
# 6 17.5152 16.5098 11.3311 -8.7991 6.8604 27.1181
#
#
#
# Elastic Compliance Matrix: (Units=1/GPa)
#
#
# Indices 1 2 3 4 5 6 
#
# 1 0.015995 -0.001701 -0.004178 0.002718 0.002034 -0.007182
# 2 -0.001701 0.006273 -0.001550 -0.002397 0.004121 -0.003893
# 3 -0.004178 -0.001550 0.011239 -0.003448 -0.003785 -0.001215
# 4 0.002718 -0.002397 -0.003448 0.026965 -0.004040 0.010916
# 5 0.002034 0.004121 -0.003785 -0.004040 0.039635 -0.013579
# 6 -0.007182 -0.003893 -0.001215 0.010916 -0.013579 0.051370
#
#
# Mechanical properties :
#
#
# Convention : Reuss Voigt Hill
#
# Bulk Modulus (GPa) = 53.62303 72.17354 62.89829
# Shear Modulus (GPa) = 28.97691 39.25298 34.11494
#
# Velocity S-wave (km/s) = 3.37823 3.93187 3.66552
# Velocity P-wave (km/s) = 6.02792 7.00272 6.53352
#
# Compressibility (1/GPa) = 0.01864870
#
# Stress axis : x y z
#
# Youngs Moduli (GPa) = 62.51963 159.42434 88.97206
#
# Poissons Ratio (x) = 0.27115 0.37175
# Poissons Ratio (y) = 0.10634 0.13791
# Poissons Ratio (z) = 0.26123 0.24711
#
# Static dielectric constant tensor:
#      x y z
#    x 2.127800 -0.107120 0.127940 
#    y -0.107120 2.020580 -0.002550 
#    z 0.127940 -0.002550 2.055140 
# 
# From -- ./inp_files/526294.got.cif
#   From: 2010.05.17/outbox.cif.g08.bks.cpg/sg2_264_cif.got.tgz:526294.got - 2010.06.03 11:33:40.
