data_PCOD9081177
_publ_section_title
;
Structure prediction by ZEFSAII (Michael W. Deem and Ramdas Pophale) SiO2 
 PCOD9081177
Probable space group: P -1
;
_chemical_formula_sum "Si O2"
_cell_formula_units_Z 16
_cell_length_a 9.054611
_cell_length_b 9.255417
_cell_length_c 16.197395
_cell_angle_alpha 116.963666
_cell_angle_beta 35.756731
_cell_angle_gamma 106.139519
_cell_volume 696.340052
_symmetry_space_group_name_H-M "P -1"
_symmetry_group_IT_number 2
_symmetry_cell_setting 'triclinic'
loop_
_space_group_symop_operation_xyz
x,y,z
-x,-y,-z
loop_
_atom_site_type_symbol
_atom_site_label
_atom_site_fract_x
_atom_site_fract_y
_atom_site_fract_z
Si Si1 0.458345 0.766073 0.059218
Si Si2 0.972440 0.680559 0.522661
Si Si3 0.287797 0.015744 0.345774
Si Si4 0.221775 0.454179 0.630235
Si Si5 0.798526 0.512875 0.962178
Si Si6 0.517644 0.730663 0.273393
Si Si7 0.962585 0.745272 0.727679
Si Si8 0.486684 0.825137 0.497229
O O1 0.596266 0.631755 0.027319
O O2 0.690172 0.807270 0.908440
O O3 0.341309 0.916634 0.209608
O O4 0.270166 0.670199 0.066292
O O5 0.245472 0.684084 0.357715
O O6 0.956033 0.778150 0.642488
O O7 0.000000 0.500000 0.500000
O O8 0.736838 0.787190 0.607661
O O9 0.488155 0.915133 0.294932
O O10 0.000000 0.000000 0.500000
O O11 0.500000 0.500000 0.500000
O O12 0.043012 0.549563 0.664615
O O13 0.285632 0.259318 0.568623
O O14 0.069852 0.522168 0.799421
O O15 0.743133 0.599376 0.097848
O O16 0.516210 0.721891 0.370774
O O17 0.211185 0.819908 0.662179
O O18 0.500000 0.000000 0.500000
#
# Coordination Sequence:
#
# PCOD9081177 Si02
#       8
#     2   2   2   2   2   2   2   2
#     4   9  17  32  55  83 110 137 169 214 273 328
#     4  10  19  31  50  78 111 141 168 207 266 328
#     4   9  19  33  51  76 111 142 169 209 264 323
#     4   9  19  35  54  73 100 140 183 220 255 302
#     4   9  17  31  57  83 105 138 176 215 268 324
#     4   9  19  35  52  76 107 138 178 223 259 307
#     4   9  19  35  54  77 107 136 174 222 262 312
#     4  10  21  36  55  76 102 144 188 221 258 305
#
# _framework density 22.97728
#
# number of rings (size 3 to 8) (size 9 to 14) (size 15 to 20)
#    0.000    2.750    0.000    0.750    0.000    8.000 
#    0.000    1.250    0.000   13.500    0.000    0.000 
#    0.000    0.000    0.000    0.000    0.000    0.000 
#
# Total GULP energy -89090.902446 kJ/mol
# GULP energy per Si atom -5568.181403 kJ/mol
# Density = 2.292498 g / cm^3
# Si number density = 22.977280 Si / 1000 Ang^3
#
#
#
# Elastic Constant Matrix: (Units=GPa)
#
#
# Indices 1 2 3 4 5 6 
#
# 1 55.3744 12.3357 33.4398 5.7243 3.4863 -17.5999
# 2 12.3357 113.1296 31.3487 13.7769 -19.0402 -18.9940
# 3 33.4398 31.3487 185.0781 -17.4763 1.5174 -0.8384
# 4 5.7243 13.7769 -17.4763 34.9527 -7.2223 -8.1925
# 5 3.4863 -19.0402 1.5174 -7.2223 17.4669 2.8521
# 6 -17.5999 -18.9940 -0.8384 -8.1925 2.8521 29.0001
#
#
#
# Elastic Compliance Matrix: (Units=1/GPa)
#
#
# Indices 1 2 3 4 5 6 
#
# 1 0.027567 0.000236 -0.005390 -0.005527 -0.009695 0.016121
# 2 0.000236 0.012992 -0.002532 -0.002313 0.012282 0.006718
# 3 -0.005390 -0.002532 0.007237 0.004744 0.000204 -0.003400
# 4 -0.005527 -0.002313 0.004744 0.036397 0.012514 0.004319
# 5 -0.009695 0.012282 0.000204 0.012514 0.078054 -0.001975
# 6 0.016121 0.006718 -0.003400 0.004319 -0.001975 0.049982
#
#
# Mechanical properties :
#
#
# Convention : Reuss Voigt Hill
#
# Bulk Modulus (GPa) = 30.84221 56.42562 43.63392
# Shear Modulus (GPa) = 20.97239 34.71446 27.84342
#
# Velocity S-wave (km/s) = 3.02444 3.89114 3.48484
# Velocity P-wave (km/s) = 5.06443 6.69316 5.93493
#
# Compressibility (1/GPa) = 0.03242310
#
# Stress axis : x y z
#
# Youngs Moduli (GPa) = 36.27553 76.97075 138.18328
#
# Poissons Ratio (x) = -0.01815 0.74482
# Poissons Ratio (y) = -0.00855 0.34986
# Poissons Ratio (z) = 0.19553 0.19488
#
# Static dielectric constant tensor:
#      x y z
#    x 1.973340 0.015060 0.042530 
#    y 0.015060 2.012230 0.062280 
#    z 0.042530 0.062280 1.865800 
# 
# From -- ./inp_files/493878.got.cif
#   From: 2010.05.17/outbox.cif.g08.bks.cpg/sg2_247_cif.got.tgz:493878.got - 2010.06.03 11:33:40.
