data_PCOD9081259
_publ_section_title
;
Structure prediction by ZEFSAII (Michael W. Deem and Ramdas Pophale) SiO2 
 PCOD9081259
Probable space group: P -1
;
_chemical_formula_sum "Si O2"
_cell_formula_units_Z 16
_cell_length_a 10.524904
_cell_length_b 7.980759
_cell_length_c 12.110706
_cell_angle_alpha 71.595052
_cell_angle_beta 69.135493
_cell_angle_gamma 105.448926
_cell_volume 815.457581
_symmetry_space_group_name_H-M "P -1"
_symmetry_group_IT_number 2
_symmetry_cell_setting 'triclinic'
loop_
_space_group_symop_operation_xyz
x,y,z
-x,-y,-z
loop_
_atom_site_type_symbol
_atom_site_label
_atom_site_fract_x
_atom_site_fract_y
_atom_site_fract_z
Si Si1 0.430956 0.509272 0.898343
Si Si2 0.255582 0.099459 0.917894
Si Si3 0.852710 0.606778 0.881085
Si Si4 0.838631 0.441093 0.695350
Si Si5 0.994922 0.200124 0.573156
Si Si6 0.713164 0.844909 0.725318
Si Si7 0.541746 0.071782 0.848429
Si Si8 0.020969 0.010024 0.823777
O O1 0.358637 0.304167 0.901550
O O2 0.568159 0.669432 0.754012
O O3 0.500000 0.500000 0.000000
O O4 0.281971 0.538415 0.970209
O O5 0.380400 0.028645 0.855705
O O6 0.158551 0.112234 0.842512
O O7 0.127791 0.984516 0.073816
O O8 0.887351 0.489736 0.797668
O O9 0.785358 0.739700 0.806864
O O10 0.982485 0.778442 0.872980
O O11 0.923717 0.328583 0.632665
O O12 0.663108 0.297472 0.769116
O O13 0.883882 0.647866 0.577265
O O14 0.051511 0.107222 0.673786
O O15 0.857506 0.022429 0.590656
O O16 0.628248 0.954971 0.793741
O O17 0.500000 0.000000 0.000000
#
# Coordination Sequence:
#
# PCOD9081259 Si02
#       8
#     2   2   2   2   2   2   2   2
#     4   9  15  27  46  72  96 117 158 204 240 278
#     4  10  19  32  51  72 100 134 161 198 246 288
#     4   9  16  29  48  72  98 125 160 204 242 283
#     4  10  19  31  53  76  97 125 162 206 246 281
#     4   9  19  34  49  73 101 128 161 199 244 294
#     4   9  17  27  45  71  96 120 155 202 241 276
#     4  11  18  29  50  74  97 123 160 205 246 281
#     4   9  19  34  49  70 102 135 164 192 238 300
#
# _framework density 19.620885000000001
#
# number of rings (size 3 to 8) (size 9 to 14) (size 15 to 20)
#    0.000    2.500    0.000    6.750    0.000    2.000 
#    0.000    1.875    0.000    5.250    0.000    6.125 
#    0.000    0.000    0.000    0.000    0.000    0.000 
#
# Total GULP energy -89067.816046 kJ/mol
# GULP energy per Si atom -5566.738503 kJ/mol
# Density = 1.957623 g / cm^3
# Si number density = 19.620885 Si / 1000 Ang^3
#
#
#
# Elastic Constant Matrix: (Units=GPa)
#
#
# Indices 1 2 3 4 5 6 
#
# 1 55.4267 30.9916 24.6497 -6.9878 -12.9755 18.9842
# 2 30.9916 95.1048 19.0093 -15.9672 -5.8212 14.1360
# 3 24.6497 19.0093 72.5284 -21.1800 -13.0604 10.2538
# 4 -6.9878 -15.9672 -21.1800 34.7260 3.7926 -6.0663
# 5 -12.9755 -5.8212 -13.0604 3.7926 20.0249 2.4187
# 6 18.9842 14.1360 10.2538 -6.0663 2.4187 26.1276
#
#
#
# Elastic Compliance Matrix: (Units=1/GPa)
#
#
# Indices 1 2 3 4 5 6 
#
# 1 0.037307 -0.007020 -0.004779 -0.005494 0.023057 -0.024843
# 2 -0.007020 0.013683 0.000167 0.004925 -0.001261 -0.001108
# 3 -0.004779 0.000167 0.020280 0.010006 0.008652 -0.003055
# 4 -0.005494 0.004925 0.010006 0.037567 -0.003496 0.006446
# 5 0.023057 -0.001261 0.008652 -0.003496 0.074094 -0.027137
# 6 -0.024843 -0.001108 -0.003055 0.006446 -0.027137 0.062131
#
#
# Mechanical properties :
#
#
# Convention : Reuss Voigt Hill
#
# Bulk Modulus (GPa) = 20.83094 41.37346 31.10220
# Shear Modulus (GPa) = 17.58529 26.06966 21.82747
#
# Velocity S-wave (km/s) = 2.99700 3.64905 3.33898
# Velocity P-wave (km/s) = 4.75560 6.23588 5.54536
#
# Compressibility (1/GPa) = 0.04800552
#
# Stress axis : x y z
#
# Youngs Moduli (GPa) = 26.80485 73.08182 49.30958
#
# Poissons Ratio (x) = 0.51305 0.23567
# Poissons Ratio (y) = 0.18818 -0.00826
# Poissons Ratio (z) = 0.12811 -0.01224
#
# Static dielectric constant tensor:
#      x y z
#    x 1.745660 -0.022980 -0.026230 
#    y -0.022980 1.794690 -0.015500 
#    z -0.026230 -0.015500 1.734120 
# 
# From -- ./inp_files/252875.got.cif
#   From: 2010.05.17/outbox.cif.g08.bks.cpg/sg2_127_cif.got.tgz:252875.got - 2010.06.03 11:33:40.
