data_PCOD9081307
_publ_section_title
;
Structure prediction by ZEFSAII (Michael W. Deem and Ramdas Pophale) SiO2 
 PCOD9081307
Probable space group: P -1
;
_chemical_formula_sum "Si O2"
_cell_formula_units_Z 16
_cell_length_a 11.521679
_cell_length_b 17.936417
_cell_length_c 11.480380
_cell_angle_alpha 146.518995
_cell_angle_beta 121.835207
_cell_angle_gamma 81.166405
_cell_volume 880.187741
_symmetry_space_group_name_H-M "P -1"
_symmetry_group_IT_number 2
_symmetry_cell_setting 'triclinic'
loop_
_space_group_symop_operation_xyz
x,y,z
-x,-y,-z
loop_
_atom_site_type_symbol
_atom_site_label
_atom_site_fract_x
_atom_site_fract_y
_atom_site_fract_z
Si Si1 0.772223 0.258864 0.304427
Si Si2 0.110259 0.705283 0.826260
Si Si3 0.973395 0.116016 0.297356
Si Si4 0.065461 0.914420 0.499094
Si Si5 0.833386 0.751617 0.649812
Si Si6 0.975443 0.651952 0.918759
Si Si7 0.622005 0.544117 0.468430
Si Si8 0.453147 0.239645 0.144377
O O1 0.745732 0.225399 0.106188
O O2 0.917065 0.462966 0.660713
O O3 0.601015 0.218807 0.215566
O O4 0.847853 0.168182 0.279362
O O5 0.000000 0.500000 0.500000
O O6 0.991343 0.751553 0.772260
O O7 0.127705 0.748774 0.028657
O O8 0.141735 0.228143 0.449308
O O9 0.015335 0.131113 0.474792
O O10 0.871621 0.921525 0.945863
O O11 0.000000 0.000000 0.500000
O O12 0.022092 0.755119 0.195609
O O13 0.269209 0.058650 0.809136
O O14 0.668179 0.589270 0.416084
O O15 0.805981 0.622349 0.732663
O O16 0.499419 0.349009 0.191922
O O17 0.550692 0.641735 0.608513
#
# Coordination Sequence:
#
# PCOD9081307 Si02
#       8
#     2   2   2   2   2   2   2   2
#     4   9  19  33  51  78 102 138 175 215 258 300
#     4   8  14  29  53  77  98 128 176 215 248 292
#     4  10  20  32  53  78 106 136 175 218 256 304
#     4  12  21  34  51  80 107 137 172 213 269 313
#     4   9  16  32  53  78 102 131 178 222 248 294
#     4   9  17  31  54  76 105 136 172 215 254 312
#     4   9  16  33  55  81  98 134 179 217 255 293
#     4  10  19  31  54  81 106 133 172 220 257 307
#
# _framework density 18.17794
#
# number of rings (size 3 to 8) (size 9 to 14) (size 15 to 20)
#    0.000    2.500    2.500    1.500    0.000    1.000 
#    0.000    0.625    0.000    0.750    0.000    0.000 
#    0.000    0.000    0.000    0.000    0.000    0.000 
#
# Total GULP energy -89080.452384 kJ/mol
# GULP energy per Si atom -5567.528274 kJ/mol
# Density = 1.813657 g / cm^3
# Si number density = 18.177940 Si / 1000 Ang^3
#
#
#
# Elastic Constant Matrix: (Units=GPa)
#
#
# Indices 1 2 3 4 5 6 
#
# 1 93.9063 45.9325 18.4437 3.3605 -20.5672 10.8274
# 2 45.9325 88.5516 16.2551 6.7297 -18.7779 8.6634
# 3 18.4437 16.2551 32.8320 4.4357 -19.2396 9.7491
# 4 3.3605 6.7297 4.4357 16.4951 1.9855 -9.6725
# 5 -20.5672 -18.7779 -19.2396 1.9855 25.9751 4.2344
# 6 10.8274 8.6634 9.7491 -9.6725 4.2344 53.6260
#
#
#
# Elastic Compliance Matrix: (Units=1/GPa)
#
#
# Indices 1 2 3 4 5 6 
#
# 1 0.016266 -0.005238 0.003887 -0.007045 0.013403 -0.005474
# 2 -0.005238 0.018091 0.008768 -0.015290 0.017837 -0.007625
# 3 0.003887 0.008768 0.101090 -0.066661 0.095938 -0.040178
# 4 -0.007045 -0.015290 -0.066661 0.122321 -0.082628 0.044599
# 5 0.013403 0.017837 0.095938 -0.082628 0.147465 -0.049577
# 6 -0.005474 -0.007625 -0.040178 0.044599 -0.049577 0.040248
#
#
# Mechanical properties :
#
#
# Convention : Reuss Voigt Hill
#
# Bulk Modulus (GPa) = 6.65416 41.83913 24.24665
# Shear Modulus (GPa) = 10.40063 28.19648 19.29855
#
# Velocity S-wave (km/s) = 2.39457 3.94272 3.26183
# Velocity P-wave (km/s) = 3.36360 6.61764 5.24914
#
# Compressibility (1/GPa) = 0.15028192
#
# Stress axis : x y z
#
# Youngs Moduli (GPa) = 61.47707 55.27695 9.89218
#
# Poissons Ratio (x) = 0.28953 -0.03845
# Poissons Ratio (y) = 0.32200 -0.08674
# Poissons Ratio (z) = -0.23895 -0.48469
#
# Static dielectric constant tensor:
#      x y z
#    x 1.692250 0.042900 -0.011110 
#    y 0.042900 1.659170 0.013120 
#    z -0.011110 0.013120 1.610080 
# 
# From -- ./inp_files/423424.got.cif
#   From: 2010.05.17/outbox.cif.g08.bks.cpg/sg2_212_cif.got.tgz:423424.got - 2010.06.03 11:33:40.
