data_PCOD9081522
_publ_section_title
;
Structure prediction by ZEFSAII (Michael W. Deem and Ramdas Pophale) SiO2 
 PCOD9081522
Probable space group: P -1
;
_chemical_formula_sum "Si O2"
_cell_formula_units_Z 14
_cell_length_a 15.032543
_cell_length_b 8.766141
_cell_length_c 9.238578
_cell_angle_alpha 87.017174
_cell_angle_beta 49.130358
_cell_angle_gamma 124.423427
_cell_volume 559.312317
_symmetry_space_group_name_H-M "P -1"
_symmetry_group_IT_number 2
_symmetry_cell_setting 'triclinic'
loop_
_space_group_symop_operation_xyz
x,y,z
-x,-y,-z
loop_
_atom_site_type_symbol
_atom_site_label
_atom_site_fract_x
_atom_site_fract_y
_atom_site_fract_z
Si Si1 0.672252 0.756164 0.156299
Si Si2 0.278563 0.781067 0.199726
Si Si3 0.715287 0.882014 0.774021
Si Si4 0.353284 0.174172 0.520624
Si Si5 0.631760 0.199025 0.220173
Si Si6 0.252901 0.421142 0.239491
Si Si7 0.923627 0.740627 0.888515
O O1 0.472619 0.455330 0.366558
O O2 0.658971 0.864669 0.291679
O O3 0.724337 0.869715 0.938609
O O4 0.828938 0.797178 0.048027
O O5 0.288382 0.798493 0.011809
O O6 0.197854 0.533031 0.353163
O O7 0.500000 0.000000 0.000000
O O8 0.200976 0.859484 0.346509
O O9 0.797221 0.800625 0.636662
O O10 0.487513 0.653541 0.986290
O O11 0.485343 0.177685 0.316711
O O12 0.147120 0.962004 0.676356
O O13 0.500000 0.000000 0.500000
O O14 0.813081 0.478267 0.079784
O O15 0.153322 0.327763 0.192225
#
# Coordination Sequence:
#
# PCOD9081522 Si02
#       7
#     2   2   2   2   2   2   2
#     4   9  18  31  50  76 103 140 184 221 271 333
#     4   9  17  31  53  77 105 143 180 220 274 329
#     4   9  15  29  52  74 102 137 179 226 265 314
#     4  10  19  32  51  75 109 145 178 227 278 325
#     4  10  20  33  51  79 107 142 189 226 272 331
#     4   8  16  29  50  78 100 135 183 218 266 328
#     4   9  18  33  51  74 109 145 177 223 281 329
#
# _framework density 25.030737999999999
#
# number of rings (size 3 to 8) (size 9 to 14) (size 15 to 20)
#    0.000    2.857    0.000    2.143    0.000    0.571 
#    0.000    0.714    0.000   11.143    0.000    6.000 
#    0.000    0.000    0.000    0.000    0.000    0.000 
#
# Total GULP energy -78033.256812 kJ/mol
# GULP energy per Si atom -5573.804058 kJ/mol
# Density = 2.497377 g / cm^3
# Si number density = 25.030738 Si / 1000 Ang^3
#
#
#
# Elastic Constant Matrix: (Units=GPa)
#
#
# Indices 1 2 3 4 5 6 
#
# 1 93.4123 58.7067 40.8319 -17.2732 2.5528 -4.6158
# 2 58.7067 145.4704 34.5159 3.1755 -4.0984 -33.9314
# 3 40.8319 34.5159 93.3595 -24.4059 -35.3609 -9.7708
# 4 -17.2732 3.1755 -24.4059 28.5019 14.1261 5.9422
# 5 2.5528 -4.0984 -35.3609 14.1261 54.2008 -4.6281
# 6 -4.6158 -33.9314 -9.7708 5.9422 -4.6281 45.0596
#
#
#
# Elastic Compliance Matrix: (Units=1/GPa)
#
#
# Indices 1 2 3 4 5 6 
#
# 1 0.024457 -0.011482 -0.007747 0.018221 -0.012809 -0.011539
# 2 -0.011482 0.015178 -0.000887 -0.015088 0.006125 0.012680
# 3 -0.007747 -0.000887 0.021400 0.006604 0.012848 0.003627
# 4 0.018221 -0.015088 0.006604 0.065367 -0.016294 -0.018357
# 5 -0.012809 0.006125 0.012848 -0.016294 0.033139 0.011638
# 6 -0.011539 0.012680 0.003627 -0.018357 0.011638 0.034962
#
#
# Mechanical properties :
#
#
# Convention : Reuss Voigt Hill
#
# Bulk Modulus (GPa) = 48.07221 66.70569 57.38895
# Shear Modulus (GPa) = 20.68938 38.76499 29.72718
#
# Velocity S-wave (km/s) = 2.87811 3.93962 3.44994
# Velocity P-wave (km/s) = 5.50379 6.88487 6.23270
#
# Compressibility (1/GPa) = 0.02080204
#
# Stress axis : x y z
#
# Youngs Moduli (GPa) = 40.88819 65.88492 46.72889
#
# Poissons Ratio (x) = 0.75649 0.36202
# Poissons Ratio (y) = 0.46948 0.04146
# Poissons Ratio (z) = 0.31677 0.05845
#
# Static dielectric constant tensor:
#      x y z
#    x 1.991570 -0.069500 0.050380 
#    y -0.069500 1.992770 -0.066900 
#    z 0.050380 -0.066900 1.882820 
# 
# From -- ./inp_files/267868.got.cif
#   From: 2010.05.17/outbox.cif.g08.bks.cpg/sg2_134_cif.got.tgz:267868.got - 2010.06.03 11:33:40.
