data_PCOD9081566
_publ_section_title
;
Structure prediction by ZEFSAII (Michael W. Deem and Ramdas Pophale) SiO2 
 PCOD9081566
Probable space group: P -1
;
_chemical_formula_sum "Si O2"
_cell_formula_units_Z 14
_cell_length_a 18.388445
_cell_length_b 12.216813
_cell_length_c 14.107773
_cell_angle_alpha 40.120287
_cell_angle_beta 147.344913
_cell_angle_gamma 161.258582
_cell_volume 539.644709
_symmetry_space_group_name_H-M "P -1"
_symmetry_group_IT_number 2
_symmetry_cell_setting 'triclinic'
loop_
_space_group_symop_operation_xyz
x,y,z
-x,-y,-z
loop_
_atom_site_type_symbol
_atom_site_label
_atom_site_fract_x
_atom_site_fract_y
_atom_site_fract_z
Si Si1 0.244722 0.858578 0.470012
Si Si2 0.230782 0.099947 0.947208
Si Si3 0.779037 0.850299 0.632458
Si Si4 0.387520 0.045509 0.897782
Si Si5 0.308749 0.848108 0.143788
Si Si6 0.138129 0.460733 0.466466
Si Si7 0.285377 0.281939 0.678798
O O1 0.235573 0.737615 0.444025
O O2 0.000000 0.500000 0.500000
O O3 0.218298 0.028960 0.350518
O O4 0.534933 0.139578 0.654269
O O5 0.203512 0.090354 0.810740
O O6 0.500000 0.500000 0.000000
O O7 0.952856 0.872203 0.831854
O O8 0.302481 0.986808 0.123609
O O9 0.500000 0.500000 0.500000
O O10 0.958604 0.157319 0.548911
O O11 0.460333 0.329165 0.783821
O O12 0.071713 0.712719 0.732714
O O13 0.500000 0.000000 0.000000
O O14 0.464891 0.081523 0.066618
O O15 0.000000 0.500000 0.000000
O O16 0.353793 0.551280 0.606930
O O17 0.000000 0.000000 0.500000
#
# Coordination Sequence:
#
# PCOD9081566 Si02
#       7
#     2   2   2   2   2   2   2
#     4  10  19  34  56  82 110 146 187 225 268 330
#     4  10  19  32  52  77 103 138 181 222 263 319
#     4  10  19  32  53  82 112 143 179 226 276 324
#     4  10  19  32  54  81 109 143 184 225 269 326
#     4  11  22  36  55  83 113 142 179 229 279 322
#     4   9  18  34  54  77 104 143 187 222 262 327
#     4   8  16  30  48  72  99 133 175 217 257 310
#
# _framework density 25.942995
#
# number of rings (size 3 to 8) (size 9 to 14) (size 15 to 20)
#    0.000    2.286    0.000    5.143    0.000    1.143 
#    0.000    0.714    0.000    6.857    0.000   40.000 
#    0.000    0.000    0.000    0.000    0.000    0.000 
#
# Total GULP energy -78059.601617 kJ/mol
# GULP energy per Si atom -5575.685830 kJ/mol
# Density = 2.588395 g / cm^3
# Si number density = 25.942995 Si / 1000 Ang^3
#
#
#
# Elastic Constant Matrix: (Units=GPa)
#
#
# Indices 1 2 3 4 5 6 
#
# 1 135.5987 42.1080 43.1228 -16.6688 37.0652 -39.2641
# 2 42.1080 126.0759 -11.8978 -9.9528 17.6804 -31.3364
# 3 43.1228 -11.8978 74.3045 -11.0357 18.6205 -8.0155
# 4 -16.6688 -9.9528 -11.0357 44.4935 -13.8378 9.2501
# 5 37.0652 17.6804 18.6205 -13.8378 60.3221 -11.2468
# 6 -39.2641 -31.3364 -8.0155 9.2501 -11.2468 47.7532
#
#
#
# Elastic Compliance Matrix: (Units=1/GPa)
#
#
# Indices 1 2 3 4 5 6 
#
# 1 0.013515 -0.002736 -0.006452 0.000054 -0.004147 0.007247
# 2 -0.002736 0.010822 0.004427 0.000919 -0.001712 0.005014
# 3 -0.006452 0.004427 0.018914 0.002507 -0.002659 -0.000338
# 4 0.000054 0.000919 0.002507 0.025211 0.004179 -0.002831
# 5 -0.004147 -0.001712 -0.002659 0.004179 0.021261 -0.000782
# 6 0.007247 0.005014 -0.000338 -0.002831 -0.000782 0.030498
#
#
# Mechanical properties :
#
#
# Convention : Reuss Voigt Hill
#
# Bulk Modulus (GPa) = 29.64842 53.62722 41.63782
# Shear Modulus (GPa) = 35.46453 48.02350 41.74401
#
# Velocity S-wave (km/s) = 3.70133 4.30713 4.01567
# Velocity P-wave (km/s) = 5.45157 6.74175 6.13069
#
# Compressibility (1/GPa) = 0.03372861
#
# Stress axis : x y z
#
# Youngs Moduli (GPa) = 73.99271 92.40392 52.87107
#
# Poissons Ratio (x) = 0.25278 0.34114
# Poissons Ratio (y) = 0.20242 -0.23405
# Poissons Ratio (z) = 0.47743 -0.40906
#
# Static dielectric constant tensor:
#      x y z
#    x 2.144530 0.046970 0.081670 
#    y 0.046970 2.137910 -0.040010 
#    z 0.081670 -0.040010 2.029560 
# 
# From -- ./inp_files/174546.got.cif
#   From: 2010.05.17/outbox.cif.g08.bks.cpg/sg2_88_cif.got.tgz:174546.got - 2010.06.03 11:33:40.
