data_PCOD9081231
_publ_section_title
;
Structure prediction by ZEFSAII (Michael W. Deem and Ramdas Pophale) SiO2 
 PCOD9081231
Probable space group: P -1
;
_chemical_formula_sum "Si O2"
_cell_formula_units_Z 16
_cell_length_a 10.916660
_cell_length_b 11.944075
_cell_length_c 7.352492
_cell_angle_alpha 114.808890
_cell_angle_beta 55.514206
_cell_angle_gamma 90.765508
_cell_volume 684.321814
_symmetry_space_group_name_H-M "P -1"
_symmetry_group_IT_number 2
_symmetry_cell_setting 'triclinic'
loop_
_space_group_symop_operation_xyz
x,y,z
-x,-y,-z
loop_
_atom_site_type_symbol
_atom_site_label
_atom_site_fract_x
_atom_site_fract_y
_atom_site_fract_z
Si Si1 0.859030 0.410728 0.037104
Si Si2 0.821745 0.885583 0.572782
Si Si3 0.683487 0.595976 0.887618
Si Si4 0.894029 0.078147 0.864270
Si Si5 0.862106 0.180882 0.350582
Si Si6 0.204936 0.310738 0.792556
Si Si7 0.957552 0.646304 0.531357
Si Si8 0.636715 0.340774 0.939138
O O1 0.728723 0.339322 0.051188
O O2 0.013718 0.350177 0.986047
O O3 0.939452 0.407998 0.768598
O O4 0.777721 0.563199 0.245904
O O5 0.993867 0.872503 0.332472
O O6 0.739417 0.829554 0.443809
O O7 0.836624 0.778333 0.641466
O O8 0.778268 0.024258 0.801122
O O9 0.851464 0.561119 0.628404
O O10 0.646675 0.475057 0.931689
O O11 0.707914 0.689127 0.091538
O O12 0.542824 0.652336 0.905331
O O13 0.019422 0.950305 0.759295
O O14 0.825077 0.158759 0.157697
O O15 0.723035 0.230755 0.646680
O O16 0.947775 0.290940 0.368321
#
# Coordination Sequence:
#
# PCOD9081231 Si02
#       8
#     2   2   2   2   2   2   2   2
#     4   8  16  30  49  73 100 130 170 208 249 304
#     4   9  17  29  47  70 100 128 162 211 257 290
#     4  10  19  31  52  78 106 137 164 198 257 318
#     4   9  17  29  50  76  97 126 173 221 255 285
#     4   9  17  31  52  75  97 128 176 218 248 292
#     4   9  16  28  50  73  97 130 168 207 250 296
#     4   9  17  29  49  75 101 132 168 205 248 304
#     4   9  19  33  51  77 108 135 163 207 258 306
#
# _framework density 23.380811000000001
#
# number of rings (size 3 to 8) (size 9 to 14) (size 15 to 20)
#    0.000    3.000    0.000    1.500    0.000    5.500 
#    0.000    0.000    0.000   71.250    0.000    0.000 
#    0.000    0.000    0.000    0.000    0.000    0.000 
#
# Total GULP energy -89070.284446 kJ/mol
# GULP energy per Si atom -5566.892778 kJ/mol
# Density = 2.332760 g / cm^3
# Si number density = 23.380811 Si / 1000 Ang^3
#
#
#
# Elastic Constant Matrix: (Units=GPa)
#
#
# Indices 1 2 3 4 5 6 
#
# 1 119.6035 9.2886 37.6478 7.6599 8.1956 30.8168
# 2 9.2886 54.4343 18.9131 15.6452 15.1336 14.7200
# 3 37.6478 18.9131 70.2799 17.1989 26.3166 24.8113
# 4 7.6599 15.6452 17.1989 26.6684 12.5814 13.7155
# 5 8.1956 15.1336 26.3166 12.5814 38.9903 -0.9774
# 6 30.8168 14.7200 24.8113 13.7155 -0.9774 31.9363
#
#
#
# Elastic Compliance Matrix: (Units=1/GPa)
#
#
# Indices 1 2 3 4 5 6 
#
# 1 0.012318 0.001807 -0.002187 0.005677 -0.003987 -0.013580
# 2 0.001807 0.025173 0.001815 -0.005090 -0.010056 -0.012878
# 3 -0.002187 0.001815 0.032009 0.003249 -0.023542 -0.025710
# 4 0.005677 -0.005090 0.003249 0.065576 -0.023437 -0.034536
# 5 -0.003987 -0.010056 -0.023542 -0.023437 0.054806 0.038514
# 6 -0.013580 -0.012878 -0.025710 -0.034536 0.038514 0.086337
#
#
# Mechanical properties :
#
#
# Convention : Reuss Voigt Hill
#
# Bulk Modulus (GPa) = 13.81792 41.77962 27.79877
# Shear Modulus (GPa) = 16.80835 31.41687 24.11261
#
# Velocity S-wave (km/s) = 2.68413 3.66963 3.21487
# Velocity P-wave (km/s) = 3.94067 5.98857 5.06911
#
# Compressibility (1/GPa) = 0.07236979
#
# Stress axis : x y z
#
# Youngs Moduli (GPa) = 81.18514 39.72529 31.24156
#
# Poissons Ratio (x) = -0.07178 0.06832
# Poissons Ratio (y) = -0.14669 -0.05672
# Poissons Ratio (z) = 0.17755 -0.07212
#
# Static dielectric constant tensor:
#      x y z
#    x 1.965810 -0.035400 0.026670 
#    y -0.035400 2.011730 0.055320 
#    z 0.026670 0.055320 1.928690 
# 
# From -- ./inp_files/268682.got.cif
#   From: 2010.05.17/outbox.cif.g08.bks.cpg/sg2_135_cif.got.tgz:268682.got - 2010.06.03 11:33:40.
