data_PCOD9081049
_publ_section_title
;
Structure prediction by ZEFSAII (Michael W. Deem and Ramdas Pophale) SiO2 
 PCOD9081049
Probable space group: P -1
;
_chemical_formula_sum "Si O2"
_cell_formula_units_Z 16
_cell_length_a 7.877941
_cell_length_b 17.788860
_cell_length_c 9.008566
_cell_angle_alpha 140.415298
_cell_angle_beta 66.877459
_cell_angle_gamma 131.669198
_cell_volume 581.626226
_symmetry_space_group_name_H-M "P -1"
_symmetry_group_IT_number 2
_symmetry_cell_setting 'triclinic'
loop_
_space_group_symop_operation_xyz
x,y,z
-x,-y,-z
loop_
_atom_site_type_symbol
_atom_site_label
_atom_site_fract_x
_atom_site_fract_y
_atom_site_fract_z
Si Si1 0.777136 0.421648 0.752832
Si Si2 0.395485 0.170651 0.726735
Si Si3 0.820316 0.842165 0.655858
Si Si4 0.417669 0.514743 0.308580
Si Si5 0.763682 0.508509 0.352991
Si Si6 0.670114 0.948334 0.127409
Si Si7 0.196251 0.800992 0.747814
Si Si8 0.115218 0.918151 0.221833
O O1 0.603965 0.312278 0.775732
O O2 0.740353 0.532564 0.854870
O O3 0.720822 0.298950 0.459279
O O4 0.053471 0.507781 0.810933
O O5 0.162245 0.163144 0.786714
O O6 0.472862 0.159679 0.848812
O O7 0.286842 0.009438 0.439279
O O8 0.651602 0.671794 0.410259
O O9 0.090533 0.915135 0.668873
O O10 0.806360 0.946605 0.709818
O O11 0.744071 0.865471 0.875988
O O12 0.530882 0.445812 0.245026
O O13 0.303339 0.538300 0.523998
O O14 0.935395 0.691633 0.595483
O O15 0.642613 0.042907 0.160196
O O16 0.152019 0.816084 0.956338
#
# Coordination Sequence:
#
# PCOD9081049 Si02
#       8
#     2   2   2   2   2   2   2   2
#     4  10  21  36  56  86 114 146 187 242 277 329
#     4  10  19  30  55  87 115 159 173 229 293 337
#     4   9  15  29  54  80 104 147 186 227 263 336
#     4  11  18  36  60  84 105 149 197 235 279 325
#     4   9  22  34  57  87 107 144 195 247 270 323
#     4   9  17  30  51  81 118 139 180 225 278 338
#     4   9  19  36  53  82 118 143 190 238 264 336
#     4   9  18  32  52  86 115 149 191 216 285 352
#
# _framework density 27.509077999999999
#
# number of rings (size 3 to 8) (size 9 to 14) (size 15 to 20)
#    0.750    1.750    2.500    1.125    0.000    1.000 
#    0.000    0.000    0.000    1.500    3.250    0.000 
#    0.000    0.000    0.000    0.000    0.000    0.000 
#
# Total GULP energy -89334.308376 kJ/mol
# GULP energy per Si atom -5583.394273 kJ/mol
# Density = 2.744647 g / cm^3
# Si number density = 27.509078 Si / 1000 Ang^3
#
#
#
# Elastic Constant Matrix: (Units=GPa)
#
#
# Indices 1 2 3 4 5 6 
#
# 1 107.2128 60.1427 22.1870 -19.5900 10.8983 4.0668
# 2 60.1427 170.9919 33.2267 -33.8502 3.8434 -7.5992
# 3 22.1870 33.2267 104.3215 -37.5990 1.1853 0.7029
# 4 -19.5900 -33.8502 -37.5990 46.7673 -0.8607 3.9782
# 5 10.8983 3.8434 1.1853 -0.8607 27.1554 0.5397
# 6 4.0668 -7.5992 0.7029 3.9782 0.5397 53.2299
#
#
#
# Elastic Compliance Matrix: (Units=1/GPa)
#
#
# Indices 1 2 3 4 5 6 
#
# 1 0.012483 -0.003846 -0.000659 0.001971 -0.004343 -0.001597
# 2 -0.003846 0.008075 -0.000386 0.003834 0.000516 0.001160
# 3 -0.000659 -0.000386 0.013636 0.010491 0.000076 -0.000970
# 4 0.001971 0.003834 0.010491 0.033596 -0.000682 -0.002246
# 5 -0.004343 0.000516 0.000076 -0.000682 0.038469 0.000065
# 6 -0.001597 0.001160 -0.000970 -0.002246 0.000065 0.019254
#
#
# Mechanical properties :
#
#
# Convention : Reuss Voigt Hill
#
# Bulk Modulus (GPa) = 40.96343 68.18211 54.57277
# Shear Modulus (GPa) = 34.85982 43.22853 39.04418
#
# Velocity S-wave (km/s) = 3.56365 3.96842 3.77147
# Velocity P-wave (km/s) = 5.64412 6.77030 6.23270
#
# Compressibility (1/GPa) = 0.02441202
#
# Stress axis : x y z
#
# Youngs Moduli (GPa) = 80.10738 123.84135 73.33752
#
# Poissons Ratio (x) = 0.47626 0.04836
# Poissons Ratio (y) = 0.30807 0.02828
# Poissons Ratio (z) = 0.05283 0.04776
#
# Static dielectric constant tensor:
#      x y z
#    x 2.293560 0.001230 -0.008920 
#    y 0.001230 2.104860 0.013220 
#    z -0.008920 0.013220 2.231190 
# 
# From -- ./inp_files/215488.got.cif
#   From: 2010.05.17/outbox.cif.g08.bks.cpg/sg2_108_cif.got.tgz:215488.got - 2010.06.03 11:33:40.
