data_PCOD9081589
_publ_section_title
;
Structure prediction by ZEFSAII (Michael W. Deem and Ramdas Pophale) SiO2 
 PCOD9081589
Probable space group: P -1
;
_chemical_formula_sum "Si O2"
_cell_formula_units_Z 16
_cell_length_a 5.615980
_cell_length_b 9.894862
_cell_length_c 19.833762
_cell_angle_alpha 41.421008
_cell_angle_beta 87.503019
_cell_angle_gamma 105.428619
_cell_volume 649.838735
_symmetry_space_group_name_H-M "P -1"
_symmetry_group_IT_number 2
_symmetry_cell_setting 'triclinic'
loop_
_space_group_symop_operation_xyz
x,y,z
-x,-y,-z
loop_
_atom_site_type_symbol
_atom_site_label
_atom_site_fract_x
_atom_site_fract_y
_atom_site_fract_z
Si Si1 0.292959 0.483008 0.086730
Si Si2 0.089713 0.220184 0.320394
Si Si3 0.534650 0.108968 0.385111
Si Si4 0.313062 0.730779 0.877163
Si Si5 0.750164 0.210711 0.651033
Si Si6 0.233772 0.394587 0.752900
Si Si7 0.709599 0.525009 0.431787
Si Si8 0.281678 0.627751 0.262558
O O1 0.216873 0.419601 0.188499
O O2 0.543773 0.426118 0.091413
O O3 0.996667 0.337287 0.109349
O O4 0.359752 0.724154 0.959765
O O5 0.249763 0.070612 0.374946
O O6 0.144065 0.362521 0.337068
O O7 0.776152 0.069713 0.366347
O O8 0.676655 0.388839 0.280680
O O9 0.500000 0.000000 0.500000
O O10 0.501379 0.969290 0.751644
O O11 0.779629 0.331031 0.534050
O O12 0.720374 0.348294 0.665495
O O13 0.038750 0.224707 0.656733
O O14 0.330683 0.504831 0.635632
O O15 0.416303 0.267471 0.807533
O O16 0.915301 0.272073 0.799667
O O17 0.500000 0.500000 0.500000
#
# Coordination Sequence:
#
# PCOD9081589 Si02
#       8
#     2   2   2   2   2   2   2   2
#     4  10  22  42  61  86 113 151 202 241 297 336
#     4  10  20  36  59  76 111 151 190 233 286 342
#     4  10  20  34  51  81 110 148 187 235 282 335
#     4  10  23  40  62  85 117 151 189 254 294 340
#     4  10  21  35  54  85 116 149 190 233 297 342
#     4   9  18  31  47  70 109 144 176 218 273 325
#     4  10  19  32  52  80 115 149 188 227 279 356
#     4   9  18  33  52  76 105 143 177 221 278 334
#
# _framework density 24.621493000000001
#
# number of rings (size 3 to 8) (size 9 to 14) (size 15 to 20)
#    0.000    2.250    1.250    1.125    1.750    2.000 
#    0.000    0.625    0.000    0.000    0.000   12.250 
#    0.000    0.000    0.000    0.000    0.000    0.000 
#
# Total GULP energy -89076.563210 kJ/mol
# GULP energy per Si atom -5567.285201 kJ/mol
# Density = 2.456545 g / cm^3
# Si number density = 24.621493 Si / 1000 Ang^3
#
#
#
# Elastic Constant Matrix: (Units=GPa)
#
#
# Indices 1 2 3 4 5 6 
#
# 1 213.7742 23.7033 12.6942 4.6981 -15.8604 -6.0902
# 2 23.7033 46.8263 -12.0297 8.5457 12.0933 1.4593
# 3 12.6942 -12.0297 54.7162 17.2974 3.7211 12.2040
# 4 4.6981 8.5457 17.2974 18.2143 5.9282 -3.9337
# 5 -15.8604 12.0933 3.7211 5.9282 31.0001 9.6970
# 6 -6.0902 1.4593 12.2040 -3.9337 9.6970 23.0506
#
#
#
# Elastic Compliance Matrix: (Units=1/GPa)
#
#
# Indices 1 2 3 4 5 6 
#
# 1 0.006367 -0.008681 -0.008963 0.011579 0.003115 0.007643
# 2 -0.008681 0.054531 0.048447 -0.077703 -0.003111 -0.043348
# 3 -0.008963 0.048447 0.087232 -0.125160 0.014747 -0.079183
# 4 0.011579 -0.077703 -0.125160 0.248057 -0.037588 0.132389
# 5 0.003115 -0.003111 0.014747 -0.037588 0.051374 -0.034815
# 6 0.007643 -0.043348 -0.079183 0.132389 -0.034815 0.127309
#
#
# Mechanical properties :
#
#
# Convention : Reuss Voigt Hill
#
# Bulk Modulus (GPa) = 4.76788 40.45025 22.60907
# Shear Modulus (GPa) = 8.57375 33.84958 21.21167
#
# Velocity S-wave (km/s) = 1.86810 3.71185 2.93833
# Velocity P-wave (km/s) = 2.56782 5.90211 4.55130
#
# Compressibility (1/GPa) = 0.20973670
#
# Stress axis : x y z
#
# Youngs Moduli (GPa) = 157.05938 18.33810 11.46369
#
# Poissons Ratio (x) = 0.15920 0.10275
# Poissons Ratio (y) = 1.36349 -0.55539
# Poissons Ratio (z) = 1.40770 -0.88843
#
# Static dielectric constant tensor:
#      x y z
#    x 2.327980 0.065960 0.011150 
#    y 0.065960 2.080240 0.010140 
#    z 0.011150 0.010140 1.921160 
# 
# From -- ./inp_files/83268.got.cif
#   From: 2010.05.17/outbox.cif.g08.bks.cpg/sg2_42_cif.got.tgz:83268.got - 2010.06.03 11:33:40.
