data_PCOD9081962
_publ_section_title
;
Structure prediction by ZEFSAII (Michael W. Deem and Ramdas Pophale) SiO2 
 PCOD9081962
Probable space group: P -1
;
_chemical_formula_sum "Si O2"
_cell_formula_units_Z 16
_cell_length_a 11.856410
_cell_length_b 9.255110
_cell_length_c 8.104434
_cell_angle_alpha 48.990083
_cell_angle_beta 75.902755
_cell_angle_gamma 93.352316
_cell_volume 621.237571
_symmetry_space_group_name_H-M "P -1"
_symmetry_group_IT_number 2
_symmetry_cell_setting 'triclinic'
loop_
_space_group_symop_operation_xyz
x,y,z
-x,-y,-z
loop_
_atom_site_type_symbol
_atom_site_label
_atom_site_fract_x
_atom_site_fract_y
_atom_site_fract_z
Si Si1 0.908832 0.272205 0.021253
Si Si2 0.124851 0.663632 0.623718
Si Si3 0.622241 0.798191 0.175560
Si Si4 0.731956 0.696414 0.538558
Si Si5 0.378967 0.606740 0.610612
Si Si6 0.993907 0.930083 0.364314
Si Si7 0.663044 0.219194 0.941360
Si Si8 0.482502 0.266714 0.217612
O O1 0.880936 0.294022 0.209480
O O2 0.979854 0.104647 0.120959
O O3 0.782712 0.224899 0.003446
O O4 0.008748 0.472528 0.775880
O O5 0.251334 0.621856 0.584056
O O6 0.105329 0.838827 0.384222
O O7 0.712831 0.778946 0.305134
O O8 0.487406 0.698134 0.374761
O O9 0.635292 0.629163 0.170369
O O10 0.644647 0.032327 0.963653
O O11 0.867889 0.758517 0.508430
O O12 0.683770 0.455451 0.723717
O O13 0.653648 0.796170 0.614341
O O14 0.425114 0.729355 0.667989
O O15 0.000000 0.000000 0.500000
O O16 0.534417 0.164673 0.129014
O O17 0.500000 0.500000 0.000000
#
# Coordination Sequence:
#
# PCOD9081962 Si02
#       8
#     2   2   2   2   2   2   2   2
#     4  10  19  32  58  88 118 148 193 243 297 344
#     4  10  20  36  57  85 122 153 188 245 297 345
#     4  10  23  40  62  84 122 159 196 242 288 359
#     4  10  20  37  56  87 124 152 199 242 296 347
#     4  10  21  42  60  86 121 160 193 239 302 348
#     4  10  20  32  54  88 117 153 192 242 290 344
#     4  11  19  36  62  89 115 154 195 246 300 339
#     4   9  20  34  61  92 115 146 194 251 290 347
#
# _framework density 25.755040999999999
#
# number of rings (size 3 to 8) (size 9 to 14) (size 15 to 20)
#    0.000    2.000    3.750    0.000    0.000    4.000 
#    0.000   15.000    0.000    0.000    0.000    0.000 
#    0.000    0.000    0.000    0.000    0.000    0.000 
#
# Total GULP energy -89493.963437 kJ/mol
# GULP energy per Si atom -5593.372715 kJ/mol
# Density = 2.569642 g / cm^3
# Si number density = 25.755041 Si / 1000 Ang^3
#
#
#
# Elastic Constant Matrix: (Units=GPa)
#
#
# Indices 1 2 3 4 5 6 
#
# 1 176.0809 50.2818 14.7516 -5.5284 20.2543 -9.5748
# 2 50.2818 100.1939 37.9245 -27.6939 -7.3304 -5.6193
# 3 14.7516 37.9245 54.2655 -23.3790 14.8361 -9.7848
# 4 -5.5284 -27.6939 -23.3790 35.8029 -9.2120 3.7690
# 5 20.2543 -7.3304 14.8361 -9.2120 32.8486 -5.2255
# 6 -9.5748 -5.6193 -9.7848 3.7690 -5.2255 44.7476
#
#
#
# Elastic Compliance Matrix: (Units=1/GPa)
#
#
# Indices 1 2 3 4 5 6 
#
# 1 0.008662 -0.007894 0.004012 -0.004854 -0.010122 0.000966
# 2 -0.007894 0.025029 -0.015364 0.013603 0.021113 -0.000586
# 3 0.004012 -0.015364 0.037634 0.007707 -0.020076 0.004165
# 4 -0.004854 0.013603 0.007707 0.046748 0.015698 0.000250
# 5 -0.010122 0.021113 -0.020076 0.015698 0.055056 0.001203
# 6 0.000966 -0.000586 0.004165 0.000250 0.001203 0.023511
#
#
# Mechanical properties :
#
#
# Convention : Reuss Voigt Hill
#
# Bulk Modulus (GPa) = 30.45530 59.60625 45.03078
# Shear Modulus (GPa) = 20.31899 37.85199 29.08549
#
# Velocity S-wave (km/s) = 2.81184 3.83782 3.36417
# Velocity P-wave (km/s) = 4.73208 6.54463 5.71073
#
# Compressibility (1/GPa) = 0.03283500
#
# Stress axis : x y z
#
# Youngs Moduli (GPa) = 115.45212 39.95371 26.57143
#
# Poissons Ratio (x) = 0.31538 -0.10661
# Poissons Ratio (y) = 0.91132 0.40823
# Poissons Ratio (z) = -0.46320 0.61383
#
# Static dielectric constant tensor:
#      x y z
#    x 1.951170 -0.018000 0.023320 
#    y -0.018000 2.081350 0.042210 
#    z 0.023320 0.042210 2.151660 
# 
# From -- ./inp_files/242038.got.cif
#   From: 2010.05.17/outbox.cif.g08.bks.cpg/sg2_122_cif.got.tgz:242038.got - 2010.06.03 11:33:40.
