data_PCOD9081530
_publ_section_title
;
Structure prediction by ZEFSAII (Michael W. Deem and Ramdas Pophale) SiO2 
 PCOD9081530
Probable space group: P -1
;
_chemical_formula_sum "Si O2"
_cell_formula_units_Z 14
_cell_length_a 15.298715
_cell_length_b 14.898073
_cell_length_c 14.539025
_cell_angle_alpha 20.081164
_cell_angle_beta 50.425201
_cell_angle_gamma 41.736310
_cell_volume 727.352031
_symmetry_space_group_name_H-M "P -1"
_symmetry_group_IT_number 2
_symmetry_cell_setting 'triclinic'
loop_
_space_group_symop_operation_xyz
x,y,z
-x,-y,-z
loop_
_atom_site_type_symbol
_atom_site_label
_atom_site_fract_x
_atom_site_fract_y
_atom_site_fract_z
Si Si1 0.819630 0.477070 0.679836
Si Si2 0.644249 0.564186 0.546658
Si Si3 0.293202 0.162828 0.025040
Si Si4 0.919742 0.870977 0.299032
Si Si5 0.515292 0.220568 0.899840
Si Si6 0.104017 0.748591 0.453985
Si Si7 0.063765 0.152745 0.251950
O O1 0.695241 0.540819 0.638600
O O2 0.817316 0.770683 0.438638
O O3 0.950595 0.309290 0.684325
O O4 0.850587 0.235436 0.972725
O O5 0.535310 0.476666 0.685071
O O6 0.777525 0.316610 0.634031
O O7 0.591749 0.906808 0.213116
O O8 0.223445 0.027889 0.262030
O O9 0.405339 0.890170 0.144883
O O10 0.367353 0.289903 0.912304
O O11 0.179504 0.454363 0.757328
O O12 0.985812 0.768966 0.453443
O O13 0.045419 0.070042 0.239889
O O14 0.000000 0.000000 0.500000
O O15 0.000000 0.500000 0.000000
#
# Coordination Sequence:
#
# PCOD9081530 Si02
#       7
#     2   2   2   2   2   2   2
#     4   9  17  29  44  72 104 134 170 206 248 309
#     4  10  19  32  51  77 109 142 173 209 257 315
#     4  10  22  36  53  77 107 141 182 213 259 307
#     4   9  18  28  47  69 100 141 170 201 252 318
#     4  10  21  32  55  77 106 143 179 209 252 322
#     4  10  21  34  53  73 108 144 178 208 266 311
#     4  12  24  37  53  73 105 144 183 224 258 298
#
# _framework density 19.247900999999999
#
# number of rings (size 3 to 8) (size 9 to 14) (size 15 to 20)
#    0.000    2.000    2.857    0.857    4.000    5.143 
#    0.000    0.000    0.000    0.000    0.000    0.000 
#    0.000   22.857    0.000    0.000    0.000    0.000 
#
# Total GULP energy -78049.781991 kJ/mol
# GULP energy per Si atom -5574.984428 kJ/mol
# Density = 1.920409 g / cm^3
# Si number density = 19.247901 Si / 1000 Ang^3
#
#
#
# Elastic Constant Matrix: (Units=GPa)
#
#
# Indices 1 2 3 4 5 6 
#
# 1 133.5326 27.5853 26.8155 15.5768 -12.2869 -7.5310
# 2 27.5853 36.8790 17.9706 11.4213 -3.6959 -7.0713
# 3 26.8155 17.9706 68.4451 7.7125 -16.0835 -3.4026
# 4 15.5768 11.4213 7.7125 14.5881 -3.1472 -15.5889
# 5 -12.2869 -3.6959 -16.0835 -3.1472 38.2094 5.5393
# 6 -7.5310 -7.0713 -3.4026 -15.5889 5.5393 21.8726
#
#
#
# Elastic Compliance Matrix: (Units=1/GPa)
#
#
# Indices 1 2 3 4 5 6 
#
# 1 0.010511 -0.002282 -0.000637 -0.026428 0.003158 -0.016853
# 2 -0.002282 0.046026 -0.004765 -0.070813 0.001309 -0.037448
# 3 -0.000637 -0.004765 0.019615 -0.021085 0.008145 -0.015798
# 4 -0.026428 -0.070813 -0.021085 0.534374 -0.031463 0.353550
# 5 0.003158 0.001309 0.008145 -0.031463 0.032180 -0.027797
# 6 -0.016853 -0.037448 -0.015798 0.353550 -0.027797 0.284371
#
#
# Mechanical properties :
#
#
# Convention : Reuss Voigt Hill
#
# Bulk Modulus (GPa) = 16.45162 42.62218 29.53690
# Shear Modulus (GPa) = 5.19369 26.03304 15.61336
#
# Velocity S-wave (km/s) = 1.64444 3.68164 2.85120
# Velocity P-wave (km/s) = 3.48875 6.34543 5.12035
#
# Compressibility (1/GPa) = 0.06078430
#
# Stress axis : x y z
#
# Youngs Moduli (GPa) = 95.13739 21.72674 50.98116
#
# Poissons Ratio (x) = 0.04959 0.03246
# Poissons Ratio (y) = 0.21713 0.24293
# Poissons Ratio (z) = 0.06057 0.10353
#
# Static dielectric constant tensor:
#      x y z
#    x 1.686570 -0.014290 -0.002810 
#    y -0.014290 1.699590 -0.007940 
#    z -0.002810 -0.007940 1.709240 
# 
# From -- ./inp_files/65586.got.cif
#   From: 2010.05.17/outbox.cif.g08.bks.cpg/sg2_33_cif.got.tgz:65586.got - 2010.06.03 11:33:40.
