data_PCOD9081431
_publ_section_title
;
Structure prediction by ZEFSAII (Michael W. Deem and Ramdas Pophale) SiO2 
 PCOD9081431
Probable space group: P -1
;
_chemical_formula_sum "Si O2"
_cell_formula_units_Z 16
_cell_length_a 12.020372
_cell_length_b 16.817111
_cell_length_c 12.343714
_cell_angle_alpha 67.504148
_cell_angle_beta 156.211233
_cell_angle_gamma 110.153116
_cell_volume 929.809630
_symmetry_space_group_name_H-M "P -1"
_symmetry_group_IT_number 2
_symmetry_cell_setting 'triclinic'
loop_
_space_group_symop_operation_xyz
x,y,z
-x,-y,-z
loop_
_atom_site_type_symbol
_atom_site_label
_atom_site_fract_x
_atom_site_fract_y
_atom_site_fract_z
Si Si1 0.226932 0.617644 0.171098
Si Si2 0.872779 0.964221 0.748495
Si Si3 0.714677 0.410482 0.359482
Si Si4 0.189054 0.518934 0.823943
Si Si5 0.802272 0.561587 0.646842
Si Si6 0.087663 0.786231 0.085786
Si Si7 0.358852 0.059436 0.199915
Si Si8 0.483330 0.772690 0.644687
O O1 0.499724 0.603173 0.349453
O O2 0.231452 0.539864 0.302937
O O3 0.220052 0.708725 0.176436
O O4 0.957839 0.603367 0.865876
O O5 0.756561 0.956816 0.772270
O O6 0.604671 0.992230 0.428815
O O7 0.019177 0.872016 0.911201
O O8 0.097742 0.038770 0.904999
O O9 0.733659 0.422900 0.240407
O O10 0.644586 0.314795 0.381256
O O11 0.999016 0.442801 0.646846
O O12 0.466297 0.475208 0.141114
O O13 0.001375 0.567480 0.718776
O O14 0.286498 0.807077 0.353803
O O15 0.790679 0.755920 0.881121
O O16 0.477798 0.154627 0.266939
#
# Coordination Sequence:
#
# PCOD9081431 Si02
#       8
#     2   2   2   2   2   2   2   2
#     4  10  20  30  44  65  85 113 150 179 211 257
#     4   9  16  27  40  58  87 119 145 169 209 260
#     4  10  20  32  48  69  88 114 151 181 216 266
#     4  10  20  34  49  64  89 119 146 183 224 257
#     4  10  19  32  46  61  87 115 143 182 219 252
#     4  11  20  29  44  65  92 121 148 181 213 253
#     4   9  16  26  40  60  86 118 145 168 210 261
#     4  11  19  28  45  66  92 119 146 181 214 256
#
# _framework density 17.207823999999999
#
# number of rings (size 3 to 8) (size 9 to 14) (size 15 to 20)
#    0.000    2.000    0.000    7.500    0.000    2.000 
#    0.000    0.000    0.000    0.000    0.000    0.000 
#    0.000    6.000    0.000    0.000    0.000    1.125 
#
# Total GULP energy -89244.128842 kJ/mol
# GULP energy per Si atom -5577.758053 kJ/mol
# Density = 1.716866 g / cm^3
# Si number density = 17.207824 Si / 1000 Ang^3
#
#
#
# Elastic Constant Matrix: (Units=GPa)
#
#
# Indices 1 2 3 4 5 6 
#
# 1 39.6545 15.5726 2.3533 -5.2371 13.2861 -4.1828
# 2 15.5726 77.0592 4.6879 0.8554 4.3351 -11.0858
# 3 2.3533 4.6879 62.0525 0.5405 17.5666 -1.9581
# 4 -5.2371 0.8554 0.5405 20.3171 -2.5304 6.5855
# 5 13.2861 4.3351 17.5666 -2.5304 17.6215 -1.1338
# 6 -4.1828 -11.0858 -1.9581 6.5855 -1.1338 16.7456
#
#
#
# Elastic Compliance Matrix: (Units=1/GPa)
#
#
# Indices 1 2 3 4 5 6 
#
# 1 0.040819 -0.006385 0.009741 0.004957 -0.038038 0.002583
# 2 -0.006385 0.015895 -0.001095 -0.005666 0.001900 0.011156
# 3 0.009741 -0.001095 0.025144 -0.003371 -0.032382 0.003781
# 4 0.004957 -0.005666 -0.003371 0.060271 0.007994 -0.026068
# 5 -0.038038 0.001900 -0.032382 0.007994 0.117928 -0.007189
# 6 0.002583 0.011156 0.003781 -0.026068 -0.007189 0.077955
#
#
# Mechanical properties :
#
#
# Convention : Reuss Voigt Hill
#
# Bulk Modulus (GPa) = 11.57675 24.88820 18.23247
# Shear Modulus (GPa) = 13.80137 21.34701 17.57419
#
# Velocity S-wave (km/s) = 2.83510 3.52595 3.19923
# Velocity P-wave (km/s) = 4.17843 5.57415 4.92597
#
# Compressibility (1/GPa) = 0.08638003
#
# Stress axis : x y z
#
# Youngs Moduli (GPa) = 24.49854 62.91289 39.77018
#
# Poissons Ratio (x) = 0.40170 -0.38740
# Poissons Ratio (y) = 0.15642 0.04355
# Poissons Ratio (z) = -0.23864 0.06889
#
# Static dielectric constant tensor:
#      x y z
#    x 1.573330 -0.009250 0.008230 
#    y -0.009250 1.604810 -0.000900 
#    z 0.008230 -0.000900 1.611300 
# 
# From -- ./inp_files/436736.got.cif
#   From: 2010.05.17/outbox.cif.g08.bks.cpg/sg2_219_cif.got.tgz:436736.got - 2010.06.03 11:33:40.
