data_PCOD9081332
_publ_section_title
;
Structure prediction by ZEFSAII (Michael W. Deem and Ramdas Pophale) SiO2 
 PCOD9081332
Probable space group: P -1
;
_chemical_formula_sum "Si O2"
_cell_formula_units_Z 16
_cell_length_a 15.031420
_cell_length_b 11.010583
_cell_length_c 11.934960
_cell_angle_alpha 64.252964
_cell_angle_beta 153.627837
_cell_angle_gamma 99.541647
_cell_volume 655.610119
_symmetry_space_group_name_H-M "P -1"
_symmetry_group_IT_number 2
_symmetry_cell_setting 'triclinic'
loop_
_space_group_symop_operation_xyz
x,y,z
-x,-y,-z
loop_
_atom_site_type_symbol
_atom_site_label
_atom_site_fract_x
_atom_site_fract_y
_atom_site_fract_z
Si Si1 0.948171 0.817854 0.945431
Si Si2 0.993289 0.195600 0.734404
Si Si3 0.989208 0.774353 0.600704
Si Si4 0.494732 0.831442 0.684486
Si Si5 0.087312 0.602253 0.993117
Si Si6 0.782499 0.051228 0.098184
Si Si7 0.777927 0.485865 0.228401
Si Si8 0.416751 0.277361 0.414434
O O1 0.823037 0.722126 0.873966
O O2 0.726022 0.997106 0.590288
O O3 0.048091 0.826604 0.174552
O O4 0.108245 0.715835 0.060525
O O5 0.793442 0.374676 0.391744
O O6 0.020832 0.065427 0.727831
O O7 0.260990 0.167184 0.039764
O O8 0.140499 0.844362 0.790363
O O9 0.149006 0.623845 0.757054
O O10 0.920223 0.713977 0.656646
O O11 0.780965 0.923958 0.231635
O O12 0.442525 0.809476 0.505274
O O13 0.562555 0.670749 0.891109
O O14 0.330788 0.461295 0.263824
O O15 0.000000 0.500000 0.000000
O O16 0.545953 0.174093 0.711901
O O17 0.000000 0.500000 0.500000
#
# Coordination Sequence:
#
# PCOD9081332 Si02
#       8
#     2   2   2   2   2   2   2   2
#     4  10  18  31  52  80 111 141 176 222 270 319
#     4   9  16  30  52  79 103 140 181 225 263 304
#     4  10  21  37  52  84 109 143 179 224 280 312
#     4  10  15  29  54  80 104 132 190 229 254 306
#     4  10  22  36  52  76 123 143 170 225 276 324
#     4  10  19  34  60  77 110 140 186 230 257 325
#     4   9  18  29  53  78 104 129 181 236 261 303
#     4  10  17  33  53  82 104 145 182 227 268 305
#
# _framework density 24.404748000000001
#
# number of rings (size 3 to 8) (size 9 to 14) (size 15 to 20)
#    0.000    2.250    3.750    0.750    1.750    0.500 
#    0.000    4.375    0.000    0.000    0.000    5.250 
#    0.000    0.000    0.000    0.000    0.000    0.000 
#
# Total GULP energy -89375.368915 kJ/mol
# GULP energy per Si atom -5585.960557 kJ/mol
# Density = 2.434920 g / cm^3
# Si number density = 24.404748 Si / 1000 Ang^3
#
#
#
# Elastic Constant Matrix: (Units=GPa)
#
#
# Indices 1 2 3 4 5 6 
#
# 1 105.8556 40.4615 38.6617 -7.0165 -23.2451 -1.2089
# 2 40.4615 156.9729 41.1923 -17.9269 -1.5694 -29.6811
# 3 38.6617 41.1923 120.2565 -22.7319 -35.2781 -12.0857
# 4 -7.0165 -17.9269 -22.7319 44.9864 -0.9064 3.9544
# 5 -23.2451 -1.5694 -35.2781 -0.9064 38.0848 -1.6846
# 6 -1.2089 -29.6811 -12.0857 3.9544 -1.6846 40.8008
#
#
#
# Elastic Compliance Matrix: (Units=1/GPa)
#
#
# Indices 1 2 3 4 5 6 
#
# 1 0.012491 -0.003189 -0.001222 0.000370 0.006277 -0.002088
# 2 -0.003189 0.008932 -0.002198 0.001402 -0.003339 0.005478
# 3 -0.001222 -0.002198 0.014805 0.006445 0.013149 0.002669
# 4 0.000370 0.001402 0.006445 0.026181 0.006907 0.000688
# 5 0.006277 -0.003339 0.013149 0.006907 0.042416 0.002734
# 6 -0.002088 0.005478 0.002669 0.000688 0.002734 0.029269
#
#
# Mechanical properties :
#
#
# Convention : Reuss Voigt Hill
#
# Bulk Modulus (GPa) = 43.45884 69.30178 56.38031
# Shear Modulus (GPa) = 32.26167 42.29238 37.27703
#
# Velocity S-wave (km/s) = 3.63980 4.16740 3.91250
# Velocity P-wave (km/s) = 5.95906 7.18434 6.60019
#
# Compressibility (1/GPa) = 0.02301028
#
# Stress axis : x y z
#
# Youngs Moduli (GPa) = 80.05687 111.95751 67.54391
#
# Poissons Ratio (x) = 0.35702 0.08254
# Poissons Ratio (y) = 0.25529 0.14847
# Poissons Ratio (z) = 0.09783 0.24609
#
# Static dielectric constant tensor:
#      x y z
#    x 2.038770 0.020190 0.026190 
#    y 0.020190 1.973700 0.001300 
#    z 0.026190 0.001300 1.962690 
# 
# From -- ./inp_files/420880.got.cif
#   From: 2010.05.17/outbox.cif.g08.bks.cpg/sg2_211_cif.got.tgz:420880.got - 2010.06.03 11:33:40.
