data_PCOD9081090
_publ_section_title
;
Structure prediction by ZEFSAII (Michael W. Deem and Ramdas Pophale) SiO2 
 PCOD9081090
Probable space group: P -1
;
_chemical_formula_sum "Si O2"
_cell_formula_units_Z 16
_cell_length_a 5.697100
_cell_length_b 16.385162
_cell_length_c 8.637890
_cell_angle_alpha 125.185089
_cell_angle_beta 124.880030
_cell_angle_gamma 60.836808
_cell_volume 525.435402
_symmetry_space_group_name_H-M "P -1"
_symmetry_group_IT_number 2
_symmetry_cell_setting 'triclinic'
loop_
_space_group_symop_operation_xyz
x,y,z
-x,-y,-z
loop_
_atom_site_type_symbol
_atom_site_label
_atom_site_fract_x
_atom_site_fract_y
_atom_site_fract_z
Si Si1 0.813496 0.754741 0.042030
Si Si2 0.809280 0.235411 0.495711
Si Si3 0.683388 0.755503 0.478633
Si Si4 0.596516 0.500959 0.289408
Si Si5 0.310880 0.006179 0.199509
Si Si6 0.909721 0.000411 0.289788
Si Si7 0.078212 0.486737 0.248732
Si Si8 0.692795 0.260360 0.987951
O O1 0.889307 0.631109 0.916192
O O2 0.469017 0.784103 0.983691
O O3 0.972643 0.789500 0.990620
O O4 0.987683 0.774851 0.284009
O O5 0.478921 0.284349 0.481970
O O6 0.816176 0.118466 0.328472
O O7 0.973539 0.285131 0.480067
O O8 0.665947 0.876221 0.634756
O O9 0.497379 0.743401 0.242707
O O10 0.248273 0.533730 0.230184
O O11 0.751033 0.515731 0.526022
O O12 0.666211 0.378308 0.152561
O O13 0.745339 0.537513 0.233117
O O14 0.603310 0.963588 0.158873
O O15 0.230264 0.959781 0.282024
O O16 0.000000 0.000000 0.000000
O O17 0.000000 0.000000 0.500000
#
# Coordination Sequence:
#
# PCOD9081090 Si02
#       8
#     2   2   2   2   2   2   2   2
#     4   8  12  18  27  39  56  79 108 141 174 209
#     4   8  14  23  35  50  68  91 120 153 186 224
#     4   8  14  23  35  50  68  91 120 153 186 224
#     4   8  12  16  22  33  50  73 102 135 168 203
#     4  10  19  31  46  64  85 109 138 171 207 246
#     4  10  19  31  46  64  85 109 138 171 207 246
#     4   8  12  16  22  33  50  73 102 135 168 203
#     4   8  12  18  27  39  56  79 108 141 174 209
#
# _framework density 30.450939000000002
#
# number of rings (size 3 to 8) (size 9 to 14) (size 15 to 20)
#    0.000    3.500    0.000    0.750    0.000    0.000 
#    0.000    0.000    0.000    0.000    0.000    0.000 
#    0.000    0.000    0.000    0.000    0.000    2.500 
#
# Total GULP energy -89564.149753 kJ/mol
# GULP energy per Si atom -5597.759360 kJ/mol
# Density = 3.038163 g / cm^3
# Si number density = 30.450939 Si / 1000 Ang^3
#
#
#
# Elastic Constant Matrix: (Units=GPa)
#
#
# Indices 1 2 3 4 5 6 
#
# 1 411.9799 71.5937 -1.9034 3.9600 9.8082 -5.7538
# 2 71.5937 92.8241 40.6821 7.7094 -5.3955 -2.4447
# 3 -1.9034 40.6821 174.1875 5.7753 17.7666 1.9131
# 4 3.9600 7.7094 5.7753 44.5518 -1.4262 -5.8621
# 5 9.8082 -5.3955 17.7666 -1.4262 44.7863 17.2324
# 6 -5.7538 -2.4447 1.9131 -5.8621 17.2324 61.5191
#
#
#
# Elastic Compliance Matrix: (Units=1/GPa)
#
#
# Indices 1 2 3 4 5 6 
#
# 1 0.002945 -0.002709 0.000808 0.000130 -0.001510 0.000578
# 2 -0.002709 0.014934 -0.003877 -0.001824 0.004216 -0.000894
# 3 0.000808 -0.003877 0.007038 -0.000339 -0.003721 0.000713
# 4 0.000130 -0.001824 -0.000339 0.023078 -0.000231 0.002214
# 5 -0.001510 0.004216 -0.003721 -0.000231 0.027560 -0.007600
# 6 0.000578 -0.000894 0.000713 0.002214 -0.007600 0.018591
#
#
# Mechanical properties :
#
#
# Convention : Reuss Voigt Hill
#
# Bulk Modulus (GPa) = 74.84112 99.97070 87.40591
# Shear Modulus (GPa) = 45.39033 68.07937 56.73485
#
# Velocity S-wave (km/s) = 3.86502 4.73346 4.32111
# Velocity P-wave (km/s) = 6.67449 7.92310 7.32545
#
# Compressibility (1/GPa) = 0.01336164
#
# Stress axis : x y z
#
# Youngs Moduli (GPa) = 339.61615 66.95921 142.07985
#
# Poissons Ratio (x) = 0.18136 -0.11482
# Poissons Ratio (y) = 0.91987 0.55090
# Poissons Ratio (z) = -0.27445 0.25963
#
# Static dielectric constant tensor:
#      x y z
#    x 1.926820 0.275040 0.521300 
#    y 0.275040 2.146330 -0.147540 
#    z 0.521300 -0.147540 1.909490 
# 
# From -- ./inp_files/12954.got.cif
#   From: 2010.05.17/outbox.cif.g08.bks.cpg/sg2_7_cif.got.tgz:12954.got - 2010.06.03 11:33:40.
