data_PCOD9081613
_publ_section_title
;
Structure prediction by ZEFSAII (Michael W. Deem and Ramdas Pophale) SiO2 
 PCOD9081613
Probable space group: P -1
;
_chemical_formula_sum "Si O2"
_cell_formula_units_Z 16
_cell_length_a 7.337814
_cell_length_b 14.653798
_cell_length_c 8.396412
_cell_angle_alpha 86.250716
_cell_angle_beta 120.601229
_cell_angle_gamma 118.769712
_cell_volume 661.593528
_symmetry_space_group_name_H-M "P -1"
_symmetry_group_IT_number 2
_symmetry_cell_setting 'triclinic'
loop_
_space_group_symop_operation_xyz
x,y,z
-x,-y,-z
loop_
_atom_site_type_symbol
_atom_site_label
_atom_site_fract_x
_atom_site_fract_y
_atom_site_fract_z
Si Si1 0.279208 0.151161 0.415056
Si Si2 0.715088 0.341059 0.137679
Si Si3 0.482264 0.869161 0.076701
Si Si4 0.791859 0.558682 0.088608
Si Si5 0.236677 0.924000 0.664352
Si Si6 0.182028 0.263033 0.066379
Si Si7 0.981590 0.061327 0.833026
Si Si8 0.811592 0.266854 0.525970
O O1 0.199900 0.209924 0.241214
O O2 0.573343 0.235846 0.535759
O O3 0.053781 0.113725 0.443536
O O4 0.232784 0.036773 0.347654
O O5 0.848777 0.463982 0.129187
O O6 0.438081 0.303233 0.081437
O O7 0.820213 0.319830 0.350079
O O8 0.672023 0.259120 0.985176
O O9 0.754997 0.900183 0.135392
O O10 0.565187 0.947756 0.256625
O O11 0.338053 0.896013 0.874748
O O12 0.945827 0.646017 0.283545
O O13 0.500000 0.500000 0.000000
O O14 0.839770 0.633148 0.947720
O O15 0.228092 0.846842 0.532253
O O16 0.975048 0.162726 0.882648
O O17 0.000000 0.000000 0.000000
#
# Coordination Sequence:
#
# PCOD9081613 Si02
#       8
#     2   2   2   2   2   2   2   2
#     4   9  17  30  52  77 104 131 163 212 257 300
#     4   8  15  29  51  74  97 133 173 208 246 293
#     4   8  14  25  46  77 103 126 162 206 251 298
#     4  10  19  32  53  73  99 139 177 213 253 300
#     4   9  16  28  51  82 107 126 164 213 253 300
#     4   8  15  27  47  75  99 130 171 204 248 303
#     4   8  12  23  45  72 101 129 160 200 245 296
#     4  10  19  32  53  79 101 132 174 210 255 304
#
# _framework density 24.184034
#
# number of rings (size 3 to 8) (size 9 to 14) (size 15 to 20)
#    0.000    3.250    0.000    2.625    0.000    1.000 
#    0.000    0.625    0.000   43.500    0.000    0.000 
#    0.000    0.000    0.000    0.000    0.000    0.000 
#
# Total GULP energy -89152.163523 kJ/mol
# GULP energy per Si atom -5572.010220 kJ/mol
# Density = 2.412899 g / cm^3
# Si number density = 24.184034 Si / 1000 Ang^3
#
#
#
# Elastic Constant Matrix: (Units=GPa)
#
#
# Indices 1 2 3 4 5 6 
#
# 1 73.4613 25.5754 38.9768 18.9005 24.4509 10.3544
# 2 25.5754 169.0581 42.7952 13.4781 -7.5336 -14.7608
# 3 38.9768 42.7952 156.8199 24.9219 4.9669 0.7724
# 4 18.9005 13.4781 24.9219 34.5756 8.6033 -3.0026
# 5 24.4509 -7.5336 4.9669 8.6033 26.5937 16.0335
# 6 10.3544 -14.7608 0.7724 -3.0026 16.0335 25.5115
#
#
#
# Elastic Compliance Matrix: (Units=1/GPa)
#
#
# Indices 1 2 3 4 5 6 
#
# 1 0.025521 -0.003395 -0.004118 -0.003455 -0.024054 0.002513
# 2 -0.003395 0.007221 -0.001134 -0.000800 0.003742 0.003144
# 3 -0.004118 -0.001134 0.008341 -0.004969 0.005485 -0.003269
# 4 -0.003455 -0.000800 -0.004969 0.041684 -0.021288 0.019375
# 5 -0.024054 0.003742 0.005485 -0.021288 0.098313 -0.052531
# 6 0.002513 0.003144 -0.003269 0.019375 -0.052531 0.075392
#
#
# Mechanical properties :
#
#
# Convention : Reuss Voigt Hill
#
# Bulk Modulus (GPa) = 42.03556 68.22603 55.13079
# Shear Modulus (GPa) = 17.74970 36.80226 27.27598
#
# Velocity S-wave (km/s) = 2.71208 3.90520 3.36199
# Velocity P-wave (km/s) = 5.21789 6.97184 6.15764
#
# Compressibility (1/GPa) = 0.02378938
#
# Stress axis : x y z
#
# Youngs Moduli (GPa) = 39.18400 138.48898 119.88271
#
# Poissons Ratio (x) = 0.47023 0.49365
# Poissons Ratio (y) = 0.13305 0.13589
# Poissons Ratio (z) = 0.16135 0.15698
#
# Static dielectric constant tensor:
#      x y z
#    x 1.944300 -0.033480 -0.019860 
#    y -0.033480 1.970870 -0.053870 
#    z -0.019860 -0.053870 1.924860 
# 
# From -- ./inp_files/395964.got.cif
#   From: 2010.05.17/outbox.cif.g08.bks.cpg/sg2_198_cif.got.tgz:395964.got - 2010.06.03 11:33:40.
