data_PCOD9081123
_publ_section_title
;
Structure prediction by ZEFSAII (Michael W. Deem and Ramdas Pophale) SiO2 
 PCOD9081123
Probable space group: P -1
;
_chemical_formula_sum "Si O2"
_cell_formula_units_Z 16
_cell_length_a 10.941065
_cell_length_b 16.677674
_cell_length_c 10.786344
_cell_angle_alpha 105.089020
_cell_angle_beta 116.159271
_cell_angle_gamma 27.638098
_cell_volume 778.375287
_symmetry_space_group_name_H-M "P -1"
_symmetry_group_IT_number 2
_symmetry_cell_setting 'triclinic'
loop_
_space_group_symop_operation_xyz
x,y,z
-x,-y,-z
loop_
_atom_site_type_symbol
_atom_site_label
_atom_site_fract_x
_atom_site_fract_y
_atom_site_fract_z
Si Si1 0.738494 0.302685 0.871993
Si Si2 0.206135 0.294276 0.399877
Si Si3 0.555474 0.693374 0.903720
Si Si4 0.455642 0.299162 0.657452
Si Si5 0.428129 0.940745 0.305302
Si Si6 0.802993 0.704367 0.880019
Si Si7 0.419526 0.945545 0.028931
Si Si8 0.756003 0.291872 0.168090
O O1 0.674883 0.257319 0.740851
O O2 0.487907 0.507981 0.822422
O O3 0.715298 0.292666 0.003958
O O4 0.072009 0.153811 0.941048
O O5 0.365362 0.298245 0.492088
O O6 0.344210 0.167045 0.523837
O O7 0.255855 0.235354 0.260852
O O8 0.856678 0.498301 0.346071
O O9 0.679415 0.676891 0.833642
O O10 0.439414 0.833096 0.989981
O O11 0.308183 0.757234 0.804586
O O12 0.846036 0.492183 0.013315
O O13 0.577458 0.157523 0.737463
O O14 0.520065 0.918236 0.199858
O O15 0.088315 0.147501 0.268425
O O16 0.629020 0.850353 0.966354
#
# Coordination Sequence:
#
# PCOD9081123 Si02
#       8
#     2   2   2   2   2   2   2   2
#     4  10  19  31  48  72  99 126 159 200 240 277
#     4   9  18  30  51  75  98 123 156 198 240 281
#     4   9  18  29  53  73  95 121 161 199 235 277
#     4   9  18  29  53  73  95 121 161 199 235 277
#     4   9  17  30  51  75  95 120 161 202 235 276
#     4   9  18  30  51  75  98 123 156 198 240 281
#     4   9  17  30  51  75  95 120 161 202 235 276
#     4  10  19  31  48  72  99 126 159 200 240 277
#
# _framework density 20.555637999999998
#
# number of rings (size 3 to 8) (size 9 to 14) (size 15 to 20)
#    1.500    1.250    0.000    3.000    0.000    2.000 
#    0.000    3.750    0.000    3.000    0.000    0.000 
#    0.000    0.000    0.000    0.000    0.000    0.000 
#
# Total GULP energy -89119.577161 kJ/mol
# GULP energy per Si atom -5569.973573 kJ/mol
# Density = 2.050885 g / cm^3
# Si number density = 20.555638 Si / 1000 Ang^3
#
#
#
# Elastic Constant Matrix: (Units=GPa)
#
#
# Indices 1 2 3 4 5 6 
#
# 1 61.8410 13.6767 29.9613 10.2016 10.9879 -5.7473
# 2 13.6767 125.5033 43.5444 -6.8480 -15.0251 -0.3360
# 3 29.9613 43.5444 89.0440 4.1347 -17.7653 -12.0243
# 4 10.2016 -6.8480 4.1347 21.2901 -1.7923 1.0292
# 5 10.9879 -15.0251 -17.7653 -1.7923 22.0285 4.4244
# 6 -5.7473 -0.3360 -12.0243 1.0292 4.4244 26.3083
#
#
#
# Elastic Compliance Matrix: (Units=1/GPa)
#
#
# Indices 1 2 3 4 5 6 
#
# 1 0.033519 -0.003605 -0.014473 -0.017585 -0.033690 0.007015
# 2 -0.003605 0.010803 -0.003335 0.006685 0.007773 -0.003743
# 3 -0.014473 -0.003335 0.022546 0.003248 0.022759 0.003146
# 4 -0.017585 0.006685 0.003248 0.059210 0.022448 -0.008363
# 5 -0.033690 0.007773 0.022759 0.022448 0.090278 -0.012919
# 6 0.007015 -0.003743 0.003146 -0.008363 -0.012919 0.043433
#
#
# Mechanical properties :
#
#
# Convention : Reuss Voigt Hill
#
# Bulk Modulus (GPa) = 41.59462 50.08368 45.83915
# Shear Modulus (GPa) = 16.09636 26.53910 21.31773
#
# Velocity S-wave (km/s) = 2.80136 3.59707 3.22386
# Velocity P-wave (km/s) = 5.54460 6.45521 6.01715
#
# Compressibility (1/GPa) = 0.02404157
#
# Stress axis : x y z
#
# Youngs Moduli (GPa) = 29.83404 92.56490 44.35421
#
# Poissons Ratio (x) = 0.33372 0.64193
# Poissons Ratio (y) = 0.10756 0.14792
# Poissons Ratio (z) = 0.43178 0.30870
#
# Static dielectric constant tensor:
#      x y z
#    x 1.752060 0.039760 -0.010340 
#    y 0.039760 1.738660 0.001520 
#    z -0.010340 0.001520 1.704170 
# 
# From -- ./inp_files/457862.got.cif
#   From: 2010.05.17/outbox.cif.g08.bks.cpg/sg2_229_cif.got.tgz:457862.got - 2010.06.03 11:33:40.
