data_PCOD9081135
_publ_section_title
;
Structure prediction by ZEFSAII (Michael W. Deem and Ramdas Pophale) SiO2 
 PCOD9081135
Probable space group: P -1
;
_chemical_formula_sum "Si O2"
_cell_formula_units_Z 16
_cell_length_a 14.321929
_cell_length_b 21.266634
_cell_length_c 14.370635
_cell_angle_alpha 45.670777
_cell_angle_beta 160.333069
_cell_angle_gamma 144.385233
_cell_volume 806.543954
_symmetry_space_group_name_H-M "P -1"
_symmetry_group_IT_number 2
_symmetry_cell_setting 'triclinic'
loop_
_space_group_symop_operation_xyz
x,y,z
-x,-y,-z
loop_
_atom_site_type_symbol
_atom_site_label
_atom_site_fract_x
_atom_site_fract_y
_atom_site_fract_z
Si Si1 0.542416 0.452348 0.716821
Si Si2 0.374336 0.262605 0.128146
Si Si3 0.377616 0.609943 0.337336
Si Si4 0.464296 0.395187 0.911232
Si Si5 0.673537 0.150453 0.719477
Si Si6 0.753154 0.458310 0.423173
Si Si7 0.275468 0.244387 0.315883
Si Si8 0.336988 0.056301 0.326659
O O1 0.343882 0.503391 0.455872
O O2 0.498126 0.378496 0.664047
O O3 0.429159 0.387773 0.775148
O O4 0.970440 0.563764 0.006188
O O5 0.331056 0.284339 0.959072
O O6 0.663732 0.385931 0.321401
O O7 0.499399 0.188093 0.332087
O O8 0.005197 0.202920 0.902320
O O9 0.644369 0.720828 0.537319
O O10 0.884381 0.492568 0.233129
O O11 0.265052 0.441753 0.711544
O O12 0.533670 0.218499 0.547584
O O13 0.337569 0.045207 0.451340
O O14 0.864850 0.148527 0.992875
O O15 0.422834 0.362219 0.280542
O O16 0.500000 0.000000 0.500000
O O17 0.000000 0.000000 0.000000
#
# Coordination Sequence:
#
# PCOD9081135 Si02
#       8
#     2   2   2   2   2   2   2   2
#     4  10  19  32  46  70  96 143 182 216 241 296
#     4  11  25  34  52  75 108 137 178 213 244 308
#     4  10  19  31  49  67 101 137 183 215 252 276
#     4  12  22  33  50  73 109 146 180 203 246 294
#     4  11  21  35  52  76  99 132 164 215 260 304
#     4  11  21  32  48  73 106 147 172 207 241 289
#     4  11  18  32  52  71 105 135 175 214 248 286
#     4  12  23  39  57  73 101 136 169 215 269 308
#
# _framework density 19.837729
#
# number of rings (size 3 to 8) (size 9 to 14) (size 15 to 20)
#    0.000    1.000    6.250    3.000    1.750    0.000 
#    0.000    0.000    0.000    0.000    0.000    0.000 
#    0.000    6.000    0.000    0.250    0.000    0.000 
#
# Total GULP energy -89176.740658 kJ/mol
# GULP energy per Si atom -5573.546291 kJ/mol
# Density = 1.979258 g / cm^3
# Si number density = 19.837729 Si / 1000 Ang^3
#
#
#
# Elastic Constant Matrix: (Units=GPa)
#
#
# Indices 1 2 3 4 5 6 
#
# 1 103.0590 37.1166 24.8204 -2.4606 -33.2693 -23.3676
# 2 37.1166 54.2328 19.3172 -20.7749 -2.7270 -24.7721
# 3 24.8204 19.3172 115.7146 -12.7125 -17.4652 -19.4555
# 4 -2.4606 -20.7749 -12.7125 34.5931 -11.2485 -3.3783
# 5 -33.2693 -2.7270 -17.4652 -11.2485 36.6529 3.7643
# 6 -23.3676 -24.7721 -19.4555 -3.3783 3.7643 27.8612
#
#
#
# Elastic Compliance Matrix: (Units=1/GPa)
#
#
# Indices 1 2 3 4 5 6 
#
# 1 0.020624 -0.006758 0.002150 0.005720 0.019889 0.010797
# 2 -0.006758 0.083346 0.011489 0.067632 0.017850 0.082250
# 3 0.002150 0.011489 0.013996 0.018563 0.012882 0.022302
# 4 0.005720 0.067632 0.018563 0.098168 0.040537 0.084320
# 5 0.019889 0.017850 0.012882 0.040537 0.061322 0.038178
# 6 0.010797 0.082250 0.022302 0.084320 0.038178 0.138718
#
#
# Mechanical properties :
#
#
# Convention : Reuss Voigt Hill
#
# Bulk Modulus (GPa) = 7.59130 48.39054 27.99092
# Shear Modulus (GPa) = 11.20266 32.60492 21.90379
#
# Velocity S-wave (km/s) = 2.37895 4.05851 3.32648
# Velocity P-wave (km/s) = 3.37356 6.81235 5.37536
#
# Compressibility (1/GPa) = 0.13172972
#
# Stress axis : x y z
#
# Youngs Moduli (GPa) = 48.48634 11.99811 71.44757
#
# Poissons Ratio (x) = 0.08108 -0.15361
# Poissons Ratio (y) = 0.32766 -0.82086
# Poissons Ratio (z) = -0.10425 -0.13785
#
# Static dielectric constant tensor:
#      x y z
#    x 1.759440 -0.019740 -0.027740 
#    y -0.019740 1.674430 0.038290 
#    z -0.027740 0.038290 1.818270 
# 
# From -- ./inp_files/535253.got.cif
#   From: 2010.05.17/outbox.cif.g08.bks.cpg/sg2_268_cif.got.tgz:535253.got - 2010.06.03 11:33:40.
