data_PCOD9081599
_publ_section_title
;
Structure prediction by ZEFSAII (Michael W. Deem and Ramdas Pophale) SiO2 
 PCOD9081599
Probable space group: P -1
;
_chemical_formula_sum "Si O2"
_cell_formula_units_Z 16
_cell_length_a 21.286179
_cell_length_b 9.157132
_cell_length_c 10.356297
_cell_angle_alpha 139.362398
_cell_angle_beta 34.924953
_cell_angle_gamma 128.461292
_cell_volume 752.665567
_symmetry_space_group_name_H-M "P -1"
_symmetry_group_IT_number 2
_symmetry_cell_setting 'triclinic'
loop_
_space_group_symop_operation_xyz
x,y,z
-x,-y,-z
loop_
_atom_site_type_symbol
_atom_site_label
_atom_site_fract_x
_atom_site_fract_y
_atom_site_fract_z
Si Si1 0.884895 0.989947 0.552446
Si Si2 0.407288 0.749987 0.597173
Si Si3 0.018344 0.178711 0.977652
Si Si4 0.829057 0.447387 0.081406
Si Si5 0.366850 0.996607 0.073127
Si Si6 0.545955 0.327568 0.088304
Si Si7 0.386728 0.639776 0.277343
Si Si8 0.851866 0.535339 0.400455
O O1 0.967859 0.947008 0.267354
O O2 0.889957 0.792360 0.517198
O O3 0.761656 0.960322 0.682563
O O4 0.883347 0.233555 0.779272
O O5 0.299502 0.610750 0.732039
O O6 0.512034 0.587496 0.327416
O O7 0.389179 0.794984 0.505469
O O8 0.408445 0.960441 0.831996
O O9 0.128250 0.329544 0.910937
O O10 0.920287 0.359436 0.250905
O O11 0.000000 0.000000 0.000000
O O12 0.869184 0.472459 0.178217
O O13 0.433436 0.191461 0.161829
O O14 0.395962 0.770213 0.949849
O O15 0.615126 0.269548 0.804134
O O16 0.277909 0.489413 0.373821
O O17 0.500000 0.500000 0.000000
#
# Coordination Sequence:
#
# PCOD9081599 Si02
#       8
#     2   2   2   2   2   2   2   2
#     4  10  20  38  62  81 110 151 197 231 283 347
#     4   9  18  35  55  79 112 149 194 235 279 344
#     4  11  24  37  57  86 118 147 183 241 293 341
#     4   9  19  38  62  82 108 152 193 234 280 343
#     4  10  20  32  56  83 110 154 192 233 287 344
#     4  10  19  32  52  82 117 151 189 237 289 336
#     4   9  18  34  57  80 113 149 188 239 282 335
#     4  10  21  38  59  83 112 151 193 235 283 340
#
# _framework density 21.257781999999999
#
# number of rings (size 3 to 8) (size 9 to 14) (size 15 to 20)
#    0.000    2.250    0.000    4.875    1.750    3.000 
#    0.000    3.750    0.000    0.000    0.000    0.000 
#    0.000    0.000    0.000    0.000    0.000    0.000 
#
# Total GULP energy -89327.629128 kJ/mol
# GULP energy per Si atom -5582.976820 kJ/mol
# Density = 2.120940 g / cm^3
# Si number density = 21.257782 Si / 1000 Ang^3
#
#
#
# Elastic Constant Matrix: (Units=GPa)
#
#
# Indices 1 2 3 4 5 6 
#
# 1 53.0744 17.4193 24.0973 -10.7968 -4.6275 -11.4118
# 2 17.4193 88.5878 27.9157 -4.6066 -0.9494 -16.3405
# 3 24.0973 27.9157 100.2782 3.9280 0.0438 -8.0062
# 4 -10.7968 -4.6066 3.9280 35.3061 5.1769 -1.4175
# 5 -4.6275 -0.9494 0.0438 5.1769 28.3286 -0.4833
# 6 -11.4118 -16.3405 -8.0062 -1.4175 -0.4833 24.0599
#
#
#
# Elastic Compliance Matrix: (Units=1/GPa)
#
#
# Indices 1 2 3 4 5 6 
#
# 1 0.025796 -0.000997 -0.005428 0.008360 0.002837 0.010302
# 2 -0.000997 0.014092 -0.003116 0.002202 0.000052 0.008192
# 3 -0.005428 -0.003116 0.012211 -0.003399 -0.000403 -0.000836
# 4 0.008360 0.002202 -0.003399 0.032435 -0.004378 0.006153
# 5 0.002837 0.000052 -0.000403 -0.004378 0.036595 0.001724
# 6 0.010302 0.008192 -0.000836 0.006153 0.001724 0.052132
#
#
# Mechanical properties :
#
#
# Convention : Reuss Voigt Hill
#
# Bulk Modulus (GPa) = 30.28599 42.31167 36.29883
# Shear Modulus (GPa) = 24.58856 29.03945 26.81401
#
# Velocity S-wave (km/s) = 3.40470 3.70004 3.55544
# Velocity P-wave (km/s) = 5.45288 6.18070 5.82816
#
# Compressibility (1/GPa) = 0.03301857
#
# Stress axis : x y z
#
# Youngs Moduli (GPa) = 38.76582 70.96149 81.89659
#
# Poissons Ratio (x) = 0.07072 0.44451
# Poissons Ratio (y) = 0.03864 0.25517
# Poissons Ratio (z) = 0.21041 0.22110
#
# Static dielectric constant tensor:
#      x y z
#    x 1.777100 0.015150 -0.001800 
#    y 0.015150 1.803260 -0.002940 
#    z -0.001800 -0.002940 1.781880 
# 
# From -- ./inp_files/342980.got.cif
#   From: 2010.05.17/outbox.cif.g08.bks.cpg/sg2_172_cif.got.tgz:342980.got - 2010.06.03 11:33:40.
