data_PCOD9081086
_publ_section_title
;
Structure prediction by ZEFSAII (Michael W. Deem and Ramdas Pophale) SiO2 
 PCOD9081086
Probable space group: P -1
;
_chemical_formula_sum "Si O2"
_cell_formula_units_Z 16
_cell_length_a 27.186558
_cell_length_b 17.029902
_cell_length_c 17.692445
_cell_angle_alpha 163.548664
_cell_angle_beta 155.280782
_cell_angle_gamma 26.092926
_cell_volume 944.710608
_symmetry_space_group_name_H-M "P -1"
_symmetry_group_IT_number 2
_symmetry_cell_setting 'triclinic'
loop_
_space_group_symop_operation_xyz
x,y,z
-x,-y,-z
loop_
_atom_site_type_symbol
_atom_site_label
_atom_site_fract_x
_atom_site_fract_y
_atom_site_fract_z
Si Si1 0.442641 0.914164 0.516348
Si Si2 0.837403 0.999404 0.781009
Si Si3 0.430070 0.509600 0.989281
Si Si4 0.905798 0.961082 0.669341
Si Si5 0.406579 0.104165 0.033940
Si Si6 0.757054 0.576998 0.021371
Si Si7 0.849490 0.406860 0.306843
Si Si8 0.497682 0.495078 0.641948
O O1 0.303421 0.989480 0.418426
O O2 0.508556 0.693255 0.466711
O O3 0.475704 0.215137 0.827240
O O4 0.446067 0.762540 0.300006
O O5 0.899582 0.978045 0.767495
O O6 0.883522 0.710747 0.626541
O O7 0.842290 0.275559 0.091668
O O8 0.286019 0.548467 0.809523
O O9 0.500000 0.500000 0.000000
O O10 0.043708 0.812930 0.704951
O O11 0.848926 0.279712 0.857501
O O12 0.820102 0.762806 0.336022
O O13 0.285694 0.249593 0.955066
O O14 0.452513 0.333666 0.360074
O O15 0.500000 0.000000 0.000000
O O16 0.416742 0.815435 0.828872
O O17 0.636342 0.515370 0.836293
#
# Coordination Sequence:
#
# PCOD9081086 Si02
#       8
#     2   2   2   2   2   2   2   2
#     4  10  20  31  54  74  94 129 166 200 245 291
#     4  10  19  31  45  66  99 128 164 199 236 274
#     4  10  21  37  53  72 100 125 159 210 258 292
#     4  12  20  30  47  67 101 131 172 197 227 290
#     4  10  20  31  46  66  99 138 168 200 238 279
#     4  11  21  30  46  69 100 138 168 196 240 273
#     4  10  21  33  47  69  93 132 165 201 243 283
#     4  11  19  33  48  69 100 130 174 201 232 289
#
# _framework density 16.936402999999999
#
# number of rings (size 3 to 8) (size 9 to 14) (size 15 to 20)
#    0.000    1.500    1.250    7.125    3.500    0.000 
#    0.000    0.000    0.000    0.000    0.000    0.000 
#    0.000   20.000    0.000    0.000    0.000    0.000 
#
# Total GULP energy -89306.394784 kJ/mol
# GULP energy per Si atom -5581.649674 kJ/mol
# Density = 1.689786 g / cm^3
# Si number density = 16.936403 Si / 1000 Ang^3
#
#
#
# Elastic Constant Matrix: (Units=GPa)
#
#
# Indices 1 2 3 4 5 6 
#
# 1 58.5226 33.0849 10.5776 -5.1757 -0.4235 -6.9710
# 2 33.0849 119.6948 14.5791 19.2567 7.7345 3.3796
# 3 10.5776 14.5791 77.3268 6.7519 -5.9294 -10.9568
# 4 -5.1757 19.2567 6.7519 31.8038 3.4782 1.2504
# 5 -0.4235 7.7345 -5.9294 3.4782 9.2982 4.8874
# 6 -6.9710 3.3796 -10.9568 1.2504 4.8874 13.8175
#
#
#
# Elastic Compliance Matrix: (Units=1/GPa)
#
#
# Indices 1 2 3 4 5 6 
#
# 1 0.024330 -0.008247 -0.000821 0.008933 -0.003245 0.013980
# 2 -0.008247 0.012668 -0.001893 -0.007707 -0.006141 -0.005891
# 3 -0.000821 -0.001893 0.015732 -0.003553 0.007550 0.010175
# 4 0.008933 -0.007707 -0.003553 0.039517 -0.012565 0.004442
# 5 -0.003245 -0.006141 0.007550 -0.012565 0.145377 -0.044432
# 6 0.013980 -0.005891 0.010175 0.004442 -0.044432 0.104249
#
#
# Mechanical properties :
#
#
# Convention : Reuss Voigt Hill
#
# Bulk Modulus (GPa) = 32.45911 41.33638 36.89775
# Shear Modulus (GPa) = 13.36669 24.13741 18.75205
#
# Velocity S-wave (km/s) = 2.81237 3.77925 3.33108
# Velocity P-wave (km/s) = 5.45461 6.59571 6.05212
#
# Compressibility (1/GPa) = 0.03080799
#
# Stress axis : x y z
#
# Youngs Moduli (GPa) = 41.10141 78.94014 63.56376
#
# Poissons Ratio (x) = 0.65104 0.05219
# Poissons Ratio (y) = 0.33897 0.12031
# Poissons Ratio (z) = 0.03375 0.14942
#
# Static dielectric constant tensor:
#      x y z
#    x 1.537370 0.016290 0.011780 
#    y 0.016290 1.638100 0.008190 
#    z 0.011780 0.008190 1.593870 
# 
# From -- ./inp_files/127062.got.cif
#   From: 2010.05.17/outbox.cif.g08.bks.cpg/sg2_64_cif.got.tgz:127062.got - 2010.06.03 11:33:40.
