data_PCOD9081443
_publ_section_title
;
Structure prediction by ZEFSAII (Michael W. Deem and Ramdas Pophale) SiO2 
 PCOD9081443
Probable space group: P -1
;
_chemical_formula_sum "Si O2"
_cell_formula_units_Z 14
_cell_length_a 27.299446
_cell_length_b 17.492949
_cell_length_c 5.560857
_cell_angle_alpha 51.787949
_cell_angle_beta 63.009447
_cell_angle_gamma 22.016362
_cell_volume 714.780311
_symmetry_space_group_name_H-M "P -1"
_symmetry_group_IT_number 2
_symmetry_cell_setting 'triclinic'
loop_
_space_group_symop_operation_xyz
x,y,z
-x,-y,-z
loop_
_atom_site_type_symbol
_atom_site_label
_atom_site_fract_x
_atom_site_fract_y
_atom_site_fract_z
Si Si1 0.111254 0.021347 0.187826
Si Si2 0.820093 0.473186 0.790013
Si Si3 0.111661 0.853264 0.838133
Si Si4 0.665650 0.705739 0.167400
Si Si5 0.673243 0.463348 0.655431
Si Si6 0.338537 0.810413 0.242318
Si Si7 0.586113 0.255698 0.297298
O O1 0.050227 0.049934 0.473078
O O2 0.212016 0.784942 0.269539
O O3 0.215323 0.932745 0.232634
O O4 0.972685 0.278801 0.844519
O O5 0.746971 0.601063 0.440349
O O6 0.857247 0.296970 0.076311
O O7 0.725956 0.652114 0.887573
O O8 0.263836 0.640404 0.014384
O O9 0.000000 0.000000 0.000000
O O10 0.671941 0.578401 0.372101
O O11 0.500000 0.000000 0.000000
O O12 0.525357 0.649092 0.605663
O O13 0.500000 0.500000 0.500000
O O14 0.319408 0.890904 0.387972
O O15 0.340010 0.873148 0.876163
O O16 0.500000 0.500000 0.000000
#
# Coordination Sequence:
#
# PCOD9081443 Si02
#       7
#     2   2   2   2   2   2   2
#     4  12  20  32  55  85 120 148 177 226 299 349
#     4  11  23  36  58  83 111 150 186 236 286 333
#     4  11  20  31  48  83 121 147 179 218 285 362
#     4  11  25  43  57  79 111 154 203 235 266 331
#     4  11  21  32  57  80 116 152 182 229 288 331
#     4  10  20  31  48  75 122 145 175 212 269 357
#     4  10  19  32  47  78 114 144 179 217 271 346
#
# _framework density 19.586438999999999
#
# number of rings (size 3 to 8) (size 9 to 14) (size 15 to 20)
#    0.000    1.143    5.714    4.286    0.000    0.000 
#    0.000    0.000    0.000    0.000    0.000    6.000 
#    0.000    0.000    0.000    0.000    0.000    0.000 
#
# Total GULP energy -78028.205454 kJ/mol
# GULP energy per Si atom -5573.443247 kJ/mol
# Density = 1.954186 g / cm^3
# Si number density = 19.586439 Si / 1000 Ang^3
#
#
#
# Elastic Constant Matrix: (Units=GPa)
#
#
# Indices 1 2 3 4 5 6 
#
# 1 112.2556 42.3210 40.1071 -2.8740 54.5027 -24.6940
# 2 42.3210 102.1329 42.9137 9.5636 31.2715 0.3359
# 3 40.1071 42.9137 54.2914 11.1340 31.6681 -6.0341
# 4 -2.8740 9.5636 11.1340 33.4364 0.5631 7.9809
# 5 54.5027 31.2715 31.6681 0.5631 25.2374 -8.0229
# 6 -24.6940 0.3359 -6.0341 7.9809 -8.0229 29.1606
#
#
#
# Elastic Compliance Matrix: (Units=1/GPa)
#
#
# Indices 1 2 3 4 5 6 
#
# 1 -0.012755 -0.004599 -0.030117 0.009046 0.070844 0.000035
# 2 -0.004599 0.015482 -0.011498 0.000284 0.003391 -0.005597
# 3 -0.030117 -0.011498 0.018109 -0.005041 0.055057 -0.005097
# 4 0.009046 0.000284 -0.005041 0.034321 -0.016671 -0.007366
# 5 0.070844 0.003391 0.055057 -0.016671 -0.177697 0.027019
# 6 0.000035 -0.005597 -0.005097 -0.007366 0.027019 0.042782
#
#
# Mechanical properties :
#
#
# Convention : Reuss Voigt Hill
#
# Bulk Modulus (GPa) = -13.96801 57.70702 21.86951
# Shear Modulus (GPa) = -446.62777 27.12276 -209.75251
#
# Velocity S-wave (km/s) = -15.11701 3.72529 -10.35969
# Velocity P-wave (km/s) = 17.65916 6.93040 11.48511
#
# Compressibility (1/GPa) = -0.07159214
#
# Stress axis : x y z
#
# Youngs Moduli (GPa) = -78.40330 64.59309 55.22260
#
# Poissons Ratio (x) = 0.29706 1.66313
# Poissons Ratio (y) = -0.36057 0.63495
# Poissons Ratio (z) = -2.36125 0.74270
#
# Static dielectric constant tensor:
#      x y z
#    x 1.691040 0.003110 0.056900 
#    y 0.003110 1.719350 0.045900 
#    z 0.056900 0.045900 1.782250 
# 
# From -- ./inp_files/63511.got.cif
#   From: 2010.05.17/outbox.cif.g08.bks.cpg/sg2_32_cif.got.tgz:63511.got - 2010.06.03 11:33:40.
