data_PCOD9081392
_publ_section_title
;
Structure prediction by ZEFSAII (Michael W. Deem and Ramdas Pophale) SiO2 
 PCOD9081392
Probable space group: P -1
;
_chemical_formula_sum "Si O2"
_cell_formula_units_Z 16
_cell_length_a 23.437831
_cell_length_b 10.506095
_cell_length_c 11.903523
_cell_angle_alpha 130.018067
_cell_angle_beta 143.283560
_cell_angle_gamma 27.835925
_cell_volume 795.193120
_symmetry_space_group_name_H-M "P -1"
_symmetry_group_IT_number 2
_symmetry_cell_setting 'triclinic'
loop_
_space_group_symop_operation_xyz
x,y,z
-x,-y,-z
loop_
_atom_site_type_symbol
_atom_site_label
_atom_site_fract_x
_atom_site_fract_y
_atom_site_fract_z
Si Si1 0.681914 0.258873 0.057466
Si Si2 0.007672 0.111237 0.814968
Si Si3 0.389787 0.212979 0.072186
Si Si4 0.046237 0.213165 0.410536
Si Si5 0.351585 0.873135 0.852125
Si Si6 0.734834 0.698158 0.304660
Si Si7 0.940767 0.269071 0.043121
Si Si8 0.165213 0.668518 0.544333
O O1 0.695802 0.086159 0.067784
O O2 0.700637 0.383920 0.248074
O O3 0.508568 0.538257 0.889406
O O4 0.825003 0.075827 0.089254
O O5 0.982828 0.244883 0.967056
O O6 0.863357 0.352874 0.637642
O O7 0.994923 0.927647 0.709215
O O8 0.331172 0.325839 0.915777
O O9 0.392339 0.009122 0.975182
O O10 0.249254 0.465057 0.076960
O O11 0.571628 0.025455 0.263534
O O12 0.898580 0.527001 0.407498
O O13 0.208472 0.022492 0.626669
O O14 0.031810 0.243486 0.269866
O O15 0.797793 0.524243 0.417405
O O16 0.000000 0.000000 0.000000
O O17 0.000000 0.000000 0.500000
#
# Coordination Sequence:
#
# PCOD9081392 Si02
#       8
#     2   2   2   2   2   2   2   2
#     4  10  19  31  56  85 111 137 178 224 274 322
#     4  10  17  34  55  76 103 148 184 216 255 321
#     4  10  21  35  55  81 115 137 176 231 276 313
#     4  10  17  32  55  82 107 135 182 219 271 316
#     4  11  20  32  54  88 111 136 168 237 282 308
#     4  10  18  33  55  81 107 138 178 230 268 311
#     4   9  21  35  54  76 106 147 187 219 256 326
#     4  10  15  29  56  81 102 130 184 221 252 313
#
# _framework density 20.120899000000001
#
# number of rings (size 3 to 8) (size 9 to 14) (size 15 to 20)
#    0.000    2.000    5.000    0.750    0.000    2.000 
#    0.000    1.875    0.000    3.000    0.000    0.000 
#    0.000    0.000    0.000    0.000    0.000    0.000 
#
# Total GULP energy -89068.963567 kJ/mol
# GULP energy per Si atom -5566.810223 kJ/mol
# Density = 2.007510 g / cm^3
# Si number density = 20.120899 Si / 1000 Ang^3
#
#
#
# Elastic Constant Matrix: (Units=GPa)
#
#
# Indices 1 2 3 4 5 6 
#
# 1 115.9541 42.4939 48.7079 -2.7000 -22.4821 -26.2067
# 2 42.4939 79.5606 53.7666 -16.9789 -7.3933 -24.3053
# 3 48.7079 53.7666 125.1798 -31.0703 -19.8073 -16.7570
# 4 -2.7000 -16.9789 -31.0703 34.9420 1.0028 3.8535
# 5 -22.4821 -7.3933 -19.8073 1.0028 42.2753 -3.9447
# 6 -26.2067 -24.3053 -16.7570 3.8535 -3.9447 32.5801
#
#
#
# Elastic Compliance Matrix: (Units=1/GPa)
#
#
# Indices 1 2 3 4 5 6 
#
# 1 0.014206 -0.003164 -0.003024 -0.004287 0.006508 0.008807
# 2 -0.003164 0.022435 -0.005847 0.004263 0.000402 0.010729
# 3 -0.003024 -0.005847 0.014816 0.009967 0.004088 0.000142
# 4 -0.004287 0.004263 0.009967 0.039101 0.002255 0.000507
# 5 0.006508 0.000402 0.004088 0.002255 0.030075 0.011012
# 6 0.008807 0.010729 0.000142 0.000507 0.011012 0.047128
#
#
# Mechanical properties :
#
#
# Convention : Reuss Voigt Hill
#
# Bulk Modulus (GPa) = 36.51316 67.84793 52.18054
# Shear Modulus (GPa) = 24.88048 33.67456 29.27752
#
# Velocity S-wave (km/s) = 3.52028 4.09542 3.81869
# Velocity P-wave (km/s) = 5.89147 7.49377 6.74040
#
# Compressibility (1/GPa) = 0.02738739
#
# Stress axis : x y z
#
# Youngs Moduli (GPa) = 70.39177 44.57295 67.49296
#
# Poissons Ratio (x) = 0.14101 0.20411
# Poissons Ratio (y) = 0.22269 0.39466
# Poissons Ratio (z) = 0.21288 0.26064
#
# Static dielectric constant tensor:
#      x y z
#    x 1.883960 0.039240 0.015060 
#    y 0.039240 1.749350 -0.023670 
#    z 0.015060 -0.023670 1.768860 
# 
# From -- ./inp_files/303618.got.cif
#   From: 2010.05.17/outbox.cif.g08.bks.cpg/sg2_152_cif.got.tgz:303618.got - 2010.06.03 11:33:40.
