data_PCOD9081217
_publ_section_title
;
Structure prediction by ZEFSAII (Michael W. Deem and Ramdas Pophale) SiO2 
 PCOD9081217
Probable space group: P -1
;
_chemical_formula_sum "Si O2"
_cell_formula_units_Z 16
_cell_length_a 9.055983
_cell_length_b 12.384420
_cell_length_c 11.510341
_cell_angle_alpha 128.508720
_cell_angle_beta 105.891793
_cell_angle_gamma 46.540138
_cell_volume 705.602305
_symmetry_space_group_name_H-M "P -1"
_symmetry_group_IT_number 2
_symmetry_cell_setting 'triclinic'
loop_
_space_group_symop_operation_xyz
x,y,z
-x,-y,-z
loop_
_atom_site_type_symbol
_atom_site_label
_atom_site_fract_x
_atom_site_fract_y
_atom_site_fract_z
Si Si1 0.471415 0.615388 0.845089
Si Si2 0.276086 0.710111 0.624732
Si Si3 0.625477 0.016767 0.945427
Si Si4 0.890503 0.378139 0.643231
Si Si5 0.805972 0.695795 0.156628
Si Si6 0.155664 0.086888 0.847306
Si Si7 0.245903 0.540640 0.893734
Si Si8 0.070595 0.379332 0.318137
O O1 0.298297 0.699284 0.761050
O O2 0.701479 0.441663 0.725883
O O3 0.411186 0.549336 0.889298
O O4 0.471214 0.779636 0.980187
O O5 0.500000 0.500000 0.500000
O O6 0.098826 0.726634 0.536386
O O7 0.237008 0.888922 0.688427
O O8 0.753457 0.844033 0.767681
O O9 0.805476 0.950493 0.032353
O O10 0.500000 0.000000 0.000000
O O11 0.823717 0.568901 0.706717
O O12 0.094400 0.277158 0.697850
O O13 0.725384 0.860466 0.158373
O O14 0.680621 0.646747 0.154821
O O15 0.000000 0.500000 0.000000
O O16 0.911106 0.284465 0.931727
O O17 0.115121 0.565003 0.767814
O O18 0.000000 0.500000 0.500000
#
# Coordination Sequence:
#
# PCOD9081217 Si02
#       8
#     2   2   2   2   2   2   2   2
#     4  10  19  33  55  82 113 140 179 230 283 328
#     4   9  19  32  52  85 109 136 177 230 286 325
#     4  10  19  33  56  81 112 143 183 228 284 337
#     4  10  19  33  54  78 110 148 180 224 276 331
#     4   9  19  36  56  76 105 150 193 223 267 327
#     4   9  19  35  56  77 108 146 187 223 276 332
#     4   9  19  34  53  81 109 145 181 230 273 321
#     4  10  19  31  51  82 112 143 184 229 280 330
#
# _framework density 22.675664999999999
#
# number of rings (size 3 to 8) (size 9 to 14) (size 15 to 20)
#    0.000    2.500    1.250    1.500    0.000    6.000 
#    0.000    2.500    0.000    3.000    0.000    0.000 
#    0.000    0.000    0.000    0.000    0.000    0.000 
#
# Total GULP energy -89117.802927 kJ/mol
# GULP energy per Si atom -5569.862683 kJ/mol
# Density = 2.262405 g / cm^3
# Si number density = 22.675665 Si / 1000 Ang^3
#
#
#
# Elastic Constant Matrix: (Units=GPa)
#
#
# Indices 1 2 3 4 5 6 
#
# 1 116.2769 37.6430 27.8846 6.0891 -0.7125 50.1497
# 2 37.6430 102.0015 41.8584 -9.1620 8.3209 26.0344
# 3 27.8846 41.8584 113.9187 6.4366 11.3833 7.0001
# 4 6.0891 -9.1620 6.4366 34.6414 3.5151 10.1732
# 5 -0.7125 8.3209 11.3833 3.5151 27.5394 1.9586
# 6 50.1497 26.0344 7.0001 10.1732 1.9586 39.4031
#
#
#
# Elastic Compliance Matrix: (Units=1/GPa)
#
#
# Indices 1 2 3 4 5 6 
#
# 1 0.021626 0.001786 -0.004803 0.005899 0.003353 -0.029541
# 2 0.001786 0.016252 -0.005802 0.009535 -0.002665 -0.014310
# 3 -0.004803 -0.005802 0.012151 -0.005347 -0.003375 0.009336
# 4 0.005899 0.009535 -0.005347 0.038361 -0.003809 -0.022572
# 5 0.003353 -0.002665 -0.003375 -0.003809 0.039290 -0.002877
# 6 -0.029541 -0.014310 0.009336 -0.022572 -0.002877 0.076743
#
#
# Mechanical properties :
#
#
# Convention : Reuss Voigt Hill
#
# Bulk Modulus (GPa) = 30.87176 60.77434 45.82305
# Shear Modulus (GPa) = 21.47224 35.30420 28.38822
#
# Velocity S-wave (km/s) = 3.08056 3.95006 3.54209
# Velocity P-wave (km/s) = 5.12808 6.90389 6.08116
#
# Compressibility (1/GPa) = 0.03239206
#
# Stress axis : x y z
#
# Youngs Moduli (GPa) = 46.24006 61.53157 82.29472
#
# Poissons Ratio (x) = -0.10991 0.39526
# Poissons Ratio (y) = -0.08259 0.47747
# Poissons Ratio (z) = 0.22209 0.35700
#
# Static dielectric constant tensor:
#      x y z
#    x 1.919570 -0.045010 0.061940 
#    y -0.045010 1.948090 -0.053320 
#    z 0.061940 -0.053320 1.891910 
# 
# From -- ./inp_files/393132.got.cif
#   From: 2010.05.17/outbox.cif.g08.bks.cpg/sg2_197_cif.got.tgz:393132.got - 2010.06.03 11:33:40.
