data_PCOD9081321
_publ_section_title
;
Structure prediction by ZEFSAII (Michael W. Deem and Ramdas Pophale) SiO2 
 PCOD9081321
Probable space group: P -1
;
_chemical_formula_sum "Si O2"
_cell_formula_units_Z 14
_cell_length_a 15.100770
_cell_length_b 15.180055
_cell_length_c 9.284765
_cell_angle_alpha 104.745519
_cell_angle_beta 101.583029
_cell_angle_gamma 19.192668
_cell_volume 671.375616
_symmetry_space_group_name_H-M "P -1"
_symmetry_group_IT_number 2
_symmetry_cell_setting 'triclinic'
loop_
_space_group_symop_operation_xyz
x,y,z
-x,-y,-z
loop_
_atom_site_type_symbol
_atom_site_label
_atom_site_fract_x
_atom_site_fract_y
_atom_site_fract_z
Si Si1 0.275104 0.845314 0.091518
Si Si2 0.986602 0.397210 0.634882
Si Si3 0.520333 0.979550 0.672067
Si Si4 0.619779 0.599765 0.525693
Si Si5 0.350243 0.956672 0.328312
Si Si6 0.982267 0.909177 0.437695
Si Si7 0.809586 0.269471 0.879991
O O1 0.251512 0.963821 0.211064
O O2 0.255610 0.777261 0.164878
O O3 0.559968 0.560583 0.986919
O O4 0.051590 0.048459 0.980117
O O5 0.800466 0.662788 0.665603
O O6 0.765737 0.529653 0.657983
O O7 0.255044 0.174621 0.716303
O O8 0.120084 0.223803 0.463232
O O9 0.500000 0.000000 0.500000
O O10 0.530166 0.077468 0.748534
O O11 0.565602 0.711103 0.411210
O O12 0.831793 0.315397 0.473802
O O13 0.321842 0.842135 0.560738
O O14 0.115022 0.766252 0.266153
O O15 0.000000 0.000000 0.500000
#
# Coordination Sequence:
#
# PCOD9081321 Si02
#       7
#     2   2   2   2   2   2   2
#     4  10  23  39  62  82 114 155 191 241 286 341
#     4  11  20  35  52  90 128 149 184 235 302 355
#     4  10  19  31  54  83 132 147 179 241 295 356
#     4  12  23  35  59  87 120 157 187 234 298 345
#     4  11  22  34  61  92 124 149 195 232 300 357
#     4  12  25  41  59  85 116 155 199 245 286 341
#     4  10  23  42  57  82 115 152 197 240 286 333
#
# _framework density 20.852709999999998
#
# number of rings (size 3 to 8) (size 9 to 14) (size 15 to 20)
#    0.000    1.143    4.286    3.857    2.000    2.286 
#    0.000    0.000    0.000    0.000    0.000   20.000 
#    0.000    0.000    0.000    0.000    0.000    0.000 
#
# Total GULP energy -78074.882280 kJ/mol
# GULP energy per Si atom -5576.777306 kJ/mol
# Density = 2.080525 g / cm^3
# Si number density = 20.852710 Si / 1000 Ang^3
#
#
#
# Elastic Constant Matrix: (Units=GPa)
#
#
# Indices 1 2 3 4 5 6 
#
# 1 146.0270 62.9989 42.0319 12.9031 33.7796 -1.6782
# 2 62.9989 164.6050 24.7665 7.2021 6.5176 -7.4889
# 3 42.0319 24.7665 43.5180 6.9485 15.6655 -3.0575
# 4 12.9031 7.2021 6.9485 13.4417 4.2812 1.9804
# 5 33.7796 6.5176 15.6655 4.2812 27.6234 -0.2333
# 6 -1.6782 -7.4889 -3.0575 1.9804 -0.2333 46.0803
#
#
#
# Elastic Compliance Matrix: (Units=1/GPa)
#
#
# Indices 1 2 3 4 5 6 
#
# 1 0.012959 -0.003470 -0.005967 -0.003924 -0.011039 -0.000375
# 2 -0.003470 0.007668 -0.002150 -0.001037 0.003823 0.001041
# 3 -0.005967 -0.002150 0.035371 -0.008219 -0.010963 0.002078
# 4 -0.003924 -0.001037 -0.008219 0.084736 -0.003467 -0.004516
# 5 -0.011039 0.003823 -0.010963 -0.003467 0.055552 -0.000078
# 6 -0.000375 0.001041 0.002078 -0.004516 -0.000078 0.022188
#
#
# Mechanical properties :
#
#
# Convention : Reuss Voigt Hill
#
# Bulk Modulus (GPa) = 30.46635 68.19384 49.33010
# Shear Modulus (GPa) = 19.79494 32.38593 26.09043
#
# Velocity S-wave (km/s) = 3.08437 3.94519 3.54104
# Velocity P-wave (km/s) = 5.22747 7.31617 6.35817
#
# Compressibility (1/GPa) = 0.03282310
#
# Stress axis : x y z
#
# Youngs Moduli (GPa) = 77.16809 130.41058 28.27190
#
# Poissons Ratio (x) = 0.45254 0.16871
# Poissons Ratio (y) = 0.26778 0.06078
# Poissons Ratio (z) = 0.46049 0.28036
#
# Static dielectric constant tensor:
#      x y z
#    x 1.881760 -0.030500 0.012740 
#    y -0.030500 1.757810 0.005690 
#    z 0.012740 0.005690 1.746380 
# 
# From -- ./inp_files/454858.got.cif
#   From: 2010.05.17/outbox.cif.g08.bks.cpg/sg2_228_cif.got.tgz:454858.got - 2010.06.03 11:33:40.
