data_PCOD9081048
_publ_section_title
;
Structure prediction by ZEFSAII (Michael W. Deem and Ramdas Pophale) SiO2 
 PCOD9081048
Probable space group: P -1
;
_chemical_formula_sum "Si O2"
_cell_formula_units_Z 14
_cell_length_a 12.074683
_cell_length_b 9.273222
_cell_length_c 5.520556
_cell_angle_alpha 94.471256
_cell_angle_beta 118.284181
_cell_angle_gamma 95.715471
_cell_volume 536.083098
_symmetry_space_group_name_H-M "P -1"
_symmetry_group_IT_number 2
_symmetry_cell_setting 'triclinic'
loop_
_space_group_symop_operation_xyz
x,y,z
-x,-y,-z
loop_
_atom_site_type_symbol
_atom_site_label
_atom_site_fract_x
_atom_site_fract_y
_atom_site_fract_z
Si Si1 0.668826 0.298954 0.346954
Si Si2 0.822163 0.740455 0.365171
Si Si3 0.401899 0.418025 0.166556
Si Si4 0.927066 0.943933 0.162110
Si Si5 0.315196 0.140795 0.373332
Si Si6 0.930086 0.518523 0.683136
Si Si7 0.402676 0.769068 0.244952
O O1 0.535016 0.367155 0.218725
O O2 0.796444 0.412121 0.525665
O O3 0.663555 0.200499 0.569020
O O4 0.666724 0.218511 0.077947
O O5 0.902863 0.776031 0.210059
O O6 0.759280 0.864654 0.450991
O O7 0.905538 0.684229 0.651169
O O8 0.701963 0.621580 0.154832
O O9 0.343144 0.307053 0.305099
O O10 0.410401 0.591094 0.245482
O O11 0.778272 0.951384 0.931793
O O12 0.000000 0.000000 0.500000
O O13 0.000000 0.000000 0.000000
O O14 0.459897 0.132098 0.591160
O O15 0.000000 0.500000 0.500000
O O16 0.000000 0.500000 0.000000
#
# Coordination Sequence:
#
# PCOD9081048 Si02
#       7
#     2   2   2   2   2   2   2
#     4  11  20  34  51  75 115 151 188 232 281 328
#     4  11  21  38  62  83 122 160 195 241 294 339
#     4  10  19  30  55  87 112 149 184 233 304 352
#     4  11  23  38  57  84 118 154 194 243 300 361
#     4  10  20  32  57  86 117 148 186 230 304 354
#     4  12  27  39  53  80 123 174 210 224 257 345
#     4  11  19  30  52  83 112 144 181 228 294 361
#
# _framework density 26.115356999999999
#
# number of rings (size 3 to 8) (size 9 to 14) (size 15 to 20)
#    0.000    1.143    4.286    4.714    4.000    0.000 
#    0.000    0.000    0.000    0.000    0.000    0.000 
#    0.000   96.000    0.000    0.000    0.000    0.000 
#
# Total GULP energy -78046.920333 kJ/mol
# GULP energy per Si atom -5574.780024 kJ/mol
# Density = 2.605592 g / cm^3
# Si number density = 26.115357 Si / 1000 Ang^3
#
#
#
# Elastic Constant Matrix: (Units=GPa)
#
#
# Indices 1 2 3 4 5 6 
#
# 1 103.2238 65.8169 54.2349 -7.3426 -23.0766 45.6134
# 2 65.8169 73.6823 64.9043 5.1760 -4.9070 24.4035
# 3 54.2349 64.9043 263.5396 -1.7486 -13.8410 32.9830
# 4 -7.3426 5.1760 -1.7486 49.8319 19.1098 -6.9719
# 5 -23.0766 -4.9070 -13.8410 19.1098 42.5785 -2.7990
# 6 45.6134 24.4035 32.9830 -6.9719 -2.7990 49.4858
#
#
#
# Elastic Compliance Matrix: (Units=1/GPa)
#
#
# Indices 1 2 3 4 5 6 
#
# 1 0.045471 -0.033109 0.003228 -0.001459 0.020773 -0.026767
# 2 -0.033109 0.044101 -0.006204 -0.003170 -0.012684 0.011741
# 3 0.003228 -0.006204 0.005200 -0.000140 0.002573 -0.003256
# 4 -0.001459 -0.003170 -0.000140 0.025750 -0.012368 0.005929
# 5 0.020773 -0.012684 0.002573 -0.012368 0.038740 -0.014159
# 6 -0.026767 0.011741 -0.003256 0.005929 -0.014159 0.041295
#
#
# Mechanical properties :
#
#
# Convention : Reuss Voigt Hill
#
# Bulk Modulus (GPa) = 44.24655 90.03976 67.14315
# Shear Modulus (GPa) = 17.84065 45.41186 31.62626
#
# Velocity S-wave (km/s) = 2.61655 4.17453 3.48375
# Velocity P-wave (km/s) = 5.10959 7.60185 6.47673
#
# Compressibility (1/GPa) = 0.02260063
#
# Stress axis : x y z
#
# Youngs Moduli (GPa) = 21.99224 22.67539 192.31248
#
# Poissons Ratio (x) = 0.75076 -0.62073
# Poissons Ratio (y) = 0.72814 1.19313
# Poissons Ratio (z) = -0.07098 0.14068
#
# Static dielectric constant tensor:
#      x y z
#    x 2.192440 -0.001650 -0.057180 
#    y -0.001650 2.217380 -0.055930 
#    z -0.057180 -0.055930 2.133230 
# 
# From -- ./inp_files/76212.got.cif
#   From: 2010.05.17/outbox.cif.g08.bks.cpg/sg2_39_cif.got.tgz:76212.got - 2010.06.03 11:33:40.
