data_PCOD9081253
_publ_section_title
;
Structure prediction by ZEFSAII (Michael W. Deem and Ramdas Pophale) SiO2 
 PCOD9081253
Probable space group: P -1
;
_chemical_formula_sum "Si O2"
_cell_formula_units_Z 16
_cell_length_a 9.775590
_cell_length_b 11.675083
_cell_length_c 10.055131
_cell_angle_alpha 126.743439
_cell_angle_beta 131.142512
_cell_angle_gamma 43.152227
_cell_volume 575.293309
_symmetry_space_group_name_H-M "P -1"
_symmetry_group_IT_number 2
_symmetry_cell_setting 'triclinic'
loop_
_space_group_symop_operation_xyz
x,y,z
-x,-y,-z
loop_
_atom_site_type_symbol
_atom_site_label
_atom_site_fract_x
_atom_site_fract_y
_atom_site_fract_z
Si Si1 0.282397 0.819869 0.088934
Si Si2 0.268962 0.390856 0.863933
Si Si3 0.770960 0.630998 0.744567
Si Si4 0.577513 0.475111 0.700902
Si Si5 0.314180 0.126602 0.364294
Si Si6 0.092020 0.906909 0.316457
Si Si7 0.727594 0.857518 0.108013
Si Si8 0.902553 0.270070 0.345075
O O1 0.542509 0.673808 0.171254
O O2 0.258551 0.999224 0.172751
O O3 0.147719 0.851396 0.157872
O O4 0.198129 0.771635 0.874828
O O5 0.306920 0.219674 0.836855
O O6 0.012064 0.499411 0.746745
O O7 0.331605 0.483380 0.078808
O O8 0.642682 0.559897 0.686938
O O9 0.638040 0.781655 0.656190
O O10 0.831816 0.705890 0.961134
O O11 0.710497 0.271234 0.619147
O O12 0.316517 0.569932 0.620386
O O13 0.500000 0.000000 0.500000
O O14 0.101536 0.270977 0.410263
O O15 0.879202 0.927863 0.257452
O O16 0.029255 0.101557 0.404450
O O17 0.500000 0.000000 0.000000
#
# Coordination Sequence:
#
# PCOD9081253 Si02
#       8
#     2   2   2   2   2   2   2   2
#     4  10  22  36  60  89 116 153 195 241 301 343
#     4  10  19  31  52  92 120 152 188 238 300 352
#     4  11  19  35  54  83 120 156 194 238 294 356
#     4  10  20  33  57  92 122 151 190 243 304 351
#     4  11  24  42  61  81 116 160 201 243 293 352
#     4  11  18  32  52  83 124 147 191 238 290 344
#     4  11  18  30  53  85 125 153 185 240 298 356
#     4  10  22  37  61  92 118 154 195 245 299 349
#
# _framework density 27.811903000000001
#
# number of rings (size 3 to 8) (size 9 to 14) (size 15 to 20)
#    0.000    1.500    2.500    6.750    1.750    1.000 
#    0.000    1.250    0.000    3.000    0.000    0.000 
#    0.000    0.000    0.000    0.000    0.000    0.000 
#
# Total GULP energy -89654.565733 kJ/mol
# GULP energy per Si atom -5603.410358 kJ/mol
# Density = 2.774860 g / cm^3
# Si number density = 27.811903 Si / 1000 Ang^3
#
#
#
# Elastic Constant Matrix: (Units=GPa)
#
#
# Indices 1 2 3 4 5 6 
#
# 1 123.0347 28.9400 32.3878 -26.3464 7.5914 -8.4581
# 2 28.9400 106.7694 6.7079 -46.0779 -4.7543 -5.6968
# 3 32.3878 6.7079 72.6435 -19.0207 4.2489 -4.2455
# 4 -26.3464 -46.0779 -19.0207 46.9555 -9.4511 -2.2304
# 5 7.5914 -4.7543 4.2489 -9.4511 45.9707 -11.0898
# 6 -8.4581 -5.6968 -4.2455 -2.2304 -11.0898 72.1336
#
#
#
# Elastic Compliance Matrix: (Units=1/GPa)
#
#
# Indices 1 2 3 4 5 6 
#
# 1 0.010070 -0.001226 -0.003520 0.002931 -0.000653 0.000867
# 2 -0.001226 0.019137 0.004154 0.021340 0.006993 0.003347
# 3 -0.003520 0.004154 0.017449 0.009590 0.001733 0.001505
# 4 0.002931 0.021340 0.009590 0.050618 0.012718 0.006114
# 5 -0.000653 0.006993 0.001733 0.012718 0.026246 0.005006
# 6 0.000867 0.003347 0.001505 0.006114 0.005006 0.015276
#
#
# Mechanical properties :
#
#
# Convention : Reuss Voigt Hill
#
# Bulk Modulus (GPa) = 21.99195 48.72433 35.35814
# Shear Modulus (GPa) = 32.22899 48.63945 40.43422
#
# Velocity S-wave (km/s) = 3.40784 4.18649 3.81707
# Velocity P-wave (km/s) = 4.83829 6.39736 5.67165
#
# Compressibility (1/GPa) = 0.04547119
#
# Stress axis : x y z
#
# Youngs Moduli (GPa) = 99.30054 52.25434 57.30867
#
# Poissons Ratio (x) = 0.06409 0.20175
# Poissons Ratio (y) = 0.12179 -0.23806
# Poissons Ratio (z) = 0.34958 -0.21706
#
# Static dielectric constant tensor:
#      x y z
#    x 2.090430 -0.074410 -0.022570 
#    y -0.074410 2.289310 0.064370 
#    z -0.022570 0.064370 2.287730 
# 
# From -- ./inp_files/392242.got.cif
#   From: 2010.05.17/outbox.cif.g08.bks.cpg/sg2_197_cif.got.tgz:392242.got - 2010.06.03 11:33:40.
