data_PCOD9081537
_publ_section_title
;
Structure prediction by ZEFSAII (Michael W. Deem and Ramdas Pophale) SiO2 
 PCOD9081537
Probable space group: P -1
;
_chemical_formula_sum "Si O2"
_cell_formula_units_Z 14
_cell_length_a 8.728984
_cell_length_b 9.186553
_cell_length_c 18.902085
_cell_angle_alpha 43.826063
_cell_angle_beta 33.094521
_cell_angle_gamma 55.700774
_cell_volume 569.748483
_symmetry_space_group_name_H-M "P -1"
_symmetry_group_IT_number 2
_symmetry_cell_setting 'triclinic'
loop_
_space_group_symop_operation_xyz
x,y,z
-x,-y,-z
loop_
_atom_site_type_symbol
_atom_site_label
_atom_site_fract_x
_atom_site_fract_y
_atom_site_fract_z
Si Si1 0.100379 0.486221 0.193383
Si Si2 0.175857 0.309112 0.509668
Si Si3 0.732640 0.216008 0.324995
Si Si4 0.273555 0.940709 0.959525
Si Si5 0.048721 0.234218 0.429209
Si Si6 0.438607 0.245587 0.679437
Si Si7 0.064424 0.015948 0.789671
O O1 0.985736 0.293554 0.253409
O O2 0.216165 0.387620 0.254159
O O3 0.815772 0.608251 0.270937
O O4 0.309278 0.695199 0.018491
O O5 0.507111 0.382574 0.364495
O O6 0.053481 0.173244 0.671811
O O7 0.000000 0.500000 0.500000
O O8 0.163227 0.208795 0.471625
O O9 0.500000 0.000000 0.500000
O O10 0.872329 0.194858 0.201886
O O11 0.492329 0.107865 0.777341
O O12 0.198696 0.983712 0.055053
O O13 0.000000 0.000000 0.000000
O O14 0.753323 0.339837 0.508036
O O15 0.000000 0.000000 0.500000
O O16 0.333174 0.091974 0.708323
#
# Coordination Sequence:
#
# PCOD9081537 Si02
#       7
#     2   2   2   2   2   2   2
#     4  10  19  36  59  80 103 144 184 216 264 324
#     4  11  20  30  48  81 112 136 169 219 268 313
#     4  10  19  32  51  80 110 137 172 222 269 308
#     4   8  18  36  59  79 100 139 189 225 256 314
#     4  12  22  33  54  84 111 140 176 220 269 319
#     4  10  20  39  59  78 103 144 188 221 258 322
#     4   9  17  34  54  72 103 140 173 219 263 306
#
# _framework density 24.572246
#
# number of rings (size 3 to 8) (size 9 to 14) (size 15 to 20)
#    0.000    2.286    0.000    7.286    0.000    1.143 
#    0.000    7.857    0.000    6.857    0.000    2.000 
#    0.000    0.000    0.000    0.000    0.000    0.000 
#
# Total GULP energy -77984.024054 kJ/mol
# GULP energy per Si atom -5570.287432 kJ/mol
# Density = 2.451632 g / cm^3
# Si number density = 24.572246 Si / 1000 Ang^3
#
#
#
# Elastic Constant Matrix: (Units=GPa)
#
#
# Indices 1 2 3 4 5 6 
#
# 1 103.4946 18.0009 49.4686 -1.5270 41.7190 11.2103
# 2 18.0009 74.9108 27.0861 -3.9843 22.8099 16.2427
# 3 49.4686 27.0861 109.5507 -13.8382 45.2482 9.8960
# 4 -1.5270 -3.9843 -13.8382 35.4993 -5.6134 9.1915
# 5 41.7190 22.8099 45.2482 -5.6134 48.5001 5.6984
# 6 11.2103 16.2427 9.8960 9.1915 5.6984 39.2114
#
#
#
# Elastic Compliance Matrix: (Units=1/GPa)
#
#
# Indices 1 2 3 4 5 6 
#
# 1 0.015493 0.001066 -0.002547 -0.001421 -0.011352 -0.002245
# 2 0.001066 0.017145 -0.000908 0.002221 -0.007093 -0.006667
# 3 -0.002547 -0.000908 0.016115 0.004868 -0.011568 -0.002423
# 4 -0.001421 0.002221 0.004868 0.032805 0.000550 -0.009512
# 5 -0.011352 -0.007093 -0.011568 0.000550 0.044277 0.002540
# 6 -0.002245 -0.006667 -0.002423 -0.009512 0.002540 0.031379
#
#
# Mechanical properties :
#
#
# Convention : Reuss Voigt Hill
#
# Bulk Modulus (GPa) = 22.74076 53.00749 37.87412
# Shear Modulus (GPa) = 28.30459 37.53553 32.92006
#
# Velocity S-wave (km/s) = 3.39764 3.91264 3.66420
# Velocity P-wave (km/s) = 4.96655 6.48310 5.77483
#
# Compressibility (1/GPa) = 0.04397391
#
# Stress axis : x y z
#
# Youngs Moduli (GPa) = 64.54605 58.32639 62.05514
#
# Poissons Ratio (x) = -0.06218 0.15807
# Poissons Ratio (y) = -0.06881 0.05635
# Poissons Ratio (z) = 0.16442 0.05296
#
# Static dielectric constant tensor:
#      x y z
#    x 1.976880 0.002780 -0.030630 
#    y 0.002780 2.188430 -0.004030 
#    z -0.030630 -0.004030 2.093160 
# 
# From -- ./inp_files/555865.got.cif
#   From: 2010.05.17/outbox.cif.g08.bks.cpg/sg2_278_cif.got.tgz:555865.got - 2010.06.03 11:33:40.
