data_PCOD9081880
_publ_section_title
;
Structure prediction by ZEFSAII (Michael W. Deem and Ramdas Pophale) SiO2 
 PCOD9081880
Probable space group: P -1
;
_chemical_formula_sum "Si O2"
_cell_formula_units_Z 16
_cell_length_a 7.861189
_cell_length_b 11.496274
_cell_length_c 18.139710
_cell_angle_alpha 131.470670
_cell_angle_beta 57.319014
_cell_angle_gamma 83.793896
_cell_volume 697.231601
_symmetry_space_group_name_H-M "P -1"
_symmetry_group_IT_number 2
_symmetry_cell_setting 'triclinic'
loop_
_space_group_symop_operation_xyz
x,y,z
-x,-y,-z
loop_
_atom_site_type_symbol
_atom_site_label
_atom_site_fract_x
_atom_site_fract_y
_atom_site_fract_z
Si Si1 0.610190 0.152637 0.607999
Si Si2 0.074917 0.610618 0.877201
Si Si3 0.102101 0.677602 0.341226
Si Si4 0.907483 0.933791 0.710131
Si Si5 0.431308 0.988007 0.928625
Si Si6 0.739528 0.293430 0.989706
Si Si7 0.180686 0.504151 0.401987
Si Si8 0.397408 0.311751 0.883376
O O1 0.774802 0.224382 0.616869
O O2 0.437913 0.217014 0.752645
O O3 0.361917 0.337482 0.683751
O O4 0.841455 0.880636 0.432648
O O5 0.834024 0.649349 0.996745
O O6 0.172537 0.690759 0.944692
O O7 0.902489 0.777864 0.918668
O O8 0.019838 0.625923 0.411447
O O9 0.391984 0.433899 0.134175
O O10 0.665953 0.952385 0.809269
O O11 0.182228 0.673613 0.509461
O O12 0.957216 0.038332 0.802138
O O13 0.723328 0.119132 0.764499
O O14 0.516955 0.760030 0.797953
O O15 0.500000 0.000000 0.000000
O O16 0.718972 0.449581 0.004313
O O17 0.000000 0.500000 0.500000
#
# Coordination Sequence:
#
# PCOD9081880 Si02
#       8
#     2   2   2   2   2   2   2   2
#     4   9  16  30  55  85 114 148 180 237 293 340
#     4   9  19  34  57  88 117 149 194 237 296 339
#     4   9  17  31  53  84 115 145 191 228 287 338
#     4  10  19  33  55  84 110 145 199 237 274 343
#     4  10  21  38  59  79 107 153 202 241 280 345
#     4  10  19  32  56  91 117 150 186 233 294 344
#     4  10  20  35  56  82 110 154 199 236 278 331
#     4   9  16  31  54  84 117 150 187 230 287 351
#
# _framework density 22.947899
#
# number of rings (size 3 to 8) (size 9 to 14) (size 15 to 20)
#    0.000    2.750    1.250    2.625    0.000    0.000 
#    0.000    6.250    0.000   15.750    0.000    0.875 
#    0.000    0.000    0.000    0.000    0.000    0.000 
#
# Total GULP energy -89272.008767 kJ/mol
# GULP energy per Si atom -5579.500548 kJ/mol
# Density = 2.289567 g / cm^3
# Si number density = 22.947899 Si / 1000 Ang^3
#
#
#
# Elastic Constant Matrix: (Units=GPa)
#
#
# Indices 1 2 3 4 5 6 
#
# 1 56.5405 32.1628 38.6366 21.4266 6.9913 -18.1687
# 2 32.1628 118.1994 52.3960 23.5072 -5.9613 -18.9574
# 3 38.6366 52.3960 95.3076 22.9182 12.2750 -9.5952
# 4 21.4266 23.5072 22.9182 31.8356 4.1071 -12.9266
# 5 6.9913 -5.9613 12.2750 4.1071 29.6138 6.9853
# 6 -18.1687 -18.9574 -9.5952 -12.9266 6.9853 37.2638
#
#
#
# Elastic Compliance Matrix: (Units=1/GPa)
#
#
# Indices 1 2 3 4 5 6 
#
# 1 0.031649 -0.001975 -0.007709 -0.009372 -0.005798 0.010277
# 2 -0.001975 0.012986 -0.005934 -0.004062 0.005718 0.001635
# 3 -0.007709 -0.005934 0.018321 -0.003774 -0.005912 -0.002261
# 4 -0.009372 -0.004062 -0.003774 0.048442 -0.006203 0.010359
# 5 -0.005798 0.005718 -0.005912 -0.006203 0.042317 -0.011525
# 6 0.010277 0.001635 -0.002261 0.010359 -0.011525 0.037850
#
#
# Mechanical properties :
#
#
# Convention : Reuss Voigt Hill
#
# Bulk Modulus (GPa) = 31.52537 57.38204 44.45370
# Shear Modulus (GPa) = 21.42476 29.53278 25.47877
#
# Velocity S-wave (km/s) = 3.05884 3.59130 3.33571
# Velocity P-wave (km/s) = 5.12279 6.50048 5.85232
#
# Compressibility (1/GPa) = 0.03172049
#
# Stress axis : x y z
#
# Youngs Moduli (GPa) = 31.59675 77.00332 54.58144
#
# Poissons Ratio (x) = 0.15205 0.42079
# Poissons Ratio (y) = 0.06239 0.32388
# Poissons Ratio (z) = 0.24359 0.45693
#
# Static dielectric constant tensor:
#      x y z
#    x 1.886310 0.001270 -0.016060 
#    y 0.001270 1.900110 0.004520 
#    z -0.016060 0.004520 1.915400 
# 
# From -- ./inp_files/559920.got.cif
#   From: 2010.05.17/outbox.cif.g08.bks.cpg/sg2_280_cif.got.tgz:559920.got - 2010.06.03 11:33:40.
