data_PCOD9081447
_publ_section_title
;
Structure prediction by ZEFSAII (Michael W. Deem and Ramdas Pophale) SiO2 
 PCOD9081447
Probable space group: P -1
;
_chemical_formula_sum "Si O2"
_cell_formula_units_Z 16
_cell_length_a 12.015456
_cell_length_b 11.271589
_cell_length_c 11.975920
_cell_angle_alpha 56.720958
_cell_angle_beta 76.431934
_cell_angle_gamma 122.146849
_cell_volume 767.229954
_symmetry_space_group_name_H-M "P -1"
_symmetry_group_IT_number 2
_symmetry_cell_setting 'triclinic'
loop_
_space_group_symop_operation_xyz
x,y,z
-x,-y,-z
loop_
_atom_site_type_symbol
_atom_site_label
_atom_site_fract_x
_atom_site_fract_y
_atom_site_fract_z
Si Si1 0.086572 0.770948 0.298272
Si Si2 0.469588 0.777612 0.021672
Si Si3 0.820775 0.812508 0.981969
Si Si4 0.152072 0.952276 0.546940
Si Si5 0.728518 0.672388 0.823919
Si Si6 0.061767 0.489863 0.306678
Si Si7 0.487741 0.368423 0.698961
Si Si8 0.770586 0.896262 0.304056
O O1 0.023181 0.610602 0.292235
O O2 0.954939 0.613432 0.519135
O O3 0.099658 0.946838 0.171907
O O4 0.309038 0.945420 0.190539
O O5 0.421310 0.596100 0.046924
O O6 0.283422 0.694374 0.102501
O O7 0.475118 0.712941 0.176419
O O8 0.721779 0.682310 0.953004
O O9 0.661036 0.664265 0.193905
O O10 0.008897 0.899642 0.901314
O O11 0.941126 0.817618 0.675319
O O12 0.097993 0.746352 0.612873
O O13 0.272934 0.180919 0.319924
O O14 0.230052 0.026150 0.616761
O O15 0.683477 0.651355 0.477006
O O16 0.376668 0.194834 0.707619
#
# Coordination Sequence:
#
# PCOD9081447 Si02
#       8
#     2   2   2   2   2   2   2   2
#     4  10  20  29  48  73  94 129 157 185 243 284
#     4  10  19  32  48  71 100 121 155 200 232 285
#     4  10  19  32  48  71 100 121 155 200 232 285
#     4   9  16  29  50  68  97 126 152 194 239 284
#     4   9  16  28  49  74  94 124 148 191 260 278
#     4  10  19  33  47  70  99 125 157 193 236 279
#     4  10  20  29  48  73  94 129 157 185 243 284
#     4  10  19  33  47  70  99 125 157 193 236 279
#
# _framework density 20.854240999999998
#
# number of rings (size 3 to 8) (size 9 to 14) (size 15 to 20)
#    0.000    2.250    2.500    1.500    0.000    3.000 
#    0.000    0.000    0.000    3.000    0.000   17.500 
#    0.000    0.000    0.000    0.000    0.000    0.000 
#
# Total GULP energy -89290.618503 kJ/mol
# GULP energy per Si atom -5580.663656 kJ/mol
# Density = 2.080678 g / cm^3
# Si number density = 20.854241 Si / 1000 Ang^3
#
#
#
# Elastic Constant Matrix: (Units=GPa)
#
#
# Indices 1 2 3 4 5 6 
#
# 1 9.6548 17.9527 -1.3833 -2.7334 -2.2095 0.4965
# 2 17.9527 151.0390 -0.0453 -14.5668 5.1203 -3.1775
# 3 -1.3833 -0.0453 66.5076 -4.8637 -22.4947 -0.1592
# 4 -2.7334 -14.5668 -4.8637 12.9099 1.7702 4.9890
# 5 -2.2095 5.1203 -22.4947 1.7702 23.5308 0.1442
# 6 0.4965 -3.1775 -0.1592 4.9890 0.1442 11.5398
#
#
#
# Elastic Compliance Matrix: (Units=1/GPa)
#
#
# Indices 1 2 3 4 5 6 
#
# 1 0.152926 -0.017530 0.015328 0.022284 0.031280 -0.021221
# 2 -0.017530 0.009603 -0.001896 0.007096 -0.006084 0.000380
# 3 0.015328 -0.001896 0.024234 0.008809 0.024386 -0.004960
# 4 0.022284 0.007096 0.008809 0.111605 0.000862 -0.047144
# 5 0.031280 -0.006084 0.024386 0.000862 0.070030 -0.003932
# 6 -0.021221 0.000380 -0.004960 -0.047144 -0.003932 0.108037
#
#
# Mechanical properties :
#
#
# Convention : Reuss Voigt Hill
#
# Bulk Modulus (GPa) = 5.60019 28.91661 17.25840
# Shear Modulus (GPa) = 9.18858 23.64126 16.41492
#
# Velocity S-wave (km/s) = 2.10135 3.37061 2.80862
# Velocity P-wave (km/s) = 2.92895 5.38927 4.33722
#
# Compressibility (1/GPa) = 0.17856550
#
# Stress axis : x y z
#
# Youngs Moduli (GPa) = 6.53910 104.13900 41.26464
#
# Poissons Ratio (x) = 1.82556 -0.63249
# Poissons Ratio (y) = 0.11463 0.07824
# Poissons Ratio (z) = -0.10023 0.19746
#
# Static dielectric constant tensor:
#      x y z
#    x 1.739520 -0.001600 -0.043600 
#    y -0.001600 1.773020 -0.001750 
#    z -0.043600 -0.001750 1.768440 
# 
# From -- ./inp_files/249502.got.cif
#   From: 2010.05.17/outbox.cif.g08.bks.cpg/sg2_125_cif.got.tgz:249502.got - 2010.06.03 11:33:40.
