data_PCOD9081985
_publ_section_title
;
Structure prediction by ZEFSAII (Michael W. Deem and Ramdas Pophale) SiO2 
 PCOD9081985
Probable space group: P -1
;
_chemical_formula_sum "Si O2"
_cell_formula_units_Z 12
_cell_length_a 9.030187
_cell_length_b 12.010387
_cell_length_c 6.137882
_cell_angle_alpha 119.238737
_cell_angle_beta 51.895900
_cell_angle_gamma 112.625678
_cell_volume 453.710804
_symmetry_space_group_name_H-M "P -1"
_symmetry_group_IT_number 2
_symmetry_cell_setting 'triclinic'
loop_
_space_group_symop_operation_xyz
x,y,z
-x,-y,-z
loop_
_atom_site_type_symbol
_atom_site_label
_atom_site_fract_x
_atom_site_fract_y
_atom_site_fract_z
Si Si1 0.528664 0.693760 0.937062
Si Si2 0.814189 0.166812 0.502616
Si Si3 0.175919 0.146076 0.455155
Si Si4 0.172163 0.890555 0.016753
Si Si5 0.726122 0.552741 0.946927
Si Si6 0.134696 0.625003 0.689079
O O1 0.385253 0.800420 0.196247
O O2 0.402189 0.554880 0.901259
O O3 0.674407 0.739168 0.655115
O O4 0.629544 0.674355 0.063927
O O5 0.897139 0.299323 0.433943
O O6 0.987293 0.142638 0.472648
O O7 0.780525 0.071276 0.238176
O O8 0.058818 0.138730 0.778920
O O9 0.251939 0.010081 0.207057
O O10 0.234305 0.746239 0.851258
O O11 0.763315 0.488099 0.612450
O O12 0.924926 0.578401 0.915758
#
# Coordination Sequence:
#
# PCOD9081985 Si02
#       6
#     2   2   2   2   2   2
#     4  10  19  32  59  84 107 145 185 221 277 321
#     4   9  19  36  56  82 106 147 180 218 276 324
#     4  11  20  38  58  81 113 143 182 232 268 326
#     4   9  21  37  57  81 112 146 181 226 279 316
#     4   9  16  32  58  81 111 143 179 229 265 325
#     4   8  16  34  57  77 108 148 176 217 278 318
#
# _framework density 26.448564000000001
#
# number of rings (size 3 to 8) (size 9 to 14) (size 15 to 20)
#    1.000    1.667    1.667    0.500    0.000    0.667 
#    0.000    8.333    0.000    0.000    0.000    0.000 
#    0.000    0.000    0.000    0.000    0.000    0.000 
#
# Total GULP energy -66802.259440 kJ/mol
# GULP energy per Si atom -5566.854953 kJ/mol
# Density = 2.638837 g / cm^3
# Si number density = 26.448564 Si / 1000 Ang^3
#
#
#
# Elastic Constant Matrix: (Units=GPa)
#
#
# Indices 1 2 3 4 5 6 
#
# 1 38.1125 10.5171 22.9475 6.6340 -5.4248 -10.3250
# 2 10.5171 105.4551 24.3763 -18.3144 -11.6691 10.8446
# 3 22.9475 24.3763 102.1845 1.5905 -4.5373 -6.0249
# 4 6.6340 -18.3144 1.5905 49.9424 12.1446 -2.1018
# 5 -5.4248 -11.6691 -4.5373 12.1446 24.9325 2.4290
# 6 -10.3250 10.8446 -6.0249 -2.1018 2.4290 26.7360
#
#
#
# Elastic Compliance Matrix: (Units=1/GPa)
#
#
# Indices 1 2 3 4 5 6 
#
# 1 0.037009 -0.004138 -0.006095 -0.007463 0.007342 0.013343
# 2 -0.004138 0.012202 -0.002321 0.004048 0.003101 -0.007034
# 3 -0.006095 -0.002321 0.011776 -0.000306 -0.000241 0.001239
# 4 -0.007463 0.004048 -0.000306 0.025361 -0.011991 -0.001510
# 5 0.007342 0.003101 -0.000241 -0.011991 0.049334 -0.003902
# 6 0.013343 -0.007034 0.001239 -0.001510 -0.003902 0.045924
#
#
# Mechanical properties :
#
#
# Convention : Reuss Voigt Hill
#
# Bulk Modulus (GPa) = 27.87278 40.15933 34.01605
# Shear Modulus (GPa) = 22.86520 32.84959 27.85740
#
# Velocity S-wave (km/s) = 2.94345 3.52805 3.24893
# Velocity P-wave (km/s) = 4.70247 5.64031 5.19261
#
# Compressibility (1/GPa) = 0.03587730
#
# Stress axis : x y z
#
# Youngs Moduli (GPa) = 27.02069 81.95712 84.91932
#
# Poissons Ratio (x) = 0.33913 0.51759
# Poissons Ratio (y) = 0.11181 0.19714
# Poissons Ratio (z) = 0.16469 0.19026
#
# Static dielectric constant tensor:
#      x y z
#    x 2.154060 -0.008350 0.065390 
#    y -0.008350 2.098390 0.043680 
#    z 0.065390 0.043680 2.249330 
# 
# From -- ./inp_files/259754.got.cif
#   From: 2010.05.17/outbox.cif.g08.bks.cpg/sg2_130_cif.got.tgz:259754.got - 2010.06.03 11:33:40.
