data_PCOD9081841
_publ_section_title
;
Structure prediction by ZEFSAII (Michael W. Deem and Ramdas Pophale) SiO2 
 PCOD9081841
Probable space group: P -1
;
_chemical_formula_sum "Si O2"
_cell_formula_units_Z 14
_cell_length_a 26.341446
_cell_length_b 8.679652
_cell_length_c 26.597659
_cell_angle_alpha 30.129165
_cell_angle_beta 168.846978
_cell_angle_gamma 150.539385
_cell_volume 574.888268
_symmetry_space_group_name_H-M "P -1"
_symmetry_group_IT_number 2
_symmetry_cell_setting 'triclinic'
loop_
_space_group_symop_operation_xyz
x,y,z
-x,-y,-z
loop_
_atom_site_type_symbol
_atom_site_label
_atom_site_fract_x
_atom_site_fract_y
_atom_site_fract_z
Si Si1 0.114865 0.895872 0.943267
Si Si2 0.204564 0.413091 0.762803
Si Si3 0.572267 0.825736 0.071628
Si Si4 0.316621 0.711847 0.606302
Si Si5 0.432401 0.644209 0.621885
Si Si6 0.300588 0.680719 0.286250
Si Si7 0.134218 0.746377 0.854051
O O1 0.922145 0.570549 0.828737
O O2 0.134305 0.830495 0.040713
O O3 0.944989 0.156287 0.695572
O O4 0.430396 0.017303 0.203984
O O5 0.000000 0.500000 0.500000
O O6 0.127154 0.037277 0.802669
O O7 0.500000 0.500000 0.000000
O O8 0.283786 0.651501 0.817883
O O9 0.711403 0.556088 0.303893
O O10 0.754704 0.061042 0.143478
O O11 0.500000 0.000000 0.000000
O O12 0.400602 0.603210 0.663650
O O13 0.152131 0.479372 0.371012
O O14 0.525816 0.021678 0.599443
O O15 0.653195 0.461727 0.868583
O O16 0.500000 0.500000 0.500000
#
# Coordination Sequence:
#
# PCOD9081841 Si02
#       7
#     2   2   2   2   2   2   2
#     4  10  20  34  50  81 121 156 185 248 306 360
#     4  10  23  44  60  82 117 168 210 245 291 354
#     4  11  24  40  63  92 122 166 202 248 304 356
#     4  11  22  34  53  85 125 147 200 242 306 347
#     4  11  21  34  57  88 117 155 197 249 293 357
#     4  10  19  32  56  80 121 156 192 242 318 350
#     4  11  23  39  58  83 126 157 202 240 291 355
#
# _framework density 24.352558999999999
#
# number of rings (size 3 to 8) (size 9 to 14) (size 15 to 20)
#    0.000    1.429    4.286    3.429    2.000    4.000 
#    0.000    0.000    0.000    0.000    0.000    6.000 
#    0.000    0.000    0.000    0.000    0.000    0.000 
#
# Total GULP energy -78311.066354 kJ/mol
# GULP energy per Si atom -5593.647597 kJ/mol
# Density = 2.429713 g / cm^3
# Si number density = 24.352559 Si / 1000 Ang^3
#
#
#
# Elastic Constant Matrix: (Units=GPa)
#
#
# Indices 1 2 3 4 5 6 
#
# 1 39.2833 19.3701 16.6182 4.6313 -2.2675 -18.5496
# 2 19.3701 165.1527 65.0916 26.4036 6.1278 -20.2280
# 3 16.6182 65.0916 196.0855 14.7785 -7.4615 -4.7732
# 4 4.6313 26.4036 14.7785 50.9912 5.5995 -9.3726
# 5 -2.2675 6.1278 -7.4615 5.5995 24.2095 5.7072
# 6 -18.5496 -20.2280 -4.7732 -9.3726 5.7072 45.7898
#
#
#
# Elastic Compliance Matrix: (Units=1/GPa)
#
#
# Indices 1 2 3 4 5 6 
#
# 1 0.032965 -0.001645 -0.002010 0.000789 -0.000272 0.012613
# 2 -0.001645 0.007999 -0.002376 -0.002532 -0.002906 0.002463
# 3 -0.002010 -0.002376 0.006208 -0.001047 0.002994 -0.001804
# 4 0.000789 -0.002532 -0.001047 0.022620 -0.005890 0.004456
# 5 -0.000272 -0.002906 0.002994 -0.005890 0.046198 -0.008045
# 6 0.012613 0.002463 -0.001804 0.004456 -0.008045 0.029764
#
#
# Mechanical properties :
#
#
# Convention : Reuss Voigt Hill
#
# Bulk Modulus (GPa) = 28.48261 66.96458 47.72360
# Shear Modulus (GPa) = 29.49547 44.16087 36.82817
#
# Velocity S-wave (km/s) = 3.48398 4.26302 3.89304
# Velocity P-wave (km/s) = 5.28257 7.19644 6.31246
#
# Compressibility (1/GPa) = 0.03510914
#
# Stress axis : x y z
#
# Youngs Moduli (GPa) = 30.33518 125.02313 161.09131
#
# Poissons Ratio (x) = 0.20568 0.32386
# Poissons Ratio (y) = 0.04990 0.38267
# Poissons Ratio (z) = 0.06099 0.29699
#
# Static dielectric constant tensor:
#      x y z
#    x 2.104980 -0.007930 0.076130 
#    y -0.007930 1.904530 -0.060250 
#    z 0.076130 -0.060250 1.916680 
# 
# From -- ./inp_files/624350.got.cif
#   From: 2010.05.17/outbox.cif.g08.bks.cpg/sg2_313_cif.got.tgz:624350.got - 2010.06.03 11:33:40.
