data_PCOD9081771
_publ_section_title
;
Structure prediction by ZEFSAII (Michael W. Deem and Ramdas Pophale) SiO2 
 PCOD9081771
Probable space group: P -1
;
_chemical_formula_sum "Si O2"
_cell_formula_units_Z 16
_cell_length_a 16.879248
_cell_length_b 12.069362
_cell_length_c 11.088208
_cell_angle_alpha 123.675181
_cell_angle_beta 30.584191
_cell_angle_gamma 134.781955
_cell_volume 807.316212
_symmetry_space_group_name_H-M "P -1"
_symmetry_group_IT_number 2
_symmetry_cell_setting 'triclinic'
loop_
_space_group_symop_operation_xyz
x,y,z
-x,-y,-z
loop_
_atom_site_type_symbol
_atom_site_label
_atom_site_fract_x
_atom_site_fract_y
_atom_site_fract_z
Si Si1 0.097922 0.188340 0.073387
Si Si2 0.999748 0.546457 0.233362
Si Si3 0.500817 0.736258 0.392761
Si Si4 0.188318 0.757436 0.882144
Si Si5 0.026878 0.118283 0.850435
Si Si6 0.368869 0.570629 0.230435
Si Si7 0.598617 0.577511 0.542973
Si Si8 0.258961 0.547620 0.101988
O O1 0.289688 0.195797 0.808496
O O2 0.016584 0.157946 0.028025
O O3 0.152469 0.358611 0.148415
O O4 0.980389 0.044258 0.230746
O O5 0.134713 0.568244 0.180229
O O6 0.917064 0.380102 0.167042
O O7 0.826673 0.545611 0.516964
O O8 0.109691 0.675977 0.064692
O O9 0.401865 0.818606 0.625441
O O10 0.477099 0.714786 0.267935
O O11 0.387905 0.557635 0.488515
O O12 0.141514 0.888537 0.999459
O O13 0.209757 0.263591 0.639450
O O14 0.311119 0.616555 0.209666
O O15 0.500000 0.500000 0.000000
O O16 0.500000 0.500000 0.500000
O O17 0.454676 0.601521 0.818130
#
# Coordination Sequence:
#
# PCOD9081771 Si02
#       8
#     2   2   2   2   2   2   2   2
#     4  10  21  33  52  78 116 143 173 211 276 327
#     4  10  20  33  53  85 109 138 174 227 273 311
#     4  10  20  35  55  81 109 142 178 225 266 316
#     4  10  19  32  55  80 113 135 175 225 273 313
#     4  11  20  33  51  83 111 144 172 215 273 329
#     4  11  20  33  54  82 109 141 182 222 265 312
#     4  11  17  30  55  78 105 139 178 218 266 310
#     4  11  20  35  56  78 110 144 181 221 262 317
#
# _framework density 19.818752
#
# number of rings (size 3 to 8) (size 9 to 14) (size 15 to 20)
#    0.000    1.500    6.250    3.375    0.000    0.500 
#    0.000    0.000    0.000    6.750    0.000    2.625 
#    0.000    0.000    0.000    0.000    0.000    0.000 
#
# Total GULP energy -89250.375739 kJ/mol
# GULP energy per Si atom -5578.148484 kJ/mol
# Density = 1.977364 g / cm^3
# Si number density = 19.818752 Si / 1000 Ang^3
#
#
#
# Elastic Constant Matrix: (Units=GPa)
#
#
# Indices 1 2 3 4 5 6 
#
# 1 133.5005 13.2273 27.8967 3.6801 1.0992 -17.2033
# 2 13.2273 53.0083 8.2217 -14.9773 -0.9555 -13.0785
# 3 27.8967 8.2217 80.7474 3.5865 1.8803 -1.0973
# 4 3.6801 -14.9773 3.5865 15.7533 -3.2467 -0.2793
# 5 1.0992 -0.9555 1.8803 -3.2467 31.1670 3.1697
# 6 -17.2033 -13.0785 -1.0973 -0.2793 3.1697 9.8594
#
#
#
# Elastic Compliance Matrix: (Units=1/GPa)
#
#
# Indices 1 2 3 4 5 6 
#
# 1 0.011281 0.005629 -0.004203 0.003669 -0.002392 0.027556
# 2 0.005629 0.054392 -0.008723 0.053680 -0.000833 0.082791
# 3 -0.004203 -0.008723 0.014991 -0.011118 -0.000410 -0.017419
# 4 0.003669 0.053680 -0.011118 0.118943 0.006686 0.077592
# 5 -0.002392 -0.000833 -0.000410 0.006686 0.034516 -0.016231
# 6 0.027556 0.082791 -0.017419 0.077592 -0.016231 0.264806
#
#
# Mechanical properties :
#
#
# Convention : Reuss Voigt Hill
#
# Bulk Modulus (GPa) = 15.13539 40.66082 27.89811
# Shear Modulus (GPa) = 9.33628 25.88329 17.60979
#
# Velocity S-wave (km/s) = 2.17280 3.61778 2.98408
# Velocity P-wave (km/s) = 3.73473 6.16539 5.09707
#
# Compressibility (1/GPa) = 0.06607032
#
# Stress axis : x y z
#
# Youngs Moduli (GPa) = 88.64772 18.38514 66.70574
#
# Poissons Ratio (x) = -0.10350 0.28038
# Poissons Ratio (y) = -0.49903 0.58186
# Poissons Ratio (z) = 0.37261 0.16037
#
# Static dielectric constant tensor:
#      x y z
#    x 1.741130 -0.015500 -0.016950 
#    y -0.015500 1.744480 -0.028840 
#    z -0.016950 -0.028840 1.757240 
# 
# From -- ./inp_files/253025.got.cif
#   From: 2010.05.17/outbox.cif.g08.bks.cpg/sg2_127_cif.got.tgz:253025.got - 2010.06.03 11:33:40.
