data_PCOD9081629
_publ_section_title
;
Structure prediction by ZEFSAII (Michael W. Deem and Ramdas Pophale) SiO2 
 PCOD9081629
Probable space group: P -1
;
_chemical_formula_sum "Si O2"
_cell_formula_units_Z 16
_cell_length_a 13.680695
_cell_length_b 14.541534
_cell_length_c 7.015074
_cell_angle_alpha 108.634926
_cell_angle_beta 101.278096
_cell_angle_gamma 138.008725
_cell_volume 646.100749
_symmetry_space_group_name_H-M "P -1"
_symmetry_group_IT_number 2
_symmetry_cell_setting 'triclinic'
loop_
_space_group_symop_operation_xyz
x,y,z
-x,-y,-z
loop_
_atom_site_type_symbol
_atom_site_label
_atom_site_fract_x
_atom_site_fract_y
_atom_site_fract_z
Si Si1 0.641045 0.679251 0.315090
Si Si2 0.514657 0.394423 0.251431
Si Si3 0.645724 0.078045 0.833291
Si Si4 0.077525 0.333310 0.498959
Si Si5 0.740646 0.162155 0.377752
Si Si6 0.528035 0.276948 0.562554
Si Si7 0.916664 0.521612 0.765032
Si Si8 0.947884 0.012251 0.183191
O O1 0.591975 0.570610 0.410211
O O2 0.573716 0.732928 0.341922
O O3 0.878707 0.871526 0.526347
O O4 0.719791 0.803422 0.023229
O O5 0.691865 0.496507 0.254940
O O6 0.500000 0.500000 0.000000
O O7 0.467358 0.006092 0.698267
O O8 0.586829 0.921026 0.639154
O O9 0.679155 0.097416 0.088666
O O10 0.853416 0.286802 0.958635
O O11 0.086779 0.422127 0.397593
O O12 0.916112 0.232769 0.525667
O O13 0.981535 0.154881 0.257278
O O14 0.836960 0.348655 0.568721
O O15 0.759140 0.441959 0.789709
O O16 0.523047 0.334438 0.401962
O O17 0.000000 0.000000 0.000000
#
# Coordination Sequence:
#
# PCOD9081629 Si02
#       8
#     2   2   2   2   2   2   2   2
#     4  11  25  39  53  79 114 146 183 233 280 323
#     4  10  20  35  56  77 104 142 188 228 266 326
#     4   9  16  26  44  73 110 142 174 217 267 331
#     4   9  18  28  46  77 109 140 173 223 272 318
#     4   9  16  26  41  73 117 142 166 216 284 320
#     4  10  19  32  53  78 104 145 184 222 271 319
#     4   9  17  26  45  75 108 145 172 216 279 323
#     4  11  22  34  57  81 102 144 193 226 267 326
#
# _framework density 24.763938
#
# number of rings (size 3 to 8) (size 9 to 14) (size 15 to 20)
#    0.000    2.250    1.250    3.375    3.500    3.500 
#    0.000    0.000    0.000    0.000    0.000   14.000 
#    0.000   84.000    0.000    1.375    0.000    0.000 
#
# Total GULP energy -89360.197029 kJ/mol
# GULP energy per Si atom -5585.012314 kJ/mol
# Density = 2.470757 g / cm^3
# Si number density = 24.763938 Si / 1000 Ang^3
#
#
#
# Elastic Constant Matrix: (Units=GPa)
#
#
# Indices 1 2 3 4 5 6 
#
# 1 189.2811 31.7733 80.8503 22.5027 20.5129 19.2263
# 2 31.7733 66.6264 45.8963 16.6247 0.2871 5.0023
# 3 80.8503 45.8963 152.0939 38.8322 32.5890 16.9677
# 4 22.5027 16.6247 38.8322 39.0367 12.4917 12.0615
# 5 20.5129 0.2871 32.5890 12.4917 45.6732 19.9951
# 6 19.2263 5.0023 16.9677 12.0615 19.9951 34.0754
#
#
#
# Elastic Compliance Matrix: (Units=1/GPa)
#
#
# Indices 1 2 3 4 5 6 
#
# 1 0.007045 -0.000993 -0.003295 0.000331 0.000151 -0.002394
# 2 -0.000993 0.020593 -0.005868 -0.003806 0.006397 -0.001947
# 3 -0.003295 -0.005868 0.013175 -0.007327 -0.007178 0.002966
# 4 0.000331 -0.003806 -0.007327 0.037385 -0.001465 -0.008353
# 5 0.000151 0.006397 -0.007178 -0.001465 0.034942 -0.017435
# 6 -0.002394 -0.001947 0.002966 -0.008353 -0.017435 0.042694
#
#
# Mechanical properties :
#
#
# Convention : Reuss Voigt Hill
#
# Bulk Modulus (GPa) = 48.77925 80.56014 64.66969
# Shear Modulus (GPa) = 27.32539 40.38916 33.85727
#
# Velocity S-wave (km/s) = 3.32540 4.04290 3.70158
# Velocity P-wave (km/s) = 5.87238 7.37532 6.66634
#
# Compressibility (1/GPa) = 0.02050052
#
# Stress axis : x y z
#
# Youngs Moduli (GPa) = 141.94968 48.55961 75.90083
#
# Poissons Ratio (x) = 0.04824 0.25008
# Poissons Ratio (y) = 0.14101 0.44539
# Poissons Ratio (z) = 0.46771 0.28495
#
# Static dielectric constant tensor:
#      x y z
#    x 1.974070 0.050690 0.066400 
#    y 0.050690 2.050320 -0.092660 
#    z 0.066400 -0.092660 2.007870 
# 
# From -- ./inp_files/435969.got.cif
#   From: 2010.05.17/outbox.cif.g08.bks.cpg/sg2_218_cif.got.tgz:435969.got - 2010.06.03 11:33:40.
