data_PCOD9081562
_publ_section_title
;
Structure prediction by ZEFSAII (Michael W. Deem and Ramdas Pophale) SiO2 
 PCOD9081562
Probable space group: P -1
;
_chemical_formula_sum "Si O2"
_cell_formula_units_Z 14
_cell_length_a 13.730314
_cell_length_b 18.513969
_cell_length_c 5.748521
_cell_angle_alpha 134.457677
_cell_angle_beta 117.390983
_cell_angle_gamma 32.197257
_cell_volume 520.877349
_symmetry_space_group_name_H-M "P -1"
_symmetry_group_IT_number 2
_symmetry_cell_setting 'triclinic'
loop_
_space_group_symop_operation_xyz
x,y,z
-x,-y,-z
loop_
_atom_site_type_symbol
_atom_site_label
_atom_site_fract_x
_atom_site_fract_y
_atom_site_fract_z
Si Si1 0.835974 0.294687 0.473978
Si Si2 0.558721 0.232504 0.341661
Si Si3 0.286526 0.621146 0.973031
Si Si4 0.420135 0.122388 0.970083
Si Si5 0.201545 0.368023 0.653965
Si Si6 0.529923 0.274269 0.910676
Si Si7 0.125938 0.244864 0.617811
O O1 0.785848 0.282260 0.139549
O O2 0.031151 0.207762 0.426143
O O3 0.849299 0.250616 0.662377
O O4 0.640262 0.512137 0.785203
O O5 0.347180 0.454765 0.624720
O O6 0.558220 0.111284 0.042497
O O7 0.639199 0.190640 0.594729
O O8 0.640757 0.204906 0.119941
O O9 0.500000 0.500000 0.000000
O O10 0.238130 0.326545 0.330405
O O11 0.326406 0.114962 0.676315
O O12 0.500000 0.000000 0.000000
O O13 0.400521 0.268307 0.749836
O O14 0.150857 0.295977 0.534337
O O15 0.040022 0.569493 0.002065
#
# Coordination Sequence:
#
# PCOD9081562 Si02
#       7
#     2   2   2   2   2   2   2
#     4   9  19  29  50  77 104 135 171 220 276 331
#     4   9  17  31  46  70 101 138 170 207 262 315
#     4  10  19  33  52  78 107 133 174 234 287 321
#     4  11  22  33  49  77 115 152 181 217 263 327
#     4   9  18  30  50  71 103 145 183 216 264 313
#     4   8  14  28  44  68  97 131 169 205 246 311
#     4  10  19  32  52  76 106 145 182 221 270 325
#
# _framework density 26.877728000000001
#
# number of rings (size 3 to 8) (size 9 to 14) (size 15 to 20)
#    0.000    2.571    1.429    1.714    4.000    0.571 
#    0.000    0.000    0.000    0.000    0.000    2.000 
#    0.000    0.000    0.000    0.000    0.000    0.000 
#
# Total GULP energy -77995.236598 kJ/mol
# GULP energy per Si atom -5571.088328 kJ/mol
# Density = 2.681655 g / cm^3
# Si number density = 26.877728 Si / 1000 Ang^3
#
#
#
# Elastic Constant Matrix: (Units=GPa)
#
#
# Indices 1 2 3 4 5 6 
#
# 1 90.6653 36.4079 36.2212 -25.5751 -4.3156 -6.7226
# 2 36.4079 69.4523 41.1429 -22.9577 -13.1433 4.0888
# 3 36.2212 41.1429 150.4835 -47.1998 -16.3872 -0.8914
# 4 -25.5751 -22.9577 -47.1998 53.7247 13.8654 -4.5392
# 5 -4.3156 -13.1433 -16.3872 13.8654 35.0103 -3.7184
# 6 -6.7226 4.0888 -0.8914 -4.5392 -3.7184 40.6773
#
#
#
# Elastic Compliance Matrix: (Units=1/GPa)
#
#
# Indices 1 2 3 4 5 6 
#
# 1 0.015548 -0.006870 -0.000576 0.004905 -0.002496 0.003567
# 2 -0.006870 0.021509 -0.003210 0.001633 0.004787 -0.002748
# 3 -0.000576 -0.003210 0.009950 0.007014 0.000741 0.001296
# 4 0.004905 0.001633 0.007014 0.029903 -0.006970 0.003500
# 5 -0.002496 0.004787 0.000741 -0.006970 0.033307 0.001389
# 6 0.003567 -0.002748 0.001296 0.003500 0.001389 0.025995
#
#
# Mechanical properties :
#
#
# Convention : Reuss Voigt Hill
#
# Bulk Modulus (GPa) = 38.91924 59.79389 49.35657
# Shear Modulus (GPa) = 30.10451 39.00440 34.55446
#
# Velocity S-wave (km/s) = 3.35035 3.81357 3.58944
# Velocity P-wave (km/s) = 5.42937 6.45647 5.96507
#
# Compressibility (1/GPa) = 0.02569423
#
# Stress axis : x y z
#
# Youngs Moduli (GPa) = 64.31800 46.49305 100.50519
#
# Poissons Ratio (x) = 0.31940 0.05792
# Poissons Ratio (y) = 0.44186 0.32259
# Poissons Ratio (z) = 0.03707 0.14923
#
# Static dielectric constant tensor:
#      x y z
#    x 2.231720 0.019680 -0.039860 
#    y 0.019680 2.197420 0.038060 
#    z -0.039860 0.038060 2.278420 
# 
# From -- ./inp_files/32534.got.cif
#   From: 2010.05.17/outbox.cif.g08.bks.cpg/sg2_17_cif.got.tgz:32534.got - 2010.06.03 11:33:40.
