data_PCOD9081988
_publ_section_title
;
Structure prediction by ZEFSAII (Michael W. Deem and Ramdas Pophale) SiO2 
 PCOD9081988
Probable space group: P -1
;
_chemical_formula_sum "Si O2"
_cell_formula_units_Z 16
_cell_length_a 13.845208
_cell_length_b 13.912656
_cell_length_c 14.528396
_cell_angle_alpha 30.516114
_cell_angle_beta 30.230438
_cell_angle_gamma 37.225740
_cell_volume 700.545268
_symmetry_space_group_name_H-M "P -1"
_symmetry_group_IT_number 2
_symmetry_cell_setting 'triclinic'
loop_
_space_group_symop_operation_xyz
x,y,z
-x,-y,-z
loop_
_atom_site_type_symbol
_atom_site_label
_atom_site_fract_x
_atom_site_fract_y
_atom_site_fract_z
Si Si1 0.116465 0.702466 0.017413
Si Si2 0.471137 0.213650 0.441483
Si Si3 0.923972 0.422424 0.031692
Si Si4 0.745598 0.043520 0.059714
Si Si5 0.786446 0.471947 0.727327
Si Si6 0.386560 0.765222 0.346853
Si Si7 0.481979 0.581675 0.592544
Si Si8 0.765237 0.937163 0.919010
O O1 0.207547 0.563592 0.139518
O O2 0.031637 0.570699 0.120266
O O3 0.948296 0.883318 0.039170
O O4 0.297152 0.793181 0.754032
O O5 0.402625 0.019262 0.690560
O O6 0.361643 0.339328 0.344476
O O7 0.407984 0.343719 0.477532
O O8 0.021615 0.195130 0.145260
O O9 0.000000 0.500000 0.000000
O O10 0.692268 0.510062 0.149162
O O11 0.705037 0.017956 0.004555
O O12 0.753937 0.266919 0.882814
O O13 0.000000 0.500000 0.500000
O O14 0.357954 0.749175 0.491887
O O15 0.386191 0.560776 0.468000
O O16 0.245362 0.912006 0.278572
O O17 0.602419 0.814746 0.125343
#
# Coordination Sequence:
#
# PCOD9081988 Si02
#       8
#     2   2   2   2   2   2   2   2
#     4  10  24  43  68  99 130 172 222 264 327 393
#     4  11  23  43  68  95 133 169 221 268 331 383
#     4  10  20  38  61  88 128 166 202 262 316 375
#     4  11  23  45  67  92 136 170 217 274 331 381
#     4  12  25  45  71  97 129 173 219 274 334 388
#     4  10  19  32  59  86 122 157 216 250 310 375
#     4  10  20  36  59  89 120 169 209 258 317 381
#     4  10  20  36  58  88 121 165 207 258 312 379
#
# _framework density 22.839352000000002
#
# number of rings (size 3 to 8) (size 9 to 14) (size 15 to 20)
#    0.000    1.500    3.750    1.500    0.000    1.000 
#    4.500    0.000    0.000    0.000    0.000    0.000 
#    0.000    0.000    0.000    0.000    0.000    0.000 
#
# Total GULP energy -89106.415570 kJ/mol
# GULP energy per Si atom -5569.150973 kJ/mol
# Density = 2.278737 g / cm^3
# Si number density = 22.839352 Si / 1000 Ang^3
#
#
#
# Elastic Constant Matrix: (Units=GPa)
#
#
# Indices 1 2 3 4 5 6 
#
# 1 116.8275 35.2677 11.3954 -15.5644 17.1367 11.4884
# 2 35.2677 40.4593 18.6602 -0.3892 0.4088 12.2152
# 3 11.3954 18.6602 86.7125 1.4911 -6.6548 11.6882
# 4 -15.5644 -0.3892 1.4911 31.3933 -3.7354 -7.1206
# 5 17.1367 0.4088 -6.6548 -3.7354 40.0156 3.1555
# 6 11.4884 12.2152 11.6882 -7.1206 3.1555 27.5180
#
#
#
# Elastic Compliance Matrix: (Units=1/GPa)
#
#
# Indices 1 2 3 4 5 6 
#
# 1 0.013790 -0.012576 0.000093 0.006516 -0.005318 0.002081
# 2 -0.012576 0.042077 -0.005049 -0.008094 0.004456 -0.013888
# 3 0.000093 -0.005049 0.013367 -0.001289 0.002437 -0.004088
# 4 0.006516 -0.008094 -0.001289 0.037543 -0.000298 0.011169
# 5 -0.005318 0.004456 0.002437 -0.000298 0.027920 -0.004072
# 6 0.002081 -0.013888 -0.004088 0.011169 -0.004072 0.046729
#
#
# Mechanical properties :
#
#
# Convention : Reuss Voigt Hill
#
# Bulk Modulus (GPa) = 29.26432 41.62734 35.44583
# Shear Modulus (GPa) = 21.94129 31.69712 26.81920
#
# Velocity S-wave (km/s) = 3.10284 3.72940 3.43046
# Velocity P-wave (km/s) = 5.06733 6.06715 5.58964
#
# Compressibility (1/GPa) = 0.03417131
#
# Stress axis : x y z
#
# Youngs Moduli (GPa) = 72.51438 23.76582 74.81210
#
# Poissons Ratio (x) = 0.29888 -0.00698
# Poissons Ratio (y) = 0.91193 0.37772
# Poissons Ratio (z) = -0.00676 0.11999
#
# Static dielectric constant tensor:
#      x y z
#    x 1.940710 0.031370 0.039600 
#    y 0.031370 1.890230 0.040820 
#    z 0.039600 0.040820 2.008370 
# 
# From -- ./inp_files/534066.got.cif
#   From: 2010.05.17/outbox.cif.g08.bks.cpg/sg2_268_cif.got.tgz:534066.got - 2010.06.03 11:33:40.
