data_PCOD9081483
_publ_section_title
;
Structure prediction by ZEFSAII (Michael W. Deem and Ramdas Pophale) SiO2 
 PCOD9081483
Probable space group: P -1
;
_chemical_formula_sum "Si O2"
_cell_formula_units_Z 16
_cell_length_a 21.917217
_cell_length_b 16.145665
_cell_length_c 11.352854
_cell_angle_alpha 134.482415
_cell_angle_beta 31.681714
_cell_angle_gamma 155.293098
_cell_volume 832.579756
_symmetry_space_group_name_H-M "P -1"
_symmetry_group_IT_number 2
_symmetry_cell_setting 'triclinic'
loop_
_space_group_symop_operation_xyz
x,y,z
-x,-y,-z
loop_
_atom_site_type_symbol
_atom_site_label
_atom_site_fract_x
_atom_site_fract_y
_atom_site_fract_z
Si Si1 0.899945 0.726954 0.413330
Si Si2 0.116962 0.485759 0.246934
Si Si3 0.143310 0.057986 0.981205
Si Si4 0.682309 0.787025 0.752904
Si Si5 0.468163 0.611962 0.166192
Si Si6 0.050472 0.870580 0.696356
Si Si7 0.527193 0.754645 0.749754
Si Si8 0.135482 0.363218 0.871582
O O1 0.772333 0.735978 0.588556
O O2 0.761454 0.554727 0.571690
O O3 0.915115 0.662187 0.206738
O O4 0.122726 0.961675 0.321233
O O5 0.073106 0.343875 0.267899
O O6 0.000000 0.500000 0.500000
O O7 0.365688 0.707558 0.033828
O O8 0.038156 0.372784 0.135774
O O9 0.956453 0.837511 0.137709
O O10 0.136632 0.006528 0.808007
O O11 0.096712 0.156633 0.152468
O O12 0.354918 0.201804 0.845197
O O13 0.574172 0.698059 0.715602
O O14 0.530588 0.702447 0.023235
O O15 0.500000 0.500000 0.000000
O O16 0.255723 0.015394 0.426010
O O17 0.382890 0.580466 0.710071
#
# Coordination Sequence:
#
# PCOD9081483 Si02
#       8
#     2   2   2   2   2   2   2   2
#     4  10  19  32  50  74 114 152 179 213 259 338
#     4   9  22  40  56  82 108 138 190 248 286 316
#     4  10  19  34  50  85 121 142 182 221 266 339
#     4  10  21  32  47  81 119 145 181 213 266 330
#     4  10  21  29  49  72 117 161 175 205 263 326
#     4  10  21  33  57  81 112 144 180 230 275 333
#     4  10  22  34  57  83 104 152 186 228 279 325
#     4   9  19  36  56  80 109 150 180 229 276 323
#
# _framework density 19.217376999999999
#
# number of rings (size 3 to 8) (size 9 to 14) (size 15 to 20)
#    0.750    1.500    1.250    1.500    7.000    2.500 
#    0.000    0.000    0.000    0.750    0.000    1.750 
#    0.000    0.000    0.000    0.000    0.000    0.000 
#
# Total GULP energy -89171.005633 kJ/mol
# GULP energy per Si atom -5573.187852 kJ/mol
# Density = 1.917364 g / cm^3
# Si number density = 19.217377 Si / 1000 Ang^3
#
#
#
# Elastic Constant Matrix: (Units=GPa)
#
#
# Indices 1 2 3 4 5 6 
#
# 1 23.3656 8.2698 16.2883 0.4470 14.9698 4.8863
# 2 8.2698 37.6223 29.3959 -4.6139 3.9488 1.7376
# 3 16.2883 29.3959 111.7617 -9.9738 23.0296 -19.5691
# 4 0.4470 -4.6139 -9.9738 29.8017 -4.8951 5.2949
# 5 14.9698 3.9488 23.0296 -4.8951 24.9815 -7.2326
# 6 4.8863 1.7376 -19.5691 5.2949 -7.2326 18.1732
#
#
#
# Elastic Compliance Matrix: (Units=1/GPa)
#
#
# Indices 1 2 3 4 5 6 
#
# 1 0.128588 -0.004835 -0.014377 -0.007326 -0.088397 -0.082639
# 2 -0.004835 0.038405 -0.012690 0.005373 0.005066 -0.015586
# 3 -0.014377 -0.012690 0.018690 0.000108 0.000792 0.025489
# 4 -0.007326 0.005373 0.000108 0.037019 0.009073 -0.005603
# 5 -0.088397 0.005066 0.000792 0.009073 0.112423 0.066235
# 6 -0.082639 -0.015586 0.025489 -0.005603 0.066235 0.134175
#
#
# Mechanical properties :
#
#
# Convention : Reuss Voigt Hill
#
# Bulk Modulus (GPa) = 8.20494 31.18418 19.69456
# Shear Modulus (GPa) = 8.71488 22.51101 15.61294
#
# Velocity S-wave (km/s) = 2.13184 3.42627 2.85342
# Velocity P-wave (km/s) = 3.21535 5.64931 4.59637
#
# Compressibility (1/GPa) = 0.12187782
#
# Stress axis : x y z
#
# Youngs Moduli (GPa) = 7.77678 26.03810 53.50397
#
# Poissons Ratio (x) = 0.12590 0.76924
# Poissons Ratio (y) = 0.03760 0.67898
# Poissons Ratio (z) = 0.11181 0.33043
#
# Static dielectric constant tensor:
#      x y z
#    x 1.699260 0.025850 0.029380 
#    y 0.025850 1.668200 -0.029150 
#    z 0.029380 -0.029150 1.707600 
# 
# From -- ./inp_files/471938.got.cif
#   From: 2010.05.17/outbox.cif.g08.bks.cpg/sg2_236_cif.got.tgz:471938.got - 2010.06.03 11:33:40.
