data_PCOD9081943
_publ_section_title
;
Structure prediction by ZEFSAII (Michael W. Deem and Ramdas Pophale) SiO2 
 PCOD9081943
Probable space group: P -1
;
_chemical_formula_sum "Si O2"
_cell_formula_units_Z 16
_cell_length_a 9.091568
_cell_length_b 12.612955
_cell_length_c 9.342405
_cell_angle_alpha 129.128816
_cell_angle_beta 101.604670
_cell_angle_gamma 51.733061
_cell_volume 620.032529
_symmetry_space_group_name_H-M "P -1"
_symmetry_group_IT_number 2
_symmetry_cell_setting 'triclinic'
loop_
_space_group_symop_operation_xyz
x,y,z
-x,-y,-z
loop_
_atom_site_type_symbol
_atom_site_label
_atom_site_fract_x
_atom_site_fract_y
_atom_site_fract_z
Si Si1 0.571490 0.596686 0.518914
Si Si2 0.328427 0.406746 0.168187
Si Si3 0.198198 0.036421 0.467546
Si Si4 0.004697 0.209373 0.117078
Si Si5 0.395970 0.978562 0.171970
Si Si6 0.832992 0.760348 0.088810
Si Si7 0.569024 0.377661 0.768973
Si Si8 0.857846 0.149156 0.291234
O O1 0.500000 0.500000 0.500000
O O2 0.700396 0.591398 0.664274
O O3 0.601235 0.573136 0.333874
O O4 0.347832 0.792390 0.648423
O O5 0.327768 0.561019 0.247194
O O6 0.545707 0.214686 0.013544
O O7 0.185466 0.393391 0.038785
O O8 0.339325 0.024579 0.366529
O O9 0.299842 0.831159 0.348252
O O10 0.002876 0.877227 0.580550
O O11 0.151983 0.160196 0.697943
O O12 0.853326 0.271624 0.271958
O O13 0.206635 0.128343 0.171361
O O14 0.008857 0.298493 0.052012
O O15 0.024438 0.047818 0.916398
O O16 0.604315 0.925920 0.134241
O O17 0.500000 0.500000 0.000000
#
# Coordination Sequence:
#
# PCOD9081943 Si02
#       8
#     2   2   2   2   2   2   2   2
#     4  10  21  38  63  84 114 154 198 245 295 350
#     4   9  20  37  59  84 121 151 202 239 288 338
#     4  11  22  34  58  90 126 155 193 243 295 352
#     4  10  19  32  58  83 117 151 193 252 288 340
#     4   9  18  33  55  84 122 150 194 241 284 336
#     4  10  20  34  57  90 121 157 196 241 292 345
#     4  11  21  36  57  87 119 155 193 238 291 348
#     4  10  21  37  54  87 120 149 195 247 301 341
#
# _framework density 25.805097
#
# number of rings (size 3 to 8) (size 9 to 14) (size 15 to 20)
#    0.750    1.250    2.500    1.500    0.000    2.000 
#    0.000    1.250    0.000    9.750    0.000    0.000 
#    0.000    3.000    0.000    0.000    0.000    0.000 
#
# Total GULP energy -89269.908733 kJ/mol
# GULP energy per Si atom -5579.369296 kJ/mol
# Density = 2.574636 g / cm^3
# Si number density = 25.805097 Si / 1000 Ang^3
#
#
#
# Elastic Constant Matrix: (Units=GPa)
#
#
# Indices 1 2 3 4 5 6 
#
# 1 69.3727 5.2027 37.9828 -12.8842 -4.6842 13.8368
# 2 5.2027 64.9760 49.3563 -18.5552 -0.0989 18.3042
# 3 37.9828 49.3563 188.0057 -36.9824 11.9396 1.0496
# 4 -12.8842 -18.5552 -36.9824 38.1084 0.8822 7.9050
# 5 -4.6842 -0.0989 11.9396 0.8822 46.2573 -2.5768
# 6 13.8368 18.3042 1.0496 7.9050 -2.5768 26.9353
#
#
#
# Elastic Compliance Matrix: (Units=1/GPa)
#
#
# Indices 1 2 3 4 5 6 
#
# 1 0.024632 0.013999 -0.005703 0.014977 0.002255 -0.026124
# 2 0.013999 0.038479 -0.008060 0.023915 0.000898 -0.039959
# 3 -0.005703 -0.008060 0.008978 0.001382 -0.002526 0.007410
# 4 0.014977 0.023915 0.001382 0.052553 -0.001998 -0.039614
# 5 0.002255 0.000898 -0.002526 -0.001998 0.022599 0.001078
# 6 -0.026124 -0.039959 0.007410 -0.039614 0.001078 0.089141
#
#
# Mechanical properties :
#
#
# Convention : Reuss Voigt Hill
#
# Bulk Modulus (GPa) = 13.78119 56.38200 35.08160
# Shear Modulus (GPa) = 19.22369 37.58106 28.40237
#
# Velocity S-wave (km/s) = 2.73235 3.82035 3.32120
# Velocity P-wave (km/s) = 3.91234 6.43091 5.32274
#
# Compressibility (1/GPa) = 0.07256265
#
# Stress axis : x y z
#
# Youngs Moduli (GPa) = 40.59766 25.98810 111.38581
#
# Poissons Ratio (x) = -0.36382 0.63522
# Poissons Ratio (y) = -0.56834 0.89773
# Poissons Ratio (z) = 0.23152 0.20945
#
# Static dielectric constant tensor:
#      x y z
#    x 2.089370 -0.107540 -0.041630 
#    y -0.107540 2.263980 0.092860 
#    z -0.041630 0.092860 2.194570 
# 
# From -- ./inp_files/268930.got.cif
#   From: 2010.05.17/outbox.cif.g08.bks.cpg/sg2_135_cif.got.tgz:268930.got - 2010.06.03 11:33:40.
