data_PCOD9081895
_publ_section_title
;
Structure prediction by ZEFSAII (Michael W. Deem and Ramdas Pophale) SiO2 
 PCOD9081895
Probable space group: P -1
;
_chemical_formula_sum "Si O2"
_cell_formula_units_Z 14
_cell_length_a 13.134126
_cell_length_b 12.269234
_cell_length_c 13.903577
_cell_angle_alpha 149.271366
_cell_angle_beta 140.341515
_cell_angle_gamma 61.581860
_cell_volume 600.350786
_symmetry_space_group_name_H-M "P -1"
_symmetry_group_IT_number 2
_symmetry_cell_setting 'triclinic'
loop_
_space_group_symop_operation_xyz
x,y,z
-x,-y,-z
loop_
_atom_site_type_symbol
_atom_site_label
_atom_site_fract_x
_atom_site_fract_y
_atom_site_fract_z
Si Si1 0.198301 0.736167 0.779944
Si Si2 0.109220 0.863529 0.454010
Si Si3 0.515404 0.381733 0.149541
Si Si4 0.847185 0.837590 0.853834
Si Si5 0.881725 0.064911 0.700452
Si Si6 0.472667 0.684729 0.187897
Si Si7 0.055582 0.381696 0.665383
O O1 0.360413 0.684814 0.876680
O O2 0.134007 0.701394 0.595656
O O3 0.000000 0.500000 0.500000
O O4 0.233169 0.996090 0.042906
O O5 0.002764 0.631150 0.276142
O O6 0.098656 0.801506 0.286461
O O7 0.000000 0.000000 0.500000
O O8 0.327754 0.097219 0.819909
O O9 0.663971 0.562340 0.477212
O O10 0.467208 0.564320 0.196966
O O11 0.000000 0.000000 0.000000
O O12 0.963717 0.818753 0.012209
O O13 0.671854 0.955096 0.511766
O O14 0.900936 0.831129 0.498142
O O15 0.500000 0.500000 0.000000
O O16 0.265936 0.643001 0.993014
#
# Coordination Sequence:
#
# PCOD9081895 Si02
#       7
#     2   2   2   2   2   2   2
#     4  11  22  37  61  94 127 153 198 259 305 354
#     4  10  19  36  62  89 114 171 209 235 302 372
#     4  12  21  35  67  87 122 160 201 249 309 349
#     4  11  21  36  58  97 126 154 198 255 307 361
#     4   9  17  31  57  85 117 153 205 244 293 356
#     4  10  15  30  59  88 107 160 207 240 292 361
#     4   9  19  34  57  88 119 156 211 238 293 372
#
# _framework density 23.319700000000001
#
# number of rings (size 3 to 8) (size 9 to 14) (size 15 to 20)
#    0.000    1.714    7.143    1.714    0.000    0.571 
#    0.000    6.429    3.143    5.143    0.000    0.000 
#    0.000    0.000    0.000    0.000    0.000    0.000 
#
# Total GULP energy -78095.067917 kJ/mol
# GULP energy per Si atom -5578.219137 kJ/mol
# Density = 2.326662 g / cm^3
# Si number density = 23.319700 Si / 1000 Ang^3
#
#
#
# Elastic Constant Matrix: (Units=GPa)
#
#
# Indices 1 2 3 4 5 6 
#
# 1 98.6068 26.8373 66.8177 -4.8436 -2.8593 21.7500
# 2 26.8373 58.3583 22.6692 1.3061 -5.7043 0.2387
# 3 66.8177 22.6692 132.2319 -20.4908 -6.1757 4.4933
# 4 -4.8436 1.3061 -20.4908 22.7643 -0.6023 -8.9383
# 5 -2.8593 -5.7043 -6.1757 -0.6023 46.3490 -6.4765
# 6 21.7500 0.2387 4.4933 -8.9383 -6.4765 42.9144
#
#
#
# Elastic Compliance Matrix: (Units=1/GPa)
#
#
# Indices 1 2 3 4 5 6 
#
# 1 0.021168 -0.005446 -0.011008 -0.009874 -0.002636 -0.012000
# 2 -0.005446 0.020315 -0.001045 -0.002155 0.002369 0.002665
# 3 -0.011008 -0.001045 0.015426 0.014564 0.002468 0.007376
# 4 -0.009874 -0.002155 0.014564 0.061854 0.004248 0.017016
# 5 -0.002636 0.002369 0.002468 0.004248 0.022842 0.005397
# 6 -0.012000 0.002665 0.007376 0.017016 0.005397 0.032956
#
#
# Mechanical properties :
#
#
# Convention : Reuss Voigt Hill
#
# Bulk Modulus (GPa) = 45.63996 57.98282 51.81139
# Shear Modulus (GPa) = 23.05606 33.93040 28.49323
#
# Velocity S-wave (km/s) = 3.14776 3.81860 3.49929
# Velocity P-wave (km/s) = 5.72932 6.66037 6.21231
#
# Compressibility (1/GPa) = 0.02191062
#
# Stress axis : x y z
#
# Youngs Moduli (GPa) = 47.24014 49.22530 64.82730
#
# Poissons Ratio (x) = 0.26809 0.71364
# Poissons Ratio (y) = 0.25728 0.06772
# Poissons Ratio (z) = 0.52003 0.05142
#
# Static dielectric constant tensor:
#      x y z
#    x 1.915660 0.083380 -0.039360 
#    y 0.083380 2.057770 -0.021090 
#    z -0.039360 -0.021090 1.955390 
# 
# From -- ./inp_files/522695.got.cif
#   From: 2010.05.17/outbox.cif.g08.bks.cpg/sg2_262_cif.got.tgz:522695.got - 2010.06.03 11:33:40.
