data_PCOD9081504
_publ_section_title
;
Structure prediction by ZEFSAII (Michael W. Deem and Ramdas Pophale) SiO2 
 PCOD9081504
Probable space group: P -1
;
_chemical_formula_sum "Si O2"
_cell_formula_units_Z 12
_cell_length_a 10.902797
_cell_length_b 12.834706
_cell_length_c 9.748166
_cell_angle_alpha 43.836024
_cell_angle_beta 79.197409
_cell_angle_gamma 46.367981
_cell_volume 537.054480
_symmetry_space_group_name_H-M "P -1"
_symmetry_group_IT_number 2
_symmetry_cell_setting 'triclinic'
loop_
_space_group_symop_operation_xyz
x,y,z
-x,-y,-z
loop_
_atom_site_type_symbol
_atom_site_label
_atom_site_fract_x
_atom_site_fract_y
_atom_site_fract_z
Si Si1 0.571047 0.990356 0.614641
Si Si2 0.955836 0.331381 0.769927
Si Si3 0.342368 0.110501 0.806040
Si Si4 0.908933 0.491297 0.939785
Si Si5 0.219984 0.695095 0.761649
Si Si6 0.405801 0.492964 0.217117
O O1 0.480038 0.972210 0.771083
O O2 0.339063 0.204145 0.355105
O O3 0.530540 0.209257 0.444562
O O4 0.845247 0.710103 0.856194
O O5 0.194240 0.110339 0.866344
O O6 0.816831 0.591500 0.469143
O O7 0.980413 0.362134 0.894090
O O8 0.799533 0.339495 0.801769
O O9 0.500000 0.000000 0.000000
O O10 0.839080 0.420520 0.118037
O O11 0.407106 0.568763 0.740447
O O12 0.302958 0.637108 0.955071
O O13 0.000000 0.000000 0.500000
#
# Coordination Sequence:
#
# PCOD9081504 Si02
#       6
#     2   2   2   2   2   2
#     4  11  18  35  54  83 112 138 176 238 276 312
#     4   9  19  34  50  79 112 144 183 224 272 335
#     4  10  19  32  53  80 113 147 180 222 280 335
#     4  11  20  33  56  85 112 140 184 236 279 320
#     4  10  19  32  50  81 112 146 182 224 273 336
#     4   9  19  34  53  76 113 147 180 225 279 328
#
# _framework density 22.344100000000001
#
# number of rings (size 3 to 8) (size 9 to 14) (size 15 to 20)
#    0.000    2.000    5.000    2.000    0.000    4.000 
#    0.000    0.000    0.000    1.000    0.000   33.833 
#    0.000    0.000    0.000    0.000    0.000    0.000 
#
# Total GULP energy -66811.742638 kJ/mol
# GULP energy per Si atom -5567.645220 kJ/mol
# Density = 2.229324 g / cm^3
# Si number density = 22.344100 Si / 1000 Ang^3
#
#
#
# Elastic Constant Matrix: (Units=GPa)
#
#
# Indices 1 2 3 4 5 6 
#
# 1 175.7067 57.4627 50.9337 14.5240 21.8513 -59.6656
# 2 57.4627 100.8410 39.6107 3.0724 5.7263 -48.8552
# 3 50.9337 39.6107 125.3015 -10.3421 13.2331 -15.6819
# 4 14.5240 3.0724 -10.3421 28.7388 -13.7129 3.7495
# 5 21.8513 5.7263 13.2331 -13.7129 30.2713 -4.5209
# 6 -59.6656 -48.8552 -15.6819 3.7495 -4.5209 57.8736
#
#
#
# Elastic Compliance Matrix: (Units=1/GPa)
#
#
# Indices 1 2 3 4 5 6 
#
# 1 0.015867 0.003043 -0.005162 -0.020291 -0.016341 0.017566
# 2 0.003043 0.020192 -0.005546 -0.010879 -0.005691 0.018940
# 3 -0.005162 -0.005546 0.011393 0.009742 0.003117 -0.007305
# 4 -0.020291 -0.010879 0.009742 0.073196 0.041276 -0.028981
# 5 -0.016341 -0.005691 0.003117 0.041276 0.060440 -0.018759
# 6 0.017566 0.018940 -0.007305 -0.028981 -0.018759 0.049811
#
#
# Mechanical properties :
#
#
# Convention : Reuss Voigt Hill
#
# Bulk Modulus (GPa) = 31.13288 77.54036 54.33662
# Shear Modulus (GPa) = 19.45996 40.29956 29.87976
#
# Velocity S-wave (km/s) = 2.95434 4.25148 3.66082
# Velocity P-wave (km/s) = 5.05976 7.67321 6.49921
#
# Compressibility (1/GPa) = 0.03212038
#
# Stress axis : x y z
#
# Youngs Moduli (GPa) = 63.02291 49.52478 87.77177
#
# Poissons Ratio (x) = -0.15069 0.45310
# Poissons Ratio (y) = -0.19176 0.48683
# Poissons Ratio (z) = 0.32534 0.27469
#
# Static dielectric constant tensor:
#      x y z
#    x 1.925760 -0.035350 0.067130 
#    y -0.035350 1.856530 -0.050230 
#    z 0.067130 -0.050230 1.858290 
# 
# From -- ./inp_files/429517.got.cif
#   From: 2010.05.17/outbox.cif.g08.bks.cpg/sg2_215_cif.got.tgz:429517.got - 2010.06.03 11:33:40.
