data_PCOD9081091
_publ_section_title
;
Structure prediction by ZEFSAII (Michael W. Deem and Ramdas Pophale) SiO2 
 PCOD9081091
Probable space group: P -1
;
_chemical_formula_sum "Si O2"
_cell_formula_units_Z 16
_cell_length_a 8.881539
_cell_length_b 18.055666
_cell_length_c 5.754654
_cell_angle_alpha 120.531458
_cell_angle_beta 125.251169
_cell_angle_gamma 95.585437
_cell_volume 539.882488
_symmetry_space_group_name_H-M "P -1"
_symmetry_group_IT_number 2
_symmetry_cell_setting 'triclinic'
loop_
_space_group_symop_operation_xyz
x,y,z
-x,-y,-z
loop_
_atom_site_type_symbol
_atom_site_label
_atom_site_fract_x
_atom_site_fract_y
_atom_site_fract_z
Si Si1 0.294130 0.495849 0.699859
Si Si2 0.204807 0.496386 0.115944
Si Si3 0.034288 0.255767 0.568831
Si Si4 0.026776 0.256475 0.062907
Si Si5 0.542343 0.759780 0.090692
Si Si6 0.283513 0.004608 0.849375
Si Si7 0.279628 0.000125 0.340280
Si Si8 0.464631 0.247317 0.425396
O O1 0.348425 0.537533 0.550054
O O2 0.100670 0.375334 0.311140
O O3 0.500000 0.500000 0.000000
O O4 0.251568 0.540003 0.963242
O O5 0.134191 0.377934 0.844468
O O6 0.000000 0.500000 0.000000
O O7 0.913283 0.212899 0.143781
O O8 0.244556 0.247059 0.735766
O O9 0.913075 0.213703 0.642495
O O10 0.257199 0.261121 0.268391
O O11 0.632140 0.879911 0.370468
O O12 0.424436 0.717941 0.166548
O O13 0.420947 0.715285 0.665718
O O14 0.159779 0.958362 0.418022
O O15 0.163088 0.961032 0.922175
O O16 0.365459 0.124554 0.129116
O O17 0.500000 0.000000 0.000000
O O18 0.500000 0.000000 0.500000
#
# Coordination Sequence:
#
# PCOD9081091 Si02
#       8
#     2   2   2   2   2   2   2   2
#     4  10  19  31  46  64  85 109 138 175 213 252
#     4  10  19  31  46  64  85 109 138 175 213 252
#     4   8  14  23  35  50  68  91 120 155 188 226
#     4   8  14  23  35  50  68  91 120 155 188 226
#     4   8  12  18  27  39  56  79 108 143 174 209
#     4   8  12  16  22  33  50  73 102 137 168 201
#     4   8  12  16  22  33  50  73 102 137 168 201
#     4   8  12  18  27  39  56  79 108 143 174 209
#
# _framework density 29.636081000000001
#
# number of rings (size 3 to 8) (size 9 to 14) (size 15 to 20)
#    0.000    3.500    0.000    0.750    0.000    0.000 
#    0.000    0.000    0.000    0.000    0.000    0.000 
#    0.000    0.000    0.000    0.000    0.000    0.000 
#
# Total GULP energy -89515.168781 kJ/mol
# GULP energy per Si atom -5594.698049 kJ/mol
# Density = 2.956863 g / cm^3
# Si number density = 29.636081 Si / 1000 Ang^3
#
#
#
# Elastic Constant Matrix: (Units=GPa)
#
#
# Indices 1 2 3 4 5 6 
#
# 1 130.0223 68.0289 79.3758 -17.2588 -40.8674 14.4711
# 2 68.0289 145.3111 53.0566 -28.1215 -23.5384 6.5103
# 3 79.3758 53.0566 220.4460 -9.1632 -106.7008 30.2670
# 4 -17.2588 -28.1215 -9.1632 45.1464 22.3956 -25.5897
# 5 -40.8674 -23.5384 -106.7008 22.3956 94.4844 -35.0668
# 6 14.4711 6.5103 30.2670 -25.5897 -35.0668 78.3474
#
#
#
# Elastic Compliance Matrix: (Units=1/GPa)
#
#
# Indices 1 2 3 4 5 6 
#
# 1 0.012071 -0.004257 -0.003071 0.001052 0.000377 -0.000177
# 2 -0.004257 0.010511 -0.002307 0.006851 -0.002786 0.001795
# 3 -0.003071 -0.002307 0.012772 -0.007135 0.014147 -0.000174
# 4 0.001052 0.006851 -0.007135 0.035842 -0.011161 0.008704
# 5 0.000377 -0.002786 0.014147 -0.011161 0.030404 0.004659
# 6 -0.000177 0.001795 -0.000174 0.008704 0.004659 0.017643
#
#
# Mechanical properties :
#
#
# Convention : Reuss Voigt Hill
#
# Bulk Modulus (GPa) = 62.17419 99.63357 80.90388
# Shear Modulus (GPa) = 34.75219 63.28351 49.01785
#
# Velocity S-wave (km/s) = 3.42809 4.62600 4.07134
# Velocity P-wave (km/s) = 6.05754 7.88829 7.03274
#
# Compressibility (1/GPa) = 0.01608384
#
# Stress axis : x y z
#
# Youngs Moduli (GPa) = 82.84137 95.13467 78.29484
#
# Poissons Ratio (x) = 0.40501 0.24046
# Poissons Ratio (y) = 0.35268 0.18063
# Poissons Ratio (z) = 0.25443 0.21948
#
# Static dielectric constant tensor:
#      x y z
#    x 2.145020 -0.021720 -0.091290 
#    y -0.021720 2.315210 -0.022430 
#    z -0.091290 -0.022430 2.280100 
# 
# From -- ./inp_files/14107.got.cif
#   From: 2010.05.17/outbox.cif.g08.bks.cpg/sg2_8_cif.got.tgz:14107.got - 2010.06.03 11:33:40.
