data_PCOD9081046
_publ_section_title
;
Structure prediction by ZEFSAII (Michael W. Deem and Ramdas Pophale) SiO2 
 PCOD9081046
Probable space group: P -1
;
_chemical_formula_sum "Si O2"
_cell_formula_units_Z 14
_cell_length_a 11.659106
_cell_length_b 11.196073
_cell_length_c 12.303623
_cell_angle_alpha 100.633665
_cell_angle_beta 49.029818
_cell_angle_gamma 62.785350
_cell_volume 746.850294
_symmetry_space_group_name_H-M "P -1"
_symmetry_group_IT_number 2
_symmetry_cell_setting 'triclinic'
loop_
_space_group_symop_operation_xyz
x,y,z
-x,-y,-z
loop_
_atom_site_type_symbol
_atom_site_label
_atom_site_fract_x
_atom_site_fract_y
_atom_site_fract_z
Si Si1 0.192225 0.516248 0.906764
Si Si2 0.367390 0.133063 0.435896
Si Si3 0.964408 0.548228 0.838710
Si Si4 0.112118 0.975348 0.060699
Si Si5 0.669727 0.352485 0.271115
Si Si6 0.774652 0.956660 0.316720
Si Si7 0.644989 0.951671 0.006464
O O1 0.369495 0.514877 0.768232
O O2 0.132774 0.489907 0.824576
O O3 0.240533 0.395902 0.955185
O O4 0.950672 0.738566 0.131101
O O5 0.324736 0.029090 0.503729
O O6 0.118250 0.362795 0.637115
O O7 0.556283 0.087504 0.388792
O O8 0.475671 0.059048 0.236801
O O9 0.854811 0.725242 0.868379
O O10 0.941389 0.167406 0.122758
O O11 0.237356 0.988152 0.068210
O O12 0.930181 0.983988 0.220465
O O13 0.321337 0.777062 0.826450
O O14 0.500000 0.500000 0.500000
O O15 0.500000 0.000000 0.000000
#
# Coordination Sequence:
#
# PCOD9081046 Si02
#       7
#     2   2   2   2   2   2   2
#     4   9  17  32  53  85 115 132 172 235 282 329
#     4  10  20  35  60  86 107 147 186 224 288 337
#     4  10  20  34  55  81 112 140 185 229 272 329
#     4  10  21  35  50  82 116 143 181 228 282 325
#     4  10  19  30  55  84 114 137 167 231 297 341
#     4   9  18  35  59  87 116 135 174 242 293 332
#     4  12  25  40  54  76 117 160 194 223 263 330
#
# _framework density 18.74539
#
# number of rings (size 3 to 8) (size 9 to 14) (size 15 to 20)
#    0.000    2.000    2.857    1.714    6.000    0.571 
#    0.000    0.714    0.000    7.714    0.000    0.000 
#    0.000    0.000    0.000    0.000    0.000    0.000 
#
# Total GULP energy -77973.298086 kJ/mol
# GULP energy per Si atom -5569.521292 kJ/mol
# Density = 1.870272 g / cm^3
# Si number density = 18.745390 Si / 1000 Ang^3
#
#
#
# Elastic Constant Matrix: (Units=GPa)
#
#
# Indices 1 2 3 4 5 6 
#
# 1 110.4721 46.4993 23.9566 -8.7993 0.9640 10.3873
# 2 46.4993 79.3725 33.5151 -14.5820 -0.2915 21.3979
# 3 23.9566 33.5151 95.5481 -3.1827 14.5295 7.5362
# 4 -8.7993 -14.5820 -3.1827 27.2286 8.7119 -4.2898
# 5 0.9640 -0.2915 14.5295 8.7119 15.2723 -6.3348
# 6 10.3873 21.3979 7.5362 -4.2898 -6.3348 23.5660
#
#
#
# Elastic Compliance Matrix: (Units=1/GPa)
#
#
# Indices 1 2 3 4 5 6 
#
# 1 0.012085 -0.007178 -0.000671 0.000127 0.000291 0.001507
# 2 -0.007178 0.025683 -0.003792 0.011069 -0.009888 -0.019586
# 3 -0.000671 -0.003792 0.015679 0.005167 -0.020296 -0.005791
# 4 0.000127 0.011069 0.005167 0.054418 -0.041106 -0.012903
# 5 0.000291 -0.009888 -0.020296 -0.041106 0.125253 0.041527
# 6 0.001507 -0.019586 -0.005791 -0.012903 0.041527 0.070220
#
#
# Mechanical properties :
#
#
# Convention : Reuss Voigt Hill
#
# Bulk Modulus (GPa) = 33.15130 54.81496 43.98313
# Shear Modulus (GPa) = 14.85106 25.30814 20.07960
#
# Velocity S-wave (km/s) = 2.81775 3.67836 3.27643
# Velocity P-wave (km/s) = 5.32069 6.88082 6.15042
#
# Compressibility (1/GPa) = 0.03016473
#
# Stress axis : x y z
#
# Youngs Moduli (GPa) = 82.74777 38.93659 63.77827
#
# Poissons Ratio (x) = 0.27950 0.04280
# Poissons Ratio (y) = 0.59400 0.24183
# Poissons Ratio (z) = 0.05553 0.14764
#
# Static dielectric constant tensor:
#      x y z
#    x 2.109480 0.696380 0.179920 
#    y 0.696380 2.545080 0.236800 
#    z 0.179920 0.236800 1.805420 
# 
# From -- ./inp_files/425135.got.cif
#   From: 2010.05.17/outbox.cif.g08.bks.cpg/sg2_213_cif.got.tgz:425135.got - 2010.06.03 11:33:40.
