data_PCOD9081078
_publ_section_title
;
Structure prediction by ZEFSAII (Michael W. Deem and Ramdas Pophale) SiO2 
 PCOD9081078
Probable space group: P -1
;
_chemical_formula_sum "Si O2"
_cell_formula_units_Z 16
_cell_length_a 9.972033
_cell_length_b 15.803576
_cell_length_c 5.370093
_cell_angle_alpha 85.710459
_cell_angle_beta 65.696505
_cell_angle_gamma 116.846320
_cell_volume 651.849037
_symmetry_space_group_name_H-M "P -1"
_symmetry_group_IT_number 2
_symmetry_cell_setting 'triclinic'
loop_
_space_group_symop_operation_xyz
x,y,z
-x,-y,-z
loop_
_atom_site_type_symbol
_atom_site_label
_atom_site_fract_x
_atom_site_fract_y
_atom_site_fract_z
Si Si1 0.249960 0.880266 0.353305
Si Si2 0.029884 0.349172 0.889033
Si Si3 0.298067 0.983843 0.794748
Si Si4 0.136748 0.471509 0.299798
Si Si5 0.096045 0.120115 0.396060
Si Si6 0.650399 0.315486 0.105959
Si Si7 0.099060 0.170014 0.882356
Si Si8 0.544545 0.211964 0.708672
O O1 0.053675 0.853227 0.499720
O O2 0.278392 0.792001 0.415444
O O3 0.334255 0.958679 0.499183
O O4 0.321964 0.925571 0.017282
O O5 0.147460 0.415627 0.548325
O O6 0.055243 0.255815 0.903854
O O7 0.077008 0.406024 0.106476
O O8 0.833114 0.318617 0.983534
O O9 0.406076 0.098858 0.757166
O O10 0.089412 0.934730 0.957385
O O11 0.000000 0.500000 0.500000
O O12 0.300577 0.576869 0.060235
O O13 0.193640 0.167933 0.564246
O O14 0.193987 0.168430 0.056765
O O15 0.000000 0.000000 0.500000
O O16 0.574328 0.288190 0.448880
O O17 0.534696 0.238724 0.994578
#
# Coordination Sequence:
#
# PCOD9081078 Si02
#       8
#     2   2   2   2   2   2   2   2
#     4  10  19  31  44  64  91 127 162 190 225 272
#     4  11  19  33  48  64  90 125 165 203 229 274
#     4  10  20  31  44  66  94 125 162 195 218 261
#     4  10  20  32  46  64  89 123 164 204 237 268
#     4  10  19  32  48  68  94 125 157 197 240 281
#     4  11  20  30  44  65  89 124 163 195 230 267
#     4  10  20  33  50  71  94 129 164 189 232 283
#     4  12  20  30  46  66  96 130 163 193 218 266
#
# _framework density 24.545563000000001
#
# number of rings (size 3 to 8) (size 9 to 14) (size 15 to 20)
#    0.000    1.500    0.000   10.125    0.000    0.000 
#    0.000    0.000    0.000    0.000    0.000    0.000 
#    0.000    0.000    0.000  315.000    0.000   83.750 
#
# Total GULP energy -89500.510391 kJ/mol
# GULP energy per Si atom -5593.781899 kJ/mol
# Density = 2.448970 g / cm^3
# Si number density = 24.545563 Si / 1000 Ang^3
#
#
#
# Elastic Constant Matrix: (Units=GPa)
#
#
# Indices 1 2 3 4 5 6 
#
# 1 68.0193 22.8585 28.8062 7.3096 19.4869 -4.6422
# 2 22.8585 113.9426 56.3553 20.6574 20.9109 0.9842
# 3 28.8062 56.3553 202.7655 15.9057 54.3179 -2.5038
# 4 7.3096 20.6574 15.9057 58.4984 2.8616 15.3330
# 5 19.4869 20.9109 54.3179 2.8616 43.9263 4.3986
# 6 -4.6422 0.9842 -2.5038 15.3330 4.3986 27.9668
#
#
#
# Elastic Compliance Matrix: (Units=1/GPa)
#
#
# Indices 1 2 3 4 5 6 
#
# 1 0.018202 -0.001898 0.000408 -0.002887 -0.008087 0.005979
# 2 -0.001898 0.011103 -0.002052 -0.003362 -0.001811 0.001239
# 3 0.000408 -0.002052 0.008208 -0.002001 -0.009572 0.003478
# 4 -0.002887 -0.003362 -0.002001 0.022524 0.005262 -0.013717
# 5 -0.008087 -0.001811 -0.009572 0.005262 0.039839 -0.011286
# 6 0.005979 0.001239 0.003478 -0.013717 -0.011286 0.046312
#
#
# Mechanical properties :
#
#
# Convention : Reuss Voigt Hill
#
# Bulk Modulus (GPa) = 32.86217 66.75193 49.80705
# Shear Modulus (GPa) = 30.59679 44.52547 37.56113
#
# Velocity S-wave (km/s) = 3.53445 4.26372 3.91610
# Velocity P-wave (km/s) = 5.48396 7.17588 6.38620
#
# Compressibility (1/GPa) = 0.03043012
#
# Stress axis : x y z
#
# Youngs Moduli (GPa) = 54.94012 90.06421 121.82654
#
# Poissons Ratio (x) = 0.17090 -0.04973
# Poissons Ratio (y) = 0.10425 0.25001
# Poissons Ratio (z) = -0.02243 0.18483
#
# Static dielectric constant tensor:
#      x y z
#    x 2.001610 0.023710 0.001500 
#    y 0.023710 1.926780 0.000460 
#    z 0.001500 0.000460 2.112750 
# 
# From -- ./inp_files/74541.got.cif
#   From: 2010.05.17/outbox.cif.g08.bks.cpg/sg2_38_cif.got.tgz:74541.got - 2010.06.03 11:33:40.
