data_PCOD9081002
_publ_section_title
;
Structure prediction by ZEFSAII (Michael W. Deem and Ramdas Pophale) SiO2 
 PCOD9081002
Probable space group: P -1
;
_chemical_formula_sum "Si O2"
_cell_formula_units_Z 16
_cell_length_a 22.592469
_cell_length_b 12.037087
_cell_length_c 7.401375
_cell_angle_alpha 55.653896
_cell_angle_beta 59.409638
_cell_angle_gamma 24.379089
_cell_volume 685.889869
_symmetry_space_group_name_H-M "P -1"
_symmetry_group_IT_number 2
_symmetry_cell_setting 'triclinic'
loop_
_space_group_symop_operation_xyz
x,y,z
-x,-y,-z
loop_
_atom_site_type_symbol
_atom_site_label
_atom_site_fract_x
_atom_site_fract_y
_atom_site_fract_z
Si Si1 0.590598 0.411839 0.103134
Si Si2 0.079563 0.736157 0.921561
Si Si3 0.174074 0.164742 0.886608
Si Si4 0.828678 0.147534 0.420185
Si Si5 0.911948 0.556262 0.719587
Si Si6 0.244398 0.634076 0.267244
Si Si7 0.314430 0.870386 0.325854
Si Si8 0.848074 0.483023 0.388508
O O1 0.479842 0.596272 0.269940
O O2 0.732767 0.076438 0.184127
O O3 0.500000 0.500000 0.000000
O O4 0.637847 0.481261 0.913650
O O5 0.154148 0.751315 0.825778
O O6 0.149275 0.558380 0.791268
O O7 0.913688 0.051921 0.846015
O O8 0.090258 0.598120 0.175131
O O9 0.009905 0.405285 0.886274
O O10 0.192895 0.292388 0.722705
O O11 0.230785 0.018082 0.126244
O O12 0.757186 0.317511 0.564064
O O13 0.738921 0.177026 0.460384
O O14 0.988654 0.823487 0.519031
O O15 0.000000 0.500000 0.500000
O O16 0.754394 0.885411 0.689160
O O17 0.249470 0.463879 0.415257
#
# Coordination Sequence:
#
# PCOD9081002 Si02
#       8
#     2   2   2   2   2   2   2   2
#     4  10  19  30  51  81 113 138 165 215 262 319
#     4   9  17  30  50  77 104 135 169 219 261 294
#     4  11  18  34  56  78 105 138 174 212 264 305
#     4   9  15  27  50  78 106 131 168 215 262 306
#     4  12  23  35  54  80 105 136 182 223 255 307
#     4   9  15  28  48  81 112 130 172 207 266 314
#     4  11  20  34  55  82 109 135 174 215 266 310
#     4   9  16  26  53  81 100 138 169 218 262 303
#
# _framework density 23.327359999999999
#
# number of rings (size 3 to 8) (size 9 to 14) (size 15 to 20)
#    0.000    2.000    6.250    2.625    0.000    0.000 
#    0.000    5.000    0.000    0.000    0.000    1.750 
#    0.000    0.000    0.000    0.000    0.000    0.000 
#
# Total GULP energy -89501.621082 kJ/mol
# GULP energy per Si atom -5593.851318 kJ/mol
# Density = 2.327427 g / cm^3
# Si number density = 23.327360 Si / 1000 Ang^3
#
#
#
# Elastic Constant Matrix: (Units=GPa)
#
#
# Indices 1 2 3 4 5 6 
#
# 1 79.6273 21.0003 53.7094 -6.5318 -30.1972 1.0175
# 2 21.0003 77.1297 29.4062 11.8442 -18.8631 8.6441
# 3 53.7094 29.4062 155.1065 2.6081 -54.2559 9.1085
# 4 -6.5318 11.8442 2.6081 28.9899 7.3688 -10.7116
# 5 -30.1972 -18.8631 -54.2559 7.3688 63.3259 0.1436
# 6 1.0175 8.6441 9.1085 -10.7116 0.1436 29.9808
#
#
#
# Elastic Compliance Matrix: (Units=1/GPa)
#
#
# Indices 1 2 3 4 5 6 
#
# 1 0.018658 -0.004261 -0.005315 0.007702 0.002166 0.004952
# 2 -0.004261 0.018563 0.000871 -0.014002 0.005897 -0.010503
# 3 -0.005315 0.000871 0.011558 -0.007007 0.008457 -0.006126
# 4 0.007702 -0.014002 -0.007007 0.055407 -0.013007 0.025763
# 5 0.002166 0.005897 0.008457 -0.013007 0.027361 -0.009121
# 6 0.004952 -0.010503 -0.006126 0.025763 -0.009121 0.047324
#
#
# Mechanical properties :
#
#
# Convention : Reuss Voigt Hill
#
# Bulk Modulus (GPa) = 31.87964 57.78836 44.83400
# Shear Modulus (GPa) = 24.18523 38.30915 31.24719
#
# Velocity S-wave (km/s) = 3.22339 4.05685 3.66390
# Velocity P-wave (km/s) = 5.24877 6.83891 6.09591
#
# Compressibility (1/GPa) = 0.03136798
#
# Stress axis : x y z
#
# Youngs Moduli (GPa) = 53.59742 53.87122 86.51716
#
# Poissons Ratio (x) = 0.22957 0.45987
# Poissons Ratio (y) = 0.22840 -0.07539
# Poissons Ratio (z) = 0.28489 -0.04694
#
# Static dielectric constant tensor:
#      x y z
#    x 1.911250 0.049020 0.064380 
#    y 0.049020 1.872370 0.021860 
#    z 0.064380 0.021860 2.000420 
# 
# From -- ./inp_files/268947.got.cif
#   From: 2010.05.17/outbox.cif.g08.bks.cpg/sg2_135_cif.got.tgz:268947.got - 2010.06.03 11:33:40.
