data_PCOD9081309
_publ_section_title
;
Structure prediction by ZEFSAII (Michael W. Deem and Ramdas Pophale) SiO2 
 PCOD9081309
Probable space group: P -1
;
_chemical_formula_sum "Si O2"
_cell_formula_units_Z 16
_cell_length_a 16.299796
_cell_length_b 17.562404
_cell_length_c 5.060070
_cell_angle_alpha 67.550841
_cell_angle_beta 59.964787
_cell_angle_gamma 35.895636
_cell_volume 734.440303
_symmetry_space_group_name_H-M "P -1"
_symmetry_group_IT_number 2
_symmetry_cell_setting 'triclinic'
loop_
_space_group_symop_operation_xyz
x,y,z
-x,-y,-z
loop_
_atom_site_type_symbol
_atom_site_label
_atom_site_fract_x
_atom_site_fract_y
_atom_site_fract_z
Si Si1 0.060867 0.176659 0.714920
Si Si2 0.647636 0.132967 0.317908
Si Si3 0.951623 0.163443 0.397025
Si Si4 0.932714 0.682451 0.897991
Si Si5 0.628693 0.932622 0.173550
Si Si6 0.243193 0.854352 0.357197
Si Si7 0.564979 0.818943 0.074649
Si Si8 0.128141 0.437350 0.167198
O O1 0.970616 0.180866 0.642160
O O2 0.062500 0.261691 0.438786
O O3 0.977255 0.219552 0.071272
O O4 0.227770 0.024772 0.674839
O O5 0.705329 0.156803 0.419203
O O6 0.490183 0.201648 0.574049
O O7 0.641325 0.187906 0.985753
O O8 0.805839 0.206858 0.521092
O O9 0.094031 0.007792 0.329537
O O10 0.882365 0.625520 0.958370
O O11 0.801594 0.805304 0.137456
O O12 0.085900 0.555165 0.965097
O O13 0.612744 0.875692 0.041719
O O14 0.500000 0.000000 0.500000
O O15 0.587559 0.052909 0.998977
O O16 0.699114 0.690407 0.859975
O O17 0.000000 0.500000 0.500000
#
# Coordination Sequence:
#
# PCOD9081309 Si02
#       8
#     2   2   2   2   2   2   2   2
#     4  10  19  31  54  82 111 141 188 229 273 339
#     4  10  19  32  52  82 113 144 182 229 275 343
#     4   9  18  31  51  80 113 148 174 223 285 341
#     4  10  21  36  52  81 106 149 191 235 278 328
#     4  10  20  33  54  75 112 140 181 237 285 333
#     4   9  18  32  50  78 118 146 173 221 289 340
#     4  10  21  34  50  83 104 147 191 228 283 333
#     4  10  22  39  54  71 112 152 193 235 278 330
#
# _framework density 21.785298000000001
#
# number of rings (size 3 to 8) (size 9 to 14) (size 15 to 20)
#    0.000    2.250    1.250    1.500    3.500    4.000 
#    0.000    0.000    0.000    0.000    0.000    5.250 
#    0.000    0.000    0.000    0.000    0.000    0.000 
#
# Total GULP energy -89252.798099 kJ/mol
# GULP energy per Si atom -5578.299881 kJ/mol
# Density = 2.173571 g / cm^3
# Si number density = 21.785298 Si / 1000 Ang^3
#
#
#
# Elastic Constant Matrix: (Units=GPa)
#
#
# Indices 1 2 3 4 5 6 
#
# 1 52.5237 19.8756 6.3801 -2.4823 -7.6373 4.6094
# 2 19.8756 117.9137 24.8603 14.0677 -1.4619 -2.1247
# 3 6.3801 24.8603 77.3020 5.0836 0.8764 1.9764
# 4 -2.4823 14.0677 5.0836 28.1573 2.2991 -1.8454
# 5 -7.6373 -1.4619 0.8764 2.2991 33.0980 -3.9615
# 6 4.6094 -2.1247 1.9764 -1.8454 -3.9615 11.8687
#
#
#
# Elastic Compliance Matrix: (Units=1/GPa)
#
#
# Indices 1 2 3 4 5 6 
#
# 1 0.022004 -0.004065 -0.000579 0.003280 0.003800 -0.007399
# 2 -0.004065 0.010394 -0.002774 -0.004863 0.000322 0.003252
# 3 -0.000579 -0.002774 0.014054 -0.001333 -0.000909 -0.003123
# 4 0.003280 -0.004863 -0.001333 0.038846 -0.001696 0.003551
# 5 0.003800 0.000322 -0.000909 -0.001696 0.032356 0.009269
# 6 -0.007399 0.003252 -0.003123 0.003551 0.009269 0.091876
#
#
# Mechanical properties :
#
#
# Convention : Reuss Voigt Hill
#
# Bulk Modulus (GPa) = 31.62819 38.88572 35.25695
# Shear Modulus (GPa) = 21.28538 27.73304 24.50921
#
# Velocity S-wave (km/s) = 3.12918 3.57181 3.35779
# Velocity P-wave (km/s) = 5.25407 5.90751 5.59035
#
# Compressibility (1/GPa) = 0.03161737
#
# Stress axis : x y z
#
# Youngs Moduli (GPa) = 45.44582 96.21312 71.15429
#
# Poissons Ratio (x) = 0.39107 0.04117
# Poissons Ratio (y) = 0.18472 0.19739
# Poissons Ratio (z) = 0.02629 0.26690
#
# Static dielectric constant tensor:
#      x y z
#    x 1.892430 -0.039780 0.028460 
#    y -0.039780 1.865920 -0.022740 
#    z 0.028460 -0.022740 1.849960 
# 
# From -- ./inp_files/79989.got.cif
#   From: 2010.05.17/outbox.cif.g08.bks.cpg/sg2_40_cif.got.tgz:79989.got - 2010.06.03 11:33:40.
