data_PCOD9081094
_publ_section_title
;
Structure prediction by ZEFSAII (Michael W. Deem and Ramdas Pophale) SiO2 
 PCOD9081094
Probable space group: P -1
;
_chemical_formula_sum "Si O2"
_cell_formula_units_Z 14
_cell_length_a 21.075530
_cell_length_b 16.248651
_cell_length_c 18.728677
_cell_angle_alpha 20.792435
_cell_angle_beta 166.380534
_cell_angle_gamma 154.785391
_cell_volume 535.532553
_symmetry_space_group_name_H-M "P -1"
_symmetry_group_IT_number 2
_symmetry_cell_setting 'triclinic'
loop_
_space_group_symop_operation_xyz
x,y,z
-x,-y,-z
loop_
_atom_site_type_symbol
_atom_site_label
_atom_site_fract_x
_atom_site_fract_y
_atom_site_fract_z
Si Si1 0.813245 0.999922 0.172663
Si Si2 0.519375 0.278632 0.069120
Si Si3 0.699642 0.776479 0.745402
Si Si4 0.087756 0.374077 0.624220
Si Si5 0.274362 0.896077 0.286502
Si Si6 0.625938 0.833885 0.343259
Si Si7 0.467786 0.428753 0.408620
O O1 0.129127 0.999517 0.528408
O O2 0.650594 0.038968 0.036342
O O3 0.715203 0.235288 0.831560
O O4 0.690566 0.793802 0.161517
O O5 0.801968 0.365288 0.278476
O O6 0.619629 0.034660 0.415692
O O7 0.350976 0.435812 0.815991
O O8 0.704661 0.602137 0.825660
O O9 0.450515 0.727819 0.564043
O O10 0.991939 0.801467 0.082155
O O11 0.000000 0.500000 0.500000
O O12 0.170867 0.113720 0.949532
O O13 0.500000 0.000000 0.500000
O O14 0.579616 0.671029 0.357586
O O15 0.688413 0.660160 0.619968
#
# Coordination Sequence:
#
# PCOD9081094 Si02
#       7
#     2   2   2   2   2   2   2
#     4   9  15  23  34  52  78 113 142 163 204 250
#     4   9  17  27  42  60  84 111 147 172 214 265
#     4   9  18  27  45  59  84 116 152 176 212 262
#     4  10  19  31  46  65  84 112 144 186 226 258
#     4  10  20  33  46  64  85 117 151 183 217 258
#     4   9  16  21  35  53  84 112 144 170 200 257
#     4   8  17  22  36  55  82 110 150 165 211 247
#
# _framework density 26.142201
#
# number of rings (size 3 to 8) (size 9 to 14) (size 15 to 20)
#    0.857    2.000    0.000    2.143    6.000    0.000 
#    0.000    0.000    0.000    0.000    0.000    0.000 
#    0.000    0.000    0.000   25.714    2.857    0.000 
#
# Total GULP energy -78206.525053 kJ/mol
# GULP energy per Si atom -5586.180361 kJ/mol
# Density = 2.608270 g / cm^3
# Si number density = 26.142201 Si / 1000 Ang^3
#
#
#
# Elastic Constant Matrix: (Units=GPa)
#
#
# Indices 1 2 3 4 5 6 
#
# 1 63.2988 43.3796 39.2260 15.3944 14.5375 5.7590
# 2 43.3796 114.1915 55.1543 27.3769 18.1800 -36.2684
# 3 39.2260 55.1543 146.4605 27.3680 20.9275 -1.0009
# 4 15.3944 27.3769 27.3680 43.9325 13.9061 0.4737
# 5 14.5375 18.1800 20.9275 13.9061 43.0808 7.8254
# 6 5.7590 -36.2684 -1.0009 0.4737 7.8254 39.8632
#
#
#
# Elastic Compliance Matrix: (Units=1/GPa)
#
#
# Indices 1 2 3 4 5 6 
#
# 1 0.030557 -0.017909 -0.002090 0.001470 0.001619 -0.021096
# 2 -0.017909 0.031169 -0.003952 -0.008376 -0.008407 0.032596
# 3 -0.002090 -0.003952 0.009429 -0.002354 -0.000931 -0.002846
# 4 0.001470 -0.008376 -0.002354 0.030365 -0.004273 -0.007414
# 5 0.001619 -0.008407 -0.000931 -0.004273 0.030562 -0.013855
# 6 -0.021096 0.032596 -0.002846 -0.007414 -0.013855 0.060527
#
#
# Mechanical properties :
#
#
# Convention : Reuss Voigt Hill
#
# Bulk Modulus (GPa) = 43.00547 66.60786 54.80667
# Shear Modulus (GPa) = 20.14012 37.78801 28.96406
#
# Velocity S-wave (km/s) = 2.77863 3.80607 3.33219
# Velocity P-wave (km/s) = 5.17501 6.69696 5.98456
#
# Compressibility (1/GPa) = 0.02325285
#
# Stress axis : x y z
#
# Youngs Moduli (GPa) = 32.72612 32.08341 106.05564
#
# Poissons Ratio (x) = 0.57459 0.22163
# Poissons Ratio (y) = 0.58610 0.41911
# Poissons Ratio (z) = 0.06839 0.12679
#
# Static dielectric constant tensor:
#      x y z
#    x 2.166980 0.045290 -0.052050 
#    y 0.045290 2.068410 -0.040450 
#    z -0.052050 -0.040450 2.017030 
# 
# From -- ./inp_files/525434.got.cif
#   From: 2010.05.17/outbox.cif.g08.bks.cpg/sg2_263_cif.got.tgz:525434.got - 2010.06.03 11:33:40.
