data_PCOD9081501
_publ_section_title
;
Structure prediction by ZEFSAII (Michael W. Deem and Ramdas Pophale) SiO2 
 PCOD9081501
Probable space group: P -1
;
_chemical_formula_sum "Si O2"
_cell_formula_units_Z 16
_cell_length_a 12.186220
_cell_length_b 16.887300
_cell_length_c 16.144567
_cell_angle_alpha 144.961531
_cell_angle_beta 154.790159
_cell_angle_gamma 29.390487
_cell_volume 687.079081
_symmetry_space_group_name_H-M "P -1"
_symmetry_group_IT_number 2
_symmetry_cell_setting 'triclinic'
loop_
_space_group_symop_operation_xyz
x,y,z
-x,-y,-z
loop_
_atom_site_type_symbol
_atom_site_label
_atom_site_fract_x
_atom_site_fract_y
_atom_site_fract_z
Si Si1 0.262606 0.808277 0.525528
Si Si2 0.305638 0.912267 0.376644
Si Si3 0.630119 0.896416 0.746261
Si Si4 0.809708 0.092691 0.869853
Si Si5 0.730269 0.541963 0.289601
Si Si6 0.628970 0.113988 0.159312
Si Si7 0.689793 0.599616 0.128349
Si Si8 0.777853 0.735800 0.143996
O O1 0.523588 0.787369 0.625435
O O2 0.372224 0.789305 0.678279
O O3 0.098194 0.710881 0.313687
O O4 0.000000 0.000000 0.500000
O O5 0.542028 0.903844 0.596682
O O6 0.471668 0.729349 0.296185
O O7 0.981882 0.989924 0.268225
O O8 0.208635 0.008333 0.305070
O O9 0.972841 0.841756 0.954227
O O10 0.420616 0.081257 0.795859
O O11 0.489013 0.220637 0.800037
O O12 0.000000 0.000000 0.000000
O O13 0.563068 0.443587 0.102442
O O14 0.000000 0.500000 0.500000
O O15 0.845063 0.509994 0.244620
O O16 0.426542 0.238010 0.053877
O O17 0.500000 0.000000 0.000000
O O18 0.826235 0.611631 0.144610
#
# Coordination Sequence:
#
# PCOD9081501 Si02
#       8
#     2   2   2   2   2   2   2   2
#     4  10  19  32  50  80 122 151 177 214 280 345
#     4  11  21  33  57  82 111 150 189 225 282 348
#     4  11  19  33  52  84 119 148 176 224 285 346
#     4  11  20  34  52  85 117 142 179 236 294 342
#     4  10  23  43  58  76 109 160 202 235 273 332
#     4  12  18  32  57  90 119 149 178 226 297 349
#     4  10  22  40  58  81 114 148 194 241 282 333
#     4  11  20  34  56  87 120 146 182 235 290 345
#
# _framework density 23.286984
#
# number of rings (size 3 to 8) (size 9 to 14) (size 15 to 20)
#    0.000    1.250    7.500    0.750    0.000    1.500 
#    2.250    0.000    0.000    3.000    0.000   20.125 
#    0.000    0.000    0.000    0.000    0.000    0.000 
#
# Total GULP energy -89225.451588 kJ/mol
# GULP energy per Si atom -5576.590724 kJ/mol
# Density = 2.323398 g / cm^3
# Si number density = 23.286984 Si / 1000 Ang^3
#
#
#
# Elastic Constant Matrix: (Units=GPa)
#
#
# Indices 1 2 3 4 5 6 
#
# 1 109.8378 23.9679 60.8108 -14.7290 -5.5183 33.3613
# 2 23.9679 25.4853 12.5873 -0.3832 -0.0913 10.8366
# 3 60.8108 12.5873 182.6962 -25.1778 -23.4728 24.9035
# 4 -14.7290 -0.3832 -25.1778 20.7241 4.3265 -3.5225
# 5 -5.5183 -0.0913 -23.4728 4.3265 53.4090 -2.6668
# 6 33.3613 10.8366 24.9035 -3.5225 -2.6668 36.5479
#
#
#
# Elastic Compliance Matrix: (Units=1/GPa)
#
#
# Indices 1 2 3 4 5 6 
#
# 1 0.016621 -0.010081 -0.002621 0.006885 -0.000497 -0.009769
# 2 -0.010081 0.051639 -0.000481 -0.007734 -0.000867 -0.006590
# 3 -0.002621 -0.000481 0.007932 0.006888 0.002556 -0.002019
# 4 0.006885 -0.007734 0.006888 0.061167 -0.001374 -0.002890
# 5 -0.000497 -0.000867 0.002556 -0.001374 0.019920 0.000291
# 6 -0.009769 -0.006590 -0.002019 -0.002890 0.000291 0.039351
#
#
# Mechanical properties :
#
#
# Convention : Reuss Voigt Hill
#
# Bulk Modulus (GPa) = 20.06997 56.97238 38.52118
# Shear Modulus (GPa) = 20.86763 36.84643 28.85703
#
# Velocity S-wave (km/s) = 2.99675 3.98210 3.52403
# Velocity P-wave (km/s) = 4.53996 6.75731 5.75641
#
# Compressibility (1/GPa) = 0.04982569
#
# Stress axis : x y z
#
# Youngs Moduli (GPa) = 60.16551 19.36508 126.07128
#
# Poissons Ratio (x) = 0.19522 0.33045
# Poissons Ratio (y) = 0.60652 0.06068
# Poissons Ratio (z) = 0.15770 0.00932
#
# Static dielectric constant tensor:
#      x y z
#    x 1.962790 0.098470 -0.017830 
#    y 0.098470 2.077640 -0.089640 
#    z -0.017830 -0.089640 1.936670 
# 
# From -- ./inp_files/521692.got.cif
#   From: 2010.05.17/outbox.cif.g08.bks.cpg/sg2_261_cif.got.tgz:521692.got - 2010.06.03 11:33:40.
