data_PCOD9081021
_publ_section_title
;
Structure prediction by ZEFSAII (Michael W. Deem and Ramdas Pophale) SiO2 
 PCOD9081021
Probable space group: P -1
;
_chemical_formula_sum "Si O2"
_cell_formula_units_Z 12
_cell_length_a 7.009887
_cell_length_b 9.919632
_cell_length_c 7.503989
_cell_angle_alpha 104.251214
_cell_angle_beta 87.024422
_cell_angle_gamma 125.089199
_cell_volume 411.172737
_symmetry_space_group_name_H-M "P -1"
_symmetry_group_IT_number 2
_symmetry_cell_setting 'triclinic'
loop_
_space_group_symop_operation_xyz
x,y,z
-x,-y,-z
loop_
_atom_site_type_symbol
_atom_site_label
_atom_site_fract_x
_atom_site_fract_y
_atom_site_fract_z
Si Si1 0.627472 0.377848 0.316995
Si Si2 0.863042 0.125097 0.562403
Si Si3 0.772127 0.503908 0.995560
Si Si4 0.204569 0.001186 0.084988
Si Si5 0.961966 0.267965 0.247464
Si Si6 0.512038 0.242116 0.640744
O O1 0.415732 0.189365 0.196719
O O2 0.569846 0.376910 0.525761
O O3 0.858505 0.377303 0.312794
O O4 0.693675 0.512066 0.199709
O O5 0.892753 0.113238 0.767064
O O6 0.968692 0.764516 0.575505
O O7 0.739722 0.931562 0.435458
O O8 0.685104 0.182457 0.585744
O O9 0.841988 0.642260 0.885230
O O10 0.567199 0.326793 0.857150
O O11 0.000000 0.500000 0.000000
O O12 0.000000 0.000000 0.000000
O O13 0.248919 0.907152 0.895690
#
# Coordination Sequence:
#
# PCOD9081021 Si02
#       6
#     2   2   2   2   2   2
#     4   9  19  35  56  78 105 137 170 213 258 307
#     4   9  18  33  54  76 104 136 174 215 254 303
#     4  10  19  30  52  83 111 132 164 213 265 311
#     4  11  22  36  55  77 103 138 179 218 256 302
#     4  10  20  33  55  81 104 134 172 215 261 306
#     4   9  17  31  53  81 105 134 170 213 260 302
#
# _framework density 29.184816999999999
#
# number of rings (size 3 to 8) (size 9 to 14) (size 15 to 20)
#    0.000    2.333    0.000    4.500    0.000    8.000 
#    0.000    0.833    0.000    5.000    0.000    0.000 
#    0.000    0.000    0.000    0.000    0.000    0.000 
#
# Total GULP energy -67224.795108 kJ/mol
# GULP energy per Si atom -5602.066259 kJ/mol
# Density = 2.911839 g / cm^3
# Si number density = 29.184817 Si / 1000 Ang^3
#
#
#
# Elastic Constant Matrix: (Units=GPa)
#
#
# Indices 1 2 3 4 5 6 
#
# 1 95.7453 6.4175 32.9312 -17.9778 8.4891 -0.1533
# 2 6.4175 113.6057 74.7436 -40.7398 -0.4498 22.8211
# 3 32.9312 74.7436 271.8675 -37.6197 -25.2960 22.8435
# 4 -17.9778 -40.7398 -37.6197 88.0200 10.4855 -9.1154
# 5 8.4891 -0.4498 -25.2960 10.4855 44.3164 -2.7272
# 6 -0.1533 22.8211 22.8435 -9.1154 -2.7272 18.9143
#
#
#
# Elastic Compliance Matrix: (Units=1/GPa)
#
#
# Indices 1 2 3 4 5 6 
#
# 1 0.011895 0.001234 -0.001895 0.002833 -0.003913 0.001697
# 2 0.001234 0.014957 -0.002834 0.005088 -0.003687 -0.012693
# 3 -0.001895 -0.002834 0.005170 -0.000119 0.003163 -0.002441
# 4 0.002833 0.005088 -0.000119 0.014782 -0.004021 0.000571
# 5 -0.003913 -0.003687 0.003163 -0.004021 0.026184 0.002435
# 6 0.001697 -0.012693 -0.002441 0.000571 0.002435 0.071773
#
#
# Mechanical properties :
#
#
# Convention : Reuss Voigt Hill
#
# Bulk Modulus (GPa) = 39.94751 78.82255 59.38503
# Shear Modulus (GPa) = 31.23139 54.72523 42.97831
#
# Velocity S-wave (km/s) = 3.27482 4.33497 3.84164
# Velocity P-wave (km/s) = 5.29309 7.21960 6.33007
#
# Compressibility (1/GPa) = 0.02503285
#
# Stress axis : x y z
#
# Youngs Moduli (GPa) = 84.06894 66.85727 193.42610
#
# Poissons Ratio (x) = -0.08252 0.36652
# Poissons Ratio (y) = -0.10377 0.54819
# Poissons Ratio (z) = 0.15930 0.18948
#
# Static dielectric constant tensor:
#      x y z
#    x 2.255530 -0.008640 0.001810 
#    y -0.008640 2.344970 0.035390 
#    z 0.001810 0.035390 2.185630 
# 
# From -- ./inp_files/178268.got.cif
#   From: 2010.05.17/outbox.cif.g08.bks.cpg/sg2_90_cif.got.tgz:178268.got - 2010.06.03 11:33:40.
