data_PCOD9081015
_publ_section_title
;
Structure prediction by ZEFSAII (Michael W. Deem and Ramdas Pophale) SiO2 
 PCOD9081015
Probable space group: P -1
;
_chemical_formula_sum "Si O2"
_cell_formula_units_Z 16
_cell_length_a 5.596317
_cell_length_b 16.793170
_cell_length_c 14.906110
_cell_angle_alpha 33.595297
_cell_angle_beta 50.802266
_cell_angle_gamma 56.246256
_cell_volume 599.313639
_symmetry_space_group_name_H-M "P -1"
_symmetry_group_IT_number 2
_symmetry_cell_setting 'triclinic'
loop_
_space_group_symop_operation_xyz
x,y,z
-x,-y,-z
loop_
_atom_site_type_symbol
_atom_site_label
_atom_site_fract_x
_atom_site_fract_y
_atom_site_fract_z
Si Si1 0.466973 0.340326 0.695645
Si Si2 0.472647 0.986398 0.775944
Si Si3 0.277533 0.258010 0.468199
Si Si4 0.863899 0.958932 0.436204
Si Si5 0.445378 0.704890 0.970542
Si Si6 0.906578 0.222037 0.841943
Si Si7 0.931699 0.305992 0.245649
Si Si8 0.007415 0.484099 0.798625
O O1 0.500000 0.500000 0.500000
O O2 0.790529 0.269895 0.725247
O O3 0.260141 0.247118 0.764934
O O4 0.265014 0.370379 0.805272
O O5 0.386612 0.878528 0.816155
O O6 0.406293 0.156274 0.614511
O O7 0.250847 0.929027 0.958918
O O8 0.840034 0.946332 0.736197
O O9 0.101224 0.145060 0.559830
O O10 0.081146 0.407566 0.365905
O O11 0.585939 0.295149 0.305433
O O12 0.961903 0.853950 0.594644
O O13 0.500000 0.000000 0.500000
O O14 0.804064 0.657754 0.919778
O O15 0.282128 0.680733 0.127437
O O16 0.276999 0.612854 0.024349
O O17 0.919466 0.411807 0.235185
#
# Coordination Sequence:
#
# PCOD9081015 Si02
#       8
#     2   2   2   2   2   2   2   2
#     4  11  23  45  70  96 122 156 208 272 327 385
#     4   9  20  35  59  85 125 169 210 264 299 364
#     4  10  21  36  52  84 125 170 210 247 310 365
#     4  10  19  30  52  80 120 176 224 248 292 356
#     4   9  19  36  55  88 124 169 209 256 297 361
#     4   9  23  39  66  98 121 157 213 256 318 372
#     4  10  20  34  51  84 128 171 208 249 303 368
#     4  10  23  37  58  89 121 165 208 260 317 382
#
# _framework density 26.697208
#
# number of rings (size 3 to 8) (size 9 to 14) (size 15 to 20)
#    0.750    1.500    0.000    2.250    5.250    3.500 
#    4.500    0.000    0.000    1.500    0.000    0.000 
#    0.000    0.000    0.000    0.000    0.000    0.000 
#
# Total GULP energy -89203.845717 kJ/mol
# GULP energy per Si atom -5575.240357 kJ/mol
# Density = 2.663644 g / cm^3
# Si number density = 26.697208 Si / 1000 Ang^3
#
#
#
# Elastic Constant Matrix: (Units=GPa)
#
#
# Indices 1 2 3 4 5 6 
#
# 1 122.0165 23.6127 45.7158 -4.9093 -20.1052 -9.5297
# 2 23.6127 79.9049 19.0698 -6.5642 -11.4288 -6.8045
# 3 45.7158 19.0698 110.8281 -6.3853 -15.6450 2.2628
# 4 -4.9093 -6.5642 -6.3853 30.4059 6.2749 1.7510
# 5 -20.1052 -11.4288 -15.6450 6.2749 48.8903 -11.6445
# 6 -9.5297 -6.8045 2.2628 1.7510 -11.6445 37.1979
#
#
#
# Elastic Compliance Matrix: (Units=1/GPa)
#
#
# Indices 1 2 3 4 5 6 
#
# 1 0.010825 -0.001433 -0.003771 -0.000389 0.003908 0.003982
# 2 -0.001433 0.014074 -0.001402 0.001767 0.002757 0.003073
# 3 -0.003771 -0.001402 0.011084 0.001277 0.001122 -0.001606
# 4 -0.000389 0.001767 0.001277 0.034561 -0.004460 -0.002877
# 5 0.003908 0.002757 0.001122 -0.004460 0.025966 0.009776
# 6 0.003982 0.003073 -0.001606 -0.002877 0.009776 0.031759
#
#
# Mechanical properties :
#
#
# Convention : Reuss Voigt Hill
#
# Bulk Modulus (GPa) = 43.91402 54.39400 49.15401
# Shear Modulus (GPa) = 33.54092 38.25556 35.89824
#
# Velocity S-wave (km/s) = 3.54834 3.78953 3.67092
# Velocity P-wave (km/s) = 5.76821 6.29015 6.03483
#
# Compressibility (1/GPa) = 0.02277177
#
# Stress axis : x y z
#
# Youngs Moduli (GPa) = 92.37831 71.05239 90.21628
#
# Poissons Ratio (x) = 0.10181 0.34018
# Poissons Ratio (y) = 0.13236 0.12652
# Poissons Ratio (z) = 0.34833 0.09964
#
# Static dielectric constant tensor:
#      x y z
#    x 2.166750 -0.022330 0.044330 
#    y -0.022330 2.105040 0.043430 
#    z 0.044330 0.043430 2.175150 
# 
# From -- ./inp_files/550859.got.cif
#   From: 2010.05.17/outbox.cif.g08.bks.cpg/sg2_276_cif.got.tgz:550859.got - 2010.06.03 11:33:40.
