data_PCOD9081684
_publ_section_title
;
Structure prediction by ZEFSAII (Michael W. Deem and Ramdas Pophale) SiO2 
 PCOD9081684
Probable space group: P -1
;
_chemical_formula_sum "Si O2"
_cell_formula_units_Z 14
_cell_length_a 10.347361
_cell_length_b 11.511584
_cell_length_c 11.720232
_cell_angle_alpha 86.947545
_cell_angle_beta 142.010287
_cell_angle_gamma 73.970454
_cell_volume 734.224679
_symmetry_space_group_name_H-M "P -1"
_symmetry_group_IT_number 2
_symmetry_cell_setting 'triclinic'
loop_
_space_group_symop_operation_xyz
x,y,z
-x,-y,-z
loop_
_atom_site_type_symbol
_atom_site_label
_atom_site_fract_x
_atom_site_fract_y
_atom_site_fract_z
Si Si1 0.264753 0.072313 0.748571
Si Si2 0.766286 0.470029 0.039344
Si Si3 0.656531 0.313621 0.121436
Si Si4 0.238171 0.347904 0.657842
Si Si5 0.482024 0.389552 0.352099
Si Si6 0.243338 0.871935 0.590912
Si Si7 0.761327 0.536836 0.578688
O O1 0.194184 0.224810 0.657730
O O2 0.028648 0.080586 0.644995
O O3 0.308505 0.983950 0.667833
O O4 0.500000 0.000000 0.000000
O O5 0.840609 0.333957 0.168825
O O6 0.952502 0.518218 0.199332
O O7 0.494388 0.566270 0.897279
O O8 0.724954 0.485676 0.875214
O O9 0.762552 0.187535 0.285049
O O10 0.451975 0.321170 0.895060
O O11 0.322154 0.356748 0.588333
O O12 0.000000 0.500000 0.500000
O O13 0.566262 0.250172 0.350951
O O14 0.701052 0.420878 0.512182
O O15 0.378688 0.395676 0.404938
#
# Coordination Sequence:
#
# PCOD9081684 Si02
#       7
#     2   2   2   2   2   2   2
#     4  11  23  39  62  90 116 152 195 243 302 354
#     4  10  19  32  53  87 120 152 191 243 294 340
#     4  10  19  33  57  89 121 149 191 247 297 342
#     4  12  21  36  62  91 118 151 195 251 299 340
#     4  10  22  36  55  83 121 160 197 237 287 355
#     4  10  22  39  58  86 120 153 196 242 293 353
#     4  11  21  35  55  85 121 158 197 239 292 346
#
# _framework density 19.067730999999998
#
# number of rings (size 3 to 8) (size 9 to 14) (size 15 to 20)
#    0.000    1.429    4.286    2.143    2.000    0.000 
#    0.000    0.714    0.000    0.857    0.000    0.000 
#    0.000    0.000    0.000    0.000    0.000    0.000 
#
# Total GULP energy -78001.173746 kJ/mol
# GULP energy per Si atom -5571.512410 kJ/mol
# Density = 1.902433 g / cm^3
# Si number density = 19.067731 Si / 1000 Ang^3
#
#
#
# Elastic Constant Matrix: (Units=GPa)
#
#
# Indices 1 2 3 4 5 6 
#
# 1 91.7755 32.9178 20.6185 3.4884 -18.4785 -2.5150
# 2 32.9178 121.0301 16.8036 5.7738 -1.0849 1.3151
# 3 20.6185 16.8036 92.8850 13.6577 -8.1723 2.5149
# 4 3.4884 5.7738 13.6577 30.4243 2.4661 -0.5683
# 5 -18.4785 -1.0849 -8.1723 2.4661 25.0409 6.5404
# 6 -2.5150 1.3151 2.5149 -0.5683 6.5404 22.6019
#
#
#
# Elastic Compliance Matrix: (Units=1/GPa)
#
#
# Indices 1 2 3 4 5 6 
#
# 1 0.014675 -0.003623 -0.001461 -0.001219 0.010601 -0.001092
# 2 -0.003623 0.009401 -0.001006 -0.000718 -0.002489 -0.000136
# 3 -0.001461 -0.001006 0.012564 -0.005683 0.004293 -0.002887
# 4 -0.001219 -0.000718 -0.005683 0.036354 -0.007297 0.003564
# 5 0.010601 -0.002489 0.004293 -0.007297 0.053651 -0.014862
# 6 -0.001092 -0.000136 -0.002887 0.003564 -0.014862 0.048842
#
#
# Mechanical properties :
#
#
# Convention : Reuss Voigt Hill
#
# Bulk Modulus (GPa) = 40.88409 49.59670 45.24040
# Shear Modulus (GPa) = 25.53378 31.30346 28.41862
#
# Velocity S-wave (km/s) = 3.66335 4.05618 3.86476
# Velocity P-wave (km/s) = 6.27548 6.92850 6.61006
#
# Compressibility (1/GPa) = 0.02445939
#
# Stress axis : x y z
#
# Youngs Moduli (GPa) = 68.14455 106.37164 79.59405
#
# Poissons Ratio (x) = 0.38543 0.11625
# Poissons Ratio (y) = 0.24692 0.08008
# Poissons Ratio (z) = 0.09953 0.10702
#
# Static dielectric constant tensor:
#      x y z
#    x 1.682950 0.037110 -0.014960 
#    y 0.037110 1.767640 -0.011830 
#    z -0.014960 -0.011830 1.743220 
# 
# From -- ./inp_files/390114.got.cif
#   From: 2010.05.17/outbox.cif.g08.bks.cpg/sg2_196_cif.got.tgz:390114.got - 2010.06.03 11:33:40.
