data_PCOD9081292
_publ_section_title
;
Structure prediction by ZEFSAII (Michael W. Deem and Ramdas Pophale) SiO2 
 PCOD9081292
Probable space group: P -1
;
_chemical_formula_sum "Si O2"
_cell_formula_units_Z 14
_cell_length_a 11.813797
_cell_length_b 9.066133
_cell_length_c 21.233979
_cell_angle_alpha 38.025485
_cell_angle_beta 148.721524
_cell_angle_gamma 141.205608
_cell_volume 686.150504
_symmetry_space_group_name_H-M "P -1"
_symmetry_group_IT_number 2
_symmetry_cell_setting 'triclinic'
loop_
_space_group_symop_operation_xyz
x,y,z
-x,-y,-z
loop_
_atom_site_type_symbol
_atom_site_label
_atom_site_fract_x
_atom_site_fract_y
_atom_site_fract_z
Si Si1 0.174187 0.755877 0.248472
Si Si2 0.149783 0.240389 0.121760
Si Si3 0.886709 0.699383 0.710154
Si Si4 0.719343 0.939274 0.431196
Si Si5 0.501713 0.722477 0.613943
Si Si6 0.762471 0.185235 0.060633
Si Si7 0.897699 0.589307 0.547201
O O1 0.069475 0.544165 0.217296
O O2 0.447506 0.843321 0.338539
O O3 0.131638 0.623439 0.341745
O O4 0.105548 0.006112 0.132578
O O5 0.371321 0.257404 0.265733
O O6 0.921632 0.172497 0.080537
O O7 0.208964 0.516376 0.026612
O O8 0.821963 0.843136 0.573023
O O9 0.668753 0.635458 0.675117
O O10 0.104879 0.863429 0.798576
O O11 0.788256 0.796341 0.453202
O O12 0.834878 0.241750 0.386009
O O13 0.243026 0.534878 0.540107
O O14 0.500000 0.000000 0.500000
O O15 0.500000 0.000000 0.000000
#
# Coordination Sequence:
#
# PCOD9081292 Si02
#       7
#     2   2   2   2   2   2   2
#     4  11  19  39  58  86 117 142 184 238 280 339
#     4  10  23  39  60  80 112 150 188 232 286 326
#     4  10  20  37  61  79 114 154 187 229 280 325
#     4  10  19  33  56  90 116 147 179 228 283 335
#     4  11  18  35  58  86 117 153 177 228 285 340
#     4  10  24  44  57  80 111 150 193 236 272 333
#     4  10  19  31  53  87 122 146 179 216 284 339
#
# _framework density 20.403687999999999
#
# number of rings (size 3 to 8) (size 9 to 14) (size 15 to 20)
#    0.000    1.714    4.286    0.857    2.000    1.714 
#    0.000    2.143    0.000    0.000    0.000    0.000 
#    0.000    0.000    0.000    0.000    0.000    0.000 
#
# Total GULP energy -78136.923475 kJ/mol
# GULP energy per Si atom -5581.208820 kJ/mol
# Density = 2.035725 g / cm^3
# Si number density = 20.403688 Si / 1000 Ang^3
#
#
#
# Elastic Constant Matrix: (Units=GPa)
#
#
# Indices 1 2 3 4 5 6 
#
# 1 33.3939 17.7886 3.6687 -0.4735 -2.0720 -4.2315
# 2 17.7886 92.1680 -0.5275 13.1960 14.6525 8.7997
# 3 3.6687 -0.5275 22.9727 13.2935 19.0511 0.4045
# 4 -0.4735 13.1960 13.2935 37.9402 -10.6514 12.3776
# 5 -2.0720 14.6525 19.0511 -10.6514 1.5111 -1.5861
# 6 -4.2315 8.7997 0.4045 12.3776 -1.5861 32.1769
#
#
#
# Elastic Compliance Matrix: (Units=1/GPa)
#
#
# Indices 1 2 3 4 5 6 
#
# 1 0.031940 -0.004536 0.005555 -0.004904 -0.009696 0.006779
# 2 -0.004536 0.010271 -0.007821 0.002847 0.008687 -0.003974
# 3 0.005555 -0.007821 0.008973 0.008902 0.034151 0.001016
# 4 -0.004904 0.002847 0.008902 0.019046 -0.022790 -0.009985
# 5 -0.009696 0.008687 0.034151 -0.022790 -0.023246 0.003540
# 6 0.006779 -0.003974 0.001016 -0.009985 0.003540 0.037059
#
#
# Mechanical properties :
#
#
# Convention : Reuss Voigt Hill
#
# Bulk Modulus (GPa) = 26.61188 21.15490 23.88339
# Shear Modulus (GPa) = 45.38231 22.83263 34.10747
#
# Velocity S-wave (km/s) = 4.72128 3.34884 4.09300
# Velocity P-wave (km/s) = 6.54153 5.03425 5.83675
#
# Compressibility (1/GPa) = 0.03757720
#
# Stress axis : x y z
#
# Youngs Moduli (GPa) = 31.30901 97.35898 111.45084
#
# Poissons Ratio (x) = 0.44165 -0.61906
# Poissons Ratio (y) = 0.14203 0.87170
# Poissons Ratio (z) = -0.17391 0.76149
#
# Static dielectric constant tensor:
#      x y z
#    x 1.773550 -0.003330 0.015370 
#    y -0.003330 1.744560 -0.012580 
#    z 0.015370 -0.012580 1.729250 
# 
# From -- ./inp_files/186329.got.cif
#   From: 2010.05.17/outbox.cif.g08.bks.cpg/sg2_94_cif.got.tgz:186329.got - 2010.06.03 11:33:40.
