data_PCOD9081485
_publ_section_title
;
Structure prediction by ZEFSAII (Michael W. Deem and Ramdas Pophale) SiO2 
 PCOD9081485
Probable space group: P -1
;
_chemical_formula_sum "Si O2"
_cell_formula_units_Z 12
_cell_length_a 5.822105
_cell_length_b 9.748014
_cell_length_c 14.139139
_cell_angle_alpha 35.151057
_cell_angle_beta 79.461761
_cell_angle_gamma 71.837322
_cell_volume 435.163588
_symmetry_space_group_name_H-M "P -1"
_symmetry_group_IT_number 2
_symmetry_cell_setting 'triclinic'
loop_
_space_group_symop_operation_xyz
x,y,z
-x,-y,-z
loop_
_atom_site_type_symbol
_atom_site_label
_atom_site_fract_x
_atom_site_fract_y
_atom_site_fract_z
Si Si1 0.858706 0.447946 0.451375
Si Si2 0.595561 0.306271 0.715707
Si Si3 0.923973 0.830518 0.931860
Si Si4 0.944978 0.711200 0.673254
Si Si5 0.534105 0.267117 0.059994
Si Si6 0.528568 0.334150 0.311902
O O1 0.695760 0.309005 0.599639
O O2 0.679932 0.696961 0.278429
O O3 0.006270 0.311106 0.429848
O O4 0.000000 0.500000 0.500000
O O5 0.555044 0.561010 0.635058
O O6 0.777754 0.057486 0.881596
O O7 0.717545 0.813873 0.877849
O O8 0.182064 0.880616 0.856267
O O9 0.996793 0.562914 0.128318
O O10 0.179914 0.796498 0.642413
O O11 0.649843 0.800464 0.651546
O O12 0.500000 0.500000 0.000000
O O13 0.521000 0.395270 0.886202
#
# Coordination Sequence:
#
# PCOD9081485 Si02
#       6
#     2   2   2   2   2   2
#     4  10  19  32  50  75 119 152 172 208 264 341
#     4  10  21  33  51  85 115 142 177 216 276 327
#     4  10  22  35  58  83 110 140 177 231 271 319
#     4   9  18  32  48  76 105 144 177 203 265 314
#     4  10  21  37  55  80 109 142 183 227 274 315
#     4   9  18  31  51  76 106 139 172 213 264 319
#
# _framework density 27.575839999999999
#
# number of rings (size 3 to 8) (size 9 to 14) (size 15 to 20)
#    0.000    2.333    1.667    0.500    2.333    8.667 
#    0.000    0.000    0.000    0.000    0.000   65.333 
#    0.000    0.000    0.000    0.000    0.000    0.000 
#
# Total GULP energy -66807.133914 kJ/mol
# GULP energy per Si atom -5567.261160 kJ/mol
# Density = 2.751308 g / cm^3
# Si number density = 27.575840 Si / 1000 Ang^3
#
#
#
# Elastic Constant Matrix: (Units=GPa)
#
#
# Indices 1 2 3 4 5 6 
#
# 1 255.6100 26.3546 51.0885 -35.1950 57.1095 10.1008
# 2 26.3546 80.6363 21.6886 -9.6160 20.0047 -3.0873
# 3 51.0885 21.6886 59.0307 -5.5594 21.8852 1.5860
# 4 -35.1950 -9.6160 -5.5594 35.8682 -11.1167 6.9476
# 5 57.1095 20.0047 21.8852 -11.1167 48.0605 -6.0635
# 6 10.1008 -3.0873 1.5860 6.9476 -6.0635 29.2828
#
#
#
# Elastic Compliance Matrix: (Units=1/GPa)
#
#
# Indices 1 2 3 4 5 6 
#
# 1 0.006792 0.000639 -0.003169 0.005309 -0.006253 -0.004658
# 2 0.000639 0.014691 -0.004069 0.002558 -0.004426 0.000026
# 3 -0.003169 -0.004069 0.023135 -0.002146 -0.005731 -0.001266
# 4 0.005309 0.002558 -0.002146 0.035513 0.000589 -0.009749
# 5 -0.006253 -0.004426 -0.005731 0.000589 0.033947 0.008890
# 6 -0.004658 0.000026 -0.001266 -0.009749 0.008890 0.039982
#
#
# Mechanical properties :
#
#
# Convention : Reuss Voigt Hill
#
# Bulk Modulus (GPa) = 31.82874 65.94894 48.88884
# Shear Modulus (GPa) = 28.13205 42.38533 35.25869
#
# Velocity S-wave (km/s) = 3.19748 3.92477 3.57964
# Velocity P-wave (km/s) = 5.01987 6.67127 5.90360
#
# Compressibility (1/GPa) = 0.03141815
#
# Stress axis : x y z
#
# Youngs Moduli (GPa) = 147.23324 68.06799 43.22430
#
# Poissons Ratio (x) = -0.04347 0.13699
# Poissons Ratio (y) = -0.09403 0.17589
# Poissons Ratio (z) = 0.46664 0.27699
#
# Static dielectric constant tensor:
#      x y z
#    x 2.769530 -0.049770 0.094160 
#    y -0.049770 2.144620 -0.042420 
#    z 0.094160 -0.042420 2.398650 
# 
# From -- ./inp_files/73756.got.cif
#   From: 2010.05.17/outbox.cif.g08.bks.cpg/sg2_37_cif.got.tgz:73756.got - 2010.06.03 11:33:40.
