data_PCOD9081004
_publ_section_title
;
Structure prediction by ZEFSAII (Michael W. Deem and Ramdas Pophale) SiO2 
 PCOD9081004
Probable space group: P -1
;
_chemical_formula_sum "Si O2"
_cell_formula_units_Z 16
_cell_length_a 11.541666
_cell_length_b 12.619043
_cell_length_c 18.328899
_cell_angle_alpha 131.964753
_cell_angle_beta 143.065296
_cell_angle_gamma 75.249636
_cell_volume 929.759866
_symmetry_space_group_name_H-M "P -1"
_symmetry_group_IT_number 2
_symmetry_cell_setting 'triclinic'
loop_
_space_group_symop_operation_xyz
x,y,z
-x,-y,-z
loop_
_atom_site_type_symbol
_atom_site_label
_atom_site_fract_x
_atom_site_fract_y
_atom_site_fract_z
Si Si1 0.658087 0.970633 0.304118
Si Si2 0.216432 0.295441 0.774353
Si Si3 0.280842 0.499329 0.051544
Si Si4 0.708545 0.511965 0.252772
Si Si5 0.569100 0.107614 0.697372
Si Si6 0.105361 0.868909 0.246154
Si Si7 0.361554 0.140164 0.986635
Si Si8 0.727568 0.181967 0.291575
O O1 0.643090 0.792913 0.200043
O O2 0.478875 0.940288 0.263771
O O3 0.646522 0.063468 0.269852
O O4 0.932415 0.120153 0.542475
O O5 0.278790 0.422132 0.793724
O O6 0.236386 0.396159 0.904651
O O7 0.548510 0.558257 0.236536
O O8 0.312310 0.680870 0.147371
O O9 0.050160 0.345874 0.913536
O O10 0.547306 0.298001 0.093147
O O11 0.993841 0.630852 0.474190
O O12 0.744442 0.080440 0.729692
O O13 0.309536 0.990151 0.467715
O O14 0.886529 0.882822 0.141926
O O15 0.527362 0.201855 0.171015
O O16 0.273760 0.944739 0.826891
#
# Coordination Sequence:
#
# PCOD9081004 Si02
#       8
#     2   2   2   2   2   2   2   2
#     4  10  19  33  53  79 111 138 164 218 263 318
#     4  10  19  30  51  85 112 129 165 213 280 310
#     4  11  19  31  52  81 105 134 166 212 264 320
#     4  10  19  30  52  79 106 132 161 212 265 311
#     4  11  21  34  54  75 108 139 172 213 268 300
#     4  10  22  37  50  76 105 141 177 216 250 312
#     4  10  21  36  54  73 106 140 175 214 249 311
#     4  10  21  35  52  79 104 137 174 210 262 310
#
# _framework density 17.208745
#
# number of rings (size 3 to 8) (size 9 to 14) (size 15 to 20)
#    0.000    1.750    2.500    3.375    3.500    0.000 
#    0.000    0.625    0.000    0.000    0.000    1.750 
#    0.000    0.000    0.000    0.000    0.000    0.000 
#
# Total GULP energy -89118.648489 kJ/mol
# GULP energy per Si atom -5569.915531 kJ/mol
# Density = 1.716958 g / cm^3
# Si number density = 17.208745 Si / 1000 Ang^3
#
#
#
# Elastic Constant Matrix: (Units=GPa)
#
#
# Indices 1 2 3 4 5 6 
#
# 1 79.2206 18.5492 36.6150 -10.1668 13.3635 9.5583
# 2 18.5492 40.8770 28.9271 -10.9719 12.2064 0.0249
# 3 36.6150 28.9271 81.7772 -5.8700 16.9187 -3.8157
# 4 -10.1668 -10.9719 -5.8700 28.1411 0.3805 -3.1068
# 5 13.3635 12.2064 16.9187 0.3805 21.8135 2.5990
# 6 9.5583 0.0249 -3.8157 -3.1068 2.5990 16.4078
#
#
#
# Elastic Compliance Matrix: (Units=1/GPa)
#
#
# Indices 1 2 3 4 5 6 
#
# 1 0.018849 -0.001123 -0.007540 0.003585 -0.003769 -0.011456
# 2 -0.001123 0.039701 -0.009304 0.013710 -0.014955 0.003395
# 3 -0.007540 -0.009304 0.020895 -0.000750 -0.007599 0.010327
# 4 0.003585 0.013710 -0.000750 0.043006 -0.010941 0.007592
# 5 -0.003769 -0.014955 -0.007599 -0.010941 0.064006 -0.011759
# 6 -0.011456 0.003395 0.010327 0.007592 -0.011759 0.073317
#
#
# Mechanical properties :
#
#
# Convention : Reuss Voigt Hill
#
# Bulk Modulus (GPa) = 22.98235 41.11751 32.04993
# Shear Modulus (GPa) = 16.11805 21.12469 18.62137
#
# Velocity S-wave (km/s) = 3.06374 3.50745 3.29308
# Velocity P-wave (km/s) = 5.08915 6.35202 5.75533
#
# Compressibility (1/GPa) = 0.04351166
#
# Stress axis : x y z
#
# Youngs Moduli (GPa) = 53.05405 25.18827 47.85752
#
# Poissons Ratio (x) = 0.02829 0.36083
# Poissons Ratio (y) = 0.05958 0.44527
# Poissons Ratio (z) = 0.40001 0.23435
#
# Static dielectric constant tensor:
#      x y z
#    x 1.581690 0.023220 0.009770 
#    y 0.023220 1.604220 -0.006300 
#    z 0.009770 -0.006300 1.635540 
# 
# From -- ./inp_files/454224.got.cif
#   From: 2010.05.17/outbox.cif.g08.bks.cpg/sg2_228_cif.got.tgz:454224.got - 2010.06.03 11:33:40.
