data_PCOD9081784
_publ_section_title
;
Structure prediction by ZEFSAII (Michael W. Deem and Ramdas Pophale) SiO2 
 PCOD9081784
Probable space group: P -1
;
_chemical_formula_sum "Si O2"
_cell_formula_units_Z 12
_cell_length_a 11.199135
_cell_length_b 11.500412
_cell_length_c 11.935786
_cell_angle_alpha 52.342370
_cell_angle_beta 154.507723
_cell_angle_gamma 134.743061
_cell_volume 468.425175
_symmetry_space_group_name_H-M "P -1"
_symmetry_group_IT_number 2
_symmetry_cell_setting 'triclinic'
loop_
_space_group_symop_operation_xyz
x,y,z
-x,-y,-z
loop_
_atom_site_type_symbol
_atom_site_label
_atom_site_fract_x
_atom_site_fract_y
_atom_site_fract_z
Si Si1 0.338522 0.279159 0.861548
Si Si2 0.095115 0.758747 0.694970
Si Si3 0.208534 0.335296 0.955877
Si Si4 0.271691 0.079496 0.275221
Si Si5 0.144032 0.609253 0.194864
Si Si6 0.144994 0.215524 0.306476
O O1 0.130505 0.254941 0.590426
O O2 0.148084 0.259658 0.825744
O O3 0.592552 0.469172 0.984122
O O4 0.557824 0.188503 0.086866
O O5 0.973648 0.576744 0.754837
O O6 0.061241 0.857629 0.714923
O O7 0.904064 0.298240 0.791972
O O8 0.412137 0.266476 0.237806
O O9 0.144463 0.088363 0.286285
O O10 0.500000 0.000000 0.500000
O O11 0.000000 0.000000 0.000000
O O12 0.497855 0.688101 0.410795
O O13 0.948734 0.654311 0.911614
#
# Coordination Sequence:
#
# PCOD9081784 Si02
#       6
#     2   2   2   2   2   2
#     4  10  22  35  59  85 116 149 175 223 276 343
#     4  11  20  33  53  84 114 146 179 216 285 340
#     4   9  21  39  57  85 115 144 189 226 273 324
#     4  11  23  38  59  81 106 146 190 236 272 310
#     4  10  19  32  55  82 112 146 177 227 282 327
#     4  11  21  35  54  79 114 143 183 233 273 328
#
# _framework density 25.617750999999998
#
# number of rings (size 3 to 8) (size 9 to 14) (size 15 to 20)
#    0.000    1.667    0.000    7.000    0.000   11.333 
#    0.000    0.000    0.000    6.000    0.000    0.000 
#    0.000    0.000    0.000    0.000    0.000    0.000 
#
# Total GULP energy -67137.529259 kJ/mol
# GULP energy per Si atom -5594.794105 kJ/mol
# Density = 2.555944 g / cm^3
# Si number density = 25.617751 Si / 1000 Ang^3
#
#
#
# Elastic Constant Matrix: (Units=GPa)
#
#
# Indices 1 2 3 4 5 6 
#
# 1 205.1560 14.0003 57.5092 3.5508 -6.3517 -54.4991
# 2 14.0003 48.9733 4.1158 1.2634 -3.0230 -24.5957
# 3 57.5092 4.1158 149.3943 -3.8022 7.3111 -28.7639
# 4 3.5508 1.2634 -3.8022 25.9176 -5.8603 -2.1481
# 5 -6.3517 -3.0230 7.3111 -5.8603 47.7116 7.5754
# 6 -54.4991 -24.5957 -28.7639 -2.1481 7.5754 40.4117
#
#
#
# Elastic Compliance Matrix: (Units=1/GPa)
#
#
# Indices 1 2 3 4 5 6 
#
# 1 0.008370 0.004476 -0.000700 -0.000501 -0.000719 0.013622
# 2 0.004476 0.033237 0.003036 0.000076 -0.002338 0.028868
# 3 -0.000700 0.003036 0.008445 0.001300 -0.002210 0.007398
# 4 -0.000501 0.000076 0.001300 0.039965 0.004394 0.001596
# 5 -0.000719 -0.002338 -0.002210 0.004394 0.022867 -0.008019
# 6 0.013622 0.028868 0.007398 0.001596 -0.008019 0.067539
#
#
# Mechanical properties :
#
#
# Convention : Reuss Voigt Hill
#
# Bulk Modulus (GPa) = 15.70477 61.64158 38.67317
# Shear Modulus (GPa) = 26.59213 44.66808 35.63010
#
# Velocity S-wave (km/s) = 3.22535 4.18022 3.73344
# Velocity P-wave (km/s) = 4.47373 6.88573 5.80636
#
# Compressibility (1/GPa) = 0.06367492
#
# Stress axis : x y z
#
# Youngs Moduli (GPa) = 119.47101 30.08730 118.41037
#
# Poissons Ratio (x) = -0.13467 0.08292
# Poissons Ratio (y) = -0.53473 -0.35948
# Poissons Ratio (z) = 0.08366 -0.09134
#
# Static dielectric constant tensor:
#      x y z
#    x 2.084780 0.017390 0.003910 
#    y 0.017390 2.181330 -0.003620 
#    z 0.003910 -0.003620 1.950920 
# 
# From -- ./inp_files/73755.got.cif
#   From: 2010.05.17/outbox.cif.g08.bks.cpg/sg2_37_cif.got.tgz:73755.got - 2010.06.03 11:33:40.
