data_PCOD9081606
_publ_section_title
;
Structure prediction by ZEFSAII (Michael W. Deem and Ramdas Pophale) SiO2 
 PCOD9081606
Probable space group: P -1
;
_chemical_formula_sum "Si O2"
_cell_formula_units_Z 16
_cell_length_a 16.254531
_cell_length_b 11.586043
_cell_length_c 8.070920
_cell_angle_alpha 70.514876
_cell_angle_beta 44.793932
_cell_angle_gamma 104.041228
_cell_volume 698.874573
_symmetry_space_group_name_H-M "P -1"
_symmetry_group_IT_number 2
_symmetry_cell_setting 'triclinic'
loop_
_space_group_symop_operation_xyz
x,y,z
-x,-y,-z
loop_
_atom_site_type_symbol
_atom_site_label
_atom_site_fract_x
_atom_site_fract_y
_atom_site_fract_z
Si Si1 0.663911 0.988291 0.708251
Si Si2 0.012787 0.133916 0.015312
Si Si3 0.964799 0.286536 0.757094
Si Si4 0.259145 0.523607 0.974101
Si Si5 0.165953 0.642205 0.804925
Si Si6 0.570908 0.162097 0.197998
Si Si7 0.223097 0.895182 0.177572
Si Si8 0.907773 0.804300 0.777004
O O1 0.826143 0.033235 0.393265
O O2 0.641537 0.949368 0.957812
O O3 0.531266 0.878594 0.801359
O O4 0.713715 0.170388 0.547187
O O5 0.131862 0.214121 0.965262
O O6 0.066414 0.278284 0.741672
O O7 0.000000 0.000000 0.000000
O O8 0.879090 0.321480 0.977490
O O9 0.823408 0.100592 0.947034
O O10 0.096326 0.431569 0.365264
O O11 0.245957 0.578107 0.787284
O O12 0.241160 0.364206 0.041986
O O13 0.402364 0.699885 0.790232
O O14 0.000000 0.500000 0.000000
O O15 0.500000 0.000000 0.500000
O O16 0.735027 0.215158 0.864072
O O17 0.050889 0.806276 0.555846
O O18 0.000000 0.000000 0.500000
#
# Coordination Sequence:
#
# PCOD9081606 Si02
#       8
#     2   2   2   2   2   2   2   2
#     4  10  22  36  53  88 118 153 191 241 288 356
#     4  10  19  37  62  86 113 150 194 246 293 336
#     4  10  19  32  52  85 111 143 193 241 290 334
#     4  11  21  34  57  83 119 155 189 241 296 340
#     4  11  19  31  53  82 115 142 188 243 292 337
#     4  12  22  38  55  83 124 160 194 228 294 365
#     4  10  20  37  58  82 118 157 194 240 293 339
#     4  10  22  39  61  91 115 146 198 249 289 337
#
# _framework density 22.89395
#
# number of rings (size 3 to 8) (size 9 to 14) (size 15 to 20)
#    0.000    1.500    2.500    6.000    3.500    0.000 
#    0.000    0.000    0.000    9.750    0.000    0.000 
#    0.000    0.000    0.000    0.000    0.000    0.000 
#
# Total GULP energy -89088.480882 kJ/mol
# GULP energy per Si atom -5568.030055 kJ/mol
# Density = 2.284184 g / cm^3
# Si number density = 22.893950 Si / 1000 Ang^3
#
#
#
# Elastic Constant Matrix: (Units=GPa)
#
#
# Indices 1 2 3 4 5 6 
#
# 1 81.5607 41.2971 15.3652 -13.7744 11.4450 43.9177
# 2 41.2971 150.6180 21.7353 -22.3660 9.4808 42.0952
# 3 15.3652 21.7353 38.2261 -11.2072 7.2297 8.2313
# 4 -13.7744 -22.3660 -11.2072 39.3112 3.7538 -3.5724
# 5 11.4450 9.4808 7.2297 3.7538 28.4172 -2.6266
# 6 43.9177 42.0952 8.2313 -3.5724 -2.6266 54.6718
#
#
#
# Elastic Compliance Matrix: (Units=1/GPa)
#
#
# Indices 1 2 3 4 5 6 
#
# 1 0.028292 0.001447 -0.001442 0.009600 -0.014970 -0.023716
# 2 0.001447 0.009984 -0.001950 0.005332 -0.004902 -0.008443
# 3 -0.001442 -0.001950 0.032249 0.008179 -0.008244 -0.002057
# 4 0.009600 0.005332 0.008179 0.034400 -0.013328 -0.011441
# 5 -0.014970 -0.004902 -0.008244 -0.013328 0.048422 0.018497
# 6 -0.023716 -0.008443 -0.002057 -0.011441 0.018497 0.044293
#
#
# Mechanical properties :
#
#
# Convention : Reuss Voigt Hill
#
# Bulk Modulus (GPa) = 15.00730 47.46665 31.23698
# Shear Modulus (GPa) = 22.34708 37.28053 29.81380
#
# Velocity S-wave (km/s) = 3.12767 4.03972 3.61259
# Velocity P-wave (km/s) = 4.42860 6.52207 5.57449
#
# Compressibility (1/GPa) = 0.06663424
#
# Stress axis : x y z
#
# Youngs Moduli (GPa) = 35.34566 100.15887 31.00905
#
# Poissons Ratio (x) = -0.14492 0.04472
# Poissons Ratio (y) = -0.05114 0.06046
# Poissons Ratio (z) = 0.05098 0.19530
#
# Static dielectric constant tensor:
#      x y z
#    x 2.016500 0.007050 0.009400 
#    y 0.007050 1.903070 -0.066290 
#    z 0.009400 -0.066290 2.008700 
# 
# From -- ./inp_files/333109.got.cif
#   From: 2010.05.17/outbox.cif.g08.bks.cpg/sg2_167_cif.got.tgz:333109.got - 2010.06.03 11:33:40.
