data_PCOD9081992
_publ_section_title
;
Structure prediction by ZEFSAII (Michael W. Deem and Ramdas Pophale) SiO2 
 PCOD9081992
Probable space group: P -1
;
_chemical_formula_sum "Si O2"
_cell_formula_units_Z 16
_cell_length_a 11.188957
_cell_length_b 12.129614
_cell_length_c 7.429932
_cell_angle_alpha 107.325199
_cell_angle_beta 108.904391
_cell_angle_gamma 47.414014
_cell_volume 697.900894
_symmetry_space_group_name_H-M "P -1"
_symmetry_group_IT_number 2
_symmetry_cell_setting 'triclinic'
loop_
_space_group_symop_operation_xyz
x,y,z
-x,-y,-z
loop_
_atom_site_type_symbol
_atom_site_label
_atom_site_fract_x
_atom_site_fract_y
_atom_site_fract_z
Si Si1 0.900785 0.323090 0.190338
Si Si2 0.468961 0.639244 0.660622
Si Si3 0.823099 0.437751 0.835732
Si Si4 0.289569 0.040948 0.252891
Si Si5 0.528322 0.849682 0.596034
Si Si6 0.144449 0.829938 0.433362
Si Si7 0.163698 0.452623 0.471065
Si Si8 0.191521 0.862506 0.071598
O O1 0.816086 0.436797 0.368873
O O2 0.093967 0.180954 0.250571
O O3 0.902686 0.401901 0.051366
O O4 0.792350 0.275710 0.060473
O O5 0.500000 0.500000 0.500000
O O6 0.624872 0.543176 0.822736
O O7 0.493270 0.752417 0.638096
O O8 0.271497 0.754467 0.623902
O O9 0.894107 0.278091 0.700789
O O10 0.847120 0.519979 0.734600
O O11 0.392704 0.084835 0.234726
O O12 0.377380 0.974694 0.457351
O O13 0.294531 0.914569 0.090346
O O14 0.684681 0.717937 0.488392
O O15 0.217801 0.837675 0.287038
O O16 0.000000 0.000000 0.500000
O O17 0.000000 0.500000 0.500000
O O18 0.000000 0.000000 0.000000
#
# Coordination Sequence:
#
# PCOD9081992 Si02
#       8
#     2   2   2   2   2   2   2   2
#     4  10  21  40  62  92 121 163 207 256 310 359
#     4   9  18  37  57  81 127 160 199 251 306 367
#     4   9  22  38  59  86 123 161 198 253 311 359
#     4  10  19  36  63  86 128 161 200 255 313 373
#     4  10  20  35  61  94 117 169 205 245 319 369
#     4  10  19  32  59  87 115 155 206 247 302 359
#     4  11  22  39  62  90 121 161 213 250 300 373
#     4   9  19  34  56  86 121 153 192 252 307 355
#
# _framework density 22.925891
#
# number of rings (size 3 to 8) (size 9 to 14) (size 15 to 20)
#    0.000    2.250    2.500    0.000    3.500    0.500 
#    0.000    4.375    0.000    0.750    0.000    0.000 
#    0.000    0.000    0.000    0.000    0.000    0.000 
#
# Total GULP energy -89093.635147 kJ/mol
# GULP energy per Si atom -5568.352197 kJ/mol
# Density = 2.287371 g / cm^3
# Si number density = 22.925891 Si / 1000 Ang^3
#
#
#
# Elastic Constant Matrix: (Units=GPa)
#
#
# Indices 1 2 3 4 5 6 
#
# 1 66.9138 23.4590 38.7513 2.0547 17.4515 23.0922
# 2 23.4590 118.0983 35.4835 -25.0786 8.3234 -0.8261
# 3 38.7513 35.4835 81.2163 -11.9321 9.1161 8.3945
# 4 2.0547 -25.0786 -11.9321 37.2170 11.0111 14.0602
# 5 17.4515 8.3234 9.1161 11.0111 39.6499 5.0633
# 6 23.0922 -0.8261 8.3945 14.0602 5.0633 46.5727
#
#
#
# Elastic Compliance Matrix: (Units=1/GPa)
#
#
# Indices 1 2 3 4 5 6 
#
# 1 0.027342 -0.001759 -0.010130 0.000637 -0.008099 -0.011074
# 2 -0.001759 0.011573 -0.002572 0.008268 -0.003284 -0.000598
# 3 -0.010130 -0.002572 0.019121 0.005185 -0.000845 0.000057
# 4 0.000637 0.008268 0.005185 0.042805 -0.013492 -0.012560
# 5 -0.008099 -0.003284 -0.000845 -0.013492 0.032827 0.004614
# 6 -0.011074 -0.000598 0.000057 -0.012560 0.004614 0.030232
#
#
# Mechanical properties :
#
#
# Convention : Reuss Voigt Hill
#
# Bulk Modulus (GPa) = 34.34782 51.29067 42.81924
# Shear Modulus (GPa) = 24.68825 35.92354 30.30590
#
# Velocity S-wave (km/s) = 3.28513 3.96276 3.63975
# Velocity P-wave (km/s) = 5.42255 6.58474 6.03171
#
# Compressibility (1/GPa) = 0.02911393
#
# Stress axis : x y z
#
# Youngs Moduli (GPa) = 36.57319 86.41055 52.29981
#
# Poissons Ratio (x) = 0.15198 0.52981
# Poissons Ratio (y) = 0.06433 0.13450
# Poissons Ratio (z) = 0.37050 0.22222
#
# Static dielectric constant tensor:
#      x y z
#    x 2.048100 0.087880 -0.028900 
#    y 0.087880 1.958650 0.009060 
#    z -0.028900 0.009060 1.891310 
# 
# From -- ./inp_files/262808.got.cif
#   From: 2010.05.17/outbox.cif.g08.bks.cpg/sg2_132_cif.got.tgz:262808.got - 2010.06.03 11:33:40.
