data_PCOD9081947
_publ_section_title
;
Structure prediction by ZEFSAII (Michael W. Deem and Ramdas Pophale) SiO2 
 PCOD9081947
Probable space group: P -1
;
_chemical_formula_sum "Si O2"
_cell_formula_units_Z 14
_cell_length_a 5.603144
_cell_length_b 22.932284
_cell_length_c 7.563843
_cell_angle_alpha 55.809501
_cell_angle_beta 60.211589
_cell_angle_gamma 95.226773
_cell_volume 597.734004
_symmetry_space_group_name_H-M "P -1"
_symmetry_group_IT_number 2
_symmetry_cell_setting 'triclinic'
loop_
_space_group_symop_operation_xyz
x,y,z
-x,-y,-z
loop_
_atom_site_type_symbol
_atom_site_label
_atom_site_fract_x
_atom_site_fract_y
_atom_site_fract_z
Si Si1 0.619481 0.227312 0.844370
Si Si2 0.364634 0.547827 0.856338
Si Si3 0.229198 0.051352 0.165364
Si Si4 0.676197 0.678516 0.247395
Si Si5 0.700651 0.721413 0.556674
Si Si6 0.372577 0.010931 0.720247
Si Si7 0.642871 0.195378 0.294901
O O1 0.589915 0.306738 0.766389
O O2 0.947264 0.260416 0.558561
O O3 0.351108 0.146417 0.983362
O O4 0.612880 0.190513 0.102370
O O5 0.570338 0.591846 0.524993
O O6 0.434884 0.624381 0.828336
O O7 0.500000 0.500000 0.000000
O O8 0.000000 0.500000 0.000000
O O9 0.534737 0.039864 0.094212
O O10 0.000000 0.000000 0.500000
O O11 0.995287 0.018096 0.140653
O O12 0.723348 0.730805 0.320203
O O13 0.998960 0.727256 0.934976
O O14 0.603712 0.780296 0.581599
O O15 0.572792 0.107360 0.533764
O O16 0.500000 0.000000 0.500000
#
# Coordination Sequence:
#
# PCOD9081947 Si02
#       7
#     2   2   2   2   2   2   2
#     4  11  20  39  64  86 128 168 212 256 313 371
#     4  10  21  43  69  89 128 165 195 254 323 383
#     4  10  19  32  58  84 118 168 213 251 307 361
#     4   9  22  38  66  89 121 168 202 245 324 373
#     4   9  24  39  62  95 120 163 209 258 309 378
#     4  10  19  34  56  87 120 169 207 258 310 351
#     4  11  21  39  63  90 126 162 219 259 299 375
#
# _framework density 23.421790000000001
#
# number of rings (size 3 to 8) (size 9 to 14) (size 15 to 20)
#    0.857    1.143    2.857    2.571    2.000    1.143 
#    0.000    2.857    0.000    0.000    0.000    0.000 
#    0.000    0.000    0.000    0.000    0.000    0.000 
#
# Total GULP energy -77999.208664 kJ/mol
# GULP energy per Si atom -5571.372047 kJ/mol
# Density = 2.336848 g / cm^3
# Si number density = 23.421790 Si / 1000 Ang^3
#
#
#
# Elastic Constant Matrix: (Units=GPa)
#
#
# Indices 1 2 3 4 5 6 
#
# 1 122.2711 16.8077 39.5134 -18.1907 -0.2535 -19.5189
# 2 16.8077 62.3449 12.4266 -7.5887 1.0717 -1.5783
# 3 39.5134 12.4266 71.5956 -15.5595 -8.1002 3.9378
# 4 -18.1907 -7.5887 -15.5595 36.8566 -4.0989 4.7326
# 5 -0.2535 1.0717 -8.1002 -4.0989 39.6838 -6.6082
# 6 -19.5189 -1.5783 3.9378 4.7326 -6.6082 37.5285
#
#
#
# Elastic Compliance Matrix: (Units=1/GPa)
#
#
# Indices 1 2 3 4 5 6 
#
# 1 0.011683 -0.001527 -0.006064 0.002086 0.000162 0.006414
# 2 -0.001527 0.017045 -0.001747 0.001978 -0.000666 -0.000261
# 3 -0.006064 -0.001747 0.019653 0.006054 0.003747 -0.005393
# 4 0.002086 0.001978 0.006054 0.031930 0.004030 -0.002784
# 5 0.000162 -0.000666 0.003747 0.004030 0.027052 0.003918
# 6 0.006414 -0.000261 -0.005393 -0.002784 0.003918 0.031578
#
#
# Mechanical properties :
#
#
# Convention : Reuss Voigt Hill
#
# Bulk Modulus (GPa) = 33.66351 43.74522 38.70437
# Shear Modulus (GPa) = 29.84748 35.31139 32.57944
#
# Velocity S-wave (km/s) = 3.57367 3.88703 3.73364
# Velocity P-wave (km/s) = 5.60643 6.23402 5.92854
#
# Compressibility (1/GPa) = 0.02970575
#
# Stress axis : x y z
#
# Youngs Moduli (GPa) = 85.59775 58.66718 50.88246
#
# Poissons Ratio (x) = 0.08961 0.30853
# Poissons Ratio (y) = 0.13075 0.08887
# Poissons Ratio (z) = 0.51903 0.10247
#
# Static dielectric constant tensor:
#      x y z
#    x 5.196140 -2.198480 1.001560 
#    y -2.198480 3.453350 -0.758550 
#    z 1.001560 -0.758550 2.297510 
# 
# From -- ./inp_files/142594.got.cif
#   From: 2010.05.17/outbox.cif.g08.bks.cpg/sg2_72_cif.got.tgz:142594.got - 2010.06.03 11:33:40.
