data_PCOD9081263
_publ_section_title
;
Structure prediction by ZEFSAII (Michael W. Deem and Ramdas Pophale) SiO2 
 PCOD9081263
Probable space group: P -1
;
_chemical_formula_sum "Si O2"
_cell_formula_units_Z 16
_cell_length_a 13.988842
_cell_length_b 9.081794
_cell_length_c 14.381778
_cell_angle_alpha 44.110897
_cell_angle_beta 40.346076
_cell_angle_gamma 65.556549
_cell_volume 786.425636
_symmetry_space_group_name_H-M "P -1"
_symmetry_group_IT_number 2
_symmetry_cell_setting 'triclinic'
loop_
_space_group_symop_operation_xyz
x,y,z
-x,-y,-z
loop_
_atom_site_type_symbol
_atom_site_label
_atom_site_fract_x
_atom_site_fract_y
_atom_site_fract_z
Si Si1 0.981447 0.064070 0.635405
Si Si2 0.249275 0.165760 0.238667
Si Si3 0.672374 0.285622 0.607463
Si Si4 0.972491 0.950275 0.902507
Si Si5 0.262556 0.712325 0.241460
Si Si6 0.624016 0.928410 0.150060
Si Si7 0.007496 0.362935 0.818268
Si Si8 0.699693 0.397787 0.938326
O O1 0.850635 0.874874 0.763062
O O2 0.904785 0.264568 0.615876
O O3 0.014529 0.985542 0.747720
O O4 0.126495 0.126420 0.431712
O O5 0.362768 0.411272 0.059587
O O6 0.324761 0.968634 0.276807
O O7 0.661295 0.347326 0.695875
O O8 0.526485 0.277200 0.655565
O O9 0.837376 0.435511 0.381805
O O10 0.784674 0.887259 0.077352
O O11 0.026188 0.767249 0.000559
O O12 0.033079 0.183107 0.806628
O O13 0.262921 0.569104 0.214717
O O14 0.344285 0.957605 0.027842
O O15 0.608364 0.135937 0.129791
O O16 0.860392 0.426160 0.860700
#
# Coordination Sequence:
#
# PCOD9081263 Si02
#       8
#     2   2   2   2   2   2   2   2
#     4   9  16  32  48  74 103 127 161 216 247 287
#     4  10  20  29  48  79 108 130 159 198 257 307
#     4  11  20  31  49  77 107 130 165 204 248 304
#     4   9  19  35  53  75  98 128 174 214 246 284
#     4   8  17  30  52  72  99 130 166 207 253 290
#     4   8  18  33  51  72 101 134 165 204 254 290
#     4  10  19  31  53  79  96 127 174 214 247 285
#     4   9  18  33  50  74 104 129 166 201 249 298
#
# _framework density 20.345216000000001
#
# number of rings (size 3 to 8) (size 9 to 14) (size 15 to 20)
#    0.750    2.000    1.250    2.625    1.750    2.000 
#    0.000    2.500    0.000    0.000    0.000    8.750 
#    0.000    0.000    0.000    0.000    0.000    0.000 
#
# Total GULP energy -89143.595671 kJ/mol
# GULP energy per Si atom -5571.474729 kJ/mol
# Density = 2.029891 g / cm^3
# Si number density = 20.345216 Si / 1000 Ang^3
#
#
#
# Elastic Constant Matrix: (Units=GPa)
#
#
# Indices 1 2 3 4 5 6 
#
# 1 73.7140 24.7950 37.7657 -8.3413 -4.2254 18.4273
# 2 24.7950 60.8002 12.1147 -4.5345 9.9030 15.9327
# 3 37.7657 12.1147 33.2804 -3.6996 -9.5982 5.7766
# 4 -8.3413 -4.5345 -3.6996 17.4854 4.2259 1.6892
# 5 -4.2254 9.9030 -9.5982 4.2259 34.5507 2.5929
# 6 18.4273 15.9327 5.7766 1.6892 2.5929 22.9454
#
#
#
# Elastic Compliance Matrix: (Units=1/GPa)
#
#
# Indices 1 2 3 4 5 6 
#
# 1 0.045867 -0.000114 -0.048162 0.015958 -0.007819 -0.024923
# 2 -0.000114 0.023764 -0.007767 0.007973 -0.008905 -0.014035
# 3 -0.048162 -0.007767 0.088582 -0.013301 0.021042 0.020373
# 4 0.015958 0.007973 -0.013301 0.068532 -0.011000 -0.018806
# 5 -0.007819 -0.008905 0.021042 -0.011000 0.037449 0.003743
# 6 -0.024923 -0.014035 0.020373 -0.018806 0.003743 0.069175
#
#
# Mechanical properties :
#
#
# Convention : Reuss Voigt Hill
#
# Bulk Modulus (GPa) = 21.67933 35.23837 28.45885
# Shear Modulus (GPa) = 10.84992 21.20425 16.02708
#
# Velocity S-wave (km/s) = 2.31181 3.23185 2.80975
# Velocity P-wave (km/s) = 4.21958 5.59324 4.95425
#
# Compressibility (1/GPa) = 0.04612689
#
# Stress axis : x y z
#
# Youngs Moduli (GPa) = 21.80217 42.07973 11.28893
#
# Poissons Ratio (x) = 0.00479 0.54370
# Poissons Ratio (y) = 0.00248 0.08768
# Poissons Ratio (z) = 1.05004 0.32685
#
# Static dielectric constant tensor:
#      x y z
#    x 1.756060 -0.006460 -0.044380 
#    y -0.006460 1.748700 -0.029000 
#    z -0.044380 -0.029000 1.754820 
# 
# From -- ./inp_files/527248.got.cif
#   From: 2010.05.17/outbox.cif.g08.bks.cpg/sg2_264_cif.got.tgz:527248.got - 2010.06.03 11:33:40.
