data_PCOD9081686
_publ_section_title
;
Structure prediction by ZEFSAII (Michael W. Deem and Ramdas Pophale) SiO2 
 PCOD9081686
Probable space group: P -1
;
_chemical_formula_sum "Si O2"
_cell_formula_units_Z 14
_cell_length_a 8.262657
_cell_length_b 6.908718
_cell_length_c 12.131135
_cell_angle_alpha 91.700913
_cell_angle_beta 50.184981
_cell_angle_gamma 102.890199
_cell_volume 512.558251
_symmetry_space_group_name_H-M "P -1"
_symmetry_group_IT_number 2
_symmetry_cell_setting 'triclinic'
loop_
_space_group_symop_operation_xyz
x,y,z
-x,-y,-z
loop_
_atom_site_type_symbol
_atom_site_label
_atom_site_fract_x
_atom_site_fract_y
_atom_site_fract_z
Si Si1 0.713441 0.088011 0.335491
Si Si2 0.437140 0.847234 0.841011
Si Si3 0.811204 0.464478 0.753272
Si Si4 0.755068 0.546401 0.361654
Si Si5 0.922159 0.907201 0.651504
Si Si6 0.350383 0.391654 0.939290
Si Si7 0.982216 0.715849 0.062600
O O1 0.626140 0.068220 0.246536
O O2 0.782932 0.328445 0.317705
O O3 0.905281 0.030658 0.322326
O O4 0.500000 0.000000 0.500000
O O5 0.680770 0.934655 0.778145
O O6 0.420259 0.604262 0.844122
O O7 0.216787 0.832957 0.005643
O O8 0.885583 0.665289 0.651760
O O9 0.571381 0.321977 0.828203
O O10 0.021236 0.375100 0.663497
O O11 0.732614 0.547084 0.905705
O O12 0.500000 0.500000 0.500000
O O13 0.802965 0.679328 0.234334
O O14 0.000000 0.000000 0.500000
O O15 0.141527 0.220387 0.984371
O O16 0.000000 0.500000 0.000000
#
# Coordination Sequence:
#
# PCOD9081686 Si02
#       7
#     2   2   2   2   2   2   2
#     4  11  20  34  56  80 108 148 190 219 271 330
#     4  10  17  30  51  80 103 135 183 236 263 313
#     4   9  17  29  49  80 104 136 177 226 281 312
#     4  11  21  34  52  83 118 141 171 232 291 325
#     4  10  19  29  46  80 111 135 175 240 272 309
#     4   9  15  28  53  75 105 126 185 238 262 308
#     4  10  15  30  53  75 101 138 180 223 265 315
#
# _framework density 27.313970000000001
#
# number of rings (size 3 to 8) (size 9 to 14) (size 15 to 20)
#    0.000    2.000    7.143    0.857    0.000    0.000 
#    0.000    0.714    0.000    0.857    0.000    1.000 
#    0.000    0.571    0.000    0.000    0.000    0.000 
#
# Total GULP energy -77963.469720 kJ/mol
# GULP energy per Si atom -5568.819266 kJ/mol
# Density = 2.725180 g / cm^3
# Si number density = 27.313970 Si / 1000 Ang^3
#
#
#
# Elastic Constant Matrix: (Units=GPa)
#
#
# Indices 1 2 3 4 5 6 
#
# 1 203.9718 29.6048 94.6123 5.7083 -54.2064 -26.8651
# 2 29.6048 81.1010 2.4514 15.4169 7.6300 -27.2047
# 3 94.6123 2.4514 179.7964 -11.2809 -41.2599 -19.0255
# 4 5.7083 15.4169 -11.2809 29.7149 -14.2962 2.0023
# 5 -54.2064 7.6300 -41.2599 -14.2962 78.1333 -1.4082
# 6 -26.8651 -27.2047 -19.0255 2.0023 -1.4082 44.3973
#
#
#
# Elastic Compliance Matrix: (Units=1/GPa)
#
#
# Indices 1 2 3 4 5 6 
#
# 1 0.008116 -0.002759 -0.002920 0.000810 0.004544 0.002077
# 2 -0.002759 0.020271 0.000096 -0.013660 -0.006140 0.011214
# 3 -0.002920 0.000096 0.008384 0.005199 0.003375 0.001757
# 4 0.000810 -0.013660 0.005199 0.049596 0.013582 -0.007458
# 5 0.004544 -0.006140 0.003375 0.013582 0.020827 0.000481
# 6 0.002077 0.011214 0.001757 -0.007458 0.000481 0.031756
#
#
# Mechanical properties :
#
#
# Convention : Reuss Voigt Hill
#
# Bulk Modulus (GPa) = 39.05626 79.80070 59.42848
# Shear Modulus (GPa) = 31.51601 52.99582 42.25591
#
# Velocity S-wave (km/s) = 3.40051 4.40960 3.93751
# Velocity P-wave (km/s) = 5.45417 7.43005 6.51742
#
# Compressibility (1/GPa) = 0.02560409
#
# Stress axis : x y z
#
# Youngs Moduli (GPa) = 123.21611 49.33244 119.27923
#
# Poissons Ratio (x) = 0.13612 0.34827
# Poissons Ratio (y) = 0.33998 -0.01145
# Poissons Ratio (z) = 0.35977 -0.00474
#
# Static dielectric constant tensor:
#      x y z
#    x 2.408480 -0.008070 -0.072100 
#    y -0.008070 2.317810 0.012520 
#    z -0.072100 0.012520 2.158210 
# 
# From -- ./inp_files/497843.got.cif
#   From: 2010.05.17/outbox.cif.g08.bks.cpg/sg2_249_cif.got.tgz:497843.got - 2010.06.03 11:33:40.
