data_PCOD9081175
_publ_section_title
;
Structure prediction by ZEFSAII (Michael W. Deem and Ramdas Pophale) SiO2 
 PCOD9081175
Probable space group: P -1
;
_chemical_formula_sum "Si O2"
_cell_formula_units_Z 16
_cell_length_a 5.511705
_cell_length_b 13.500532
_cell_length_c 9.041738
_cell_angle_alpha 91.008187
_cell_angle_beta 69.628812
_cell_angle_gamma 86.632570
_cell_volume 629.115752
_symmetry_space_group_name_H-M "P -1"
_symmetry_group_IT_number 2
_symmetry_cell_setting 'triclinic'
loop_
_space_group_symop_operation_xyz
x,y,z
-x,-y,-z
loop_
_atom_site_type_symbol
_atom_site_label
_atom_site_fract_x
_atom_site_fract_y
_atom_site_fract_z
Si Si1 0.123442 0.937111 0.331505
Si Si2 0.291146 0.855418 0.875243
Si Si3 0.639595 0.281318 0.900416
Si Si4 0.897451 0.609481 0.077765
Si Si5 0.132035 0.699940 0.473343
Si Si6 0.647880 0.601147 0.457500
Si Si7 0.374352 0.050198 0.677035
Si Si8 0.859584 0.844538 0.744648
O O1 0.883855 0.887107 0.309967
O O2 0.182945 0.036416 0.228593
O O3 0.401648 0.887167 0.309623
O O4 0.000000 0.000000 0.500000
O O5 0.313600 0.830683 0.043864
O O6 0.301087 0.966482 0.807625
O O7 0.041899 0.816618 0.845058
O O8 0.577228 0.806513 0.775360
O O9 0.343560 0.331777 0.959036
O O10 0.834600 0.336521 0.967101
O O11 0.761373 0.297426 0.714687
O O12 0.776521 0.601592 0.267619
O O13 0.000000 0.500000 0.000000
O O14 0.389705 0.675665 0.516237
O O15 0.016423 0.803466 0.567912
O O16 0.886869 0.628170 0.515829
O O17 0.500000 0.500000 0.500000
O O18 0.500000 0.000000 0.500000
#
# Coordination Sequence:
#
# PCOD9081175 Si02
#       8
#     2   2   2   2   2   2   2   2
#     4   8  14  25  42  67  96 124 155 198 242 282
#     4  10  19  31  50  77 100 128 169 208 246 292
#     4  10  21  36  51  72 103 132 162 205 259 305
#     4  10  21  36  53  72  96 130 167 207 253 301
#     4  10  21  36  51  72 103 132 162 205 259 305
#     4  10  21  36  53  72  96 130 167 207 253 301
#     4   8  14  25  42  67  96 124 155 198 242 282
#     4  10  19  31  50  77 100 128 169 208 246 292
#
# _framework density 25.432521000000001
#
# number of rings (size 3 to 8) (size 9 to 14) (size 15 to 20)
#    0.000    2.500    0.000    2.250    0.000    3.000 
#    0.000    0.000    0.000    0.000    0.000   28.000 
#    0.000    0.000    0.000    0.000    0.000    0.000 
#
# Total GULP energy -89109.440906 kJ/mol
# GULP energy per Si atom -5569.340057 kJ/mol
# Density = 2.537464 g / cm^3
# Si number density = 25.432521 Si / 1000 Ang^3
#
#
#
# Elastic Constant Matrix: (Units=GPa)
#
#
# Indices 1 2 3 4 5 6 
#
# 1 282.7573 36.2066 28.7766 3.4885 -19.0751 -13.6604
# 2 36.2066 71.4352 4.4689 5.1885 -8.4899 1.3795
# 3 28.7766 4.4689 14.4808 -9.3132 -7.9290 -3.7761
# 4 3.4885 5.1885 -9.3132 32.9264 -6.2332 -6.6431
# 5 -19.0751 -8.4899 -7.9290 -6.2332 39.1755 2.9429
# 6 -13.6604 1.3795 -3.7761 -6.6431 2.9429 41.8457
#
#
#
# Elastic Compliance Matrix: (Units=1/GPa)
#
#
# Indices 1 2 3 4 5 6 
#
# 1 0.005007 -0.001577 -0.012730 -0.004104 -0.001131 -0.000034
# 2 -0.001577 0.015480 -0.003531 -0.003391 0.001482 -0.001986
# 3 -0.012730 -0.003531 0.151118 0.053730 0.030973 0.015949
# 4 -0.004104 -0.003391 0.053730 0.051646 0.015553 0.010726
# 5 -0.001131 0.001482 0.030973 0.015553 0.033855 0.002465
# 6 -0.000034 -0.001986 0.015949 0.010726 0.002465 0.026920
#
#
# Mechanical properties :
#
#
# Convention : Reuss Voigt Hill
#
# Bulk Modulus (GPa) = 7.35685 56.39752 31.87718
# Shear Modulus (GPa) = 13.69824 42.73758 28.21791
#
# Velocity S-wave (km/s) = 2.32332 4.10375 3.33456
# Velocity P-wave (km/s) = 3.17743 6.68415 5.23326
#
# Compressibility (1/GPa) = 0.13592780
#
# Stress axis : x y z
#
# Youngs Moduli (GPa) = 199.72860 64.60096 6.61736
#
# Poissons Ratio (x) = 0.10187 0.08424
# Poissons Ratio (y) = 0.31496 0.02337
# Poissons Ratio (z) = 2.54260 0.22810
#
# Static dielectric constant tensor:
#      x y z
#    x 2.048330 -0.026660 0.008280 
#    y -0.026660 2.010290 -0.130380 
#    z 0.008280 -0.130380 2.188720 
# 
# From -- ./inp_files/42270.got.cif
#   From: 2010.05.17/outbox.cif.g08.bks.cpg/sg2_22_cif.got.tgz:42270.got - 2010.06.03 11:33:40.
