data_PCOD9081178
_publ_section_title
;
Structure prediction by ZEFSAII (Michael W. Deem and Ramdas Pophale) SiO2 
 PCOD9081178
Probable space group: P -1
;
_chemical_formula_sum "Si O2"
_cell_formula_units_Z 16
_cell_length_a 8.070945
_cell_length_b 18.257467
_cell_length_c 7.758763
_cell_angle_alpha 59.455866
_cell_angle_beta 56.359754
_cell_angle_gamma 38.653817
_cell_volume 588.211009
_symmetry_space_group_name_H-M "P -1"
_symmetry_group_IT_number 2
_symmetry_cell_setting 'triclinic'
loop_
_space_group_symop_operation_xyz
x,y,z
-x,-y,-z
loop_
_atom_site_type_symbol
_atom_site_label
_atom_site_fract_x
_atom_site_fract_y
_atom_site_fract_z
Si Si1 0.758765 0.334398 0.717355
Si Si2 0.046818 0.465907 0.736069
Si Si3 0.535674 0.106852 0.081459
Si Si4 0.447444 0.591743 0.642066
Si Si5 0.226742 0.820691 0.615681
Si Si6 0.367730 0.323636 0.060877
Si Si7 0.911527 0.983983 0.298881
Si Si8 0.756143 0.762551 0.225701
O O1 0.534903 0.468613 0.766963
O O2 0.712202 0.355471 0.513534
O O3 0.670510 0.271420 0.923109
O O4 0.071416 0.254679 0.693394
O O5 0.751620 0.544219 0.496681
O O6 0.219161 0.412879 0.877995
O O7 0.036034 0.369593 0.817669
O O8 0.779343 0.600476 0.773958
O O9 0.350757 0.229576 0.146659
O O10 0.357391 0.138924 0.974072
O O11 0.693849 0.009322 0.258115
O O12 0.797360 0.081838 0.882290
O O13 0.285013 0.702463 0.731944
O O14 0.179497 0.897060 0.712450
O O15 0.492441 0.786167 0.411766
O O16 0.973749 0.908873 0.520928
#
# Coordination Sequence:
#
# PCOD9081178 Si02
#       8
#     2   2   2   2   2   2   2   2
#     4  10  19  31  50  78 115 145 168 208 269 328
#     4   8  16  31  49  72 103 139 179 212 249 312
#     4   9  18  33  54  78 105 138 177 223 267 310
#     4   9  19  34  52  77 110 144 175 214 264 317
#     4   9  18  34  57  79 100 135 184 228 260 306
#     4   9  17  31  51  74 107 142 171 210 260 316
#     4   9  17  32  58  80  96 130 190 233 258 299
#     4   9  18  31  49  77 110 138 172 216 263 315
#
# _framework density 27.20112
#
# number of rings (size 3 to 8) (size 9 to 14) (size 15 to 20)
#    0.000    3.000    0.000    2.250    0.000    4.500 
#    0.000    1.250    0.000   24.000    0.000    0.000 
#    0.000    0.000    0.000    0.000    0.000    0.000 
#
# Total GULP energy -89398.899821 kJ/mol
# GULP energy per Si atom -5587.431239 kJ/mol
# Density = 2.713921 g / cm^3
# Si number density = 27.201120 Si / 1000 Ang^3
#
#
#
# Elastic Constant Matrix: (Units=GPa)
#
#
# Indices 1 2 3 4 5 6 
#
# 1 80.1504 34.6495 21.5477 -15.6032 25.6538 -13.1039
# 2 34.6495 100.1786 33.6847 2.3145 23.3337 21.8238
# 3 21.5477 33.6847 73.1757 -16.2638 26.3073 -5.4399
# 4 -15.6032 2.3145 -16.2638 54.1278 -11.6365 22.2794
# 5 25.6538 23.3337 26.3073 -11.6365 40.6311 -10.8400
# 6 -13.1039 21.8238 -5.4399 22.2794 -10.8400 54.7349
#
#
#
# Elastic Compliance Matrix: (Units=1/GPa)
#
#
# Indices 1 2 3 4 5 6 
#
# 1 0.018228 -0.006046 0.000646 0.002425 -0.006546 0.004555
# 2 -0.006046 0.017169 -0.005099 -0.001367 -0.005630 -0.009358
# 3 0.000646 -0.005099 0.020077 0.004206 -0.009096 0.000670
# 4 0.002425 -0.001367 0.004206 0.024065 0.001290 -0.007996
# 5 -0.006546 -0.005630 -0.009096 0.001290 0.040158 0.007202
# 6 0.004555 -0.009358 0.000670 -0.007996 0.007202 0.027839
#
#
# Mechanical properties :
#
#
# Convention : Reuss Voigt Hill
#
# Bulk Modulus (GPa) = 29.00396 48.14094 38.57245
# Shear Modulus (GPa) = 27.77374 40.80694 34.29034
#
# Velocity S-wave (km/s) = 3.19886 3.87744 3.55438
# Velocity P-wave (km/s) = 4.93249 6.14675 5.57279
#
# Compressibility (1/GPa) = 0.03447805
#
# Stress axis : x y z
#
# Youngs Moduli (GPa) = 54.85940 58.24322 49.80776
#
# Poissons Ratio (x) = 0.35213 -0.03219
# Poissons Ratio (y) = 0.33168 0.25396
# Poissons Ratio (z) = -0.03546 0.29697
#
# Static dielectric constant tensor:
#      x y z
#    x 2.123950 -0.034530 0.035480 
#    y -0.034530 2.149160 -0.020360 
#    z 0.035480 -0.020360 2.145140 
# 
# From -- ./inp_files/177687.got.cif
#   From: 2010.05.17/outbox.cif.g08.bks.cpg/sg2_89_cif.got.tgz:177687.got - 2010.06.03 11:33:40.
