data_PCOD9081093
_publ_section_title
;
Structure prediction by ZEFSAII (Michael W. Deem and Ramdas Pophale) SiO2 
 PCOD9081093
Probable space group: P -1
;
_chemical_formula_sum "Si O2"
_cell_formula_units_Z 12
_cell_length_a 10.786365
_cell_length_b 11.933855
_cell_length_c 5.684430
_cell_angle_alpha 121.500915
_cell_angle_beta 96.303404
_cell_angle_gamma 45.032652
_cell_volume 398.487407
_symmetry_space_group_name_H-M "P -1"
_symmetry_group_IT_number 2
_symmetry_cell_setting 'triclinic'
loop_
_space_group_symop_operation_xyz
x,y,z
-x,-y,-z
loop_
_atom_site_type_symbol
_atom_site_label
_atom_site_fract_x
_atom_site_fract_y
_atom_site_fract_z
Si Si1 0.571566 0.103795 0.229094
Si Si2 0.571331 0.104903 0.730986
Si Si3 0.887535 0.451850 0.907528
Si Si4 0.295935 0.709565 0.085211
Si Si5 0.193944 0.813589 0.688139
Si Si6 0.882914 0.458055 0.413542
O O1 0.618729 0.999500 0.375632
O O2 0.687147 0.147592 0.288400
O O3 0.343993 0.322604 0.408964
O O4 0.617292 0.999821 0.874028
O O5 0.688953 0.146319 0.793940
O O6 0.344098 0.331120 0.917490
O O7 0.934622 0.350306 0.554066
O O8 0.000000 0.500000 0.000000
O O9 0.932790 0.350637 0.058055
O O10 0.169830 0.785689 0.381089
O O11 0.500000 0.500000 0.000000
O O12 0.295005 0.654256 0.753862
O O13 0.000000 0.000000 0.000000
O O14 0.000000 0.500000 0.500000
#
# Coordination Sequence:
#
# PCOD9081093 Si02
#       6
#     2   2   2   2   2   2
#     4   8  14  23  35  52  75 104 131 163 205 249
#     4   8  14  23  35  52  75 104 131 163 205 249
#     4   8  12  18  29  46  69  98 123 152 198 251
#     4  10  19  31  46  64  87 118 150 183 220 260
#     4  10  19  31  46  64  87 118 150 183 220 260
#     4   8  12  18  29  46  69  98 123 152 198 251
#
# _framework density 30.113875
#
# number of rings (size 3 to 8) (size 9 to 14) (size 15 to 20)
#    0.000    3.333    0.000    1.000    0.000    0.000 
#    0.000    0.000    0.000    0.000    0.000    0.000 
#    0.000    0.000    0.000  324.000    0.000    6.000 
#
# Total GULP energy -67124.019491 kJ/mol
# GULP energy per Si atom -5593.668291 kJ/mol
# Density = 3.004533 g / cm^3
# Si number density = 30.113875 Si / 1000 Ang^3
#
#
#
# Elastic Constant Matrix: (Units=GPa)
#
#
# Indices 1 2 3 4 5 6 
#
# 1 121.8715 29.2763 58.7547 -16.4865 -10.8650 -16.3118
# 2 29.2763 144.7882 116.0068 -60.5634 -1.5802 5.1759
# 3 58.7547 116.0068 242.1569 -92.1060 -17.4596 -4.8658
# 4 -16.4865 -60.5634 -92.1060 135.4224 -16.5425 -10.6300
# 5 -10.8650 -1.5802 -17.4596 -16.5425 62.9103 -9.5637
# 6 -16.3118 5.1759 -4.8658 -10.6300 -9.5637 53.5958
#
#
#
# Elastic Compliance Matrix: (Units=1/GPa)
#
#
# Indices 1 2 3 4 5 6 
#
# 1 0.009843 -0.000497 -0.001917 0.000128 0.001675 0.003194
# 2 -0.000497 0.011708 -0.005023 0.001505 -0.001037 -0.001625
# 3 -0.001917 -0.005023 0.008862 0.004132 0.003413 0.002135
# 4 0.000128 0.001505 0.004132 0.011743 0.004820 0.003458
# 5 0.001675 -0.001037 0.003413 0.004820 0.019179 0.005298
# 6 0.003194 -0.001625 0.002135 0.003458 0.005298 0.021612
#
#
# Mechanical properties :
#
#
# Convention : Reuss Voigt Hill
#
# Bulk Modulus (GPa) = 64.35616 101.87692 83.11654
# Shear Modulus (GPa) = 48.54360 70.70427 59.62394
#
# Velocity S-wave (km/s) = 4.01933 4.85077 4.45449
# Velocity P-wave (km/s) = 6.55418 8.07943 7.35645
#
# Compressibility (1/GPa) = 0.01553853
#
# Stress axis : x y z
#
# Youngs Moduli (GPa) = 101.59718 85.41086 112.84741
#
# Poissons Ratio (x) = 0.04246 0.21627
# Poissons Ratio (y) = 0.05051 0.56686
# Poissons Ratio (z) = 0.19471 0.42904
#
# Static dielectric constant tensor:
#      x y z
#    x 4.408690 -2.076330 0.178670 
#    y -2.076330 4.310830 -0.281730 
#    z 0.178670 -0.281730 2.371730 
# 
# From -- ./inp_files/3602.got.cif
#   From: 2010.05.17/outbox.cif.g08.bks.cpg/sg2_2_cif.got.tgz:3602.got - 2010.06.03 11:33:40.
