data_PCOD9081168
_publ_section_title
;
Structure prediction by ZEFSAII (Michael W. Deem and Ramdas Pophale) SiO2 
 PCOD9081168
Probable space group: P -1
;
_chemical_formula_sum "Si O2"
_cell_formula_units_Z 14
_cell_length_a 22.439160
_cell_length_b 11.749907
_cell_length_c 5.579831
_cell_angle_alpha 102.292897
_cell_angle_beta 97.940999
_cell_angle_gamma 149.475020
_cell_volume 556.102850
_symmetry_space_group_name_H-M "P -1"
_symmetry_group_IT_number 2
_symmetry_cell_setting 'triclinic'
loop_
_space_group_symop_operation_xyz
x,y,z
-x,-y,-z
loop_
_atom_site_type_symbol
_atom_site_label
_atom_site_fract_x
_atom_site_fract_y
_atom_site_fract_z
Si Si1 0.049069 0.886680 0.416304
Si Si2 0.433584 0.255954 0.921984
Si Si3 0.952944 0.046337 0.052698
Si Si4 0.661722 0.434371 0.138497
Si Si5 0.325146 0.983862 0.239285
Si Si6 0.995485 0.423860 0.713101
Si Si7 0.622532 0.356814 0.581508
O O1 0.126576 0.898198 0.504353
O O2 0.974029 0.782932 0.582160
O O3 0.170068 0.208946 0.609558
O O4 0.990143 0.778816 0.062832
O O5 0.323504 0.030981 0.531221
O O6 0.500000 0.500000 0.000000
O O7 0.550062 0.350622 0.034992
O O8 0.367757 0.143355 0.107257
O O9 0.764603 0.705769 0.816863
O O10 0.000000 0.000000 0.000000
O O11 0.640507 0.327081 0.324186
O O12 0.640722 0.327381 0.832782
O O13 0.459600 0.129378 0.384663
O O14 0.157446 0.642017 0.917208
O O15 0.000000 0.500000 0.500000
O O16 0.000000 0.500000 0.000000
#
# Coordination Sequence:
#
# PCOD9081168 Si02
#       7
#     2   2   2   2   2   2   2
#     4  10  21  37  54  82 119 146 188 237 284 342
#     4  10  19  31  50  75  99 135 188 245 280 320
#     4  10  19  36  65  89 110 139 182 245 312 353
#     4   8  16  28  48  69 101 135 170 222 286 315
#     4  10  21  36  51  74 108 152 190 235 279 327
#     4  12  26  40  56  79 117 172 207 227 264 340
#     4   8  16  32  50  78 105 135 168 227 295 330
#
# _framework density 25.175198000000002
#
# number of rings (size 3 to 8) (size 9 to 14) (size 15 to 20)
#    0.000    2.286    0.000    2.571    4.000    0.000 
#    5.143    0.000    0.000    1.714    0.000    0.000 
#    0.000    0.000    0.000    0.000    0.000    0.000 
#
# Total GULP energy -78032.431262 kJ/mol
# GULP energy per Si atom -5573.745090 kJ/mol
# Density = 2.511790 g / cm^3
# Si number density = 25.175198 Si / 1000 Ang^3
#
#
#
# Elastic Constant Matrix: (Units=GPa)
#
#
# Indices 1 2 3 4 5 6 
#
# 1 67.6322 17.9479 23.4697 -3.1709 -6.0186 4.5513
# 2 17.9479 97.6365 47.7017 -64.5189 -5.6145 -5.1713
# 3 23.4697 47.7017 126.7130 -49.0562 -13.5843 15.3862
# 4 -3.1709 -64.5189 -49.0562 73.3861 16.9881 -5.2087
# 5 -6.0186 -5.6145 -13.5843 16.9881 40.4824 -0.7530
# 6 4.5513 -5.1713 15.3862 -5.2087 -0.7530 26.1367
#
#
#
# Elastic Compliance Matrix: (Units=1/GPa)
#
#
# Indices 1 2 3 4 5 6 
#
# 1 0.018450 -0.008817 -0.003000 -0.010435 0.004797 -0.005132
# 2 -0.008817 0.033897 -0.001832 0.031649 -0.010221 0.015333
# 3 -0.003000 -0.001832 0.012178 0.005790 0.000848 -0.005831
# 4 -0.010435 0.031649 0.005790 0.049513 -0.015735 0.014085
# 5 0.004797 -0.010221 0.000848 -0.015735 0.030781 -0.005606
# 6 -0.005132 0.015333 -0.005831 0.014085 -0.005606 0.048266
#
#
# Mechanical properties :
#
#
# Convention : Reuss Voigt Hill
#
# Bulk Modulus (GPa) = 26.86369 52.24669 39.55519
# Shear Modulus (GPa) = 21.47841 41.52519 31.50180
#
# Velocity S-wave (km/s) = 2.92406 4.06575 3.54121
# Velocity P-wave (km/s) = 4.70042 6.54513 5.69792
#
# Compressibility (1/GPa) = 0.03722497
#
# Stress axis : x y z
#
# Youngs Moduli (GPa) = 54.20086 29.50156 82.11729
#
# Poissons Ratio (x) = 0.26012 0.24639
# Poissons Ratio (y) = 0.47789 0.15045
# Poissons Ratio (z) = 0.16263 0.05405
#
# Static dielectric constant tensor:
#      x y z
#    x 2.016960 -0.035330 0.000600 
#    y -0.035330 2.196690 0.041140 
#    z 0.000600 0.041140 2.086600 
# 
# From -- ./inp_files/100802.got.cif
#   From: 2010.05.17/outbox.cif.g08.bks.cpg/sg2_51_cif.got.tgz:100802.got - 2010.06.03 11:33:40.
