data_PCOD9081365
_publ_section_title
;
Structure prediction by ZEFSAII (Michael W. Deem and Ramdas Pophale) SiO2 
 PCOD9081365
Probable space group: P -1
;
_chemical_formula_sum "Si O2"
_cell_formula_units_Z 16
_cell_length_a 15.292508
_cell_length_b 14.964288
_cell_length_c 9.118583
_cell_angle_alpha 140.848269
_cell_angle_beta 35.404985
_cell_angle_gamma 131.625313
_cell_volume 760.335862
_symmetry_space_group_name_H-M "P -1"
_symmetry_group_IT_number 2
_symmetry_cell_setting 'triclinic'
loop_
_space_group_symop_operation_xyz
x,y,z
-x,-y,-z
loop_
_atom_site_type_symbol
_atom_site_label
_atom_site_fract_x
_atom_site_fract_y
_atom_site_fract_z
Si Si1 0.335235 0.450266 0.520349
Si Si2 0.591365 0.353864 0.873978
Si Si3 0.066622 0.650287 0.536847
Si Si4 0.441943 0.924980 0.281128
Si Si5 0.505975 0.276583 0.297923
Si Si6 0.116169 0.956886 0.908084
Si Si7 0.535485 0.761826 0.357492
Si Si8 0.163193 0.265357 0.283987
O O1 0.382537 0.354794 0.470677
O O2 0.340919 0.613755 0.768759
O O3 0.206719 0.370758 0.493966
O O4 0.484751 0.460968 0.224886
O O5 0.754977 0.367742 0.738099
O O6 0.508625 0.201432 0.845448
O O7 0.586986 0.347004 0.696444
O O8 0.062101 0.795821 0.826257
O O9 0.000000 0.500000 0.500000
O O10 0.977348 0.684914 0.554746
O O11 0.272090 0.942101 0.589070
O O12 0.520844 0.081146 0.391597
O O13 0.457597 0.862618 0.018780
O O14 0.450339 0.243355 0.494805
O O15 0.136464 0.099384 0.159790
O O16 0.000000 0.000000 0.000000
O O17 0.694957 0.734106 0.025350
#
# Coordination Sequence:
#
# PCOD9081365 Si02
#       8
#     2   2   2   2   2   2   2   2
#     4   9  20  36  53  74 106 144 177 210 265 317
#     4   9  19  33  54  78 106 135 175 222 262 309
#     4  10  20  30  51  83 110 128 168 229 270 299
#     4   9  17  33  51  80 109 136 170 215 267 316
#     4  10  20  31  50  77 112 138 171 215 264 313
#     4   8  16  34  55  76 102 140 175 213 262 314
#     4  10  19  31  56  81 104 135 178 221 260 307
#     4   9  19  35  58  78 103 140 181 217 262 316
#
# _framework density 21.043334000000002
#
# number of rings (size 3 to 8) (size 9 to 14) (size 15 to 20)
#    0.000    2.750    0.000    0.750    3.500    4.000 
#    0.000    0.000    0.000   24.750    0.000   18.375 
#    0.000    0.000    0.000    0.000    0.000    0.000 
#
# Total GULP energy -89070.283895 kJ/mol
# GULP energy per Si atom -5566.892743 kJ/mol
# Density = 2.099544 g / cm^3
# Si number density = 21.043334 Si / 1000 Ang^3
#
#
#
# Elastic Constant Matrix: (Units=GPa)
#
#
# Indices 1 2 3 4 5 6 
#
# 1 111.0020 22.8825 28.4933 -5.3992 17.0977 12.0121
# 2 22.8825 76.8610 14.1497 24.8791 9.3952 1.7623
# 3 28.4933 14.1497 45.0198 13.5091 12.4564 -0.0824
# 4 -5.3992 24.8791 13.5091 23.2154 0.6584 5.0826
# 5 17.0977 9.3952 12.4564 0.6584 38.3424 0.9698
# 6 12.0121 1.7623 -0.0824 5.0826 0.9698 33.3337
#
#
#
# Elastic Compliance Matrix: (Units=1/GPa)
#
#
# Indices 1 2 3 4 5 6 
#
# 1 0.017864 -0.010999 -0.016040 0.027489 -0.000277 -0.010079
# 2 -0.010999 0.027869 0.012087 -0.041268 -0.005369 0.008969
# 3 -0.016040 0.012087 0.044921 -0.045266 -0.009940 0.012443
# 4 0.027489 -0.041268 -0.045266 0.125702 0.011092 -0.027326
# 5 -0.000277 -0.005369 -0.009940 0.011092 0.030615 -0.002223
# 6 -0.010079 0.008969 0.012443 -0.027326 -0.002223 0.037420
#
#
# Mechanical properties :
#
#
# Convention : Reuss Voigt Hill
#
# Bulk Modulus (GPa) = 16.46040 40.43708 28.44874
# Shear Modulus (GPa) = 14.94576 30.13545 22.54060
#
# Velocity S-wave (km/s) = 2.66792 3.78837 3.27640
# Velocity P-wave (km/s) = 4.16287 6.19625 5.27840
#
# Compressibility (1/GPa) = 0.06075185
#
# Stress axis : x y z
#
# Youngs Moduli (GPa) = 55.97872 35.88276 22.26115
#
# Poissons Ratio (x) = 0.39466 0.35707
# Poissons Ratio (y) = 0.61568 -0.26908
# Poissons Ratio (z) = 0.89789 -0.43373
#
# Static dielectric constant tensor:
#      x y z
#    x 1.816690 0.003200 0.006700 
#    y 0.003200 1.880090 0.043150 
#    z 0.006700 0.043150 1.807130 
# 
# From -- ./inp_files/314180.got.cif
#   From: 2010.05.17/outbox.cif.g08.bks.cpg/sg2_158_cif.got.tgz:314180.got - 2010.06.03 11:33:40.
