data_PCOD9081546
_publ_section_title
;
Structure prediction by ZEFSAII (Michael W. Deem and Ramdas Pophale) SiO2 
 PCOD9081546
Probable space group: P -1
;
_chemical_formula_sum "Si O2"
_cell_formula_units_Z 14
_cell_length_a 8.694958
_cell_length_b 9.725701
_cell_length_c 9.061946
_cell_angle_alpha 83.390978
_cell_angle_beta 72.729003
_cell_angle_gamma 133.581090
_cell_volume 470.054858
_symmetry_space_group_name_H-M "P -1"
_symmetry_group_IT_number 2
_symmetry_cell_setting 'triclinic'
loop_
_space_group_symop_operation_xyz
x,y,z
-x,-y,-z
loop_
_atom_site_type_symbol
_atom_site_label
_atom_site_fract_x
_atom_site_fract_y
_atom_site_fract_z
Si Si1 0.624289 0.718649 0.001878
Si Si2 0.905163 0.579981 0.095327
Si Si3 0.687447 0.229508 0.842848
Si Si4 0.128187 0.833229 0.724660
Si Si5 0.474908 0.155895 0.375138
Si Si6 0.978525 0.093254 0.633504
Si Si7 0.302001 0.514549 0.355936
O O1 0.871031 0.936767 0.823768
O O2 0.500000 0.500000 0.000000
O O3 0.417717 0.705214 0.044724
O O4 0.582767 0.673029 0.195282
O O5 0.009601 0.763376 0.930295
O O6 0.053998 0.665479 0.194192
O O7 0.000000 0.500000 0.000000
O O8 0.618412 0.381599 0.243681
O O9 0.711418 0.324826 0.666518
O O10 0.500000 0.000000 0.000000
O O11 0.314898 0.823202 0.671829
O O12 0.911593 0.666565 0.686365
O O13 0.320147 0.073721 0.579380
O O14 0.267262 0.977658 0.336587
O O15 0.214660 0.350162 0.526126
O O16 0.000000 0.000000 0.500000
#
# Coordination Sequence:
#
# PCOD9081546 Si02
#       7
#     2   2   2   2   2   2   2
#     4  10  18  32  50  70 102 141 169 204 256 310
#     4  10  15  30  49  70  98 130 168 209 255 300
#     4  10  20  34  51  78 112 135 166 218 266 304
#     4   9  15  26  45  72  91 127 164 214 249 294
#     4   9  16  24  43  69  98 123 163 214 254 289
#     4  11  18  28  47  78 105 132 172 217 256 296
#     4   9  18  31  48  72 108 126 171 212 259 299
#
# _framework density 29.783753999999998
#
# number of rings (size 3 to 8) (size 9 to 14) (size 15 to 20)
#    0.857    1.429    4.286    2.571    0.000    0.000 
#    0.000    0.714    0.000    0.000    0.000   17.000 
#    0.000    0.143    0.000    0.000    0.000    0.000 
#
# Total GULP energy -78056.540636 kJ/mol
# GULP energy per Si atom -5575.467188 kJ/mol
# Density = 2.971597 g / cm^3
# Si number density = 29.783754 Si / 1000 Ang^3
#
#
#
# Elastic Constant Matrix: (Units=GPa)
#
#
# Indices 1 2 3 4 5 6 
#
# 1 88.2724 21.1707 43.9023 -10.3530 18.4549 -4.7715
# 2 21.1707 72.2363 51.7308 -5.4854 13.9126 -4.3473
# 3 43.9023 51.7308 386.5042 -50.1512 16.8819 -26.6934
# 4 -10.3530 -5.4854 -50.1512 45.5037 -20.6788 6.9225
# 5 18.4549 13.9126 16.8819 -20.6788 59.7438 -15.4867
# 6 -4.7715 -4.3473 -26.6934 6.9225 -15.4867 46.6267
#
#
#
# Elastic Compliance Matrix: (Units=1/GPa)
#
#
# Indices 1 2 3 4 5 6 
#
# 1 0.013112 -0.002495 -0.001035 0.000141 -0.003282 -0.000594
# 2 -0.002495 0.016558 -0.002145 -0.002416 -0.003509 -0.000746
# 3 -0.001035 -0.002145 0.003541 0.003879 0.001595 0.001675
# 4 0.000141 -0.002416 0.003879 0.030497 0.010205 0.000871
# 5 -0.003282 -0.003509 0.001595 0.010205 0.023331 0.006485
# 6 -0.000594 -0.000746 0.001675 0.000871 0.006485 0.024300
#
#
# Mechanical properties :
#
#
# Convention : Reuss Voigt Hill
#
# Bulk Modulus (GPa) = 45.73937 86.73560 66.23748
# Shear Modulus (GPa) = 38.46863 59.05543 48.76203
#
# Velocity S-wave (km/s) = 3.59778 4.45770 4.05063
# Velocity P-wave (km/s) = 5.71395 7.46189 6.64564
#
# Compressibility (1/GPa) = 0.02186300
#
# Stress axis : x y z
#
# Youngs Moduli (GPa) = 76.26483 60.39447 282.38659
#
# Poissons Ratio (x) = 0.15066 0.29225
# Poissons Ratio (y) = 0.19025 0.60560
# Poissons Ratio (z) = 0.07893 0.12952
#
# Static dielectric constant tensor:
#      x y z
#    x 2.469070 -0.011560 0.058170 
#    y -0.011560 2.514800 -0.025120 
#    z 0.058170 -0.025120 2.607570 
# 
# From -- ./inp_files/253062.got.cif
#   From: 2010.05.17/outbox.cif.g08.bks.cpg/sg2_127_cif.got.tgz:253062.got - 2010.06.03 11:33:40.
