data_PCOD9081547
_publ_section_title
;
Structure prediction by ZEFSAII (Michael W. Deem and Ramdas Pophale) SiO2 
 PCOD9081547
Probable space group: P -1
;
_chemical_formula_sum "Si O2"
_cell_formula_units_Z 16
_cell_length_a 12.065149
_cell_length_b 9.253338
_cell_length_c 20.847526
_cell_angle_alpha 139.588725
_cell_angle_beta 140.197920
_cell_angle_gamma 41.086718
_cell_volume 882.393558
_symmetry_space_group_name_H-M "P -1"
_symmetry_group_IT_number 2
_symmetry_cell_setting 'triclinic'
loop_
_space_group_symop_operation_xyz
x,y,z
-x,-y,-z
loop_
_atom_site_type_symbol
_atom_site_label
_atom_site_fract_x
_atom_site_fract_y
_atom_site_fract_z
Si Si1 0.500546 0.177973 0.734749
Si Si2 0.896445 0.852755 0.869282
Si Si3 0.277633 0.484762 0.271023
Si Si4 0.023219 0.875287 0.393943
Si Si5 0.606852 0.247224 0.424649
Si Si6 0.919769 0.423714 0.502003
Si Si7 0.863834 0.538558 0.262289
Si Si8 0.497682 0.743264 0.387422
O O1 0.348805 0.391120 0.783070
O O2 0.502442 0.262202 0.691586
O O3 0.705067 0.040085 0.812072
O O4 0.418039 0.969776 0.622252
O O5 0.837957 0.689706 0.840010
O O6 0.033380 0.677518 0.815508
O O7 0.000000 0.000000 0.000000
O O8 0.156990 0.676394 0.335802
O O9 0.484345 0.294021 0.322258
O O10 0.331214 0.657497 0.304810
O O11 0.171257 0.818577 0.500403
O O12 0.863271 0.780899 0.309022
O O13 0.979214 0.134741 0.431470
O O14 0.500000 0.500000 0.500000
O O15 0.694155 0.555581 0.441838
O O16 0.000000 0.500000 0.500000
O O17 0.006589 0.498926 0.628975
O O18 0.500000 0.000000 0.500000
#
# Coordination Sequence:
#
# PCOD9081547 Si02
#       8
#     2   2   2   2   2   2   2   2
#     4  11  22  37  58  83 120 154 198 245 300 354
#     4  10  24  45  66  84 107 151 216 274 304 328
#     4   9  20  35  58  82 113 158 198 240 295 352
#     4  10  19  32  51  84 120 154 191 231 285 356
#     4   9  15  30  50  77 115 155 190 228 276 351
#     4  12  21  32  52  88 131 160 184 220 285 372
#     4  11  22  37  59  91 117 156 198 243 295 357
#     4  12  22  35  54  88 131 165 186 223 289 375
#
# _framework density 18.132497000000001
#
# number of rings (size 3 to 8) (size 9 to 14) (size 15 to 20)
#    0.000    1.500    2.500    4.875    3.500    1.500 
#    0.000    0.625    0.000    0.750    0.000    0.000 
#    0.000    0.000    0.000    0.000    0.000    0.000 
#
# Total GULP energy -89112.397125 kJ/mol
# GULP energy per Si atom -5569.524820 kJ/mol
# Density = 1.809123 g / cm^3
# Si number density = 18.132497 Si / 1000 Ang^3
#
#
#
# Elastic Constant Matrix: (Units=GPa)
#
#
# Indices 1 2 3 4 5 6 
#
# 1 129.3576 31.7157 45.5239 12.7399 8.3143 10.9122
# 2 31.7157 92.5228 41.6702 5.8222 3.3887 -6.2422
# 3 45.5239 41.6702 99.7881 14.8129 9.6118 -4.8903
# 4 12.7399 5.8222 14.8129 16.4591 1.8016 4.7056
# 5 8.3143 3.3887 9.6118 1.8016 20.4185 3.8587
# 6 10.9122 -6.2422 -4.8903 4.7056 3.8587 34.2626
#
#
#
# Elastic Compliance Matrix: (Units=1/GPa)
#
#
# Indices 1 2 3 4 5 6 
#
# 1 0.010063 -0.001922 -0.003408 -0.002904 -0.001257 -0.003501
# 2 -0.001922 0.013773 -0.004824 0.000249 0.000299 0.002365
# 3 -0.003408 -0.004824 0.015901 -0.010692 -0.005210 0.004531
# 4 -0.002904 0.000249 -0.010692 0.075540 0.001609 -0.011112
# 5 -0.001257 0.000299 -0.005210 0.001609 0.052972 -0.006476
# 6 -0.003501 0.002365 0.004531 -0.011112 -0.006476 0.033634
#
#
# Mechanical properties :
#
#
# Convention : Reuss Voigt Hill
#
# Bulk Modulus (GPa) = 51.46917 62.16533 56.81725
# Shear Modulus (GPa) = 21.86581 27.74529 24.80555
#
# Velocity S-wave (km/s) = 3.47636 3.91595 3.70268
# Velocity P-wave (km/s) = 6.67534 7.40301 7.04857
#
# Compressibility (1/GPa) = 0.01942911
#
# Stress axis : x y z
#
# Youngs Moduli (GPa) = 99.37255 72.60720 62.88746
#
# Poissons Ratio (x) = 0.13957 0.21430
# Poissons Ratio (y) = 0.19102 0.30338
# Poissons Ratio (z) = 0.33863 0.35027
#
# Static dielectric constant tensor:
#      x y z
#    x 1.702910 -0.018040 0.011880 
#    y -0.018040 1.668390 0.012900 
#    z 0.011880 0.012900 1.623790 
# 
# From -- ./inp_files/213069.got.cif
#   From: 2010.05.17/outbox.cif.g08.bks.cpg/sg2_107_cif.got.tgz:213069.got - 2010.06.03 11:33:40.
