data_PCOD9081270
_publ_section_title
;
Structure prediction by ZEFSAII (Michael W. Deem and Ramdas Pophale) SiO2 
 PCOD9081270
Probable space group: P -1
;
_chemical_formula_sum "Si O2"
_cell_formula_units_Z 16
_cell_length_a 15.007931
_cell_length_b 5.247858
_cell_length_c 9.430082
_cell_angle_alpha 99.684056
_cell_angle_beta 111.418679
_cell_angle_gamma 99.757880
_cell_volume 659.631873
_symmetry_space_group_name_H-M "P -1"
_symmetry_group_IT_number 2
_symmetry_cell_setting 'triclinic'
loop_
_space_group_symop_operation_xyz
x,y,z
-x,-y,-z
loop_
_atom_site_type_symbol
_atom_site_label
_atom_site_fract_x
_atom_site_fract_y
_atom_site_fract_z
Si Si1 0.558622 0.529578 0.747317
Si Si2 0.006015 0.411393 0.755158
Si Si3 0.902455 0.066088 0.300598
Si Si4 0.269244 0.009373 0.590373
Si Si5 0.468470 0.198447 0.892541
Si Si6 0.755883 0.900848 0.932036
Si Si7 0.353625 0.527351 0.514921
Si Si8 0.842784 0.418231 0.875401
O O1 0.532564 0.248959 0.788551
O O2 0.644443 0.751856 0.892093
O O3 0.453525 0.599720 0.675064
O O4 0.603743 0.503971 0.617388
O O5 0.036352 0.157350 0.685018
O O6 0.900581 0.359870 0.765581
O O7 0.027505 0.651046 0.677987
O O8 0.080428 0.509871 0.941185
O O9 0.836221 0.063187 0.400655
O O10 0.822669 0.987893 0.117930
O O11 0.354908 0.105194 0.769049
O O12 0.285843 0.254935 0.514203
O O13 0.297469 0.758013 0.512140
O O14 0.500000 0.500000 0.000000
O O15 0.500000 0.000000 0.000000
O O16 0.801552 0.678811 0.860453
O O17 0.764336 0.155596 0.860570
#
# Coordination Sequence:
#
# PCOD9081270 Si02
#       8
#     2   2   2   2   2   2   2   2
#     4  10  23  41  59  82 111 150 193 228 277 323
#     4   9  17  31  50  76 114 147 172 212 274 346
#     4  10  19  31  53  81 111 143 177 222 278 335
#     4  11  22  38  55  82 110 145 196 231 268 325
#     4  11  23  36  56  82 115 145 171 224 285 334
#     4  10  20  32  54  83 112 140 178 230 276 332
#     4  10  24  40  59  77 109 153 195 237 265 314
#     4   9  18  31  49  80 113 143 175 215 276 338
#
# _framework density 24.255952000000001
#
# number of rings (size 3 to 8) (size 9 to 14) (size 15 to 20)
#    0.000    2.000    0.000    3.750    0.000   15.500 
#    0.000    0.000    0.000    0.000    0.000   17.500 
#    0.000    0.000    0.000    0.000    0.000    0.000 
#
# Total GULP energy -89639.092112 kJ/mol
# GULP energy per Si atom -5602.443257 kJ/mol
# Density = 2.420074 g / cm^3
# Si number density = 24.255952 Si / 1000 Ang^3
#
#
#
# Elastic Constant Matrix: (Units=GPa)
#
#
# Indices 1 2 3 4 5 6 
#
# 1 121.2290 47.3287 23.3016 -8.1131 -24.2925 8.6977
# 2 47.3287 159.4079 27.3926 -27.9672 -17.2371 -4.0189
# 3 23.3016 27.3926 68.7601 -11.7957 -2.2146 3.5839
# 4 -8.1131 -27.9672 -11.7957 30.0485 8.2042 -12.9731
# 5 -24.2925 -17.2371 -2.2146 8.2042 46.9224 3.8900
# 6 8.6977 -4.0189 3.5839 -12.9731 3.8900 41.0341
#
#
#
# Elastic Compliance Matrix: (Units=1/GPa)
#
#
# Indices 1 2 3 4 5 6 
#
# 1 0.011158 -0.003089 -0.002900 -0.004416 0.005637 -0.004345
# 2 -0.003089 0.009105 -0.001248 0.009220 -0.000307 0.004600
# 3 -0.002900 -0.001248 0.016883 0.005752 -0.002256 0.001050
# 4 -0.004416 0.009220 0.005752 0.053889 -0.009649 0.019289
# 5 0.005637 -0.000307 -0.002256 -0.009649 0.026243 -0.006566
# 6 -0.004345 0.004600 0.001050 0.019289 -0.006566 0.032370
#
#
# Mechanical properties :
#
#
# Convention : Reuss Voigt Hill
#
# Bulk Modulus (GPa) = 44.10990 60.60475 52.35732
# Shear Modulus (GPa) = 29.12382 40.35927 34.74154
#
# Velocity S-wave (km/s) = 3.46885 4.08351 3.78867
# Velocity P-wave (km/s) = 5.85394 6.87555 6.38521
#
# Compressibility (1/GPa) = 0.02267065
#
# Stress axis : x y z
#
# Youngs Moduli (GPa) = 89.62001 109.82523 59.23189
#
# Poissons Ratio (x) = 0.33928 0.17178
# Poissons Ratio (y) = 0.27686 0.07395
# Poissons Ratio (z) = 0.25991 0.13711
#
# Static dielectric constant tensor:
#      x y z
#    x 1.887970 0.002760 0.007380 
#    y 0.002760 1.855870 0.040610 
#    z 0.007380 0.040610 2.044560 
# 
# From -- ./inp_files/288880.got.cif
#   From: 2010.05.17/outbox.cif.g08.bks.cpg/sg2_145_cif.got.tgz:288880.got - 2010.06.03 11:33:40.
