data_PCOD9081720
_publ_section_title
;
Structure prediction by ZEFSAII (Michael W. Deem and Ramdas Pophale) SiO2 
 PCOD9081720
Probable space group: P -1
;
_chemical_formula_sum "Si O2"
_cell_formula_units_Z 16
_cell_length_a 21.792230
_cell_length_b 5.174715
_cell_length_c 7.858805
_cell_angle_alpha 94.554783
_cell_angle_beta 130.449687
_cell_angle_gamma 102.031756
_cell_volume 631.553973
_symmetry_space_group_name_H-M "P -1"
_symmetry_group_IT_number 2
_symmetry_cell_setting 'triclinic'
loop_
_space_group_symop_operation_xyz
x,y,z
-x,-y,-z
loop_
_atom_site_type_symbol
_atom_site_label
_atom_site_fract_x
_atom_site_fract_y
_atom_site_fract_z
Si Si1 0.783550 0.284106 0.097112
Si Si2 0.132545 0.132738 0.837255
Si Si3 0.560639 0.285637 0.940274
Si Si4 0.600240 0.819910 0.811631
Si Si5 0.302868 0.596816 0.505928
Si Si6 0.871603 0.452126 0.633376
Si Si7 0.382599 0.166461 0.534084
Si Si8 0.962833 0.039383 0.711194
O O1 0.830177 0.378339 0.366621
O O2 0.833581 0.116280 0.074400
O O3 0.629859 0.304389 0.210816
O O4 0.693523 0.056760 0.972500
O O5 0.085591 0.047087 0.564577
O O6 0.207291 0.427869 0.962050
O O7 0.062020 0.158594 0.842942
O O8 0.599126 0.561340 0.909675
O O9 0.545791 0.995676 0.800645
O O10 0.463527 0.260256 0.812192
O O11 0.577196 0.730556 0.571636
O O12 0.208224 0.571138 0.391178
O O13 0.337792 0.839666 0.444693
O O14 0.314335 0.312190 0.460377
O O15 0.937811 0.759811 0.757024
O O16 0.921870 0.241955 0.738055
#
# Coordination Sequence:
#
# PCOD9081720 Si02
#       8
#     2   2   2   2   2   2   2   2
#     4  10  19  32  54  83 115 154 195 241 293 355
#     4   9  17  29  49  81 119 149 186 243 300 344
#     4  12  24  43  67  88 119 162 207 254 306 360
#     4  12  24  41  65  91 121 163 203 252 306 359
#     4  12  24  41  63  91 123 163 201 253 305 358
#     4  10  19  32  54  82 116 155 195 239 292 357
#     4  12  26  43  61  92 125 157 206 255 305 362
#     4   9  17  29  49  81 118 151 186 241 300 345
#
# _framework density 25.334336
#
# number of rings (size 3 to 8) (size 9 to 14) (size 15 to 20)
#    0.000    1.250    1.250    6.000    3.500    3.000 
#    0.000    0.000    0.000    0.000    0.000   17.500 
#    0.000    0.000    0.000    0.000    0.000    0.000 
#
# Total GULP energy -89676.448476 kJ/mol
# GULP energy per Si atom -5604.778030 kJ/mol
# Density = 2.527667 g / cm^3
# Si number density = 25.334336 Si / 1000 Ang^3
#
#
#
# Elastic Constant Matrix: (Units=GPa)
#
#
# Indices 1 2 3 4 5 6 
#
# 1 90.2531 45.7625 35.2035 -13.4507 15.7083 5.6137
# 2 45.7625 137.0860 27.7223 -9.2141 12.6602 3.9953
# 3 35.2035 27.7223 73.9717 2.2605 6.2279 -1.5052
# 4 -13.4507 -9.2141 2.2605 36.8757 -0.9021 10.4132
# 5 15.7083 12.6602 6.2279 -0.9021 43.0214 -0.1220
# 6 5.6137 3.9953 -1.5052 10.4132 -0.1220 49.3074
#
#
#
# Elastic Compliance Matrix: (Units=1/GPa)
#
#
# Indices 1 2 3 4 5 6 
#
# 1 0.017521 -0.003499 -0.006947 0.006790 -0.004229 -0.003368
# 2 -0.003499 0.009003 -0.001667 0.001231 -0.001107 -0.000645
# 3 -0.006947 -0.001667 0.017611 -0.004715 0.000386 0.002460
# 4 0.006790 0.001231 -0.004715 0.032374 -0.001502 -0.007857
# 5 -0.004229 -0.001107 0.000386 -0.001502 0.025030 0.000962
# 6 -0.003368 -0.000645 0.002460 -0.007857 0.000962 0.022453
#
#
# Mechanical properties :
#
#
# Convention : Reuss Voigt Hill
#
# Bulk Modulus (GPa) = 50.22465 57.63192 53.92828
# Shear Modulus (GPa) = 32.28827 38.68240 35.48533
#
# Velocity S-wave (km/s) = 3.57387 3.91177 3.74663
# Velocity P-wave (km/s) = 6.07436 6.57271 6.32844
#
# Compressibility (1/GPa) = 0.01991054
#
# Stress axis : x y z
#
# Youngs Moduli (GPa) = 57.07289 111.06825 56.78222
#
# Poissons Ratio (x) = 0.38863 0.39448
# Poissons Ratio (y) = 0.19970 0.09463
# Poissons Ratio (z) = 0.39650 0.18510
#
# Static dielectric constant tensor:
#      x y z
#    x 1.982980 -0.056420 -0.069260 
#    y -0.056420 1.920210 0.037180 
#    z -0.069260 0.037180 2.080620 
# 
# From -- ./inp_files/468148.got.cif
#   From: 2010.05.17/outbox.cif.g08.bks.cpg/sg2_235_cif.got.tgz:468148.got - 2010.06.03 11:33:40.
