data_PCOD9081313
_publ_section_title
;
Structure prediction by ZEFSAII (Michael W. Deem and Ramdas Pophale) SiO2 
 PCOD9081313
Probable space group: P -1
;
_chemical_formula_sum "Si O2"
_cell_formula_units_Z 16
_cell_length_a 8.096532
_cell_length_b 19.130686
_cell_length_c 7.923765
_cell_angle_alpha 142.584451
_cell_angle_beta 71.729223
_cell_angle_gamma 122.849211
_cell_volume 609.704762
_symmetry_space_group_name_H-M "P -1"
_symmetry_group_IT_number 2
_symmetry_cell_setting 'triclinic'
loop_
_space_group_symop_operation_xyz
x,y,z
-x,-y,-z
loop_
_atom_site_type_symbol
_atom_site_label
_atom_site_fract_x
_atom_site_fract_y
_atom_site_fract_z
Si Si1 0.571939 0.136317 0.069592
Si Si2 0.957544 0.085990 0.445036
Si Si3 0.879369 0.318211 0.055776
Si Si4 0.181481 0.870086 0.734569
Si Si5 0.521155 0.656823 0.350564
Si Si6 0.303455 0.171158 0.768796
Si Si7 0.741941 0.340675 0.821026
Si Si8 0.309866 0.417110 0.154185
O O1 0.745865 0.117102 0.070389
O O2 0.471848 0.205803 0.345779
O O3 0.689829 0.244781 0.097090
O O4 0.388711 0.988761 0.812133
O O5 0.892465 0.190696 0.733738
O O6 0.983088 0.113256 0.287003
O O7 0.143823 0.106449 0.540634
O O8 0.784176 0.935460 0.259362
O O9 0.852578 0.401985 0.076842
O O10 0.098851 0.407527 0.235903
O O11 0.141157 0.723539 0.426639
O O12 0.320870 0.587996 0.159893
O O13 0.677859 0.645977 0.155128
O O14 0.481299 0.568913 0.360877
O O15 0.526230 0.218504 0.722860
O O16 0.322758 0.313938 0.077315
#
# Coordination Sequence:
#
# PCOD9081313 Si02
#       8
#     2   2   2   2   2   2   2   2
#     4  10  19  31  54  83 108 135 168 219 266 300
#     4   9  17  30  51  78 106 138 172 205 253 320
#     4  10  19  31  55  84 105 129 174 221 259 303
#     4   9  18  32  51  76 110 139 168 207 262 317
#     4   9  19  36  55  71 100 143 179 210 259 310
#     4   9  16  28  52  76  99 131 177 215 243 293
#     4   9  17  31  54  78 101 136 176 208 254 318
#     4   9  19  35  54  72  99 142 182 211 250 312
#
# _framework density 26.242211000000001
#
# number of rings (size 3 to 8) (size 9 to 14) (size 15 to 20)
#    0.000    2.750    0.000    1.500    0.000    4.000 
#    0.000    0.000    0.000  105.750    0.000    0.000 
#    0.000    0.000    0.000    0.000    0.000    0.000 
#
# Total GULP energy -89143.690716 kJ/mol
# GULP energy per Si atom -5571.480670 kJ/mol
# Density = 2.618248 g / cm^3
# Si number density = 26.242211 Si / 1000 Ang^3
#
#
#
# Elastic Constant Matrix: (Units=GPa)
#
#
# Indices 1 2 3 4 5 6 
#
# 1 69.3261 4.0742 24.5380 -9.0753 -4.3754 -22.0109
# 2 4.0742 75.4051 4.8587 21.3766 1.5693 -5.9004
# 3 24.5380 4.8587 51.7205 -1.7729 -18.8021 -5.7235
# 4 -9.0753 21.3766 -1.7729 25.4586 -5.0489 -6.0306
# 5 -4.3754 1.5693 -18.8021 -5.0489 29.2711 -4.6299
# 6 -22.0109 -5.9004 -5.7235 -6.0306 -4.6299 46.4142
#
#
#
# Elastic Compliance Matrix: (Units=1/GPa)
#
#
# Indices 1 2 3 4 5 6 
#
# 1 0.023211 -0.004012 -0.007718 0.014498 0.003084 0.011737
# 2 -0.004012 0.019456 -0.004024 -0.020504 -0.008305 -0.003418
# 3 -0.007718 -0.004024 0.031650 0.007704 0.021171 0.002844
# 4 0.014498 -0.020504 0.007704 0.070731 0.023058 0.016709
# 5 0.003084 -0.008305 0.021171 0.023058 0.054456 0.011445
# 6 0.011737 -0.003418 0.002844 0.016709 0.011445 0.030340
#
#
# Mechanical properties :
#
#
# Convention : Reuss Voigt Hill
#
# Bulk Modulus (GPa) = 23.36114 29.26596 26.31355
# Shear Modulus (GPa) = 18.14076 31.09416 24.61746
#
# Velocity S-wave (km/s) = 2.63208 3.44596 3.06614
# Velocity P-wave (km/s) = 4.26128 5.19705 4.75225
#
# Compressibility (1/GPa) = 0.04280613
#
# Stress axis : x y z
#
# Youngs Moduli (GPa) = 43.08270 51.39872 31.59596
#
# Poissons Ratio (x) = 0.20624 0.24387
# Poissons Ratio (y) = 0.17287 0.12715
# Poissons Ratio (z) = 0.33253 0.20685
#
# Static dielectric constant tensor:
#      x y z
#    x 2.094970 -0.018130 0.064290 
#    y -0.018130 2.055170 -0.017950 
#    z 0.064290 -0.017950 2.134670 
# 
# From -- ./inp_files/217342.got.cif
#   From: 2010.05.17/outbox.cif.g08.bks.cpg/sg2_109_cif.got.tgz:217342.got - 2010.06.03 11:33:40.
