data_PCOD9081330
_publ_section_title
;
Structure prediction by ZEFSAII (Michael W. Deem and Ramdas Pophale) SiO2 
 PCOD9081330
Probable space group: P -1
;
_chemical_formula_sum "Si O2"
_cell_formula_units_Z 14
_cell_length_a 9.525935
_cell_length_b 8.836211
_cell_length_c 15.637604
_cell_angle_alpha 132.149857
_cell_angle_beta 76.396627
_cell_angle_gamma 71.558878
_cell_volume 714.215905
_symmetry_space_group_name_H-M "P -1"
_symmetry_group_IT_number 2
_symmetry_cell_setting 'triclinic'
loop_
_space_group_symop_operation_xyz
x,y,z
-x,-y,-z
loop_
_atom_site_type_symbol
_atom_site_label
_atom_site_fract_x
_atom_site_fract_y
_atom_site_fract_z
Si Si1 0.440521 0.205170 0.216779
Si Si2 0.186455 0.494440 0.927158
Si Si3 0.846766 0.612448 0.930739
Si Si4 0.320330 0.727662 0.888278
Si Si5 0.389163 0.867724 0.655091
Si Si6 0.091834 0.319445 0.227817
Si Si7 0.738057 0.394133 0.334532
O O1 0.481754 0.349821 0.198887
O O2 0.471004 0.247225 0.325421
O O3 0.243006 0.278841 0.254587
O O4 0.625674 0.885586 0.054855
O O5 0.315161 0.547887 0.887141
O O6 0.981684 0.663663 0.973074
O O7 0.283656 0.181472 0.781220
O O8 0.155822 0.549325 0.053974
O O9 0.932348 0.506255 0.784047
O O10 0.239730 0.715122 0.805596
O O11 0.191532 0.025210 0.060880
O O12 0.526222 0.685406 0.487923
O O13 0.254308 0.802410 0.674939
O O14 0.896087 0.420947 0.334168
#
# Coordination Sequence:
#
# PCOD9081330 Si02
#       7
#     2   2   2   2   2   2   2
#     4   9  20  36  54  75 110 140 176 209 253 318
#     4  10  19  31  55  78 110 133 167 226 264 301
#     4   9  18  31  49  79 107 132 163 215 265 298
#     4  10  19  32  55  82 103 135 174 217 261 307
#     4   9  21  38  53  79 104 137 180 216 257 305
#     4  11  20  34  55  81 104 142 174 212 257 316
#     4  10  20  35  58  77 101 141 181 215 251 308
#
# _framework density 19.601915000000002
#
# number of rings (size 3 to 8) (size 9 to 14) (size 15 to 20)
#    0.000    2.286    1.429    3.000    8.000    1.143 
#    0.000    6.429    0.000    0.857    0.000    0.000 
#    0.000    0.000    0.000    0.000    0.000    0.000 
#
# Total GULP energy -78000.868873 kJ/mol
# GULP energy per Si atom -5571.490634 kJ/mol
# Density = 1.955730 g / cm^3
# Si number density = 19.601915 Si / 1000 Ang^3
#
#
#
# Elastic Constant Matrix: (Units=GPa)
#
#
# Indices 1 2 3 4 5 6 
#
# 1 116.9143 34.9781 2.4168 -11.6767 -18.1835 5.3271
# 2 34.9781 84.2453 9.9847 -5.8603 -6.0364 16.4264
# 3 2.4168 9.9847 38.9437 2.0737 -3.7581 8.5101
# 4 -11.6767 -5.8603 2.0737 20.8091 2.6479 0.9932
# 5 -18.1835 -6.0364 -3.7581 2.6479 15.2362 -3.4078
# 6 5.3271 16.4264 8.5101 0.9932 -3.4078 26.1064
#
#
#
# Elastic Compliance Matrix: (Units=1/GPa)
#
#
# Indices 1 2 3 4 5 6 
#
# 1 0.012084 -0.004237 0.001056 0.003808 0.012646 0.001362
# 2 -0.004237 0.015638 -0.002196 0.002889 -0.001830 -0.008608
# 3 0.001056 -0.002196 0.028539 -0.003342 0.006407 -0.007174
# 4 0.003808 0.002889 -0.003342 0.052192 -0.005136 -0.004161
# 5 0.012646 -0.001830 0.006407 -0.005136 0.084189 0.007668
# 6 0.001362 -0.008608 -0.007174 -0.004161 0.007668 0.046941
#
#
# Mechanical properties :
#
#
# Convention : Reuss Voigt Hill
#
# Bulk Modulus (GPa) = 21.97387 37.20694 29.59040
# Shear Modulus (GPa) = 18.83206 25.27858 22.05532
#
# Velocity S-wave (km/s) = 3.10292 3.59499 3.35798
# Velocity P-wave (km/s) = 4.90631 6.02117 5.49210
#
# Compressibility (1/GPa) = 0.04550860
#
# Stress axis : x y z
#
# Youngs Moduli (GPa) = 82.75273 63.94790 35.03935
#
# Poissons Ratio (x) = 0.27094 -0.03702
# Poissons Ratio (y) = 0.35062 0.07694
# Poissons Ratio (z) = -0.08742 0.14042
#
# Static dielectric constant tensor:
#      x y z
#    x 1.697560 0.016590 -0.002090 
#    y 0.016590 1.741130 -0.005600 
#    z -0.002090 -0.005600 1.720190 
# 
# From -- ./inp_files/163331.got.cif
#   From: 2010.05.17/outbox.cif.g08.bks.cpg/sg2_82_cif.got.tgz:163331.got - 2010.06.03 11:33:40.
