data_PCOD9081144
_publ_section_title
;
Structure prediction by ZEFSAII (Michael W. Deem and Ramdas Pophale) SiO2 
 PCOD9081144
Probable space group: P -1
;
_chemical_formula_sum "Si O2"
_cell_formula_units_Z 16
_cell_length_a 26.883259
_cell_length_b 18.451537
_cell_length_c 8.704866
_cell_angle_alpha 148.178251
_cell_angle_beta 147.185591
_cell_angle_gamma 20.003132
_cell_volume 757.408034
_symmetry_space_group_name_H-M "P -1"
_symmetry_group_IT_number 2
_symmetry_cell_setting 'triclinic'
loop_
_space_group_symop_operation_xyz
x,y,z
-x,-y,-z
loop_
_atom_site_type_symbol
_atom_site_label
_atom_site_fract_x
_atom_site_fract_y
_atom_site_fract_z
Si Si1 0.606782 0.578256 0.957163
Si Si2 0.218851 0.808626 0.711198
Si Si3 0.315068 0.804460 0.426077
Si Si4 0.148831 0.084935 0.767824
Si Si5 0.594761 0.051564 0.665387
Si Si6 0.483875 0.696988 0.385441
Si Si7 0.679646 0.671867 0.044685
Si Si8 0.946607 0.287586 0.864974
O O1 0.458419 0.691969 0.692960
O O2 0.682788 0.362636 0.854735
O O3 0.543294 0.765851 0.248629
O O4 0.703340 0.534842 0.997284
O O5 0.386070 0.571926 0.762296
O O6 0.136886 0.760523 0.440541
O O7 0.216223 0.866242 0.631309
O O8 0.108545 0.056125 0.939689
O O9 0.352628 0.807632 0.358974
O O10 0.171448 0.035308 0.557127
O O11 0.989692 0.284851 0.799768
O O12 0.254616 0.083311 0.096773
O O13 0.570767 0.191164 0.720174
O O14 0.610768 0.887032 0.330424
O O15 0.565611 0.732940 0.741353
O O16 0.835607 0.514841 0.079808
#
# Coordination Sequence:
#
# PCOD9081144 Si02
#       8
#     2   2   2   2   2   2   2   2
#     4   9  18  30  49  73  93 123 161 207 239 272
#     4   8  15  29  49  72  90 120 162 206 237 269
#     4   9  16  29  50  72  96 118 161 204 246 278
#     4   9  17  30  49  75  95 122 163 204 238 273
#     4  11  21  30  46  75 107 130 148 193 251 290
#     4  10  19  31  49  73 102 126 155 197 250 295
#     4  10  19  34  51  68  96 135 169 190 223 293
#     4   8  16  30  51  71  89 125 169 207 222 272
#
# _framework density 21.124676999999998
#
# number of rings (size 3 to 8) (size 9 to 14) (size 15 to 20)
#    0.750    2.000    0.000    4.500    0.000    2.500 
#    0.000    0.000    0.000    4.500    0.000    0.000 
#    0.000    0.000    0.000    0.000    0.000    0.000 
#
# Total GULP energy -89137.146124 kJ/mol
# GULP energy per Si atom -5571.071633 kJ/mol
# Density = 2.107660 g / cm^3
# Si number density = 21.124677 Si / 1000 Ang^3
#
#
#
# Elastic Constant Matrix: (Units=GPa)
#
#
# Indices 1 2 3 4 5 6 
#
# 1 98.3827 27.2192 -0.5639 4.1235 -21.5829 -29.9570
# 2 27.2192 37.3326 19.5225 4.5544 -12.3615 -17.9861
# 3 -0.5639 19.5225 67.2956 19.8021 -15.0924 -11.1572
# 4 4.1235 4.5544 19.8021 20.7515 -7.7529 -2.3920
# 5 -21.5829 -12.3615 -15.0924 -7.7529 29.1038 10.7159
# 6 -29.9570 -17.9861 -11.1572 -2.3920 10.7159 30.4488
#
#
#
# Elastic Compliance Matrix: (Units=1/GPa)
#
#
# Indices 1 2 3 4 5 6 
#
# 1 0.018382 -0.007938 0.007896 -0.004855 0.008277 0.012995
# 2 -0.007938 0.046267 -0.012020 0.005986 0.003892 0.014217
# 3 0.007896 -0.012020 0.027451 -0.021850 0.006718 0.006646
# 4 -0.004855 0.005986 -0.021850 0.071312 0.009133 -0.006859
# 5 0.008277 0.003892 0.006718 0.009133 0.049461 -0.003786
# 6 0.012995 0.014217 0.006646 -0.006859 -0.003786 0.057254
#
#
# Mechanical properties :
#
#
# Convention : Reuss Voigt Hill
#
# Bulk Modulus (GPa) = 14.71087 32.81850 23.76469
# Shear Modulus (GPa) = 15.77734 26.51635 21.14685
#
# Velocity S-wave (km/s) = 2.73585 3.54677 3.16737
# Velocity P-wave (km/s) = 4.11811 5.68701 4.96492
#
# Compressibility (1/GPa) = 0.06797693
#
# Stress axis : x y z
#
# Youngs Moduli (GPa) = 54.40093 21.61368 36.42840
#
# Poissons Ratio (x) = 0.17156 -0.28765
# Poissons Ratio (y) = 0.43182 0.43788
# Poissons Ratio (z) = -0.42956 0.25980
#
# Static dielectric constant tensor:
#      x y z
#    x 1.794230 -0.035500 -0.006560 
#    y -0.035500 1.775990 -0.017210 
#    z -0.006560 -0.017210 1.827790 
# 
# From -- ./inp_files/354973.got.cif
#   From: 2010.05.17/outbox.cif.g08.bks.cpg/sg2_178_cif.got.tgz:354973.got - 2010.06.03 11:33:40.
