data_PCOD9081518
_publ_section_title
;
Structure prediction by ZEFSAII (Michael W. Deem and Ramdas Pophale) SiO2 
 PCOD9081518
Probable space group: P -1
;
_chemical_formula_sum "Si O2"
_cell_formula_units_Z 16
_cell_length_a 13.068615
_cell_length_b 10.663080
_cell_length_c 10.386412
_cell_angle_alpha 142.037425
_cell_angle_beta 120.942607
_cell_angle_gamma 49.028586
_cell_volume 672.228353
_symmetry_space_group_name_H-M "P -1"
_symmetry_group_IT_number 2
_symmetry_cell_setting 'triclinic'
loop_
_space_group_symop_operation_xyz
x,y,z
-x,-y,-z
loop_
_atom_site_type_symbol
_atom_site_label
_atom_site_fract_x
_atom_site_fract_y
_atom_site_fract_z
Si Si1 0.155364 0.746863 0.777488
Si Si2 0.625028 0.597314 0.176723
Si Si3 0.272132 0.297687 0.224003
Si Si4 0.911455 0.779531 0.772104
Si Si5 0.341456 0.958210 0.360459
Si Si6 0.360952 0.376784 0.078139
Si Si7 0.348349 0.775056 0.758015
Si Si8 0.566427 0.143359 0.381140
O O1 0.289735 0.609327 0.838910
O O2 0.224664 0.723819 0.665864
O O3 0.053959 0.656458 0.690209
O O4 0.080312 0.023228 0.975052
O O5 0.460757 0.742506 0.186013
O O6 0.685514 0.511464 0.003119
O O7 0.642410 0.811258 0.420949
O O8 0.144167 0.356945 0.282939
O O9 0.403304 0.267962 0.366410
O O10 0.271690 0.420340 0.186186
O O11 0.307987 0.034164 0.991509
O O12 0.798004 0.933706 0.718638
O O13 0.363298 0.868065 0.447814
O O14 0.396638 0.115174 0.849439
O O15 0.502445 0.373161 0.203075
O O16 0.374472 0.763963 0.615723
#
# Coordination Sequence:
#
# PCOD9081518 Si02
#       8
#     2   2   2   2   2   2   2   2
#     4  10  21  34  49  72 102 133 162 194 241 297
#     4  10  19  32  51  76 100 124 162 206 244 284
#     4   8  13  26  48  71  94 123 162 202 237 277
#     4  10  20  34  51  72 100 132 162 197 243 292
#     4  10  19  32  51  74  98 126 164 206 242 280
#     4   8  14  25  47  74  94 120 162 205 238 274
#     4   8  14  27  47  70  97 128 159 194 239 288
#     4   8  14  27  48  72  95 122 161 204 240 278
#
# _framework density 23.801435000000001
#
# number of rings (size 3 to 8) (size 9 to 14) (size 15 to 20)
#    0.000    3.000    0.000    5.250    0.000    2.500 
#    0.000    1.875    0.000    1.500    0.000    0.000 
#    0.000    0.000    0.000    0.000    0.000    0.000 
#
# Total GULP energy -89225.656444 kJ/mol
# GULP energy per Si atom -5576.603528 kJ/mol
# Density = 2.374726 g / cm^3
# Si number density = 23.801435 Si / 1000 Ang^3
#
#
#
# Elastic Constant Matrix: (Units=GPa)
#
#
# Indices 1 2 3 4 5 6 
#
# 1 215.9883 18.9628 32.7067 -19.7894 -9.7768 7.5046
# 2 18.9628 37.6005 -2.1291 -9.4455 -13.0315 3.8556
# 3 32.7067 -2.1291 83.5756 0.1182 -8.4829 -7.5122
# 4 -19.7894 -9.4455 0.1182 31.7821 4.8795 -6.1677
# 5 -9.7768 -13.0315 -8.4829 4.8795 41.8203 -9.7051
# 6 7.5046 3.8556 -7.5122 -6.1677 -9.7051 34.5424
#
#
#
# Elastic Compliance Matrix: (Units=1/GPa)
#
#
# Indices 1 2 3 4 5 6 
#
# 1 0.005437 -0.002277 -0.002336 0.002574 -0.000470 -0.001107
# 2 -0.002277 0.032952 0.002849 0.007143 0.009822 0.001471
# 3 -0.002336 0.002849 0.013761 -0.000472 0.004180 0.004272
# 4 0.002574 0.007143 -0.000472 0.036198 -0.000353 0.004905
# 5 -0.000470 0.009822 0.004180 -0.000353 0.029650 0.008182
# 6 -0.001107 0.001471 0.004272 0.004905 0.008182 0.033130
#
#
# Mechanical properties :
#
#
# Convention : Reuss Voigt Hill
#
# Bulk Modulus (GPa) = 20.56644 48.47171 34.51907
# Shear Modulus (GPa) = 29.26311 40.80388 35.03349
#
# Velocity S-wave (km/s) = 3.51018 4.14496 3.84071
# Velocity P-wave (km/s) = 5.00880 6.58155 5.84829
#
# Compressibility (1/GPa) = 0.04862290
#
# Stress axis : x y z
#
# Youngs Moduli (GPa) = 183.93632 30.34676 72.66872
#
# Poissons Ratio (x) = 0.06909 0.16979
# Poissons Ratio (y) = 0.41876 -0.20707
# Poissons Ratio (z) = 0.42976 -0.08647
#
# Static dielectric constant tensor:
#      x y z
#    x 1.988630 0.050510 0.046350 
#    y 0.050510 1.836940 0.045320 
#    z 0.046350 0.045320 2.019710 
# 
# From -- ./inp_files/429124.got.cif
#   From: 2010.05.17/outbox.cif.g08.bks.cpg/sg2_215_cif.got.tgz:429124.got - 2010.06.03 11:33:40.
