data_PCOD9081298
_publ_section_title
;
Structure prediction by ZEFSAII (Michael W. Deem and Ramdas Pophale) SiO2 
 PCOD9081298
Probable space group: P -1
;
_chemical_formula_sum "Si O2"
_cell_formula_units_Z 14
_cell_length_a 17.063380
_cell_length_b 8.319675
_cell_length_c 15.768717
_cell_angle_alpha 43.927388
_cell_angle_beta 153.605514
_cell_angle_gamma 143.636284
_cell_volume 590.026699
_symmetry_space_group_name_H-M "P -1"
_symmetry_group_IT_number 2
_symmetry_cell_setting 'triclinic'
loop_
_space_group_symop_operation_xyz
x,y,z
-x,-y,-z
loop_
_atom_site_type_symbol
_atom_site_label
_atom_site_fract_x
_atom_site_fract_y
_atom_site_fract_z
Si Si1 0.665649 0.336842 0.379086
Si Si2 0.715037 0.737062 0.894478
Si Si3 0.173960 0.474963 0.349358
Si Si4 0.189839 0.045107 0.282925
Si Si5 0.758074 0.412150 0.804131
Si Si6 0.714871 0.261497 0.997144
Si Si7 0.891221 0.920727 0.333057
O O1 0.426315 0.235380 0.183435
O O2 0.715170 0.439974 0.486387
O O3 0.733711 0.119899 0.526063
O O4 0.797716 0.604973 0.348631
O O5 0.632214 0.423071 0.907627
O O6 0.731332 0.889271 0.763609
O O7 0.942681 0.872172 0.101637
O O8 0.308157 0.646160 0.335528
O O9 0.964032 0.482543 0.151849
O O10 0.068212 0.148919 0.356948
O O11 0.252384 0.328442 0.277785
O O12 0.650575 0.214307 0.854409
O O13 0.000000 0.500000 0.000000
O O14 0.715638 0.002216 0.132061
O O15 0.000000 0.000000 0.500000
#
# Coordination Sequence:
#
# PCOD9081298 Si02
#       7
#     2   2   2   2   2   2   2
#     4  11  19  32  54  79 106 129 169 210 255 298
#     4  10  19  31  54  75 102 137 166 212 254 291
#     4   8  16  32  53  76 100 134 166 209 250 291
#     4  10  20  35  49  75 105 130 172 209 251 306
#     4   9  17  32  58  72  95 141 170 201 261 299
#     4   8  15  31  49  75 100 130 173 201 245 299
#     4   8  15  28  50  74 107 130 162 212 247 293
#
# _framework density 23.727740000000001
#
# number of rings (size 3 to 8) (size 9 to 14) (size 15 to 20)
#    0.857    2.000    1.429    0.429    2.000    0.571 
#    0.000    3.571    3.143    0.857    0.000    0.000 
#    0.000    0.000    0.000    0.000    0.000    0.000 
#
# Total GULP energy -78093.376266 kJ/mol
# GULP energy per Si atom -5578.098305 kJ/mol
# Density = 2.367373 g / cm^3
# Si number density = 23.727740 Si / 1000 Ang^3
#
#
#
# Elastic Constant Matrix: (Units=GPa)
#
#
# Indices 1 2 3 4 5 6 
#
# 1 37.7467 17.4684 18.1349 -4.3265 -1.7773 1.6373
# 2 17.4684 77.1350 34.0579 -36.4312 3.6998 5.8267
# 3 18.1349 34.0579 84.1933 -30.6338 4.9207 2.5066
# 4 -4.3265 -36.4312 -30.6338 49.3304 0.4584 1.6878
# 5 -1.7773 3.6998 4.9207 0.4584 28.8836 -3.6322
# 6 1.6373 5.8267 2.5066 1.6878 -3.6322 27.6640
#
#
#
# Elastic Compliance Matrix: (Units=1/GPa)
#
#
# Indices 1 2 3 4 5 6 
#
# 1 0.032906 -0.008386 -0.006775 -0.007608 0.004562 0.001496
# 2 -0.008386 0.023820 -0.001524 0.016153 -0.004310 -0.005934
# 3 -0.006775 -0.001524 0.017611 0.009316 -0.003611 -0.001916
# 4 -0.007608 0.016153 0.009316 0.037604 -0.005579 -0.006823
# 5 0.004562 -0.004310 -0.003611 -0.005579 0.036932 0.006154
# 6 0.001496 -0.005934 -0.001916 -0.006823 0.006154 0.038707
#
#
# Mechanical properties :
#
#
# Convention : Reuss Voigt Hill
#
# Bulk Modulus (GPa) = 24.40888 37.59969 31.00428
# Shear Modulus (GPa) = 21.31245 29.80318 25.55782
#
# Velocity S-wave (km/s) = 3.00026 3.54792 3.28552
# Velocity P-wave (km/s) = 4.72351 5.71527 5.24289
#
# Compressibility (1/GPa) = 0.04096870
#
# Stress axis : x y z
#
# Youngs Moduli (GPa) = 30.38970 41.98112 56.78364
#
# Poissons Ratio (x) = 0.35204 0.38470
# Poissons Ratio (y) = 0.25484 0.08652
# Poissons Ratio (z) = 0.20588 0.06397
#
# Static dielectric constant tensor:
#      x y z
#    x 1.891550 0.005260 0.012630 
#    y 0.005260 2.021210 0.038550 
#    z 0.012630 0.038550 2.026610 
# 
# From -- ./inp_files/577559.got.cif
#   From: 2010.05.17/outbox.cif.g08.bks.cpg/sg2_289_cif.got.tgz:577559.got - 2010.06.03 11:33:40.
