data_PCOD9081105
_publ_section_title
;
Structure prediction by ZEFSAII (Michael W. Deem and Ramdas Pophale) SiO2 
 PCOD9081105
Probable space group: P -1
;
_chemical_formula_sum "Si O2"
_cell_formula_units_Z 14
_cell_length_a 10.357921
_cell_length_b 14.803736
_cell_length_c 14.813349
_cell_angle_alpha 145.203349
_cell_angle_beta 145.258679
_cell_angle_gamma 28.567422
_cell_volume 576.253529
_symmetry_space_group_name_H-M "P -1"
_symmetry_group_IT_number 2
_symmetry_cell_setting 'triclinic'
loop_
_space_group_symop_operation_xyz
x,y,z
-x,-y,-z
loop_
_atom_site_type_symbol
_atom_site_label
_atom_site_fract_x
_atom_site_fract_y
_atom_site_fract_z
Si Si1 0.460463 0.055041 0.382761
Si Si2 0.722959 0.425399 0.148200
Si Si3 0.963715 0.586292 0.948450
Si Si4 0.105682 0.318225 0.556214
Si Si5 0.406566 0.810648 0.030274
Si Si6 0.552610 0.367263 0.283307
Si Si7 0.277271 0.731611 0.296295
O O1 0.606389 0.857925 0.368660
O O2 0.395173 0.997016 0.204264
O O3 0.183110 0.238068 0.430753
O O4 0.690123 0.096454 0.535184
O O5 0.943316 0.472201 0.292882
O O6 0.533973 0.576204 0.246401
O O7 0.500000 0.500000 0.000000
O O8 0.796087 0.216065 0.048856
O O9 0.662892 0.644164 0.789301
O O10 0.261630 0.389526 0.917208
O O11 0.000000 0.500000 0.000000
O O12 0.997469 0.761571 0.120177
O O13 0.845660 0.322956 0.446106
O O14 0.368729 0.779193 0.878215
O O15 0.364826 0.598412 0.327196
#
# Coordination Sequence:
#
# PCOD9081105 Si02
#       7
#     2   2   2   2   2   2   2
#     4  10  19  31  47  74 100 126 155 195 249 286
#     4   9  15  28  48  68  91 126 162 185 225 290
#     4   7  14  32  52  69  89 130 165 193 229 283
#     4  10  20  31  49  71 103 127 153 198 245 280
#     4   9  17  30  54  71  94 128 165 192 233 290
#     4   9  18  35  51  70  94 129 165 199 227 279
#     4   8  17  30  53  69  93 129 162 192 236 285
#
# _framework density 24.29486
#
# number of rings (size 3 to 8) (size 9 to 14) (size 15 to 20)
#    0.000    3.714    1.429    0.000    0.000    5.714 
#    0.000    7.857    0.000    0.000    0.000    0.000 
#    0.000    0.000    0.000    0.000    0.000    0.000 
#
# Total GULP energy -78019.096764 kJ/mol
# GULP energy per Si atom -5572.792626 kJ/mol
# Density = 2.423956 g / cm^3
# Si number density = 24.294860 Si / 1000 Ang^3
#
#
#
# Elastic Constant Matrix: (Units=GPa)
#
#
# Indices 1 2 3 4 5 6 
#
# 1 44.7988 11.7387 40.0255 -0.3758 26.3662 -4.8592
# 2 11.7387 52.6160 40.7694 2.9584 14.1664 -0.3646
# 3 40.0255 40.7694 173.6985 21.0639 47.7372 -17.5521
# 4 -0.3758 2.9584 21.0639 36.5620 -6.7937 18.8985
# 5 26.3662 14.1664 47.7372 -6.7937 47.3403 -9.7673
# 6 -4.8592 -0.3646 -17.5521 18.8985 -9.7673 17.1745
#
#
#
# Elastic Compliance Matrix: (Units=1/GPa)
#
#
# Indices 1 2 3 4 5 6 
#
# 1 0.035716 0.001677 -0.008773 0.014403 -0.014171 -0.022732
# 2 0.001677 0.031257 -0.021644 0.047316 0.003690 -0.070949
# 3 -0.008773 -0.021644 0.046339 -0.106377 -0.019618 0.150314
# 4 0.014403 0.047316 -0.106377 0.310500 0.042793 -0.420967
# 5 -0.014171 0.003690 -0.019618 0.042793 0.044380 -0.045830
# 6 -0.022732 -0.070949 0.150314 -0.420967 -0.045830 0.641066
#
#
# Mechanical properties :
#
#
# Convention : Reuss Voigt Hill
#
# Bulk Modulus (GPa) = 17.91051 50.68670 34.29860
# Shear Modulus (GPa) = 4.21817 32.12068 18.16943
#
# Velocity S-wave (km/s) = 1.31909 3.64004 2.73769
# Velocity P-wave (km/s) = 3.11579 6.21087 4.91341
#
# Compressibility (1/GPa) = 0.05583315
#
# Stress axis : x y z
#
# Youngs Moduli (GPa) = 27.99864 31.99302 21.57988
#
# Poissons Ratio (x) = -0.05367 0.18932
# Poissons Ratio (y) = -0.04697 0.46708
# Poissons Ratio (z) = 0.24563 0.69246
#
# Static dielectric constant tensor:
#      x y z
#    x 2.006470 -0.014890 0.035390 
#    y -0.014890 2.040570 -0.036550 
#    z 0.035390 -0.036550 2.046410 
# 
# From -- ./inp_files/233756.got.cif
#   From: 2010.05.17/outbox.cif.g08.bks.cpg/sg2_117_cif.got.tgz:233756.got - 2010.06.03 11:33:40.
