data_PCOD9081194
_publ_section_title
;
Structure prediction by ZEFSAII (Michael W. Deem and Ramdas Pophale) SiO2 
 PCOD9081194
Probable space group: P -1
;
_chemical_formula_sum "Si O2"
_cell_formula_units_Z 16
_cell_length_a 13.358455
_cell_length_b 24.714533
_cell_length_c 13.807611
_cell_angle_alpha 151.238315
_cell_angle_beta 42.287907
_cell_angle_gamma 156.339484
_cell_volume 831.832470
_symmetry_space_group_name_H-M "P -1"
_symmetry_group_IT_number 2
_symmetry_cell_setting 'triclinic'
loop_
_space_group_symop_operation_xyz
x,y,z
-x,-y,-z
loop_
_atom_site_type_symbol
_atom_site_label
_atom_site_fract_x
_atom_site_fract_y
_atom_site_fract_z
Si Si1 0.344110 0.772210 0.353911
Si Si2 0.786560 0.447985 0.187773
Si Si3 0.658200 0.276214 0.500104
Si Si4 0.915104 0.630601 0.746807
Si Si5 0.677920 0.972912 0.244662
Si Si6 0.343712 0.020205 0.153543
Si Si7 0.457482 0.641253 0.573570
Si Si8 0.223265 0.314157 0.462403
O O1 0.373424 0.739675 0.387875
O O2 0.575733 0.893691 0.303345
O O3 0.067637 0.562163 0.172484
O O4 0.331339 0.900329 0.574906
O O5 0.720946 0.442138 0.336281
O O6 0.834523 0.593050 0.320969
O O7 0.531803 0.223165 0.979032
O O8 0.783846 0.466019 0.661144
O O9 0.864721 0.306110 0.369260
O O10 0.388726 0.083360 0.331538
O O11 0.704284 0.531308 0.660259
O O12 0.058512 0.818447 0.996966
O O13 0.983852 0.128141 0.272152
O O14 0.476760 0.200440 0.277112
O O15 0.500000 0.000000 0.000000
O O16 0.711973 0.733418 0.574668
O O17 0.500000 0.500000 0.500000
#
# Coordination Sequence:
#
# PCOD9081194 Si02
#       8
#     2   2   2   2   2   2   2   2
#     4  10  20  35  53  76 110 142 169 221 265 303
#     4  10  20  33  54  77 106 141 179 212 258 317
#     4   9  17  30  48  72 106 134 161 211 266 306
#     4   9  17  30  46  74 106 130 167 210 258 313
#     4  10  22  35  52  79 105 139 186 212 254 319
#     4   9  19  28  48  81 105 129 171 211 258 329
#     4  10  19  31  51  76 107 139 163 216 268 300
#     4   9  21  37  51  74 106 140 180 219 256 305
#
# _framework density 19.234642000000001
#
# number of rings (size 3 to 8) (size 9 to 14) (size 15 to 20)
#    0.000    2.500    1.250    1.125    3.500    3.000 
#    0.000    0.000    0.000    3.000    0.000    5.250 
#    0.000    0.000    0.000    0.000    0.000    0.000 
#
# Total GULP energy -89147.788515 kJ/mol
# GULP energy per Si atom -5571.736782 kJ/mol
# Density = 1.919086 g / cm^3
# Si number density = 19.234642 Si / 1000 Ang^3
#
#
#
# Elastic Constant Matrix: (Units=GPa)
#
#
# Indices 1 2 3 4 5 6 
#
# 1 77.7356 20.0372 26.1822 3.1058 13.5783 -14.3451
# 2 20.0372 55.5585 22.3918 6.2324 15.8778 -13.0692
# 3 26.1822 22.3918 92.6246 29.8390 24.9408 0.4914
# 4 3.1058 6.2324 29.8390 23.0281 4.6875 9.3245
# 5 13.5783 15.8778 24.9408 4.6875 21.6331 -1.0580
# 6 -14.3451 -13.0692 0.4914 9.3245 -1.0580 23.8148
#
#
#
# Elastic Compliance Matrix: (Units=1/GPa)
#
#
# Indices 1 2 3 4 5 6 
#
# 1 0.016947 -0.000623 -0.002227 -0.002106 -0.006645 0.010442
# 2 -0.000623 0.029920 0.004775 -0.018781 -0.021914 0.022326
# 3 -0.002227 0.004775 0.031597 -0.042630 -0.028513 0.016052
# 4 -0.002106 -0.018781 -0.042630 0.119391 0.035653 -0.055859
# 5 -0.006645 -0.021914 -0.028513 0.035653 0.090386 -0.025384
# 6 0.010442 0.022326 0.016052 -0.055859 -0.025384 0.080945
#
#
# Mechanical properties :
#
#
# Convention : Reuss Voigt Hill
#
# Bulk Modulus (GPa) = 12.14850 40.34901 26.24876
# Shear Modulus (GPa) = 12.72998 24.18237 18.45618
#
# Velocity S-wave (km/s) = 2.57539 3.54959 3.10099
# Velocity P-wave (km/s) = 3.89527 6.14998 5.14759
#
# Compressibility (1/GPa) = 0.08231467
#
# Stress axis : x y z
#
# Youngs Moduli (GPa) = 59.00917 33.42212 31.64845
#
# Poissons Ratio (x) = 0.02081 0.07049
# Poissons Ratio (y) = 0.03673 -0.15113
# Poissons Ratio (z) = 0.13144 -0.15960
#
# Static dielectric constant tensor:
#      x y z
#    x 1.707180 0.029410 0.016250 
#    y 0.029410 1.687500 0.020550 
#    z 0.016250 0.020550 1.708320 
# 
# From -- ./inp_files/431533.got.cif
#   From: 2010.05.17/outbox.cif.g08.bks.cpg/sg2_216_cif.got.tgz:431533.got - 2010.06.03 11:33:40.
