data_PCOD9081266
_publ_section_title
;
Structure prediction by ZEFSAII (Michael W. Deem and Ramdas Pophale) SiO2 
 PCOD9081266
Probable space group: P -1
;
_chemical_formula_sum "Si O2"
_cell_formula_units_Z 16
_cell_length_a 15.088037
_cell_length_b 19.907993
_cell_length_c 5.177253
_cell_angle_alpha 87.867717
_cell_angle_beta 79.386894
_cell_angle_gamma 28.241676
_cell_volume 696.643278
_symmetry_space_group_name_H-M "P -1"
_symmetry_group_IT_number 2
_symmetry_cell_setting 'triclinic'
loop_
_space_group_symop_operation_xyz
x,y,z
-x,-y,-z
loop_
_atom_site_type_symbol
_atom_site_label
_atom_site_fract_x
_atom_site_fract_y
_atom_site_fract_z
Si Si1 0.432996 0.153364 0.445861
Si Si2 0.301918 0.610099 0.854542
Si Si3 0.088340 0.857331 0.240700
Si Si4 0.955459 0.776208 0.702541
Si Si5 0.820104 0.800215 0.278593
Si Si6 0.570314 0.127589 0.871376
Si Si7 0.701879 0.156677 0.154448
Si Si8 0.601297 0.328971 0.518873
O O1 0.249587 0.228264 0.610409
O O2 0.434628 0.180778 0.152374
O O3 0.624500 0.977078 0.378665
O O4 0.472378 0.184020 0.636216
O O5 0.461053 0.444886 0.812894
O O6 0.416231 0.599581 0.687396
O O7 0.148900 0.684390 0.715075
O O8 0.174774 0.727289 0.134244
O O9 0.169849 0.820169 0.486309
O O10 0.185914 0.853806 0.028311
O O11 0.859989 0.010148 0.262376
O O12 0.964711 0.734079 0.428089
O O13 0.899979 0.758401 0.954905
O O14 0.778127 0.948706 0.773849
O O15 0.616891 0.168268 0.969390
O O16 0.554964 0.289733 0.415764
#
# Coordination Sequence:
#
# PCOD9081266 Si02
#       8
#     2   2   2   2   2   2   2   2
#     4   9  18  31  51  78 112 144 170 228 284 337
#     4  10  21  36  52  81 104 149 194 226 278 323
#     4  10  20  36  54  73 111 144 185 236 274 325
#     4  10  19  32  53  80 109 143 183 229 269 340
#     4   9  18  32  50  79 112 140 177 224 288 329
#     4  10  19  31  53  80 111 142 183 222 277 339
#     4  10  21  34  50  83 106 147 187 227 277 329
#     4  10  22  36  54  73 113 148 188 234 274 327
#
# _framework density 22.967281
#
# number of rings (size 3 to 8) (size 9 to 14) (size 15 to 20)
#    0.000    2.250    1.250    1.500    3.500    4.000 
#    0.000    0.000    0.000    0.000    0.000    5.250 
#    0.000    0.000    0.000    0.000    0.000    0.000 
#
# Total GULP energy -89369.483740 kJ/mol
# GULP energy per Si atom -5585.592734 kJ/mol
# Density = 2.291501 g / cm^3
# Si number density = 22.967281 Si / 1000 Ang^3
#
#
#
# Elastic Constant Matrix: (Units=GPa)
#
#
# Indices 1 2 3 4 5 6 
#
# 1 87.7361 7.4352 8.6152 9.6144 8.5958 -0.2910
# 2 7.4352 26.4556 16.8357 4.5955 5.1476 3.4902
# 3 8.6152 16.8357 56.3411 -5.2644 16.8223 11.1873
# 4 9.6144 4.5955 -5.2644 24.3995 2.9423 9.0189
# 5 8.5958 5.1476 16.8223 2.9423 38.3998 -0.8536
# 6 -0.2910 3.4902 11.1873 9.0189 -0.8536 17.4826
#
#
#
# Elastic Compliance Matrix: (Units=1/GPa)
#
#
# Indices 1 2 3 4 5 6 
#
# 1 0.012799 -0.000534 -0.003919 -0.008396 -0.000274 0.007145
# 2 -0.000534 0.052401 -0.021448 -0.019880 0.004319 0.013721
# 3 -0.003919 -0.021448 0.040240 0.030383 -0.017050 -0.038040
# 4 -0.008396 -0.019880 0.030383 0.077317 -0.015941 -0.056278
# 5 -0.000274 0.004319 -0.017050 -0.015941 0.034658 0.019959
# 6 0.007145 0.013721 -0.038040 -0.056278 0.019959 0.108928
#
#
# Mechanical properties :
#
#
# Convention : Reuss Voigt Hill
#
# Bulk Modulus (GPa) = 18.64363 26.25609 22.44986
# Shear Modulus (GPa) = 12.62545 25.23283 18.92914
#
# Velocity S-wave (km/s) = 2.34714 3.31817 2.87397
# Velocity P-wave (km/s) = 3.93453 5.11245 4.56167
#
# Compressibility (1/GPa) = 0.05363763
#
# Stress axis : x y z
#
# Youngs Moduli (GPa) = 78.13387 19.08362 24.85062
#
# Poissons Ratio (x) = 0.01019 0.09739
# Poissons Ratio (y) = 0.04171 0.53301
# Poissons Ratio (z) = 0.30620 0.40931
#
# Static dielectric constant tensor:
#      x y z
#    x 1.864300 0.010680 -0.034840 
#    y 0.010680 1.877030 0.013080 
#    z -0.034840 0.013080 1.911360 
# 
# From -- ./inp_files/39776.got.cif
#   From: 2010.05.17/outbox.cif.g08.bks.cpg/sg2_20_cif.got.tgz:39776.got - 2010.06.03 11:33:40.
