data_PCOD9081224
_publ_section_title
;
Structure prediction by ZEFSAII (Michael W. Deem and Ramdas Pophale) SiO2 
 PCOD9081224
Probable space group: P -1
;
_chemical_formula_sum "Si O2"
_cell_formula_units_Z 13
_cell_length_a 11.033915
_cell_length_b 7.832633
_cell_length_c 13.974068
_cell_angle_alpha 106.675859
_cell_angle_beta 134.139823
_cell_angle_gamma 41.524947
_cell_volume 499.982540
_symmetry_space_group_name_H-M "P -1"
_symmetry_group_IT_number 2
_symmetry_cell_setting 'triclinic'
loop_
_space_group_symop_operation_xyz
x,y,z
-x,-y,-z
loop_
_atom_site_type_symbol
_atom_site_label
_atom_site_fract_x
_atom_site_fract_y
_atom_site_fract_z
Si Si1 0.379730 0.577196 0.550175
Si Si2 0.302139 0.590188 0.790051
Si Si3 0.236487 0.705666 0.142641
Si Si4 0.763933 0.911041 0.432713
Si Si5 0.500000 0.000000 0.500000
Si Si6 0.216968 0.000221 0.923506
Si Si7 0.917389 0.681025 0.281354
O O1 0.500000 0.500000 0.500000
O O2 0.603455 0.294058 0.695778
O O3 0.103097 0.700549 0.410889
O O4 0.350708 0.797410 0.610691
O O5 0.522418 0.527138 0.841030
O O6 0.150301 0.861596 0.817941
O O7 0.074976 0.693325 0.611237
O O8 0.493649 0.292301 0.909276
O O9 0.046560 0.735764 0.108938
O O10 0.000000 0.000000 0.000000
O O11 0.583965 0.986495 0.433282
O O12 0.759094 0.802363 0.315462
O O13 0.840424 0.669660 0.654337
O O14 0.228484 0.138015 0.868657
#
# Coordination Sequence:
#
# PCOD9081224 Si02
#       7
#     2   2   2   2   1   2   2
#     4  12  19  36  65  93 118 151 198 254 301 345
#     4  10  20  34  59  93 122 150 189 245 306 354
#     4  10  19  31  51  90 126 147 179 239 305 352
#     4  12  23  40  64  90 118 158 205 251 295 353
#     4  12  28  42  58  84 126 164 206 246 296 352
#     4  10  20  35  58  93 125 148 186 248 306 354
#     4  12  23  40  63  88 120 158 204 248 298 354
#
# _framework density 26.000907000000002
#
# number of rings (size 3 to 8) (size 9 to 14) (size 15 to 20)
#    0.000    0.923    6.154    1.846    0.000    0.000 
#    0.000    0.769    0.000    1.846    0.000    0.000 
#    0.000    0.000    0.000    0.000    0.000    0.000 
#
# Total GULP energy -72372.401072 kJ/mol
# GULP energy per Si atom -5567.107775 kJ/mol
# Density = 2.594173 g / cm^3
# Si number density = 26.000907 Si / 1000 Ang^3
#
#
#
# Elastic Constant Matrix: (Units=GPa)
#
#
# Indices 1 2 3 4 5 6 
#
# 1 111.5184 34.1810 31.9668 8.5997 -17.4998 -25.8178
# 2 34.1810 61.7318 5.8298 -11.7415 1.6502 -7.2912
# 3 31.9668 5.8298 133.3765 -6.6308 -34.3607 1.1859
# 4 8.5997 -11.7415 -6.6308 30.5819 -4.0167 -3.0462
# 5 -17.4998 1.6502 -34.3607 -4.0167 45.4958 -5.8935
# 6 -25.8178 -7.2912 1.1859 -3.0462 -5.8935 43.9831
#
#
#
# Elastic Compliance Matrix: (Units=1/GPa)
#
#
# Indices 1 2 3 4 5 6 
#
# 1 0.015508 -0.008860 -0.002504 -0.006890 0.004806 0.007868
# 2 -0.008860 0.023081 0.000997 0.011125 -0.002637 -0.000984
# 3 -0.002504 0.000997 0.010041 0.004134 0.006902 -0.000364
# 4 -0.006890 0.011125 0.004134 0.040397 0.003763 0.000990
# 5 0.004806 -0.002637 0.006902 0.003763 0.030314 0.006520
# 6 0.007868 -0.000984 -0.000364 0.000990 0.006520 0.028144
#
#
# Mechanical properties :
#
#
# Convention : Reuss Voigt Hill
#
# Bulk Modulus (GPa) = 35.84728 50.06465 42.95597
# Shear Modulus (GPa) = 28.16642 39.65543 33.91093
#
# Velocity S-wave (km/s) = 3.29490 3.90956 3.61532
# Velocity P-wave (km/s) = 5.31903 6.29891 5.82959
#
# Compressibility (1/GPa) = 0.02789612
#
# Stress axis : x y z
#
# Youngs Moduli (GPa) = 64.48450 43.32599 99.59183
#
# Poissons Ratio (x) = 0.38386 0.24936
# Poissons Ratio (y) = 0.57132 -0.09929
# Poissons Ratio (z) = 0.16146 -0.04319
#
# Static dielectric constant tensor:
#      x y z
#    x 2.011980 0.105980 0.010720 
#    y 0.105980 1.959110 -0.122900 
#    z 0.010720 -0.122900 2.123270 
# 
# From -- ./inp_files/513244.got.cif
#   From: 2010.05.17/outbox.cif.g08.bks.cpg/sg2_257_cif.got.tgz:513244.got - 2010.06.03 11:33:40.
