data_PCOD9081209
_publ_section_title
;
Structure prediction by ZEFSAII (Michael W. Deem and Ramdas Pophale) SiO2 
 PCOD9081209
Probable space group: P -1
;
_chemical_formula_sum "Si O2"
_cell_formula_units_Z 16
_cell_length_a 11.864488
_cell_length_b 10.502900
_cell_length_c 5.093796
_cell_angle_alpha 72.989885
_cell_angle_beta 102.986116
_cell_angle_gamma 104.561523
_cell_volume 579.591748
_symmetry_space_group_name_H-M "P -1"
_symmetry_group_IT_number 2
_symmetry_cell_setting 'triclinic'
loop_
_space_group_symop_operation_xyz
x,y,z
-x,-y,-z
loop_
_atom_site_type_symbol
_atom_site_label
_atom_site_fract_x
_atom_site_fract_y
_atom_site_fract_z
Si Si1 0.733991 0.937107 0.778236
Si Si2 0.050259 0.862931 0.136842
Si Si3 0.260383 0.230874 0.594990
Si Si4 0.038009 0.311789 0.303230
Si Si5 0.290468 0.728710 0.169924
Si Si6 0.492930 0.191825 0.505359
Si Si7 0.830302 0.393382 0.311729
Si Si8 0.394107 0.571766 0.961377
O O1 0.789934 0.893133 0.562524
O O2 0.599957 0.924673 0.619976
O O3 0.808471 0.077931 0.841051
O O4 0.740248 0.826827 0.076354
O O5 0.014731 0.801108 0.438500
O O6 0.993636 0.754386 0.955616
O O7 0.000000 0.000000 0.000000
O O8 0.396752 0.266136 0.555757
O O9 0.176611 0.335823 0.423023
O O10 0.965518 0.428556 0.272907
O O11 0.777138 0.275424 0.138877
O O12 0.405769 0.841603 0.231339
O O13 0.197191 0.666304 0.380152
O O14 0.367345 0.609071 0.220525
O O15 0.565655 0.288349 0.265822
O O16 0.739151 0.494315 0.163262
O O17 0.500000 0.500000 0.000000
#
# Coordination Sequence:
#
# PCOD9081209 Si02
#       8
#     2   2   2   2   2   2   2   2
#     4  10  20  31  49  82 108 142 182 231 267 307
#     4  12  20  33  53  81 111 150 198 233 258 302
#     4  10  19  31  51  79 111 145 178 223 282 310
#     4  12  21  35  54  79 122 147 183 233 269 332
#     4   9  18  36  56  78 107 134 183 223 266 330
#     4   9  19  33  55  84 110 141 176 235 277 320
#     4   9  21  34  54  83 110 149 174 219 290 324
#     4   9  19  37  63  87 105 132 185 237 268 327
#
# _framework density 27.605640000000001
#
# number of rings (size 3 to 8) (size 9 to 14) (size 15 to 20)
#    1.500    0.500    2.500    2.625    0.000    2.000 
#    0.000    0.000    0.000   11.250    0.000    2.625 
#    0.000    0.000    0.000    0.000    0.000    0.000 
#
# Total GULP energy -89293.239233 kJ/mol
# GULP energy per Si atom -5580.827452 kJ/mol
# Density = 2.754281 g / cm^3
# Si number density = 27.605640 Si / 1000 Ang^3
#
#
#
# Elastic Constant Matrix: (Units=GPa)
#
#
# Indices 1 2 3 4 5 6 
#
# 1 175.1837 21.8613 40.6111 -4.6459 19.4040 -16.5431
# 2 21.8613 68.8902 21.4430 22.5641 4.9111 11.8263
# 3 40.6111 21.4430 132.9869 33.2466 -4.8108 8.2873
# 4 -4.6459 22.5641 33.2466 39.4335 4.0454 6.9545
# 5 19.4040 4.9111 -4.8108 4.0454 57.3294 4.1569
# 6 -16.5431 11.8263 8.2873 6.9545 4.1569 44.0212
#
#
#
# Elastic Compliance Matrix: (Units=1/GPa)
#
#
# Indices 1 2 3 4 5 6 
#
# 1 0.007927 -0.003730 -0.003635 0.005760 -0.003370 0.004074
# 2 -0.003730 0.020130 0.001308 -0.012234 0.000889 -0.005207
# 3 -0.003635 0.001308 0.011331 -0.010604 0.002996 -0.002458
# 4 0.005760 -0.012234 -0.010604 0.042260 -0.004863 0.001231
# 5 -0.003370 0.000889 0.002996 -0.004863 0.019329 -0.003126
# 6 0.004074 -0.005207 -0.002458 0.001231 -0.003126 0.026210
#
#
# Mechanical properties :
#
#
# Convention : Reuss Voigt Hill
#
# Bulk Modulus (GPa) = 36.66416 60.54353 48.60384
# Shear Modulus (GPa) = 33.69442 47.69985 40.69713
#
# Velocity S-wave (km/s) = 3.49745 4.16131 3.84374
# Velocity P-wave (km/s) = 5.44240 6.71326 6.11096
#
# Compressibility (1/GPa) = 0.02727460
#
# Stress axis : x y z
#
# Youngs Moduli (GPa) = 126.14696 49.67774 88.25097
#
# Poissons Ratio (x) = 0.18529 0.32082
# Poissons Ratio (y) = 0.47051 -0.11546
# Poissons Ratio (z) = 0.45858 -0.06499
#
# Static dielectric constant tensor:
#      x y z
#    x 2.326950 -0.197490 0.122150 
#    y -0.197490 2.378410 0.019500 
#    z 0.122150 0.019500 2.122860 
# 
# From -- ./inp_files/74039.got.cif
#   From: 2010.05.17/outbox.cif.g08.bks.cpg/sg2_38_cif.got.tgz:74039.got - 2010.06.03 11:33:40.
