data_PCOD9081929
_publ_section_title
;
Structure prediction by ZEFSAII (Michael W. Deem and Ramdas Pophale) SiO2 
 PCOD9081929
Probable space group: P -1
;
_chemical_formula_sum "Si O2"
_cell_formula_units_Z 12
_cell_length_a 11.311218
_cell_length_b 10.847412
_cell_length_c 11.702288
_cell_angle_alpha 25.105970
_cell_angle_beta 57.657886
_cell_angle_gamma 67.115168
_cell_volume 496.087658
_symmetry_space_group_name_H-M "P -1"
_symmetry_group_IT_number 2
_symmetry_cell_setting 'triclinic'
loop_
_space_group_symop_operation_xyz
x,y,z
-x,-y,-z
loop_
_atom_site_type_symbol
_atom_site_label
_atom_site_fract_x
_atom_site_fract_y
_atom_site_fract_z
Si Si1 0.361720 0.612119 0.453016
Si Si2 0.546547 0.047460 0.567226
Si Si3 0.901182 0.750059 0.975306
Si Si4 0.062092 0.212588 0.682235
Si Si5 0.607521 0.449924 0.760028
Si Si6 0.798177 0.091048 0.551500
O O1 0.500000 0.500000 0.500000
O O2 0.366144 0.703895 0.242694
O O3 0.333877 0.871431 0.329635
O O4 0.228223 0.333236 0.793741
O O5 0.500000 0.000000 0.500000
O O6 0.512625 0.363702 0.351367
O O7 0.712542 0.045410 0.514273
O O8 0.441993 0.779711 0.918687
O O9 0.857178 0.849128 0.791181
O O10 0.917439 0.413264 0.230758
O O11 0.010971 0.028624 0.745943
O O12 0.236024 0.318029 0.496660
O O13 0.000000 0.500000 0.500000
O O14 0.000000 0.000000 0.000000
#
# Coordination Sequence:
#
# PCOD9081929 Si02
#       6
#     2   2   2   2   2   2
#     4  10  19  32  57  91 122 146 190 241 319 370
#     4  12  26  44  62  88 122 167 217 265 301 352
#     4  10  21  35  56  91 125 160 185 243 309 382
#     4  12  22  38  60  93 138 164 193 243 311 398
#     4  12  24  38  65  92 126 165 202 253 315 372
#     4  10  21  37  60  87 120 158 198 254 315 364
#
# _framework density 24.189271999999999
#
# number of rings (size 3 to 8) (size 9 to 14) (size 15 to 20)
#    1.000    0.000    3.333    5.500    2.333    1.333 
#    0.000    0.000    0.000    6.000    0.000    0.000 
#    0.000    0.000    0.000    0.000    0.000    0.000 
#
# Total GULP energy -67033.304922 kJ/mol
# GULP energy per Si atom -5586.108743 kJ/mol
# Density = 2.413422 g / cm^3
# Si number density = 24.189272 Si / 1000 Ang^3
#
#
#
# Elastic Constant Matrix: (Units=GPa)
#
#
# Indices 1 2 3 4 5 6 
#
# 1 65.6582 34.9936 29.3294 2.9679 3.3390 21.8803
# 2 34.9936 102.2391 35.4386 22.2150 2.8905 17.5222
# 3 29.3294 35.4386 148.5791 16.4326 27.1128 7.4641
# 4 2.9679 22.2150 16.4326 24.2134 11.6321 7.0679
# 5 3.3390 2.8905 27.1128 11.6321 46.1025 -4.4179
# 6 21.8803 17.5222 7.4641 7.0679 -4.4179 45.4001
#
#
#
# Elastic Compliance Matrix: (Units=1/GPa)
#
#
# Indices 1 2 3 4 5 6 
#
# 1 0.023517 -0.007499 -0.002944 0.010343 -0.003056 -0.009863
# 2 -0.007499 0.015873 -0.001454 -0.014791 0.004177 0.000436
# 3 -0.002944 -0.001454 0.008646 -0.002335 -0.004142 0.000519
# 4 0.010343 -0.014791 -0.002335 0.066085 -0.016153 -0.010753
# 5 -0.003056 0.004177 -0.004142 -0.016153 0.028722 0.005852
# 6 -0.009863 0.000436 0.000519 -0.010753 0.005852 0.028770
#
#
# Mechanical properties :
#
#
# Convention : Reuss Voigt Hill
#
# Bulk Modulus (GPa) = 41.25183 57.33330 49.29257
# Shear Modulus (GPa) = 24.57145 37.59084 31.08115
#
# Velocity S-wave (km/s) = 3.19062 3.94639 3.58846
# Velocity P-wave (km/s) = 5.53753 6.67224 6.13119
#
# Compressibility (1/GPa) = 0.02424135
#
# Stress axis : x y z
#
# Youngs Moduli (GPa) = 42.52186 63.00142 115.65621
#
# Poissons Ratio (x) = 0.47247 0.34053
# Poissons Ratio (y) = 0.31889 0.16814
# Poissons Ratio (z) = 0.12520 0.09159
#
# Static dielectric constant tensor:
#      x y z
#    x 2.142520 -0.108820 0.156110 
#    y -0.108820 2.125280 -0.208580 
#    z 0.156110 -0.208580 2.166200 
# 
# From -- ./inp_files/62009.got.cif
#   From: 2010.05.17/outbox.cif.g08.bks.cpg/sg2_32_cif.got.tgz:62009.got - 2010.06.03 11:33:40.
