data_PCOD9081975
_publ_section_title
;
Structure prediction by ZEFSAII (Michael W. Deem and Ramdas Pophale) SiO2 
 PCOD9081975
Probable space group: P -1
;
_chemical_formula_sum "Si O2"
_cell_formula_units_Z 16
_cell_length_a 8.774494
_cell_length_b 14.556991
_cell_length_c 9.368489
_cell_angle_alpha 48.292897
_cell_angle_beta 100.024600
_cell_angle_gamma 74.435395
_cell_volume 750.069788
_symmetry_space_group_name_H-M "P -1"
_symmetry_group_IT_number 2
_symmetry_cell_setting 'triclinic'
loop_
_space_group_symop_operation_xyz
x,y,z
-x,-y,-z
loop_
_atom_site_type_symbol
_atom_site_label
_atom_site_fract_x
_atom_site_fract_y
_atom_site_fract_z
Si Si1 0.146048 0.913717 0.240488
Si Si2 0.232400 0.366120 0.016657
Si Si3 0.376678 0.028031 0.085877
Si Si4 0.988178 0.685398 0.213627
Si Si5 0.895939 0.344979 0.437853
Si Si6 0.895983 0.787364 0.655135
Si Si7 0.405514 0.896176 0.740216
Si Si8 0.116741 0.828696 0.876081
O O1 0.183022 0.755522 0.434404
O O2 0.331954 0.906525 0.241897
O O3 0.047581 0.014835 0.257821
O O4 0.000000 0.000000 0.000000
O O5 0.210069 0.519774 0.825494
O O6 0.113628 0.355413 0.877927
O O7 0.147230 0.330808 0.173528
O O8 0.443848 0.240449 0.181597
O O9 0.473390 0.063157 0.188243
O O10 0.175742 0.167272 0.897636
O O11 0.500000 0.000000 0.000000
O O12 0.080266 0.598945 0.462286
O O13 0.120466 0.721460 0.109093
O O14 0.073522 0.235698 0.485006
O O15 0.065535 0.778871 0.773671
O O16 0.736909 0.947939 0.509308
O O17 0.287775 0.845779 0.862167
#
# Coordination Sequence:
#
# PCOD9081975 Si02
#       8
#     2   2   2   2   2   2   2   2
#     4  11  20  36  63  90 119 154 204 241 288 361
#     4  10  24  40  58  91 125 151 198 251 303 342
#     4  10  19  32  58  94 121 146 196 254 296 336
#     4   9  20  38  63  86 118 159 199 239 293 367
#     4  12  21  38  66  87 119 161 198 243 294 358
#     4  11  23  40  65  86 115 165 207 240 287 363
#     4  11  21  38  63  86 120 156 198 252 296 343
#     4  10  20  39  64  89 113 156 209 241 288 358
#
# _framework density 21.331347999999998
#
# number of rings (size 3 to 8) (size 9 to 14) (size 15 to 20)
#    0.000    1.500    3.750    3.750    0.000    0.000 
#    0.000    1.250   11.000    0.000    0.000    0.000 
#    0.000    0.000    0.000    0.000    0.000    0.000 
#
# Total GULP energy -89186.614336 kJ/mol
# GULP energy per Si atom -5574.163396 kJ/mol
# Density = 2.128280 g / cm^3
# Si number density = 21.331348 Si / 1000 Ang^3
#
#
#
# Elastic Constant Matrix: (Units=GPa)
#
#
# Indices 1 2 3 4 5 6 
#
# 1 157.0544 17.0313 39.4937 -0.9813 -32.2034 1.5959
# 2 17.0313 36.2997 1.7542 8.3302 -9.8700 4.0386
# 3 39.4937 1.7542 75.1413 -6.1312 -25.3482 8.5189
# 4 -0.9813 8.3302 -6.1312 36.0945 4.1595 -5.1890
# 5 -32.2034 -9.8700 -25.3482 4.1595 31.8593 -0.3177
# 6 1.5959 4.0386 8.5189 -5.1890 -0.3177 18.4422
#
#
#
# Elastic Compliance Matrix: (Units=1/GPa)
#
#
# Indices 1 2 3 4 5 6 
#
# 1 0.008442 -0.002321 -0.002548 -0.000195 0.005822 0.001000
# 2 -0.002321 0.036513 0.006092 -0.011137 0.015132 -0.013482
# 3 -0.002548 0.006092 0.021088 -0.001329 0.016154 -0.010950
# 4 -0.000195 -0.011137 -0.001329 0.032813 -0.008867 0.012149
# 5 0.005822 0.015132 0.016154 -0.008867 0.055843 -0.012812
# 6 0.001000 -0.013482 -0.010950 0.012149 -0.012812 0.065345
#
#
# Mechanical properties :
#
#
# Convention : Reuss Voigt Hill
#
# Bulk Modulus (GPa) = 14.60108 42.78376 28.69242
# Shear Modulus (GPa) = 20.79619 31.29363 26.04491
#
# Velocity S-wave (km/s) = 3.12575 3.83433 3.49803
# Velocity P-wave (km/s) = 4.45946 6.30104 5.45848
#
# Compressibility (1/GPa) = 0.06848811
#
# Stress axis : x y z
#
# Youngs Moduli (GPa) = 118.45296 27.38728 47.42099
#
# Poissons Ratio (x) = 0.06358 0.12084
# Poissons Ratio (y) = 0.27497 -0.28889
# Poissons Ratio (z) = 0.30184 -0.16684
#
# Static dielectric constant tensor:
#      x y z
#    x 1.779450 0.018090 -0.000350 
#    y 0.018090 1.843070 -0.012290 
#    z -0.000350 -0.012290 1.834790 
# 
# From -- ./inp_files/205631.got.cif
#   From: 2010.05.17/outbox.cif.g08.bks.cpg/sg2_103_cif.got.tgz:205631.got - 2010.06.03 11:33:40.
