data_PCOD9081042
_publ_section_title
;
Structure prediction by ZEFSAII (Michael W. Deem and Ramdas Pophale) SiO2 
 PCOD9081042
Probable space group: P -1
;
_chemical_formula_sum "Si O2"
_cell_formula_units_Z 16
_cell_length_a 15.101043
_cell_length_b 5.869016
_cell_length_c 11.234403
_cell_angle_alpha 81.312957
_cell_angle_beta 50.586704
_cell_angle_gamma 90.724722
_cell_volume 752.708985
_symmetry_space_group_name_H-M "P -1"
_symmetry_group_IT_number 2
_symmetry_cell_setting 'triclinic'
loop_
_space_group_symop_operation_xyz
x,y,z
-x,-y,-z
loop_
_atom_site_type_symbol
_atom_site_label
_atom_site_fract_x
_atom_site_fract_y
_atom_site_fract_z
Si Si1 0.276513 0.363923 0.932146
Si Si2 0.278291 0.176016 0.312678
Si Si3 0.864288 0.659814 0.176026
Si Si4 0.517609 0.382500 0.122519
Si Si5 0.133941 0.505149 0.270081
Si Si6 0.944157 0.137840 0.432373
Si Si7 0.294443 0.937538 0.078531
Si Si8 0.075924 0.843522 0.807391
O O1 0.234938 0.406282 0.833198
O O2 0.406350 0.460794 0.857072
O O3 0.192917 0.456840 0.095788
O O4 0.264458 0.088821 0.982529
O O5 0.389590 0.280069 0.283848
O O6 0.200323 0.369226 0.322119
O O7 0.191302 0.958394 0.452378
O O8 0.327853 0.093879 0.152432
O O9 0.873530 0.402819 0.245474
O O10 0.850900 0.903351 0.238358
O O11 0.983961 0.751788 0.995750
O O12 0.500000 0.500000 0.000000
O O13 0.600135 0.193021 0.035501
O O14 0.178220 0.772626 0.229799
O O15 0.999675 0.404147 0.388061
O O16 0.985993 0.094024 0.266635
O O17 0.000000 0.000000 0.500000
#
# Coordination Sequence:
#
# PCOD9081042 Si02
#       8
#     2   2   2   2   2   2   2   2
#     4  10  20  32  57  86 113 151 196 256 299 346
#     4  10  20  34  50  81 117 161 189 235 299 369
#     4  10  22  39  64  88 120 158 210 255 297 350
#     4  11  19  33  53  82 119 151 200 253 300 353
#     4   9  18  33  51  82 119 150 188 231 302 363
#     4  10  21  40  58  87 128 156 190 236 308 383
#     4  10  19  30  55  80 115 156 192 249 298 356
#     4  10  22  41  62  90 121 161 201 253 301 362
#
# _framework density 21.256557000000001
#
# number of rings (size 3 to 8) (size 9 to 14) (size 15 to 20)
#    0.000    2.000    5.000    0.375    3.500    1.500 
#    4.500    0.000    0.000    1.500    0.000    0.000 
#    0.000    0.000    0.000    0.000    0.000    0.000 
#
# Total GULP energy -89067.773380 kJ/mol
# GULP energy per Si atom -5566.735836 kJ/mol
# Density = 2.120818 g / cm^3
# Si number density = 21.256557 Si / 1000 Ang^3
#
#
#
# Elastic Constant Matrix: (Units=GPa)
#
#
# Indices 1 2 3 4 5 6 
#
# 1 112.4122 54.6339 31.3656 -21.2958 -10.0262 24.3155
# 2 54.6339 110.7831 25.5479 -17.7148 -2.3652 9.1563
# 3 31.3656 25.5479 41.8120 -19.4733 -16.9777 7.7530
# 4 -21.2958 -17.7148 -19.4733 30.0668 12.8030 -11.6334
# 5 -10.0262 -2.3652 -16.9777 12.8030 40.8630 -15.6520
# 6 24.3155 9.1563 7.7530 -11.6334 -15.6520 39.8778
#
#
#
# Elastic Compliance Matrix: (Units=1/GPa)
#
#
# Indices 1 2 3 4 5 6 
#
# 1 0.014905 -0.004894 -0.007420 0.001285 -0.002903 -0.007287
# 2 -0.004894 0.012714 -0.004022 0.002836 -0.002805 0.000573
# 3 -0.007420 -0.004022 0.044638 0.018387 0.013593 0.007469
# 4 0.001285 0.002836 0.018387 0.053290 -0.005345 0.008439
# 5 -0.002903 -0.002805 0.013593 -0.005345 0.035585 0.012179
# 6 -0.007287 0.000573 0.007469 0.008439 0.012179 0.035178
#
#
# Mechanical properties :
#
#
# Convention : Reuss Voigt Hill
#
# Bulk Modulus (GPa) = 25.26151 54.23357 39.74754
# Shear Modulus (GPa) = 20.64604 32.39216 26.51910
#
# Velocity S-wave (km/s) = 3.11992 3.90791 3.53593
# Velocity P-wave (km/s) = 4.98883 6.77728 5.95063
#
# Compressibility (1/GPa) = 0.03958591
#
# Stress axis : x y z
#
# Youngs Moduli (GPa) = 67.08970 78.65500 22.40232
#
# Poissons Ratio (x) = 0.38493 0.16623
# Poissons Ratio (y) = 0.32833 0.09009
# Poissons Ratio (z) = 0.49783 0.31631
#
# Static dielectric constant tensor:
#      x y z
#    x 1.777530 0.020900 -0.009910 
#    y 0.020900 1.879500 -0.007940 
#    z -0.009910 -0.007940 1.828300 
# 
# From -- ./inp_files/76771.got.cif
#   From: 2010.05.17/outbox.cif.g08.bks.cpg/sg2_39_cif.got.tgz:76771.got - 2010.06.03 11:33:40.
