data_PCOD9081156
_publ_section_title
;
Structure prediction by ZEFSAII (Michael W. Deem and Ramdas Pophale) SiO2 
 PCOD9081156
Probable space group: P -1
;
_chemical_formula_sum "Si O2"
_cell_formula_units_Z 16
_cell_length_a 13.305456
_cell_length_b 9.170120
_cell_length_c 7.583137
_cell_angle_alpha 100.110769
_cell_angle_beta 126.799696
_cell_angle_gamma 101.456942
_cell_volume 673.028926
_symmetry_space_group_name_H-M "P -1"
_symmetry_group_IT_number 2
_symmetry_cell_setting 'triclinic'
loop_
_space_group_symop_operation_xyz
x,y,z
-x,-y,-z
loop_
_atom_site_type_symbol
_atom_site_label
_atom_site_fract_x
_atom_site_fract_y
_atom_site_fract_z
Si Si1 0.692534 0.002147 0.662619
Si Si2 0.987137 0.217511 0.429135
Si Si3 0.689725 0.603608 0.144692
Si Si4 0.505798 0.704763 0.246573
Si Si5 0.945010 0.040887 0.704709
Si Si6 0.867153 0.622958 0.877544
Si Si7 0.625205 0.691797 0.709670
Si Si8 0.875374 0.348975 0.065748
O O1 0.809762 0.986788 0.661277
O O2 0.556902 0.897628 0.379895
O O3 0.674899 0.885373 0.784950
O O4 0.756864 0.188503 0.826080
O O5 0.147336 0.319908 0.652526
O O6 0.921891 0.100330 0.499504
O O7 0.899609 0.314164 0.286299
O O8 0.993953 0.094264 0.261101
O O9 0.617381 0.664283 0.238117
O O10 0.630090 0.408784 0.021419
O O11 0.639417 0.658911 0.921927
O O12 0.498282 0.642110 0.429497
O O13 0.052823 0.200568 0.929826
O O14 0.722568 0.625610 0.686395
O O15 0.969130 0.605563 0.835838
O O16 0.848149 0.495878 0.986240
#
# Coordination Sequence:
#
# PCOD9081156 Si02
#       8
#     2   2   2   2   2   2   2   2
#     4   9  19  34  52  79 105 139 175 221 268 310
#     4  11  20  31  52  81 108 137 172 220 266 323
#     4  11  19  35  52  86 106 139 181 218 269 316
#     4   9  21  33  56  81 109 135 178 232 261 306
#     4  10  19  31  49  78 106 134 170 219 268 314
#     4  10  19  34  49  75 108 144 175 215 264 326
#     4  10  19  35  57  79 105 143 176 222 266 308
#     4  10  21  32  51  76 109 143 178 210 272 321
#
# _framework density 23.773122999999998
#
# number of rings (size 3 to 8) (size 9 to 14) (size 15 to 20)
#    0.750    1.250    2.500    2.625    1.750    2.500 
#    0.000    0.000    0.000    0.750    3.250    4.375 
#    0.000    0.000    0.000    0.000    0.000    0.000 
#
# Total GULP energy -89110.154238 kJ/mol
# GULP energy per Si atom -5569.384640 kJ/mol
# Density = 2.371901 g / cm^3
# Si number density = 23.773123 Si / 1000 Ang^3
#
#
#
# Elastic Constant Matrix: (Units=GPa)
#
#
# Indices 1 2 3 4 5 6 
#
# 1 36.2626 10.3429 10.5532 -5.7552 -2.3002 14.1799
# 2 10.3429 94.3580 53.3488 1.6037 3.3405 15.5787
# 3 10.5532 53.3488 85.1286 10.3433 -8.1216 10.0623
# 4 -5.7552 1.6037 10.3433 46.1758 9.8820 -0.8673
# 5 -2.3002 3.3405 -8.1216 9.8820 24.5888 -3.7763
# 6 14.1799 15.5787 10.0623 -0.8673 -3.7763 19.5758
#
#
#
# Elastic Compliance Matrix: (Units=1/GPa)
#
#
# Indices 1 2 3 4 5 6 
#
# 1 0.040641 0.003468 -0.004969 0.006702 -0.005680 -0.030443
# 2 0.003468 0.020143 -0.013023 0.004682 -0.010700 -0.013705
# 3 -0.004969 -0.013023 0.022090 -0.007682 0.012404 0.004661
# 4 0.006702 0.004682 -0.007682 0.027005 -0.014352 -0.006204
# 5 -0.005680 -0.010700 0.012404 -0.014352 0.053917 0.016019
# 6 -0.030443 -0.013705 0.004661 -0.006204 0.016019 0.084461
#
#
# Mechanical properties :
#
#
# Convention : Reuss Voigt Hill
#
# Bulk Modulus (GPa) = 18.57839 40.47101 29.52470
# Shear Modulus (GPa) = 16.93499 27.50168 22.21833
#
# Velocity S-wave (km/s) = 2.67190 3.40492 3.06044
# Velocity P-wave (km/s) = 4.16540 5.70253 4.99346
#
# Compressibility (1/GPa) = 0.05382598
#
# Stress axis : x y z
#
# Youngs Moduli (GPa) = 24.60548 49.64598 45.26926
#
# Poissons Ratio (x) = -0.17218 0.22496
# Poissons Ratio (y) = -0.08534 0.58953
# Poissons Ratio (z) = 0.12228 0.64653
#
# Static dielectric constant tensor:
#      x y z
#    x 2.019550 0.031720 0.021580 
#    y 0.031720 1.944860 0.063050 
#    z 0.021580 0.063050 1.990000 
# 
# From -- ./inp_files/327641.got.cif
#   From: 2010.05.17/outbox.cif.g08.bks.cpg/sg2_164_cif.got.tgz:327641.got - 2010.06.03 11:33:40.
