data_PCOD9081434
_publ_section_title
;
Structure prediction by ZEFSAII (Michael W. Deem and Ramdas Pophale) SiO2 
 PCOD9081434
Probable space group: P -1
;
_chemical_formula_sum "Si O2"
_cell_formula_units_Z 15
_cell_length_a 6.819931
_cell_length_b 6.887988
_cell_length_c 17.171601
_cell_angle_alpha 99.431230
_cell_angle_beta 48.212057
_cell_angle_gamma 83.282907
_cell_volume 564.575561
_symmetry_space_group_name_H-M "P -1"
_symmetry_group_IT_number 2
_symmetry_cell_setting 'triclinic'
loop_
_space_group_symop_operation_xyz
x,y,z
-x,-y,-z
loop_
_atom_site_type_symbol
_atom_site_label
_atom_site_fract_x
_atom_site_fract_y
_atom_site_fract_z
Si Si1 0.111966 0.649828 0.426015
Si Si2 0.409263 0.541922 0.615384
Si Si3 0.092581 0.174727 0.824416
Si Si4 0.718051 0.929144 0.070357
Si Si5 0.545189 0.957152 0.576596
Si Si6 0.001570 0.260752 0.150418
Si Si7 0.525384 0.614767 0.818093
Si Si8 0.500000 0.500000 0.000000
O O1 0.377718 0.643260 0.406182
O O2 0.226548 0.535892 0.307348
O O3 0.000000 0.500000 0.500000
O O4 0.876274 0.864321 0.491299
O O5 0.500000 0.500000 0.500000
O O6 0.471341 0.759808 0.621573
O O7 0.101059 0.601131 0.736557
O O8 0.252077 0.187630 0.863816
O O9 0.313984 0.130044 0.695324
O O10 0.984089 0.973585 0.846334
O O11 0.828274 0.366870 0.895893
O O12 0.475449 0.145138 0.154270
O O13 0.000000 0.000000 0.000000
O O14 0.726887 0.786457 0.981885
O O15 0.500000 0.000000 0.500000
O O16 0.742255 0.356489 0.166324
O O17 0.483302 0.544197 0.910546
#
# Coordination Sequence:
#
# PCOD9081434 Si02
#       8
#     2   2   2   2   2   2   2   1
#     4   9  17  31  48  68  99 132 163 196 239 298
#     4   9  18  31  52  73  93 127 172 203 231 284
#     4   9  16  23  40  62  95 121 149 193 241 283
#     4   8  11  24  34  56  85 115 144 183 244 268
#     4  10  19  32  46  72 106 131 153 197 254 293
#     4   8  13  27  38  58  93 116 144 190 244 269
#     4   9  15  21  39  63  92 118 149 193 242 281
#     4  12  14  20  36  68  98 110 148 194 254 276
#
# _framework density 26.568629999999999
#
# number of rings (size 3 to 8) (size 9 to 14) (size 15 to 20)
#    0.000    3.200    4.000    3.200    0.000    0.000 
#    0.000    0.667    0.000    0.000    0.000    9.333 
#    0.000    0.000    0.000    0.000    0.000    0.000 
#
# Total GULP energy -83520.138290 kJ/mol
# GULP energy per Si atom -5568.009219 kJ/mol
# Density = 2.650816 g / cm^3
# Si number density = 26.568630 Si / 1000 Ang^3
#
#
#
# Elastic Constant Matrix: (Units=GPa)
#
#
# Indices 1 2 3 4 5 6 
#
# 1 58.0624 49.1223 60.2646 0.4760 3.8092 -26.9840
# 2 49.1223 145.8218 79.4781 10.2525 -18.4212 -36.0139
# 3 60.2646 79.4781 304.9027 25.2084 5.1982 -38.8450
# 4 0.4760 10.2525 25.2084 58.6819 -8.5588 -4.1331
# 5 3.8092 -18.4212 5.1982 -8.5588 36.1648 -9.2054
# 6 -26.9840 -36.0139 -38.8450 -4.1331 -9.2054 32.7382
#
#
#
# Elastic Compliance Matrix: (Units=1/GPa)
#
#
# Indices 1 2 3 4 5 6 
#
# 1 0.033525 -0.005305 -0.003169 0.003260 -0.000334 0.018355
# 2 -0.005305 0.013734 -0.001177 0.000646 0.011066 0.012533
# 3 -0.003169 -0.001177 0.004493 -0.001799 -0.001112 0.000885
# 4 0.003260 0.000646 -0.001799 0.018941 0.006093 0.005368
# 5 -0.000334 0.011066 -0.001112 0.006093 0.040729 0.022800
# 6 0.018355 0.012533 0.000885 0.005368 0.022800 0.067600
#
#
# Mechanical properties :
#
#
# Convention : Reuss Voigt Hill
#
# Bulk Modulus (GPa) = 30.81510 98.50188 64.65849
# Shear Modulus (GPa) = 23.90740 46.84510 35.37625
#
# Velocity S-wave (km/s) = 3.00298 4.20357 3.65294
# Velocity P-wave (km/s) = 4.86285 7.79198 6.49470
#
# Compressibility (1/GPa) = 0.03245162
#
# Stress axis : x y z
#
# Youngs Moduli (GPa) = 29.82809 72.81308 222.55330
#
# Poissons Ratio (x) = 0.38624 0.70528
# Poissons Ratio (y) = 0.15822 0.26192
# Poissons Ratio (z) = 0.09453 0.08569
#
# Static dielectric constant tensor:
#      x y z
#    x 2.100140 0.003450 0.090180 
#    y 0.003450 2.101930 0.060650 
#    z 0.090180 0.060650 2.092440 
# 
# From -- ./inp_files/496618.got.cif
#   From: 2010.05.17/outbox.cif.g08.bks.cpg/sg2_249_cif.got.tgz:496618.got - 2010.06.03 11:33:40.
