data_PCOD9081035
_publ_section_title
;
Structure prediction by ZEFSAII (Michael W. Deem and Ramdas Pophale) SiO2 
 PCOD9081035
Probable space group: P -1
;
_chemical_formula_sum "Si O2"
_cell_formula_units_Z 16
_cell_length_a 5.222408
_cell_length_b 22.696173
_cell_length_c 8.567200
_cell_angle_alpha 48.313624
_cell_angle_beta 100.610530
_cell_angle_gamma 117.840095
_cell_volume 658.157323
_symmetry_space_group_name_H-M "P -1"
_symmetry_group_IT_number 2
_symmetry_cell_setting 'triclinic'
loop_
_space_group_symop_operation_xyz
x,y,z
-x,-y,-z
loop_
_atom_site_type_symbol
_atom_site_label
_atom_site_fract_x
_atom_site_fract_y
_atom_site_fract_z
Si Si1 0.329518 0.278641 0.080988
Si Si2 0.666561 0.418773 0.109104
Si Si3 0.704690 0.224890 0.043942
Si Si4 0.696050 0.102640 0.973781
Si Si5 0.511388 0.460552 0.318109
Si Si6 0.132255 0.397945 0.661527
Si Si7 0.173449 0.034069 0.618892
Si Si8 0.207845 0.916299 0.309049
O O1 0.416599 0.209201 0.132577
O O2 0.328273 0.350892 0.828484
O O3 0.983275 0.235553 0.161889
O O4 0.571808 0.330876 0.149323
O O5 0.566484 0.398925 0.311955
O O6 0.477333 0.460067 0.928393
O O7 0.000000 0.500000 0.000000
O O8 0.814984 0.323689 0.807286
O O9 0.687919 0.164587 0.001651
O O10 0.888495 0.055959 0.135757
O O11 0.365642 0.018863 0.077441
O O12 0.813461 0.140613 0.747787
O O13 0.207452 0.416133 0.457095
O O14 0.755830 0.511611 0.386609
O O15 0.527161 0.079390 0.561726
O O16 0.000000 0.000000 0.500000
O O17 0.066642 0.092713 0.606845
#
# Coordination Sequence:
#
# PCOD9081035 Si02
#       8
#     2   2   2   2   2   2   2   2
#     4   9  21  34  53  77 104 138 178 217 257 330
#     4  10  19  30  54  76 103 138 178 221 271 312
#     4  10  20  35  56  76 108 141 177 216 269 313
#     4   9  21  33  61  80 110 143 186 224 266 320
#     4   9  17  33  52  78  99 134 178 223 266 305
#     4   8  18  33  53  76 104 131 181 221 262 313
#     4  10  19  34  57  83 115 138 177 228 271 316
#     4   9  20  33  56  88 105 138 188 225 259 319
#
# _framework density 24.310296999999998
#
# number of rings (size 3 to 8) (size 9 to 14) (size 15 to 20)
#    1.500    1.250    0.000    1.500    3.500    1.000 
#    0.000    3.750    2.750    1.500    0.000    0.000 
#    0.000    0.000    0.000    0.000    0.000    0.000 
#
# Total GULP energy -89154.940656 kJ/mol
# GULP energy per Si atom -5572.183791 kJ/mol
# Density = 2.425497 g / cm^3
# Si number density = 24.310297 Si / 1000 Ang^3
#
#
#
# Elastic Constant Matrix: (Units=GPa)
#
#
# Indices 1 2 3 4 5 6 
#
# 1 116.5428 33.4589 20.4409 23.4715 -9.2645 -7.3232
# 2 33.4589 90.4463 12.0993 27.4474 -2.3426 -5.2787
# 3 20.4409 12.0993 60.2758 15.6087 -0.7688 -0.2438
# 4 23.4715 27.4474 15.6087 36.7743 0.5959 -7.5868
# 5 -9.2645 -2.3426 -0.7688 0.5959 33.4060 1.0729
# 6 -7.3232 -5.2787 -0.2438 -7.5868 1.0729 29.5326
#
#
#
# Elastic Compliance Matrix: (Units=1/GPa)
#
#
# Indices 1 2 3 4 5 6 
#
# 1 0.010718 -0.002323 -0.002081 -0.004045 0.002799 0.001084
# 2 -0.002323 0.014847 0.000367 -0.009862 0.000596 -0.000474
# 3 -0.002081 0.000367 0.019168 -0.007544 0.000096 -0.002234
# 4 -0.004045 -0.009862 -0.007544 0.042054 -0.002997 0.008084
# 5 0.002799 0.000596 0.000096 -0.002997 0.030843 -0.001089
# 6 0.001084 -0.000474 -0.002234 0.008084 -0.001089 0.036143
#
#
# Mechanical properties :
#
#
# Convention : Reuss Voigt Hill
#
# Bulk Modulus (GPa) = 27.27798 44.36255 35.82026
# Shear Modulus (GPa) = 28.72459 33.36031 31.04245
#
# Velocity S-wave (km/s) = 3.44114 3.70844 3.57729
# Velocity P-wave (km/s) = 5.19940 6.05184 5.64174
#
# Compressibility (1/GPa) = 0.03665961
#
# Stress axis : x y z
#
# Youngs Moduli (GPa) = 93.30285 67.35293 52.16998
#
# Poissons Ratio (x) = 0.15647 0.10855
# Poissons Ratio (y) = 0.21675 -0.01915
# Poissons Ratio (z) = 0.19413 -0.02472
#
# Static dielectric constant tensor:
#      x y z
#    x 1.954360 -0.005480 -0.000010 
#    y -0.005480 2.024490 -0.005390 
#    z -0.000010 -0.005390 2.024160 
# 
# From -- ./inp_files/140196.got.cif
#   From: 2010.05.17/outbox.cif.g08.bks.cpg/sg2_71_cif.got.tgz:140196.got - 2010.06.03 11:33:40.
