data_PCOD9081152
_publ_section_title
;
Structure prediction by ZEFSAII (Michael W. Deem and Ramdas Pophale) SiO2 
 PCOD9081152
Probable space group: P -1
;
_chemical_formula_sum "Si O2"
_cell_formula_units_Z 16
_cell_length_a 10.351211
_cell_length_b 22.292615
_cell_length_c 10.283003
_cell_angle_alpha 147.448631
_cell_angle_beta 119.961772
_cell_angle_gamma 47.013517
_cell_volume 916.698286
_symmetry_space_group_name_H-M "P -1"
_symmetry_group_IT_number 2
_symmetry_cell_setting 'triclinic'
loop_
_space_group_symop_operation_xyz
x,y,z
-x,-y,-z
loop_
_atom_site_type_symbol
_atom_site_label
_atom_site_fract_x
_atom_site_fract_y
_atom_site_fract_z
Si Si1 0.010908 0.904464 0.945847
Si Si2 0.374664 0.378236 0.188471
Si Si3 0.472774 0.901647 0.393491
Si Si4 0.105981 0.699500 0.284823
Si Si5 0.972562 0.509613 0.161325
Si Si6 0.805138 0.801936 0.552971
Si Si7 0.943277 0.965621 0.540634
Si Si8 0.647308 0.369290 0.486187
O O1 0.186288 0.753079 0.735815
O O2 0.838359 0.897588 0.829101
O O3 0.026521 0.961908 0.192815
O O4 0.000000 0.000000 0.000000
O O5 0.474661 0.370381 0.357668
O O6 0.381808 0.489435 0.310139
O O7 0.165222 0.433826 0.189164
O O8 0.471857 0.233502 0.903840
O O9 0.609495 0.860281 0.505682
O O10 0.266074 0.978340 0.467612
O O11 0.500000 0.000000 0.500000
O O12 0.279111 0.663171 0.389459
O O13 0.939332 0.763819 0.424528
O O14 0.123628 0.566621 0.998725
O O15 0.054502 0.809038 0.349837
O O16 0.868618 0.667575 0.419303
O O17 0.000000 0.500000 0.000000
O O18 0.000000 0.000000 0.500000
#
# Coordination Sequence:
#
# PCOD9081152 Si02
#       8
#     2   2   2   2   2   2   2   2
#     4  11  18  35  57  82 110 151 192 234 278 341
#     4  11  18  27  48  89 117 131 181 247 283 316
#     4  12  20  33  55  86 112 143 196 236 271 333
#     4  10  17  34  52  77 110 148 179 222 290 330
#     4  10  15  29  50  84 111 136 173 243 289 320
#     4  10  18  30  57  85 106 136 187 244 276 320
#     4  12  25  38  55  83 121 154 184 234 293 342
#     4  10  19  28  51  83 114 140 181 241 282 319
#
# _framework density 17.453944
#
# number of rings (size 3 to 8) (size 9 to 14) (size 15 to 20)
#    0.000    1.250   11.250    0.000    0.000    0.000 
#    0.000    0.625    0.000    3.750    0.000    0.000 
#    0.000    0.000    0.000    0.000    0.000    0.000 
#
# Total GULP energy -89200.359060 kJ/mol
# GULP energy per Si atom -5575.022441 kJ/mol
# Density = 1.741422 g / cm^3
# Si number density = 17.453944 Si / 1000 Ang^3
#
#
#
# Elastic Constant Matrix: (Units=GPa)
#
#
# Indices 1 2 3 4 5 6 
#
# 1 61.9508 56.2989 38.0016 -5.0870 17.1423 4.2695
# 2 56.2989 142.3644 50.9180 -7.8439 22.9739 -14.2800
# 3 38.0016 50.9180 102.1491 3.6616 33.7958 1.6824
# 4 -5.0870 -7.8439 3.6616 40.5040 -3.5613 17.0734
# 5 17.1423 22.9739 33.7958 -3.5613 20.0460 -4.6135
# 6 4.2695 -14.2800 1.6824 17.0734 -4.6135 29.1108
#
#
#
# Elastic Compliance Matrix: (Units=1/GPa)
#
#
# Indices 1 2 3 4 5 6 
#
# 1 0.034025 -0.011688 -0.001730 0.008393 -0.015434 -0.017992
# 2 -0.011688 0.013306 -0.002776 -0.002862 0.001284 0.010284
# 3 -0.001730 -0.002776 0.025461 -0.003752 -0.040495 -0.006796
# 4 0.008393 -0.002862 -0.003752 0.035364 0.003509 -0.022603
# 5 -0.015434 0.001284 -0.040495 0.003509 0.136205 0.024761
# 6 -0.017992 0.010284 -0.006796 -0.022603 0.024761 0.059609
#
#
# Mechanical properties :
#
#
# Convention : Reuss Voigt Hill
#
# Bulk Modulus (GPa) = 24.75031 66.32235 45.53633
# Shear Modulus (GPa) = 14.29284 28.68189 21.48737
#
# Velocity S-wave (km/s) = 2.86473 4.05815 3.51249
# Velocity P-wave (km/s) = 5.01531 7.74849 6.52658
#
# Compressibility (1/GPa) = 0.04040353
#
# Stress axis : x y z
#
# Youngs Moduli (GPa) = 29.39028 75.15483 39.27590
#
# Poissons Ratio (x) = 0.87843 0.06795
# Poissons Ratio (y) = 0.34352 0.10902
# Poissons Ratio (z) = 0.05084 0.20862
#
# Static dielectric constant tensor:
#      x y z
#    x 1.566850 -0.017200 0.016370 
#    y -0.017200 1.607240 0.011740 
#    z 0.016370 0.011740 1.622800 
# 
# From -- ./inp_files/438789.got.cif
#   From: 2010.05.17/outbox.cif.g08.bks.cpg/sg2_220_cif.got.tgz:438789.got - 2010.06.03 11:33:40.
