data_PCOD9081694
_publ_section_title
;
Structure prediction by ZEFSAII (Michael W. Deem and Ramdas Pophale) SiO2 
 PCOD9081694
Probable space group: P -1
;
_chemical_formula_sum "Si O2"
_cell_formula_units_Z 14
_cell_length_a 20.515365
_cell_length_b 11.534819
_cell_length_c 7.471149
_cell_angle_alpha 127.102009
_cell_angle_beta 140.502942
_cell_angle_gamma 27.171456
_cell_volume 491.957169
_symmetry_space_group_name_H-M "P -1"
_symmetry_group_IT_number 2
_symmetry_cell_setting 'triclinic'
loop_
_space_group_symop_operation_xyz
x,y,z
-x,-y,-z
loop_
_atom_site_type_symbol
_atom_site_label
_atom_site_fract_x
_atom_site_fract_y
_atom_site_fract_z
Si Si1 0.867788 0.476889 0.777935
Si Si2 0.543387 0.652473 0.263449
Si Si3 0.024216 0.232777 0.256573
Si Si4 0.210026 0.320843 0.558935
Si Si5 0.205452 0.883995 0.863145
Si Si6 0.465098 0.815953 0.847505
Si Si7 0.760108 0.277730 0.824445
O O1 0.667031 0.646223 0.562527
O O2 0.824930 0.650150 0.700833
O O3 0.974069 0.372127 0.092985
O O4 0.006750 0.197985 0.710160
O O5 0.699685 0.338784 0.284731
O O6 0.370142 0.808010 0.160190
O O7 0.455083 0.780377 0.999116
O O8 0.965391 0.399302 0.452651
O O9 0.881638 0.261481 0.980177
O O10 0.209521 0.915454 0.378735
O O11 0.288460 0.098069 0.640287
O O12 0.374108 0.248323 0.856303
O O13 0.183219 0.820947 0.941114
O O14 0.558271 0.585794 0.703110
#
# Coordination Sequence:
#
# PCOD9081694 Si02
#       7
#     2   2   2   2   2   2   2
#     4  10  19  32  54  77 101 140 178 211 262 315
#     4   9  17  30  50  77 104 135 174 216 260 308
#     4   9  17  30  51  78 104 134 174 217 259 310
#     4   9  17  31  51  75 105 138 173 213 259 311
#     4   9  17  30  51  77 104 134 175 218 257 310
#     4   8  15  30  49  71 105 138 167 215 261 303
#     4   8  15  29  48  71 104 135 167 218 262 299
#
# _framework density 28.457761000000001
#
# number of rings (size 3 to 8) (size 9 to 14) (size 15 to 20)
#    0.000    3.143    0.000    1.286    0.000    3.429 
#    0.000   12.857    0.000   15.429    0.000    0.000 
#    0.000    0.000    0.000    0.000    0.000    0.000 
#
# Total GULP energy -78440.252686 kJ/mol
# GULP energy per Si atom -5602.875192 kJ/mol
# Density = 2.839299 g / cm^3
# Si number density = 28.457761 Si / 1000 Ang^3
#
#
#
# Elastic Constant Matrix: (Units=GPa)
#
#
# Indices 1 2 3 4 5 6 
#
# 1 129.2832 2.7949 24.3091 -9.3470 -20.8670 18.6129
# 2 2.7949 112.3808 14.1554 -10.1810 -15.3432 13.7222
# 3 24.3091 14.1554 144.5717 -13.5038 -13.4108 -5.9001
# 4 -9.3470 -10.1810 -13.5038 37.4725 -3.6564 5.6507
# 5 -20.8670 -15.3432 -13.4108 -3.6564 50.7034 -17.3449
# 6 18.6129 13.7222 -5.9001 5.6507 -17.3449 40.6931
#
#
#
# Elastic Compliance Matrix: (Units=1/GPa)
#
#
# Indices 1 2 3 4 5 6 
#
# 1 0.009169 0.001050 -0.001293 0.002968 0.002578 -0.004049
# 2 0.001050 0.010022 -0.000760 0.003460 0.002331 -0.003457
# 3 -0.001293 -0.000760 0.007731 0.002082 0.002350 0.002681
# 4 0.002968 0.003460 0.002082 0.030194 0.003280 -0.005017
# 5 0.002578 0.002331 0.002350 0.003280 0.025329 0.008716
# 6 -0.004049 -0.003457 0.002681 -0.005017 0.008716 0.032392
#
#
# Mechanical properties :
#
#
# Convention : Reuss Voigt Hill
#
# Bulk Modulus (GPa) = 40.13483 52.08383 46.10933
# Shear Modulus (GPa) = 39.95313 48.77222 44.36267
#
# Velocity S-wave (km/s) = 3.75099 4.14435 3.95257
# Velocity P-wave (km/s) = 5.73531 6.42205 6.08837
#
# Compressibility (1/GPa) = 0.02491601
#
# Stress axis : x y z
#
# Youngs Moduli (GPa) = 109.06167 99.78424 129.35451
#
# Poissons Ratio (x) = -0.10479 0.16730
# Poissons Ratio (y) = -0.11454 0.09825
# Poissons Ratio (z) = 0.14106 0.07579
#
# Static dielectric constant tensor:
#      x y z
#    x 2.237380 0.014390 0.133100 
#    y 0.014390 2.202690 0.033690 
#    z 0.133100 0.033690 2.195070 
# 
# From -- ./inp_files/345469.got.cif
#   From: 2010.05.17/outbox.cif.g08.bks.cpg/sg2_173_cif.got.tgz:345469.got - 2010.06.03 11:33:40.
