data_PCOD9081464
_publ_section_title
;
Structure prediction by ZEFSAII (Michael W. Deem and Ramdas Pophale) SiO2 
 PCOD9081464
Probable space group: P -1
;
_chemical_formula_sum "Si O2"
_cell_formula_units_Z 14
_cell_length_a 11.056499
_cell_length_b 11.401224
_cell_length_c 10.333969
_cell_angle_alpha 63.354954
_cell_angle_beta 116.082038
_cell_angle_gamma 65.497980
_cell_volume 676.944518
_symmetry_space_group_name_H-M "P -1"
_symmetry_group_IT_number 2
_symmetry_cell_setting 'triclinic'
loop_
_space_group_symop_operation_xyz
x,y,z
-x,-y,-z
loop_
_atom_site_type_symbol
_atom_site_label
_atom_site_fract_x
_atom_site_fract_y
_atom_site_fract_z
Si Si1 0.819102 0.748178 0.139729
Si Si2 0.555274 0.438986 0.339502
Si Si3 0.527208 0.818430 0.307565
Si Si4 0.824073 0.477184 0.409492
Si Si5 0.766506 0.212515 0.817128
Si Si6 0.455004 0.853036 0.556060
Si Si7 0.836945 0.718794 0.878849
O O1 0.835871 0.580608 0.256206
O O2 0.948068 0.723851 0.326574
O O3 0.908707 0.712718 0.056726
O O4 0.581976 0.972747 0.905887
O O5 0.674929 0.466741 0.308549
O O6 0.678367 0.346877 0.580300
O O7 0.315831 0.644871 0.167857
O O8 0.575086 0.278617 0.372110
O O9 0.720175 0.629741 0.407783
O O10 0.356211 0.831993 0.202713
O O11 0.553619 0.800811 0.483354
O O12 0.000000 0.000000 0.000000
O O13 0.624249 0.792184 0.758479
O O14 0.242455 0.095289 0.330579
O O15 0.000000 0.500000 0.000000
#
# Coordination Sequence:
#
# PCOD9081464 Si02
#       7
#     2   2   2   2   2   2   2
#     4  10  20  32  50  72  97 132 166 196 238 292
#     4   9  18  30  46  71 101 127 156 201 246 284
#     4   9  17  30  49  73  98 125 157 199 244 285
#     4  10  19  32  49  73 103 129 157 196 243 296
#     4   9  16  26  45  72 100 127 156 193 242 292
#     4   9  19  33  51  74  95 124 164 203 244 286
#     4  10  20  35  53  71  94 127 167 207 243 282
#
# _framework density 20.681163000000002
#
# number of rings (size 3 to 8) (size 9 to 14) (size 15 to 20)
#    0.000    2.571    0.000    3.000    0.000    3.429 
#    0.000    0.714    0.000    0.857    0.000    0.000 
#    0.000    0.000    0.000    0.000    0.000    0.000 
#
# Total GULP energy -78014.801311 kJ/mol
# GULP energy per Si atom -5572.485808 kJ/mol
# Density = 2.063409 g / cm^3
# Si number density = 20.681163 Si / 1000 Ang^3
#
#
#
# Elastic Constant Matrix: (Units=GPa)
#
#
# Indices 1 2 3 4 5 6 
#
# 1 69.3150 5.0183 14.3616 -12.8634 1.7528 20.1381
# 2 5.0183 62.2467 11.0003 -22.9185 -0.3565 18.7516
# 3 14.3616 11.0003 79.5434 -16.0207 1.3905 1.1283
# 4 -12.8634 -22.9185 -16.0207 26.6907 -2.8833 -2.8247
# 5 1.7528 -0.3565 1.3905 -2.8833 18.5566 -4.9850
# 6 20.1381 18.7516 1.1283 -2.8247 -4.9850 29.3550
#
#
#
# Elastic Compliance Matrix: (Units=1/GPa)
#
#
# Indices 1 2 3 4 5 6 
#
# 1 0.024157 0.011866 -0.002042 0.017552 -0.005435 -0.023307
# 2 0.011866 0.035851 0.000042 0.033218 -0.002886 -0.028337
# 3 -0.002042 0.000042 0.014514 0.008036 0.000819 0.001728
# 4 0.017552 0.033218 0.008036 0.076939 0.003462 -0.025577
# 5 -0.005435 -0.002886 0.000819 0.003462 0.059098 0.015909
# 6 -0.023307 -0.028337 0.001728 -0.025577 0.015909 0.068330
#
#
# Mechanical properties :
#
#
# Convention : Reuss Voigt Hill
#
# Bulk Modulus (GPa) = 10.60949 30.20729 20.40839
# Shear Modulus (GPa) = 17.20727 26.96877 22.08802
#
# Velocity S-wave (km/s) = 2.88762 3.61505 3.27161
# Velocity P-wave (km/s) = 4.03224 5.66239 4.91536
#
# Compressibility (1/GPa) = 0.09425519
#
# Stress axis : x y z
#
# Youngs Moduli (GPa) = 41.39578 27.89303 68.89825
#
# Poissons Ratio (x) = -0.33097 0.14068
# Poissons Ratio (y) = -0.49120 -0.00292
# Poissons Ratio (z) = 0.08452 -0.00118
#
# Static dielectric constant tensor:
#      x y z
#    x 1.760940 -0.003970 -0.003530 
#    y -0.003970 1.793350 -0.056310 
#    z -0.003530 -0.056310 1.815550 
# 
# From -- ./inp_files/66774.got.cif
#   From: 2010.05.17/outbox.cif.g08.bks.cpg/sg2_34_cif.got.tgz:66774.got - 2010.06.03 11:33:40.
