data_PCOD9081828
_publ_section_title
;
Structure prediction by ZEFSAII (Michael W. Deem and Ramdas Pophale) SiO2 
 PCOD9081828
Probable space group: P -1
;
_chemical_formula_sum "Si O2"
_cell_formula_units_Z 16
_cell_length_a 20.582192
_cell_length_b 17.088273
_cell_length_c 9.298658
_cell_angle_alpha 138.771639
_cell_angle_beta 136.579709
_cell_angle_gamma 18.452727
_cell_volume 680.936932
_symmetry_space_group_name_H-M "P -1"
_symmetry_group_IT_number 2
_symmetry_cell_setting 'triclinic'
loop_
_space_group_symop_operation_xyz
x,y,z
-x,-y,-z
loop_
_atom_site_type_symbol
_atom_site_label
_atom_site_fract_x
_atom_site_fract_y
_atom_site_fract_z
Si Si1 0.472901 0.916486 0.240413
Si Si2 0.593127 0.930678 0.207344
Si Si3 0.884514 0.802140 0.410765
Si Si4 0.148120 0.156529 0.921752
Si Si5 0.138230 0.733194 0.304127
Si Si6 0.675147 0.585629 0.367534
Si Si7 0.530933 0.585735 0.365961
Si Si8 0.464616 0.442632 0.237040
O O1 0.596624 0.811494 0.149740
O O2 0.563990 0.713924 0.211793
O O3 0.500000 0.000000 0.500000
O O4 0.231810 0.175294 0.169803
O O5 0.803667 0.767702 0.297570
O O6 0.440841 0.191839 0.404954
O O7 0.500000 0.000000 0.000000
O O8 0.091424 0.630181 0.565123
O O9 0.909193 0.757758 0.216684
O O10 0.693664 0.104841 0.550262
O O11 0.365934 0.843708 0.847213
O O12 0.988946 0.245664 0.861521
O O13 0.320418 0.523349 0.424112
O O14 0.236373 0.652011 0.195243
O O15 0.000000 0.000000 0.500000
O O16 0.638161 0.503041 0.275344
O O17 0.510739 0.469251 0.207984
O O18 0.500000 0.500000 0.500000
#
# Coordination Sequence:
#
# PCOD9081828 Si02
#       8
#     2   2   2   2   2   2   2   2
#     4  10  24  47  61  87 130 166 206 259 316 371
#     4  10  21  40  64  89 119 152 212 275 308 360
#     4  11  20  35  62  95 116 162 212 255 306 371
#     4  12  20  36  65  92 124 164 208 257 307 368
#     4  11  18  31  59 100 123 158 205 263 309 355
#     4  10  23  39  62  89 125 169 202 250 323 375
#     4  10  19  34  59  91 133 154 198 253 310 360
#     4  10  19  32  55  98 130 151 199 265 309 352
#
# _framework density 23.497035
#
# number of rings (size 3 to 8) (size 9 to 14) (size 15 to 20)
#    0.000    1.500    7.500    0.000    0.000    1.000 
#    0.000    4.375    0.000    1.500    0.000    0.000 
#    0.000    0.000    0.000    0.000    0.000    0.000 
#
# Total GULP energy -89425.026634 kJ/mol
# GULP energy per Si atom -5589.064165 kJ/mol
# Density = 2.344355 g / cm^3
# Si number density = 23.497035 Si / 1000 Ang^3
#
#
#
# Elastic Constant Matrix: (Units=GPa)
#
#
# Indices 1 2 3 4 5 6 
#
# 1 227.8871 31.1578 9.9083 -25.3208 8.8754 -18.6437
# 2 31.1578 99.9738 7.1672 -12.2273 -2.7063 -23.5865
# 3 9.9083 7.1672 52.3783 -18.2477 -8.0348 -7.0583
# 4 -25.3208 -12.2273 -18.2477 37.8420 2.2621 4.3168
# 5 8.8754 -2.7063 -8.0348 2.2621 33.7605 -12.7060
# 6 -18.6437 -23.5865 -7.0583 4.3168 -12.7060 42.7158
#
#
#
# Elastic Compliance Matrix: (Units=1/GPa)
#
#
# Indices 1 2 3 4 5 6 
#
# 1 0.004983 -0.000986 0.000222 0.003077 -0.001162 0.001011
# 2 -0.000986 0.012482 0.001124 0.002795 0.004206 0.007616
# 3 0.000222 0.001124 0.024769 0.011347 0.007370 0.005856
# 4 0.003077 0.002795 0.011347 0.034688 0.000297 0.001344
# 5 -0.001162 0.004206 0.007370 0.000297 0.037304 0.014099
# 6 0.001011 0.007616 0.005856 0.001344 0.014099 0.033083
#
#
# Mechanical properties :
#
#
# Convention : Reuss Voigt Hill
#
# Bulk Modulus (GPa) = 23.28025 52.96732 38.12379
# Shear Modulus (GPa) = 31.07406 44.99738 38.03572
#
# Velocity S-wave (km/s) = 3.64052 4.38085 4.02773
# Velocity P-wave (km/s) = 5.25361 6.94119 6.15551
#
# Compressibility (1/GPa) = 0.04295486
#
# Stress axis : x y z
#
# Youngs Moduli (GPa) = 200.67912 80.11617 40.37336
#
# Poissons Ratio (x) = 0.07896 -0.00897
# Poissons Ratio (y) = 0.19779 -0.04538
# Poissons Ratio (z) = -0.04460 -0.09004
#
# Static dielectric constant tensor:
#      x y z
#    x 1.619790 0.231860 -0.319800 
#    y 0.231860 1.801580 0.289920 
#    z -0.319800 0.289920 1.571900 
# 
# From -- ./inp_files/348899.got.cif
#   From: 2010.05.17/outbox.cif.g08.bks.cpg/sg2_175_cif.got.tgz:348899.got - 2010.06.03 11:33:40.
