data_PCOD9081630
_publ_section_title
;
Structure prediction by ZEFSAII (Michael W. Deem and Ramdas Pophale) SiO2 
 PCOD9081630
Probable space group: P -1
;
_chemical_formula_sum "Si O2"
_cell_formula_units_Z 14
_cell_length_a 11.639424
_cell_length_b 7.090990
_cell_length_c 8.454918
_cell_angle_alpha 77.457565
_cell_angle_beta 79.950688
_cell_angle_gamma 115.788098
_cell_volume 583.909514
_symmetry_space_group_name_H-M "P -1"
_symmetry_group_IT_number 2
_symmetry_cell_setting 'triclinic'
loop_
_space_group_symop_operation_xyz
x,y,z
-x,-y,-z
loop_
_atom_site_type_symbol
_atom_site_label
_atom_site_fract_x
_atom_site_fract_y
_atom_site_fract_z
Si Si1 0.361753 0.708658 0.416173
Si Si2 0.887709 0.372731 0.679518
Si Si3 0.665658 0.913387 0.285960
Si Si4 0.367785 0.538458 0.779003
Si Si5 0.065880 0.754895 0.992470
Si Si6 0.327654 0.251533 0.352752
Si Si7 0.156656 0.300639 0.142205
O O1 0.256313 0.761164 0.346579
O O2 0.517885 0.885656 0.323405
O O3 0.335046 0.654870 0.619414
O O4 0.343989 0.481417 0.382181
O O5 0.878044 0.560216 0.750895
O O6 0.780969 0.818514 0.745591
O O7 0.000000 0.500000 0.500000
O O8 0.651611 0.691634 0.247919
O O9 0.704482 0.906865 0.460000
O O10 0.783067 0.113845 0.129484
O O11 0.524646 0.683635 0.755677
O O12 0.272424 0.469607 0.964853
O O13 0.973828 0.835546 0.909760
O O14 0.069481 0.752899 0.181017
O O15 0.000000 0.500000 0.000000
#
# Coordination Sequence:
#
# PCOD9081630 Si02
#       7
#     2   2   2   2   2   2   2
#     4   8  16  32  56  79 104 137 169 212 261 306
#     4  10  20  36  55  72 100 145 182 209 253 307
#     4   9  18  34  54  80 107 134 171 211 262 315
#     4   9  16  31  56  84 106 127 165 216 268 312
#     4  10  22  36  51  72 105 143 181 215 246 302
#     4   8  16  31  54  81 107 132 162 211 268 317
#     4  10  19  32  53  78 107 137 168 213 260 304
#
# _framework density 23.976316000000001
#
# number of rings (size 3 to 8) (size 9 to 14) (size 15 to 20)
#    0.000    2.857    0.000    3.000    0.000    1.714 
#    0.000    2.857    0.000   30.857    0.000    0.000 
#    0.000    0.000    0.000    0.000    0.000    0.000 
#
# Total GULP energy -78333.000551 kJ/mol
# GULP energy per Si atom -5595.214325 kJ/mol
# Density = 2.392174 g / cm^3
# Si number density = 23.976316 Si / 1000 Ang^3
#
#
#
# Elastic Constant Matrix: (Units=GPa)
#
#
# Indices 1 2 3 4 5 6 
#
# 1 174.1882 37.7508 84.3303 11.1487 38.6961 26.9011
# 2 37.7508 94.3481 34.6656 7.5746 10.9507 5.4094
# 3 84.3303 34.6656 190.5164 5.7992 -13.3571 26.6823
# 4 11.1487 7.5746 5.7992 32.3383 3.2635 -0.9148
# 5 38.6961 10.9507 -13.3571 3.2635 35.4874 10.7199
# 6 26.9011 5.4094 26.6823 -0.9148 10.7199 37.8382
#
#
#
# Elastic Compliance Matrix: (Units=1/GPa)
#
#
# Indices 1 2 3 4 5 6 
#
# 1 0.012732 -0.000689 -0.006633 -0.001405 -0.016116 0.000256
# 2 -0.000689 0.012301 -0.002403 -0.001737 -0.004272 0.001594
# 3 -0.006633 -0.002403 0.010495 -0.000611 0.013881 -0.006288
# 4 -0.001405 -0.001737 -0.000611 0.032216 -0.002041 0.003035
# 5 -0.016116 -0.004272 0.013881 -0.002041 0.056657 -0.013821
# 6 0.000256 0.001594 -0.006288 0.003035 -0.013821 0.034442
#
#
# Mechanical properties :
#
#
# Convention : Reuss Voigt Hill
#
# Bulk Modulus (GPa) = 62.19753 85.83844 74.01799
# Shear Modulus (GPa) = 27.22527 41.28654 34.25590
#
# Velocity S-wave (km/s) = 3.37338 4.15417 3.78397
# Velocity P-wave (km/s) = 6.41643 7.67389 7.07316
#
# Compressibility (1/GPa) = 0.01607781
#
# Stress axis : x y z
#
# Youngs Moduli (GPa) = 78.54154 81.29136 95.28460
#
# Poissons Ratio (x) = 0.05597 0.63206
# Poissons Ratio (y) = 0.05408 0.22900
# Poissons Ratio (z) = 0.52100 0.19537
#
# Static dielectric constant tensor:
#      x y z
#    x 1.966180 -0.056580 0.032550 
#    y -0.056580 1.955790 0.019740 
#    z 0.032550 0.019740 1.837730 
# 
# From -- ./inp_files/238327.got.cif
#   From: 2010.05.17/outbox.cif.g08.bks.cpg/sg2_120_cif.got.tgz:238327.got - 2010.06.03 11:33:40.
