data_PCOD9081643
_publ_section_title
;
Structure prediction by ZEFSAII (Michael W. Deem and Ramdas Pophale) SiO2 
 PCOD9081643
Probable space group: P -1
;
_chemical_formula_sum "Si O2"
_cell_formula_units_Z 14
_cell_length_a 7.968659
_cell_length_b 9.324881
_cell_length_c 7.048348
_cell_angle_alpha 75.098827
_cell_angle_beta 104.496466
_cell_angle_gamma 99.051679
_cell_volume 487.589232
_symmetry_space_group_name_H-M "P -1"
_symmetry_group_IT_number 2
_symmetry_cell_setting 'triclinic'
loop_
_space_group_symop_operation_xyz
x,y,z
-x,-y,-z
loop_
_atom_site_type_symbol
_atom_site_label
_atom_site_fract_x
_atom_site_fract_y
_atom_site_fract_z
Si Si1 0.921064 0.842649 0.686714
Si Si2 0.755413 0.009174 0.052277
Si Si3 0.728444 0.682918 0.036290
Si Si4 0.312748 0.918038 0.431307
Si Si5 0.638185 0.284463 0.031871
Si Si6 0.339420 0.602662 0.412694
Si Si7 0.953775 0.430389 0.291263
O O1 0.992097 0.736036 0.583311
O O2 0.812743 0.973404 0.535328
O O3 0.815713 0.723165 0.842362
O O4 0.059196 0.925832 0.839975
O O5 0.736616 0.054062 0.811652
O O6 0.632076 0.106202 0.109961
O O7 0.736050 0.833118 0.109992
O O8 0.524693 0.652000 0.938784
O O9 0.822709 0.562917 0.225206
O O10 0.321839 0.737675 0.514722
O O11 0.500000 0.000000 0.500000
O O12 0.612614 0.314172 0.796044
O O13 0.831962 0.361500 0.102381
O O14 0.500000 0.500000 0.500000
O O15 0.141292 0.524307 0.354559
#
# Coordination Sequence:
#
# PCOD9081643 Si02
#       7
#     2   2   2   2   2   2   2
#     4  10  19  34  56  83 109 142 182 220 264 321
#     4   9  19  35  55  81 109 141 180 220 266 323
#     4  11  18  31  56  85 113 140 175 227 272 315
#     4  10  19  32  53  80 103 132 178 224 263 311
#     4  10  21  35  55  83 111 141 179 224 275 320
#     4  11  22  38  57  79 107 144 184 225 269 325
#     4  11  21  35  56  81 110 144 183 222 265 321
#
# _framework density 28.712692000000001
#
# number of rings (size 3 to 8) (size 9 to 14) (size 15 to 20)
#    0.000    1.714    0.000    8.571    0.000    1.143 
#    0.000    0.714    0.000    6.857    0.000   30.000 
#    0.000    0.000    0.000    0.000    0.000    0.000 
#
# Total GULP energy -78105.712907 kJ/mol
# GULP energy per Si atom -5578.979493 kJ/mol
# Density = 2.864734 g / cm^3
# Si number density = 28.712692 Si / 1000 Ang^3
#
#
#
# Elastic Constant Matrix: (Units=GPa)
#
#
# Indices 1 2 3 4 5 6 
#
# 1 135.2364 47.7371 56.5053 -15.2621 47.2664 -30.5191
# 2 47.7371 288.8791 73.7473 -20.5538 53.6312 -47.5189
# 3 56.5053 73.7473 142.0228 -25.4695 35.2275 -18.5885
# 4 -15.2621 -20.5538 -25.4695 49.2765 -4.7543 13.6269
# 5 47.2664 53.6312 35.2275 -4.7543 64.7649 -15.2265
# 6 -30.5191 -47.5189 -18.5885 13.6269 -15.2265 31.4962
#
#
#
# Elastic Compliance Matrix: (Units=1/GPa)
#
#
# Indices 1 2 3 4 5 6 
#
# 1 0.012495 0.001433 -0.002908 -0.000301 -0.006504 0.009539
# 2 0.001433 0.005372 -0.001796 -0.000534 -0.002843 0.007290
# 3 -0.002908 -0.001796 0.010068 0.003996 -0.002124 -0.002341
# 4 -0.000301 -0.000534 0.003996 0.024734 -0.002161 -0.010485
# 5 -0.006504 -0.002843 -0.002124 -0.002161 0.023662 0.000530
# 6 0.009539 0.007290 -0.002341 -0.010485 0.000530 0.055403
#
#
# Mechanical properties :
#
#
# Convention : Reuss Voigt Hill
#
# Bulk Modulus (GPa) = 46.74388 102.45752 74.60070
# Shear Modulus (GPa) = 34.38587 54.98409 44.68498
#
# Velocity S-wave (km/s) = 3.46437 4.38079 3.94925
# Velocity P-wave (km/s) = 5.68486 7.83260 6.84351
#
# Compressibility (1/GPa) = 0.02139317
#
# Stress axis : x y z
#
# Youngs Moduli (GPa) = 80.02884 186.13566 99.32790
#
# Poissons Ratio (x) = -0.26665 0.28880
# Poissons Ratio (y) = -0.11464 0.17841
# Poissons Ratio (z) = 0.23269 0.33433
#
# Static dielectric constant tensor:
#      x y z
#    x 2.569260 -0.137750 -0.052100 
#    y -0.137750 2.300640 -0.026220 
#    z -0.052100 -0.026220 2.186770 
# 
# From -- ./inp_files/327583.got.cif
#   From: 2010.05.17/outbox.cif.g08.bks.cpg/sg2_164_cif.got.tgz:327583.got - 2010.06.03 11:33:40.
