data_PCOD9081085
_publ_section_title
;
Structure prediction by ZEFSAII (Michael W. Deem and Ramdas Pophale) SiO2 
 PCOD9081085
Probable space group: P -1
;
_chemical_formula_sum "Si O2"
_cell_formula_units_Z 14
_cell_length_a 13.420011
_cell_length_b 7.555625
_cell_length_c 11.236354
_cell_angle_alpha 94.619777
_cell_angle_beta 44.653641
_cell_angle_gamma 125.620636
_cell_volume 528.284058
_symmetry_space_group_name_H-M "P -1"
_symmetry_group_IT_number 2
_symmetry_cell_setting 'triclinic'
loop_
_space_group_symop_operation_xyz
x,y,z
-x,-y,-z
loop_
_atom_site_type_symbol
_atom_site_label
_atom_site_fract_x
_atom_site_fract_y
_atom_site_fract_z
Si Si1 0.173531 0.226155 0.524163
Si Si2 0.723259 0.307793 0.606186
Si Si3 0.795654 0.567724 0.998944
Si Si4 0.306846 0.232195 0.077362
Si Si5 0.695625 0.965002 0.458005
Si Si6 0.214688 0.267822 0.762766
Si Si7 0.237863 0.771845 0.164306
O O1 0.306194 0.506672 0.365047
O O2 0.155453 0.273558 0.680825
O O3 0.288498 0.145282 0.442414
O O4 0.931474 0.963453 0.672428
O O5 0.625278 0.092204 0.572351
O O6 0.692129 0.201835 0.759165
O O7 0.980234 0.539716 0.379352
O O8 0.724611 0.689821 0.012759
O O9 0.705495 0.334764 0.976828
O O10 0.051000 0.777664 0.780896
O O11 0.717445 0.504984 0.197775
O O12 0.315170 0.029008 0.057938
O O13 0.500000 0.500000 0.000000
O O14 0.638522 0.770761 0.388443
O O15 0.000000 0.000000 0.000000
#
# Coordination Sequence:
#
# PCOD9081085 Si02
#       7
#     2   2   2   2   2   2   2
#     4   8  16  28  46  71  94 120 146 187 234 269
#     4   9  15  29  44  68 100 114 151 183 229 284
#     4   9  16  31  44  67 100 118 145 190 233 272
#     4  10  19  31  45  65  93 128 161 181 219 270
#     4   7  14  25  43  67  94 120 139 178 233 274
#     4   8  13  28  46  66  99 119 140 183 242 279
#     4   9  19  29  44  69  95 125 147 185 230 276
#
# _framework density 26.500890999999999
#
# number of rings (size 3 to 8) (size 9 to 14) (size 15 to 20)
#    0.857    2.571    1.429    0.000    0.000    1.714 
#    2.571    8.571    0.000    0.000    0.000    2.000 
#    0.000    0.000    0.000    0.286    0.000    0.000 
#
# Total GULP energy -78142.093185 kJ/mol
# GULP energy per Si atom -5581.578085 kJ/mol
# Density = 2.644057 g / cm^3
# Si number density = 26.500891 Si / 1000 Ang^3
#
#
#
# Elastic Constant Matrix: (Units=GPa)
#
#
# Indices 1 2 3 4 5 6 
#
# 1 43.1844 17.9665 7.8491 6.4167 -0.7997 -5.2956
# 2 17.9665 190.5826 40.6689 13.2178 13.3375 0.0984
# 3 7.8491 40.6689 120.0314 16.9517 22.7613 -2.5048
# 4 6.4167 13.2178 16.9517 49.3280 0.0755 -2.7115
# 5 -0.7997 13.3375 22.7613 0.0755 35.9527 -1.3592
# 6 -5.2956 0.0984 -2.5048 -2.7115 -1.3592 43.3968
#
#
#
# Elastic Compliance Matrix: (Units=1/GPa)
#
#
# Indices 1 2 3 4 5 6 
#
# 1 0.024940 -0.002147 -0.000921 -0.002195 0.002049 0.002922
# 2 -0.002147 0.005920 -0.001514 -0.000810 -0.001301 -0.000454
# 3 -0.000921 -0.001514 0.010495 -0.003066 -0.006092 0.000114
# 4 -0.002195 -0.000810 -0.003066 0.021880 0.002184 0.000993
# 5 0.002049 -0.001301 -0.006092 0.002184 0.032235 0.001047
# 6 0.002922 -0.000454 0.000114 0.000993 0.001047 0.023502
#
#
# Mechanical properties :
#
#
# Convention : Reuss Voigt Hill
#
# Bulk Modulus (GPa) = 31.06517 54.08525 42.57521
# Shear Modulus (GPa) = 36.00611 44.88974 40.44793
#
# Velocity S-wave (km/s) = 3.69002 4.12016 3.91101
# Velocity P-wave (km/s) = 5.46834 6.56410 6.04112
#
# Compressibility (1/GPa) = 0.03219039
#
# Stress axis : x y z
#
# Youngs Moduli (GPa) = 40.09672 168.91982 95.28446
#
# Poissons Ratio (x) = 0.36272 0.08776
# Poissons Ratio (y) = 0.08610 0.14424
# Poissons Ratio (z) = 0.03693 0.25571
#
# Static dielectric constant tensor:
#      x y z
#    x 2.074420 0.097760 -0.093080 
#    y 0.097760 2.207020 -0.110120 
#    z -0.093080 -0.110120 2.173230 
# 
# From -- ./inp_files/386090.got.cif
#   From: 2010.05.17/outbox.cif.g08.bks.cpg/sg2_194_cif.got.tgz:386090.got - 2010.06.03 11:33:40.
