data_PCOD9081712
_publ_section_title
;
Structure prediction by ZEFSAII (Michael W. Deem and Ramdas Pophale) SiO2 
 PCOD9081712
Probable space group: P -1
;
_chemical_formula_sum "Si O2"
_cell_formula_units_Z 16
_cell_length_a 8.431542
_cell_length_b 10.304838
_cell_length_c 14.453701
_cell_angle_alpha 110.609589
_cell_angle_beta 83.053847
_cell_angle_gamma 43.999189
_cell_volume 667.787937
_symmetry_space_group_name_H-M "P -1"
_symmetry_group_IT_number 2
_symmetry_cell_setting 'triclinic'
loop_
_space_group_symop_operation_xyz
x,y,z
-x,-y,-z
loop_
_atom_site_type_symbol
_atom_site_label
_atom_site_fract_x
_atom_site_fract_y
_atom_site_fract_z
Si Si1 0.742818 0.847625 0.649700
Si Si2 0.094076 0.369046 0.862937
Si Si3 0.211458 0.751971 0.036575
Si Si4 0.490489 0.156328 0.487518
Si Si5 0.950681 0.179497 0.753708
Si Si6 0.186289 0.272502 0.189510
Si Si7 0.252227 0.871428 0.385587
Si Si8 0.712753 0.035012 0.032335
O O1 0.907431 0.693962 0.692489
O O2 0.829522 0.927570 0.611592
O O3 0.423837 0.104743 0.771439
O O4 0.717390 0.736413 0.553630
O O5 0.923926 0.350049 0.845053
O O6 0.026082 0.513750 0.816025
O O7 0.000000 0.500000 0.000000
O O8 0.032014 0.929475 0.183526
O O9 0.500000 0.500000 0.000000
O O10 0.279952 0.818470 0.973195
O O11 0.997623 0.804773 0.010414
O O12 0.498930 0.263395 0.596237
O O13 0.773598 0.994279 0.370747
O O14 0.500000 0.000000 0.500000
O O15 0.719862 0.271211 0.727540
O O16 0.446438 0.194296 0.154428
O O17 0.304060 0.051469 0.077113
O O18 0.000000 0.000000 0.500000
#
# Coordination Sequence:
#
# PCOD9081712 Si02
#       8
#     2   2   2   2   2   2   2   2
#     4  10  20  36  61  86 112 152 195 235 292 355
#     4  11  22  36  56  84 121 159 191 232 285 344
#     4  11  22  37  54  81 120 156 187 229 285 347
#     4   8  16  33  57  81 105 139 185 240 295 340
#     4  10  19  32  54  81 109 146 192 232 282 347
#     4  11  21  36  56  83 116 152 200 242 277 337
#     4   9  18  34  60  86 108 144 194 247 299 343
#     4  10  22  35  52  78 114 157 196 231 274 335
#
# _framework density 23.959703999999999
#
# number of rings (size 3 to 8) (size 9 to 14) (size 15 to 20)
#    0.000    2.000    0.000    5.250    0.000    3.000 
#    0.000    0.625    0.000   28.500    0.000    0.000 
#    0.000    0.000    0.000    0.000    0.000    0.000 
#
# Total GULP energy -89258.558516 kJ/mol
# GULP energy per Si atom -5578.659907 kJ/mol
# Density = 2.390517 g / cm^3
# Si number density = 23.959704 Si / 1000 Ang^3
#
#
#
# Elastic Constant Matrix: (Units=GPa)
#
#
# Indices 1 2 3 4 5 6 
#
# 1 134.5432 50.4858 71.8568 -18.7405 10.8882 -18.0089
# 2 50.4858 135.3352 42.3944 -37.2853 -2.3343 -21.2319
# 3 71.8568 42.3944 118.7109 -35.8456 4.3927 -3.4066
# 4 -18.7405 -37.2853 -35.8456 42.0799 -6.1198 -1.5507
# 5 10.8882 -2.3343 4.3927 -6.1198 56.0623 -11.1039
# 6 -18.0089 -21.2319 -3.4066 -1.5507 -11.1039 31.8629
#
#
#
# Elastic Compliance Matrix: (Units=1/GPa)
#
#
# Indices 1 2 3 4 5 6 
#
# 1 0.012633 -0.002671 -0.007493 -0.003209 -0.001564 0.003858
# 2 -0.002671 0.012932 0.000664 0.011771 0.004109 0.009183
# 3 -0.007493 0.000664 0.015961 0.010982 0.001207 -0.001131
# 4 -0.003209 0.011771 0.010982 0.043630 0.007372 0.011896
# 5 -0.001564 0.004109 0.001207 0.007372 0.020931 0.009636
# 6 0.003858 0.009183 -0.001131 0.011896 0.009636 0.043500
#
#
# Mechanical properties :
#
#
# Convention : Reuss Voigt Hill
#
# Bulk Modulus (GPa) = 44.39354 79.78481 62.08918
# Shear Modulus (GPa) = 28.39361 40.92449 34.65905
#
# Velocity S-wave (km/s) = 3.44620 4.13735 3.80749
# Velocity P-wave (km/s) = 5.86547 7.49636 6.73049
#
# Compressibility (1/GPa) = 0.02252580
#
# Stress axis : x y z
#
# Youngs Moduli (GPa) = 79.15880 77.32853 62.65163
#
# Poissons Ratio (x) = 0.20655 0.46947
# Poissons Ratio (y) = 0.21144 -0.04162
# Poissons Ratio (z) = 0.59316 -0.05137
#
# Static dielectric constant tensor:
#      x y z
#    x 1.960160 0.022510 0.013330 
#    y 0.022510 2.001540 0.061250 
#    z 0.013330 0.061250 2.021870 
# 
# From -- ./inp_files/500561.got.cif
#   From: 2010.05.17/outbox.cif.g08.bks.cpg/sg2_251_cif.got.tgz:500561.got - 2010.06.03 11:33:40.
