data_PCOD9081550
_publ_section_title
;
Structure prediction by ZEFSAII (Michael W. Deem and Ramdas Pophale) SiO2 
 PCOD9081550
Probable space group: P -1
;
_chemical_formula_sum "Si O2"
_cell_formula_units_Z 14
_cell_length_a 20.794150
_cell_length_b 7.464043
_cell_length_c 11.363859
_cell_angle_alpha 128.074976
_cell_angle_beta 138.129942
_cell_angle_gamma 35.390999
_cell_volume 681.575866
_symmetry_space_group_name_H-M "P -1"
_symmetry_group_IT_number 2
_symmetry_cell_setting 'triclinic'
loop_
_space_group_symop_operation_xyz
x,y,z
-x,-y,-z
loop_
_atom_site_type_symbol
_atom_site_label
_atom_site_fract_x
_atom_site_fract_y
_atom_site_fract_z
Si Si1 0.528473 0.595848 0.896566
Si Si2 0.817010 0.924494 0.701980
Si Si3 0.890250 0.622571 0.053621
Si Si4 0.395701 0.982576 0.108835
Si Si5 0.056116 0.917170 0.178143
Si Si6 0.804962 0.207998 0.046817
Si Si7 0.553807 0.184012 0.386850
O O1 0.565786 0.271678 0.844567
O O2 0.455029 0.759110 0.741530
O O3 0.449834 0.807443 0.987354
O O4 0.667197 0.505741 0.031208
O O5 0.965543 0.595787 0.782197
O O6 0.828563 0.087199 0.675932
O O7 0.704646 0.923286 0.526099
O O8 0.782619 0.122057 0.854012
O O9 0.854221 0.925720 0.081249
O O10 0.901084 0.412651 0.880512
O O11 0.762119 0.745194 0.000046
O O12 0.466082 0.110576 0.276113
O O13 0.929366 0.173477 0.186853
O O14 0.000000 0.000000 0.000000
O O15 0.500000 0.500000 0.500000
#
# Coordination Sequence:
#
# PCOD9081550 Si02
#       7
#     2   2   2   2   2   2   2
#     4  10  22  41  61  85 115 159 205 223 287 359
#     4  10  19  32  51  85 118 136 187 244 291 335
#     4   9  17  32  55  80 107 150 196 227 279 343
#     4  10  23  41  63  82 116 161 200 234 275 361
#     4   8  15  27  49  75 110 139 182 231 273 332
#     4   9  16  32  56  81 105 152 192 236 272 343
#     4  12  23  38  59  91 124 147 188 250 303 333
#
# _framework density 20.540634000000001
#
# number of rings (size 3 to 8) (size 9 to 14) (size 15 to 20)
#    0.000    2.571    1.429    3.000    4.000    0.571 
#    5.143    0.714    0.000    2.571    0.000    0.000 
#    0.000    0.000    0.000    0.000    0.000    0.000 
#
# Total GULP energy -77997.965316 kJ/mol
# GULP energy per Si atom -5571.283237 kJ/mol
# Density = 2.049388 g / cm^3
# Si number density = 20.540634 Si / 1000 Ang^3
#
#
#
# Elastic Constant Matrix: (Units=GPa)
#
#
# Indices 1 2 3 4 5 6 
#
# 1 99.4910 25.8417 30.5176 -10.0523 25.4498 -27.8645
# 2 25.8417 73.7559 32.6634 -18.9401 16.1573 -19.6121
# 3 30.5176 32.6634 38.7427 -14.2256 21.1779 -8.8265
# 4 -10.0523 -18.9401 -14.2256 23.3609 -5.5590 10.2628
# 5 25.4498 16.1573 21.1779 -5.5590 27.3956 -4.3519
# 6 -27.8645 -19.6121 -8.8265 10.2628 -4.3519 45.6038
#
#
#
# Elastic Compliance Matrix: (Units=1/GPa)
#
#
# Indices 1 2 3 4 5 6 
#
# 1 0.016868 0.001589 -0.008666 -0.002880 -0.009047 0.009097
# 2 0.001589 0.024362 -0.018206 0.006644 0.000608 0.006487
# 3 -0.008666 -0.018206 0.072814 0.020730 -0.034402 -0.006980
# 4 -0.002880 0.006644 0.020730 0.062288 -0.006137 -0.009493
# 5 -0.009047 0.000608 -0.034402 -0.006137 0.069272 -0.003933
# 6 0.009097 0.006487 -0.006980 -0.009493 -0.003933 0.030687
#
#
# Mechanical properties :
#
#
# Convention : Reuss Voigt Hill
#
# Bulk Modulus (GPa) = 15.75362 43.33721 29.54541
# Shear Modulus (GPa) = 14.36721 27.46985 20.91853
#
# Velocity S-wave (km/s) = 2.64759 3.66094 3.19470
# Velocity P-wave (km/s) = 4.12704 6.24612 5.29370
#
# Compressibility (1/GPa) = 0.06347748
#
# Stress axis : x y z
#
# Youngs Moduli (GPa) = 59.28480 41.04754 13.73369
#
# Poissons Ratio (x) = -0.06524 0.11902
# Poissons Ratio (y) = -0.09422 0.25004
# Poissons Ratio (z) = 0.51377 0.74732
#
# Static dielectric constant tensor:
#      x y z
#    x 1.811390 0.032720 0.028760 
#    y 0.032720 1.817800 -0.015000 
#    z 0.028760 -0.015000 1.729520 
# 
# From -- ./inp_files/474309.got.cif
#   From: 2010.05.17/outbox.cif.g08.bks.cpg/sg2_238_cif.got.tgz:474309.got - 2010.06.03 11:33:40.
