data_PCOD9081695
_publ_section_title
;
Structure prediction by ZEFSAII (Michael W. Deem and Ramdas Pophale) SiO2 
 PCOD9081695
Probable space group: P -1
;
_chemical_formula_sum "Si O2"
_cell_formula_units_Z 16
_cell_length_a 9.422066
_cell_length_b 14.894602
_cell_length_c 5.481380
_cell_angle_alpha 68.406885
_cell_angle_beta 106.910688
_cell_angle_gamma 88.864333
_cell_volume 677.337502
_symmetry_space_group_name_H-M "P -1"
_symmetry_group_IT_number 2
_symmetry_cell_setting 'triclinic'
loop_
_space_group_symop_operation_xyz
x,y,z
-x,-y,-z
loop_
_atom_site_type_symbol
_atom_site_label
_atom_site_fract_x
_atom_site_fract_y
_atom_site_fract_z
Si Si1 0.498979 0.364944 0.884547
Si Si2 0.583717 0.879116 0.412742
Si Si3 0.130377 0.191358 0.873831
Si Si4 0.675901 0.643698 0.694250
Si Si5 0.952600 0.394335 0.581967
Si Si6 0.905566 0.911070 0.541713
Si Si7 0.495298 0.149778 0.097872
Si Si8 0.800694 0.441953 0.958396
O O1 0.403910 0.377397 0.577342
O O2 0.564126 0.250078 0.031986
O O3 0.625401 0.432931 0.879767
O O4 0.403915 0.377396 0.071787
O O5 0.663249 0.762759 0.568864
O O6 0.724002 0.938219 0.423781
O O7 0.479418 0.896321 0.107338
O O8 0.479418 0.896321 0.579435
O O9 0.066980 0.148681 0.638363
O O10 0.310907 0.168552 0.986902
O O11 0.088191 0.307195 0.736900
O O12 0.066980 0.148681 0.131256
O O13 0.819493 0.558031 0.851718
O O14 0.862469 0.390572 0.792102
O O15 0.000000 0.500000 0.500000
O O16 0.862465 0.390572 0.289228
O O17 0.000000 0.000000 0.500000
#
# Coordination Sequence:
#
# PCOD9081695 Si02
#       8
#     2   2   2   2   2   2   2   2
#     4  10  19  34  53  79 105 139 184 251 290 305
#     4   8  16  26  46  71 106 129 160 204 279 330
#     4  10  21  38  55  77 119 145 184 226 269 336
#     4  10  19  32  54  77 108 143 180 239 295 314
#     4  12  28  39  55  75 113 169 206 214 247 330
#     4  10  19  33  58  84 107 137 177 234 298 334
#     4   8  16  29  52  71  99 139 171 215 294 307
#     4  12  24  37  54  78 110 146 213 226 264 327
#
# _framework density 23.621901000000001
#
# number of rings (size 3 to 8) (size 9 to 14) (size 15 to 20)
#    0.000    2.000    0.000    3.750   10.500    0.000 
#    0.000    0.000    0.000    0.000    0.000    0.000 
#    0.000  180.000    0.000    0.000    0.000    0.000 
#
# Total GULP energy -89378.872473 kJ/mol
# GULP energy per Si atom -5586.179530 kJ/mol
# Density = 2.356814 g / cm^3
# Si number density = 23.621901 Si / 1000 Ang^3
#
#
#
# Elastic Constant Matrix: (Units=GPa)
#
#
# Indices 1 2 3 4 5 6 
#
# 1 40.1617 24.3458 38.1575 10.3161 -16.2125 8.8292
# 2 24.3458 113.2268 54.8768 0.5531 -12.5909 11.3191
# 3 38.1575 54.8768 185.7087 44.7965 -36.0499 -9.4511
# 4 10.3161 0.5531 44.7965 46.5545 -10.0899 -4.3721
# 5 -16.2125 -12.5909 -36.0499 -10.0899 27.8026 -2.5274
# 6 8.8292 11.3191 -9.4511 -4.3721 -2.5274 37.0094
#
#
#
# Elastic Compliance Matrix: (Units=1/GPa)
#
#
# Indices 1 2 3 4 5 6 
#
# 1 0.039435 -0.004139 -0.003890 -0.002631 0.014354 -0.008466
# 2 -0.004139 0.011854 -0.004012 0.004103 -0.001054 -0.003250
# 3 -0.003890 -0.004012 0.010916 -0.007479 0.007772 0.004590
# 4 -0.002631 0.004103 -0.007479 0.029631 0.001477 0.001064
# 5 0.014354 -0.001054 0.007772 0.001477 0.054728 0.002795
# 6 -0.008466 -0.003250 0.004590 0.001064 0.002795 0.031522
#
#
# Mechanical properties :
#
#
# Convention : Reuss Voigt Hill
#
# Bulk Modulus (GPa) = 26.23048 63.76196 44.99622
# Shear Modulus (GPa) = 23.26930 37.05444 30.16187
#
# Velocity S-wave (km/s) = 3.14199 3.96491 3.57719
# Velocity P-wave (km/s) = 4.92861 6.92907 6.01262
#
# Compressibility (1/GPa) = 0.03812359
#
# Stress axis : x y z
#
# Youngs Moduli (GPa) = 25.35818 84.35986 91.60997
#
# Poissons Ratio (x) = 0.34915 0.35633
# Poissons Ratio (y) = 0.10495 0.36756
# Poissons Ratio (z) = 0.09863 0.33847
#
# Static dielectric constant tensor:
#      x y z
#    x 1.874760 -0.048570 -0.009460 
#    y -0.048570 1.972240 -0.009910 
#    z -0.009460 -0.009910 1.982430 
# 
# From -- ./inp_files/37595.got.cif
#   From: 2010.05.17/outbox.cif.g08.bks.cpg/sg2_19_cif.got.tgz:37595.got - 2010.06.03 11:33:40.
