data_PCOD9081815
_publ_section_title
;
Structure prediction by ZEFSAII (Michael W. Deem and Ramdas Pophale) SiO2 
 PCOD9081815
Probable space group: P -1
;
_chemical_formula_sum "Si O2"
_cell_formula_units_Z 14
_cell_length_a 15.281917
_cell_length_b 7.596481
_cell_length_c 18.431818
_cell_angle_alpha 126.843505
_cell_angle_beta 150.491943
_cell_angle_gamma 35.387067
_cell_volume 563.217211
_symmetry_space_group_name_H-M "P -1"
_symmetry_group_IT_number 2
_symmetry_cell_setting 'triclinic'
loop_
_space_group_symop_operation_xyz
x,y,z
-x,-y,-z
loop_
_atom_site_type_symbol
_atom_site_label
_atom_site_fract_x
_atom_site_fract_y
_atom_site_fract_z
Si Si1 0.289339 0.807543 0.869261
Si Si2 0.341812 0.531201 0.617134
Si Si3 0.546682 0.781433 0.910439
Si Si4 0.996562 0.180659 0.884568
Si Si5 0.934914 0.868980 0.525869
Si Si6 0.902527 0.901820 0.848453
Si Si7 0.549289 0.943124 0.797418
O O1 0.414197 0.866122 0.915375
O O2 0.148601 0.739364 0.707246
O O3 0.060545 0.124472 0.832481
O O4 0.500000 0.500000 0.000000
O O5 0.455752 0.632055 0.770826
O O6 0.093168 0.670731 0.516855
O O7 0.230618 0.754147 0.520151
O O8 0.591838 0.139399 0.692261
O O9 0.484816 0.996486 0.850409
O O10 0.865935 0.487070 0.075907
O O11 0.763935 0.553326 0.836886
O O12 0.274438 0.005620 0.078819
O O13 0.930068 0.997908 0.815342
O O14 0.721896 0.877588 0.391999
O O15 0.000000 0.000000 0.000000
#
# Coordination Sequence:
#
# PCOD9081815 Si02
#       7
#     2   2   2   2   2   2   2
#     4  11  22  33  55  84 111 139 185 226 271 315
#     4   8  15  28  53  79  99 137 193 214 249 311
#     4   9  17  33  55  76 105 143 182 218 259 323
#     4  11  21  34  54  88 111 136 181 227 272 320
#     4   9  17  33  52  78 109 142 180 225 261 320
#     4  10  15  30  56  81 103 142 186 221 254 317
#     4  10  21  37  56  81 111 145 181 217 274 321
#
# _framework density 24.857195999999998
#
# number of rings (size 3 to 8) (size 9 to 14) (size 15 to 20)
#    0.000    2.286    5.714    0.857    0.000    1.143 
#    0.000    0.714    0.000    0.000    0.000    5.000 
#    0.000    0.000    0.000    0.000    0.000    0.000 
#
# Total GULP energy -78183.454039 kJ/mol
# GULP energy per Si atom -5584.532431 kJ/mol
# Density = 2.480062 g / cm^3
# Si number density = 24.857196 Si / 1000 Ang^3
#
#
#
# Elastic Constant Matrix: (Units=GPa)
#
#
# Indices 1 2 3 4 5 6 
#
# 1 118.1949 29.3672 34.3463 0.6227 6.7662 -9.4606
# 2 29.3672 52.4593 18.1788 -18.1532 -5.1344 -9.7202
# 3 34.3463 18.1788 134.9445 -29.9777 18.4706 -12.3776
# 4 0.6227 -18.1532 -29.9777 27.9759 -5.2089 0.0885
# 5 6.7662 -5.1344 18.4706 -5.2089 52.1509 -0.8133
# 6 -9.4606 -9.7202 -12.3776 0.0885 -0.8133 35.7710
#
#
#
# Elastic Compliance Matrix: (Units=1/GPa)
#
#
# Indices 1 2 3 4 5 6 
#
# 1 0.012183 -0.009716 -0.004091 -0.011373 -0.002238 -0.000856
# 2 -0.009716 0.035132 0.003962 0.028401 0.006284 0.008420
# 3 -0.004091 0.003962 0.011863 0.015042 -0.001716 0.004023
# 4 -0.011373 0.028401 0.015042 0.071680 0.006258 0.009880
# 5 -0.002238 0.006284 -0.001716 0.006258 0.021332 0.000992
# 6 -0.000856 0.008420 0.004023 0.009880 0.000992 0.031408
#
#
# Mechanical properties :
#
#
# Convention : Reuss Voigt Hill
#
# Bulk Modulus (GPa) = 25.32373 52.15371 38.73872
# Shear Modulus (GPa) = 23.10006 38.09331 30.59669
#
# Velocity S-wave (km/s) = 3.05177 3.91895 3.51222
# Velocity P-wave (km/s) = 4.75684 6.44239 5.66268
#
# Compressibility (1/GPa) = 0.03948865
#
# Stress axis : x y z
#
# Youngs Moduli (GPa) = 82.08318 28.46417 84.29350
#
# Poissons Ratio (x) = 0.27655 0.34482
# Poissons Ratio (y) = 0.79749 -0.33394
# Poissons Ratio (z) = 0.33577 -0.11276
#
# Static dielectric constant tensor:
#      x y z
#    x 2.029250 0.018550 -0.038580 
#    y 0.018550 2.147300 0.002750 
#    z -0.038580 0.002750 1.975660 
# 
# From -- ./inp_files/497728.got.cif
#   From: 2010.05.17/outbox.cif.g08.bks.cpg/sg2_249_cif.got.tgz:497728.got - 2010.06.03 11:33:40.
