data_PCOD9081494
_publ_section_title
;
Structure prediction by ZEFSAII (Michael W. Deem and Ramdas Pophale) SiO2 
 PCOD9081494
Probable space group: P -1
;
_chemical_formula_sum "Si O2"
_cell_formula_units_Z 15
_cell_length_a 7.995506
_cell_length_b 7.808893
_cell_length_c 16.013169
_cell_angle_alpha 126.763184
_cell_angle_beta 86.154314
_cell_angle_gamma 58.986534
_cell_volume 574.733826
_symmetry_space_group_name_H-M "P -1"
_symmetry_group_IT_number 2
_symmetry_cell_setting 'triclinic'
loop_
_space_group_symop_operation_xyz
x,y,z
-x,-y,-z
loop_
_atom_site_type_symbol
_atom_site_label
_atom_site_fract_x
_atom_site_fract_y
_atom_site_fract_z
Si Si1 0.826266 0.956629 0.120936
Si Si2 0.499620 0.742298 0.915129
Si Si3 0.491242 0.701152 0.622152
Si Si4 0.872803 0.326998 0.633928
Si Si5 0.515811 0.146826 0.698808
Si Si6 0.750634 0.657169 0.382535
Si Si7 0.336732 0.399932 0.954219
Si Si8 0.000000 0.500000 0.500000
O O1 0.742186 0.781892 0.084812
O O2 0.742398 0.092763 0.072273
O O3 0.690302 0.190669 0.268397
O O4 0.096678 0.737088 0.057928
O O5 0.693344 0.485638 0.765176
O O6 0.530506 0.650838 0.982330
O O7 0.500000 0.000000 0.000000
O O8 0.500000 0.500000 0.500000
O O9 0.736399 0.529951 0.613140
O O10 0.427896 0.979175 0.663669
O O11 0.059713 0.339569 0.654034
O O12 0.000000 0.000000 0.500000
O O13 0.794843 0.868765 0.599561
O O14 0.345697 0.398313 0.707930
O O15 0.471627 0.286812 0.830484
O O16 0.871979 0.484190 0.416065
O O17 0.500000 0.000000 0.500000
#
# Coordination Sequence:
#
# PCOD9081494 Si02
#       8
#     2   2   2   2   2   2   2   1
#     4   8  17  28  41  70 103 141 174 213 271 339
#     4   9  19  31  49  79 117 150 182 230 292 348
#     4  10  19  32  50  77 115 148 177 223 293 348
#     4  11  22  35  57  90 123 152 191 244 300 350
#     4  10  20  33  54  80 107 148 190 238 283 335
#     4  10  22  37  57  81 115 155 199 240 287 348
#     4   9  17  28  48  72 106 139 178 227 281 333
#     4  10  20  38  52  76 112 148 200 238 278 332
#
# _framework density 26.099036999999999
#
# number of rings (size 3 to 8) (size 9 to 14) (size 15 to 20)
#    0.000    2.400    1.333    1.600    9.333    0.000 
#    0.000    0.000    0.000    0.000    0.000    9.333 
#    0.000    0.800    0.000    0.000    0.000    0.000 
#
# Total GULP energy -83556.139619 kJ/mol
# GULP energy per Si atom -5570.409308 kJ/mol
# Density = 2.603963 g / cm^3
# Si number density = 26.099037 Si / 1000 Ang^3
#
#
#
# Elastic Constant Matrix: (Units=GPa)
#
#
# Indices 1 2 3 4 5 6 
#
# 1 80.9845 47.5076 45.6084 0.2306 11.7201 -11.2931
# 2 47.5076 235.5092 76.7828 -31.6755 -3.3423 -45.2556
# 3 45.6084 76.7828 128.8324 -25.0718 20.8130 -26.2971
# 4 0.2306 -31.6755 -25.0718 40.9240 -3.3494 0.2158
# 5 11.7201 -3.3423 20.8130 -3.3494 47.8160 7.2206
# 6 -11.2931 -45.2556 -26.2971 0.2158 7.2206 49.6179
#
#
#
# Elastic Compliance Matrix: (Units=1/GPa)
#
#
# Indices 1 2 3 4 5 6 
#
# 1 0.017189 -0.002700 -0.005438 -0.005699 -0.002272 -0.001077
# 2 -0.002700 0.006773 -0.001528 0.004414 0.001426 0.004526
# 3 -0.005438 -0.001528 0.013887 0.006905 -0.005158 0.005449
# 4 -0.005699 0.004414 0.006905 0.032082 0.000003 0.006248
# 5 -0.002272 0.001426 -0.005158 0.000003 0.024651 -0.005537
# 6 -0.001077 0.004526 0.005449 0.006248 -0.005537 0.027704
#
#
# Mechanical properties :
#
#
# Convention : Reuss Voigt Hill
#
# Bulk Modulus (GPa) = 54.00505 87.23596 70.62051
# Shear Modulus (GPa) = 33.83178 46.03341 39.93259
#
# Velocity S-wave (km/s) = 3.60430 4.20431 3.91582
# Velocity P-wave (km/s) = 6.16916 7.55420 6.89654
#
# Compressibility (1/GPa) = 0.01851679
#
# Stress axis : x y z
#
# Youngs Moduli (GPa) = 58.17586 147.65286 72.00961
#
# Poissons Ratio (x) = 0.39870 0.39157
# Poissons Ratio (y) = 0.15709 0.11003
# Poissons Ratio (z) = 0.31635 0.22562
#
# Static dielectric constant tensor:
#      x y z
#    x 1.865250 0.058000 0.187170 
#    y 0.058000 2.169820 0.047490 
#    z 0.187170 0.047490 1.916530 
# 
# From -- ./inp_files/567529.got.cif
#   From: 2010.05.17/outbox.cif.g08.bks.cpg/sg2_284_cif.got.tgz:567529.got - 2010.06.03 11:33:40.
