data_PCOD9081983
_publ_section_title
;
Structure prediction by ZEFSAII (Michael W. Deem and Ramdas Pophale) SiO2 
 PCOD9081983
Probable space group: P -1
;
_chemical_formula_sum "Si O2"
_cell_formula_units_Z 16
_cell_length_a 5.178431
_cell_length_b 8.897018
_cell_length_c 24.141629
_cell_angle_alpha 125.100558
_cell_angle_beta 68.783693
_cell_angle_gamma 121.999885
_cell_volume 769.095378
_symmetry_space_group_name_H-M "P -1"
_symmetry_group_IT_number 2
_symmetry_cell_setting 'triclinic'
loop_
_space_group_symop_operation_xyz
x,y,z
-x,-y,-z
loop_
_atom_site_type_symbol
_atom_site_label
_atom_site_fract_x
_atom_site_fract_y
_atom_site_fract_z
Si Si1 0.887324 0.140498 0.668067
Si Si2 0.992422 0.119375 0.782579
Si Si3 0.212608 0.489842 0.275594
Si Si4 0.965747 0.846449 0.921093
Si Si5 0.721184 0.076162 0.197413
Si Si6 0.335742 0.080154 0.462950
Si Si7 0.351317 0.587103 0.855965
Si Si8 0.522264 0.297624 0.595335
O O1 0.980946 0.102523 0.713209
O O2 0.731210 0.297209 0.712986
O O3 0.703788 0.936789 0.603653
O O4 0.190758 0.266594 0.635272
O O5 0.636779 0.006786 0.802756
O O6 0.193713 0.023839 0.777479
O O7 0.130525 0.355878 0.837233
O O8 0.463659 0.423725 0.215935
O O9 0.246024 0.526204 0.346659
O O10 0.888888 0.315935 0.246907
O O11 0.615959 0.696467 0.903469
O O12 0.155750 0.714803 0.890198
O O13 0.111229 0.962293 0.877214
O O14 0.000000 0.000000 0.000000
O O15 0.452635 0.908089 0.430964
O O16 0.532423 0.284454 0.525157
O O17 0.000000 0.000000 0.500000
#
# Coordination Sequence:
#
# PCOD9081983 Si02
#       8
#     2   2   2   2   2   2   2   2
#     4  10  19  32  59  83 119 157 209 246 311 353
#     4  12  23  39  58  94 128 159 194 254 305 358
#     4  10  20  35  59  88 115 161 208 258 294 356
#     4  11  24  46  69  91 120 162 203 243 293 364
#     4  11  25  38  60  90 127 154 200 250 308 354
#     4   8  16  29  47  88 113 152 197 271 285 350
#     4  11  22  40  67  92 122 160 206 243 295 361
#     4   9  16  29  56  82 115 147 214 254 298 339
#
# _framework density 20.803661000000002
#
# number of rings (size 3 to 8) (size 9 to 14) (size 15 to 20)
#    0.000    1.750    1.250    4.875    3.500    0.000 
#    0.000    3.750    0.000    1.500    0.000    0.000 
#    0.000    0.000    0.000    0.000    0.000    0.000 
#
# Total GULP energy -89293.036276 kJ/mol
# GULP energy per Si atom -5580.814767 kJ/mol
# Density = 2.075631 g / cm^3
# Si number density = 20.803661 Si / 1000 Ang^3
#
#
#
# Elastic Constant Matrix: (Units=GPa)
#
#
# Indices 1 2 3 4 5 6 
#
# 1 104.7843 21.3305 33.9645 12.1804 11.5521 3.3452
# 2 21.3305 49.8766 33.2165 2.8283 7.0688 13.0914
# 3 33.9645 33.2165 136.7205 19.3855 39.2850 -2.6208
# 4 12.1804 2.8283 19.3855 14.1615 0.3401 6.1507
# 5 11.5521 7.0688 39.2850 0.3401 39.0985 11.4529
# 6 3.3452 13.0914 -2.6208 6.1507 11.4529 38.1103
#
#
#
# Elastic Compliance Matrix: (Units=1/GPa)
#
#
# Indices 1 2 3 4 5 6 
#
# 1 0.012462 -0.007160 0.003163 -0.016220 -0.007298 0.006394
# 2 -0.007160 0.037581 -0.019201 0.035678 0.021902 -0.025942
# 3 0.003163 -0.019201 0.027620 -0.046995 -0.032276 0.025502
# 4 -0.016220 0.035678 -0.046995 0.166070 0.061501 -0.059349
# 5 -0.007298 0.021902 -0.032276 0.061501 0.067153 -0.039209
# 6 0.006394 -0.025942 0.025502 -0.059349 -0.039209 0.057705
#
#
# Mechanical properties :
#
#
# Convention : Reuss Voigt Hill
#
# Bulk Modulus (GPa) = 31.98405 52.04493 42.01449
# Shear Modulus (GPa) = 11.75342 31.79873 21.77608
#
# Velocity S-wave (km/s) = 2.37949 3.91387 3.23885
# Velocity P-wave (km/s) = 4.79133 6.74507 5.85034
#
# Compressibility (1/GPa) = 0.03126558
#
# Stress axis : x y z
#
# Youngs Moduli (GPa) = 80.24658 26.60926 36.20627
#
# Poissons Ratio (x) = 0.19053 -0.11453
# Poissons Ratio (y) = 0.57459 0.69520
# Poissons Ratio (z) = -0.25383 0.51093
#
# Static dielectric constant tensor:
#      x y z
#    x 1.834540 -0.009440 0.011010 
#    y -0.009440 1.753420 -0.018750 
#    z 0.011010 -0.018750 1.785730 
# 
# From -- ./inp_files/603860.got.cif
#   From: 2010.05.17/outbox.cif.g08.bks.cpg/sg2_302_cif.got.tgz:603860.got - 2010.06.03 11:33:40.
