data_PCOD9081778
_publ_section_title
;
Structure prediction by ZEFSAII (Michael W. Deem and Ramdas Pophale) SiO2 
 PCOD9081778
Probable space group: P -1
;
_chemical_formula_sum "Si O2"
_cell_formula_units_Z 16
_cell_length_a 5.494048
_cell_length_b 17.015052
_cell_length_c 8.047934
_cell_angle_alpha 100.998466
_cell_angle_beta 57.256813
_cell_angle_gamma 91.674644
_cell_volume 618.669373
_symmetry_space_group_name_H-M "P -1"
_symmetry_group_IT_number 2
_symmetry_cell_setting 'triclinic'
loop_
_space_group_symop_operation_xyz
x,y,z
-x,-y,-z
loop_
_atom_site_type_symbol
_atom_site_label
_atom_site_fract_x
_atom_site_fract_y
_atom_site_fract_z
Si Si1 0.724544 0.186479 0.971463
Si Si2 0.250534 0.433023 0.832407
Si Si3 0.846267 0.009035 0.873537
Si Si4 0.203601 0.292786 0.592173
Si Si5 0.233993 0.433461 0.461181
Si Si6 0.128113 0.727369 0.740273
Si Si7 0.560942 0.643638 0.957120
Si Si8 0.128050 0.151533 0.369491
O O1 0.862366 0.098453 0.831534
O O2 0.921383 0.216559 0.056739
O O3 0.615839 0.267454 0.939808
O O4 0.430997 0.164762 0.168726
O O5 0.150994 0.342410 0.799275
O O6 0.332815 0.452974 0.621014
O O7 0.466849 0.412842 0.897053
O O8 0.000000 0.500000 0.000000
O O9 0.954807 0.937511 0.676780
O O10 0.500000 0.000000 0.000000
O O11 0.000000 0.000000 0.000000
O O12 0.056316 0.354395 0.535670
O O13 0.535494 0.300965 0.414696
O O14 0.151192 0.200033 0.554136
O O15 0.470172 0.407775 0.220130
O O16 0.000000 0.500000 0.500000
O O17 0.897464 0.662944 0.821867
O O18 0.091941 0.788401 0.625484
#
# Coordination Sequence:
#
# PCOD9081778 Si02
#       8
#     2   2   2   2   2   2   2   2
#     4   9  17  29  47  79 114 147 187 237 294 347
#     4  10  20  35  58  83 109 152 192 242 304 359
#     4  10  18  27  49  88 124 155 206 259 300 365
#     4   9  19  34  53  79 108 147 193 229 299 354
#     4  10  18  34  56  77 108 142 187 233 293 357
#     4  10  15  30  55  78 105 148 187 228 286 350
#     4  11  19  35  58  77 114 151 188 240 297 359
#     4   9  16  29  51  74 114 149 183 241 291 350
#
# _framework density 25.861955999999999
#
# number of rings (size 3 to 8) (size 9 to 14) (size 15 to 20)
#    0.750    1.500    6.250    0.000    0.000    0.000 
#    0.000    5.000    0.000    5.250    0.000    1.750 
#    0.000    0.000    0.000    0.000    0.000    0.000 
#
# Total GULP energy -89097.465589 kJ/mol
# GULP energy per Si atom -5568.591599 kJ/mol
# Density = 2.580309 g / cm^3
# Si number density = 25.861956 Si / 1000 Ang^3
#
#
#
# Elastic Constant Matrix: (Units=GPa)
#
#
# Indices 1 2 3 4 5 6 
#
# 1 84.0499 42.3969 34.9863 -1.7272 9.8040 -2.4600
# 2 42.3969 160.5957 80.7064 23.6456 -0.5594 -8.8323
# 3 34.9863 80.7064 135.0833 32.3371 24.3099 -2.2169
# 4 -1.7272 23.6456 32.3371 61.4722 1.9378 5.8318
# 5 9.8040 -0.5594 24.3099 1.9378 39.5944 -1.3683
# 6 -2.4600 -8.8323 -2.2169 5.8318 -1.3683 38.3986
#
#
#
# Elastic Compliance Matrix: (Units=1/GPa)
#
#
# Indices 1 2 3 4 5 6 
#
# 1 0.014789 -0.003320 -0.002088 0.002917 -0.002586 -0.000472
# 2 -0.003320 0.010362 -0.005806 -0.001382 0.004677 0.002212
# 3 -0.002088 -0.005806 0.014018 -0.004931 -0.007937 -0.000194
# 4 0.002917 -0.001382 -0.004931 0.019757 0.001202 -0.003374
# 5 -0.002586 0.004677 -0.007937 0.001202 0.030824 0.001368
# 6 -0.000472 0.002212 -0.000194 -0.003374 0.001368 0.027071
#
#
# Mechanical properties :
#
#
# Convention : Reuss Voigt Hill
#
# Bulk Modulus (GPa) = 59.72571 77.32314 68.52442
# Shear Modulus (GPa) = 34.52365 42.66899 38.59632
#
# Velocity S-wave (km/s) = 3.65762 4.06627 3.86735
# Velocity P-wave (km/s) = 6.40170 7.21175 6.81877
#
# Compressibility (1/GPa) = 0.01674321
#
# Stress axis : x y z
#
# Youngs Moduli (GPa) = 67.61820 96.50365 71.33812
#
# Poissons Ratio (x) = 0.32035 0.14893
# Poissons Ratio (y) = 0.22446 0.41417
# Poissons Ratio (z) = 0.14116 0.56027
#
# Static dielectric constant tensor:
#      x y z
#    x 2.403730 0.055340 -0.015990 
#    y 0.055340 2.155950 0.045580 
#    z -0.015990 0.045580 2.177350 
# 
# From -- ./inp_files/137906.got.cif
#   From: 2010.05.17/outbox.cif.g08.bks.cpg/sg2_69_cif.got.tgz:137906.got - 2010.06.03 11:33:40.
