data_PCOD9081811
_publ_section_title
;
Structure prediction by ZEFSAII (Michael W. Deem and Ramdas Pophale) SiO2 
 PCOD9081811
Probable space group: P -1
;
_chemical_formula_sum "Si O2"
_cell_formula_units_Z 14
_cell_length_a 19.201399
_cell_length_b 25.038308
_cell_length_c 5.199091
_cell_angle_alpha 115.914398
_cell_angle_beta 57.862317
_cell_angle_gamma 161.954267
_cell_volume 632.733745
_symmetry_space_group_name_H-M "P -1"
_symmetry_group_IT_number 2
_symmetry_cell_setting 'triclinic'
loop_
_space_group_symop_operation_xyz
x,y,z
-x,-y,-z
loop_
_atom_site_type_symbol
_atom_site_label
_atom_site_fract_x
_atom_site_fract_y
_atom_site_fract_z
Si Si1 0.444043 0.501203 0.361022
Si Si2 0.786798 0.177777 0.292115
Si Si3 0.033791 0.304744 0.560965
Si Si4 0.715351 0.809641 0.583876
Si Si5 0.527879 0.307787 0.661385
Si Si6 0.701977 0.294078 0.193627
Si Si7 0.787585 0.306387 0.550044
O O1 0.500000 0.500000 0.500000
O O2 0.172040 0.342444 0.494687
O O3 0.612762 0.674406 0.433533
O O4 0.500000 0.500000 0.000000
O O5 0.906930 0.324720 0.417606
O O6 0.886932 0.201282 0.362107
O O7 0.500000 0.000000 0.500000
O O8 0.861221 0.211136 0.929710
O O9 0.250827 0.499816 0.475681
O O10 0.681215 0.824692 0.423970
O O11 0.559893 0.730499 0.964880
O O12 0.000000 0.000000 0.500000
O O13 0.602934 0.290147 0.463461
O O14 0.655654 0.215622 0.343630
O O15 0.611459 0.208882 0.917844
O O16 0.000000 0.500000 0.000000
O O17 0.000000 0.500000 0.500000
#
# Coordination Sequence:
#
# PCOD9081811 Si02
#       7
#     2   2   2   2   2   2   2
#     4  11  23  43  69  95 123 167 218 269 324 390
#     4  12  24  40  60  90 129 168 209 262 313 368
#     4  11  22  41  65  89 121 170 218 253 310 396
#     4  11  24  43  66  97 129 162 208 271 332 382
#     4  11  21  39  66  94 123 169 214 254 314 392
#     4  10  19  32  55  87 117 150 199 250 286 343
#     4  10  19  34  55  80 115 158 199 243 292 353
#
# _framework density 22.126208999999999
#
# number of rings (size 3 to 8) (size 9 to 14) (size 15 to 20)
#    0.000    1.143    0.000   10.286    0.000    0.000 
#    0.000    8.571    0.000    0.000    0.000    0.000 
#    0.000    0.000    0.000    0.000    0.000    0.000 
#
# Total GULP energy -78185.701061 kJ/mol
# GULP energy per Si atom -5584.692933 kJ/mol
# Density = 2.207585 g / cm^3
# Si number density = 22.126209 Si / 1000 Ang^3
#
#
#
# Elastic Constant Matrix: (Units=GPa)
#
#
# Indices 1 2 3 4 5 6 
#
# 1 152.0186 20.2310 41.0062 15.4269 -1.7591 20.0266
# 2 20.2310 42.5785 16.8335 -5.5880 4.7273 12.5902
# 3 41.0062 16.8335 172.2899 26.5114 11.8516 0.0242
# 4 15.4269 -5.5880 26.5114 28.9109 12.2943 0.7802
# 5 -1.7591 4.7273 11.8516 12.2943 46.3424 10.3900
# 6 20.0266 12.5902 0.0242 0.7802 10.3900 30.4790
#
#
#
# Elastic Compliance Matrix: (Units=1/GPa)
#
#
# Indices 1 2 3 4 5 6 
#
# 1 0.008636 -0.003177 -0.001136 -0.005585 0.003648 -0.005462
# 2 -0.003177 0.031825 -0.004179 0.013482 -0.003594 -0.010175
# 3 -0.001136 -0.004179 0.007598 -0.007121 -0.000286 0.002747
# 4 -0.005585 0.013482 -0.007121 0.052652 -0.014084 0.001559
# 5 0.003648 -0.003594 -0.000286 -0.014084 0.028170 -0.010155
# 6 -0.005462 -0.010175 0.002747 0.001559 -0.010155 0.044021
#
#
# Mechanical properties :
#
#
# Convention : Reuss Voigt Hill
#
# Bulk Modulus (GPa) = 32.18083 58.11429 45.14756
# Shear Modulus (GPa) = 24.96949 40.40090 32.68519
#
# Velocity S-wave (km/s) = 3.36296 4.27773 3.84763
# Velocity P-wave (km/s) = 5.44565 7.12183 6.33939
#
# Compressibility (1/GPa) = 0.03107440
#
# Stress axis : x y z
#
# Youngs Moduli (GPa) = 115.79666 31.42178 131.61455
#
# Poissons Ratio (x) = 0.09984 0.14949
# Poissons Ratio (y) = 0.36792 0.55004
# Poissons Ratio (z) = 0.13152 0.13132
#
# Static dielectric constant tensor:
#      x y z
#    x 1.946810 0.116330 0.040380 
#    y 0.116330 2.401670 0.056600 
#    z 0.040380 0.056600 1.820890 
# 
# From -- ./inp_files/112967.got.cif
#   From: 2010.05.17/outbox.cif.g08.bks.cpg/sg2_57_cif.got.tgz:112967.got - 2010.06.03 11:33:40.
