data_PCOD9081818
_publ_section_title
;
Structure prediction by ZEFSAII (Michael W. Deem and Ramdas Pophale) SiO2 
 PCOD9081818
Probable space group: P -1
;
_chemical_formula_sum "Si O2"
_cell_formula_units_Z 16
_cell_length_a 14.068280
_cell_length_b 23.541070
_cell_length_c 7.339499
_cell_angle_alpha 110.160670
_cell_angle_beta 118.273373
_cell_angle_gamma 22.779210
_cell_volume 798.055501
_symmetry_space_group_name_H-M "P -1"
_symmetry_group_IT_number 2
_symmetry_cell_setting 'triclinic'
loop_
_space_group_symop_operation_xyz
x,y,z
-x,-y,-z
loop_
_atom_site_type_symbol
_atom_site_label
_atom_site_fract_x
_atom_site_fract_y
_atom_site_fract_z
Si Si1 0.339981 0.993005 0.264754
Si Si2 0.552609 0.488293 0.324691
Si Si3 0.782822 0.230044 0.622312
Si Si4 0.883812 0.745164 0.976266
Si Si5 0.109958 0.878429 0.020727
Si Si6 0.885272 0.766166 0.582627
Si Si7 0.461145 0.400260 0.149136
Si Si8 0.717830 0.958320 0.166822
O O1 0.665922 0.826871 0.408404
O O2 0.243898 0.100596 0.413610
O O3 0.315768 0.018494 0.055730
O O4 0.131462 0.045419 0.164175
O O5 0.500000 0.500000 0.500000
O O6 0.320455 0.655008 0.244124
O O7 0.544023 0.424716 0.172402
O O8 0.833213 0.377870 0.425904
O O9 0.581295 0.323591 0.374204
O O10 0.828665 0.159661 0.748806
O O11 0.065512 0.103723 0.646723
O O12 0.953136 0.728281 0.815412
O O13 0.577164 0.878282 0.838167
O O14 0.134709 0.573281 0.065746
O O15 0.837152 0.828761 0.153614
O O16 0.386947 0.721684 0.988392
O O17 0.000000 0.000000 0.000000
#
# Coordination Sequence:
#
# PCOD9081818 Si02
#       8
#     2   2   2   2   2   2   2   2
#     4   9  20  34  55  84 118 157 197 249 303 357
#     4  10  20  31  57  91 125 152 188 243 317 372
#     4  10  22  37  60  91 120 159 201 255 311 373
#     4  10  20  31  54  89 126 161 186 240 311 378
#     4  11  24  43  63  86 119 166 220 259 292 356
#     4  10  19  32  55  88 125 152 191 243 312 376
#     4  11  22  36  62  90 124 159 205 251 313 362
#     4   9  19  32  51  86 129 157 188 235 309 380
#
# _framework density 20.048729999999999
#
# number of rings (size 3 to 8) (size 9 to 14) (size 15 to 20)
#    0.000    2.000    2.500    0.750    5.250    3.500 
#    0.000    0.000    0.000    6.000    0.000    0.000 
#    0.000    0.000    0.000    0.000    0.000    0.000 
#
# Total GULP energy -89197.931674 kJ/mol
# GULP energy per Si atom -5574.870730 kJ/mol
# Density = 2.000310 g / cm^3
# Si number density = 20.048730 Si / 1000 Ang^3
#
#
#
# Elastic Constant Matrix: (Units=GPa)
#
#
# Indices 1 2 3 4 5 6 
#
# 1 80.0985 56.3148 32.0411 -16.3490 -9.3700 -7.5142
# 2 56.3148 114.8266 32.8652 -29.9591 1.6954 -27.7245
# 3 32.0411 32.8652 75.7399 -27.7253 -5.1895 -12.7813
# 4 -16.3490 -29.9591 -27.7253 32.8694 -3.9172 3.0989
# 5 -9.3700 1.6954 -5.1895 -3.9172 23.8077 -7.7057
# 6 -7.5142 -27.7245 -12.7813 3.0989 -7.7057 38.1861
#
#
#
# Elastic Compliance Matrix: (Units=1/GPa)
#
#
# Indices 1 2 3 4 5 6 
#
# 1 0.022529 -0.011175 -0.005970 -0.002845 0.006559 -0.004124
# 2 -0.011175 0.020037 0.003702 0.014812 0.001528 0.012694
# 3 -0.005970 0.003702 0.024025 0.020850 0.009200 0.009719
# 4 -0.002845 0.014812 0.020850 0.060691 0.017461 0.015772
# 5 0.006559 0.001528 0.009200 0.017461 0.054210 0.015001
# 6 -0.004124 0.012694 0.009719 0.015772 0.015001 0.039593
#
#
# Mechanical properties :
#
#
# Convention : Reuss Voigt Hill
#
# Bulk Modulus (GPa) = 25.18534 57.01191 41.09862
# Shear Modulus (GPa) = 19.14207 28.93555 24.03881
#
# Velocity S-wave (km/s) = 3.09330 3.80315 3.46644
# Velocity P-wave (km/s) = 5.03461 6.91257 6.04694
#
# Compressibility (1/GPa) = 0.03970564
#
# Stress axis : x y z
#
# Youngs Moduli (GPa) = 44.38654 49.90776 41.62331
#
# Poissons Ratio (x) = 0.55774 0.24847
# Poissons Ratio (y) = 0.49604 -0.15410
# Poissons Ratio (z) = 0.26497 -0.18477
#
# Static dielectric constant tensor:
#      x y z
#    x 1.722310 -0.033150 0.007140 
#    y -0.033150 1.757710 -0.012270 
#    z 0.007140 -0.012270 1.782540 
# 
# From -- ./inp_files/320130.got.cif
#   From: 2010.05.17/outbox.cif.g08.bks.cpg/sg2_161_cif.got.tgz:320130.got - 2010.06.03 11:33:40.
