data_PCOD9081652
_publ_section_title
;
Structure prediction by ZEFSAII (Michael W. Deem and Ramdas Pophale) SiO2 
 PCOD9081652
Probable space group: P -1
;
_chemical_formula_sum "Si O2"
_cell_formula_units_Z 16
_cell_length_a 8.965847
_cell_length_b 14.034316
_cell_length_c 17.737711
_cell_angle_alpha 25.095800
_cell_angle_beta 141.252512
_cell_angle_gamma 137.453677
_cell_volume 588.579400
_symmetry_space_group_name_H-M "P -1"
_symmetry_group_IT_number 2
_symmetry_cell_setting 'triclinic'
loop_
_space_group_symop_operation_xyz
x,y,z
-x,-y,-z
loop_
_atom_site_type_symbol
_atom_site_label
_atom_site_fract_x
_atom_site_fract_y
_atom_site_fract_z
Si Si1 0.310461 0.205311 0.565081
Si Si2 0.173586 0.963738 0.453497
Si Si3 0.844660 0.641449 0.223605
Si Si4 0.352013 0.805876 0.480839
Si Si5 0.356763 0.686072 0.953358
Si Si6 0.920926 0.336773 0.991834
Si Si7 0.676105 0.583437 0.421835
Si Si8 0.092559 0.011659 0.881785
O O1 0.461142 0.402914 0.436929
O O2 0.391338 0.282635 0.626004
O O3 0.022985 0.189701 0.466402
O O4 0.360328 0.951555 0.751338
O O5 0.295160 0.833776 0.528400
O O6 0.372467 0.103174 0.482371
O O7 0.038591 0.141445 0.225371
O O8 0.755821 0.451578 0.387940
O O9 0.105953 0.566708 0.362705
O O10 0.851101 0.892208 0.082009
O O11 0.625433 0.624861 0.089854
O O12 0.188257 0.963442 0.258961
O O13 0.291035 0.629700 0.056760
O O14 0.134794 0.541420 0.927852
O O15 0.856183 0.224040 0.965936
O O16 0.770901 0.793197 0.256585
#
# Coordination Sequence:
#
# PCOD9081652 Si02
#       8
#     2   2   2   2   2   2   2   2
#     4  10  19  33  53  75 110 138 170 217 257 310
#     4   9  14  27  50  75  99 127 169 220 253 286
#     4  11  20  31  54  80 107 136 170 217 262 310
#     4   9  15  26  47  77 101 124 170 214 252 294
#     4  10  19  32  53  81 103 133 173 216 262 303
#     4   9  17  32  49  78 107 129 170 218 266 298
#     4  10  19  34  51  74 110 141 172 208 262 310
#     4  10  19  33  53  80 108 135 169 216 265 306
#
# _framework density 27.184097999999999
#
# number of rings (size 3 to 8) (size 9 to 14) (size 15 to 20)
#    0.000    2.250    6.250    1.500    0.000    1.000 
#    0.000    0.000    0.000    3.750    0.000    1.750 
#    0.000    0.000    0.000    0.000    0.000    0.000 
#
# Total GULP energy -89484.466481 kJ/mol
# GULP energy per Si atom -5592.779155 kJ/mol
# Density = 2.712223 g / cm^3
# Si number density = 27.184098 Si / 1000 Ang^3
#
#
#
# Elastic Constant Matrix: (Units=GPa)
#
#
# Indices 1 2 3 4 5 6 
#
# 1 84.0614 45.6613 32.5615 -8.9849 -10.5752 18.3406
# 2 45.6613 169.3193 49.7089 -32.1192 4.5950 33.0348
# 3 32.5615 49.7089 99.2913 -29.2432 6.0635 5.0838
# 4 -8.9849 -32.1192 -29.2432 45.4911 -3.2345 7.0363
# 5 -10.5752 4.5950 6.0635 -3.2345 27.3085 -5.1648
# 6 18.3406 33.0348 5.0838 7.0363 -5.1648 46.7186
#
#
#
# Elastic Compliance Matrix: (Units=1/GPa)
#
#
# Indices 1 2 3 4 5 6 
#
# 1 0.016756 -0.002902 -0.004517 -0.000639 0.007312 -0.003130
# 2 -0.002902 0.009724 -0.001585 0.006117 -0.002972 -0.006814
# 3 -0.004517 -0.001585 0.014721 0.007207 -0.003941 -0.000229
# 4 -0.000639 0.006117 0.007207 0.032262 -0.000913 -0.009819
# 5 0.007312 -0.002972 -0.003941 -0.000913 0.041548 0.004390
# 6 -0.003130 -0.006814 -0.000229 -0.009819 0.004390 0.029441
#
#
# Mechanical properties :
#
#
# Convention : Reuss Voigt Hill
#
# Bulk Modulus (GPa) = 43.11220 67.61503 55.36361
# Shear Modulus (GPa) = 29.37878 38.88632 34.13255
#
# Velocity S-wave (km/s) = 3.29102 3.78627 3.54730
# Velocity P-wave (km/s) = 5.50771 6.63638 6.09821
#
# Compressibility (1/GPa) = 0.02319529
#
# Stress axis : x y z
#
# Youngs Moduli (GPa) = 59.67854 102.83593 67.92940
#
# Poissons Ratio (x) = 0.29839 0.30682
# Poissons Ratio (y) = 0.17316 0.10766
# Poissons Ratio (z) = 0.26956 0.16298
#
# Static dielectric constant tensor:
#      x y z
#    x 2.226830 -0.023070 0.061670 
#    y -0.023070 2.151270 -0.002790 
#    z 0.061670 -0.002790 2.106990 
# 
# From -- ./inp_files/618704.got.cif
#   From: 2010.05.17/outbox.cif.g08.bks.cpg/sg2_310_cif.got.tgz:618704.got - 2010.06.03 11:33:40.
