data_PCOD9081405
_publ_section_title
;
Structure prediction by ZEFSAII (Michael W. Deem and Ramdas Pophale) SiO2 
 PCOD9081405
Probable space group: P -1
;
_chemical_formula_sum "Si O2"
_cell_formula_units_Z 12
_cell_length_a 11.693450
_cell_length_b 8.472695
_cell_length_c 9.689605
_cell_angle_alpha 121.303235
_cell_angle_beta 77.196282
_cell_angle_gamma 141.605101
_cell_volume 477.265816
_symmetry_space_group_name_H-M "P -1"
_symmetry_group_IT_number 2
_symmetry_cell_setting 'triclinic'
loop_
_space_group_symop_operation_xyz
x,y,z
-x,-y,-z
loop_
_atom_site_type_symbol
_atom_site_label
_atom_site_fract_x
_atom_site_fract_y
_atom_site_fract_z
Si Si1 0.218695 0.170110 0.652645
Si Si2 0.979233 0.505672 0.317727
Si Si3 0.210714 0.296719 0.007659
Si Si4 0.648719 0.632979 0.712209
Si Si5 0.049718 0.327799 0.854128
Si Si6 0.291014 0.695137 0.486621
O O1 0.434417 0.438250 0.650911
O O2 0.116396 0.239831 0.697130
O O3 0.105591 0.847050 0.484006
O O4 0.235440 0.188890 0.824191
O O5 0.940253 0.477993 0.153332
O O6 0.118344 0.518357 0.341098
O O7 0.777192 0.268507 0.349108
O O8 0.353939 0.437196 0.158421
O O9 0.195133 0.472767 0.010259
O O10 0.000000 0.000000 0.000000
O O11 0.703165 0.511232 0.566827
O O12 0.826066 0.997187 0.804196
O O13 0.500000 0.000000 0.500000
#
# Coordination Sequence:
#
# PCOD9081405 Si02
#       6
#     2   2   2   2   2   2
#     4  10  19  31  58  80 107 135 172 227 260 309
#     4  11  21  38  53  82 109 140 176 218 273 307
#     4   8  17  33  54  81 106 135 174 222 264 305
#     4  11  19  35  56  83 105 141 181 213 264 314
#     4   9  21  34  56  83 107 135 174 231 262 306
#     4  11  23  36  55  76 111 146 177 213 261 330
#
# _framework density 25.143221
#
# number of rings (size 3 to 8) (size 9 to 14) (size 15 to 20)
#    1.000    1.000    3.333    1.000    0.000    2.000 
#    0.000    0.833    0.000    1.000    0.000    0.000 
#    0.000    0.000    0.000    0.000    0.000    0.000 
#
# Total GULP energy -67032.930191 kJ/mol
# GULP energy per Si atom -5586.077516 kJ/mol
# Density = 2.508599 g / cm^3
# Si number density = 25.143221 Si / 1000 Ang^3
#
#
#
# Elastic Constant Matrix: (Units=GPa)
#
#
# Indices 1 2 3 4 5 6 
#
# 1 123.3873 62.5075 14.8863 -3.8273 -5.7442 11.6857
# 2 62.5075 126.0299 23.3516 -20.3229 5.4078 27.6516
# 3 14.8863 23.3516 62.4870 -21.7477 -3.4120 -3.9416
# 4 -3.8273 -20.3229 -21.7477 39.4228 -17.7334 3.2122
# 5 -5.7442 5.4078 -3.4120 -17.7334 34.2182 -9.1435
# 6 11.6857 27.6516 -3.9416 3.2122 -9.1435 43.7949
#
#
#
# Elastic Compliance Matrix: (Units=1/GPa)
#
#
# Indices 1 2 3 4 5 6 
#
# 1 0.011196 -0.006067 -0.000692 -0.001465 0.002380 0.001385
# 2 -0.006067 0.014286 -0.003308 0.003896 -0.003941 -0.008808
# 3 -0.000692 -0.003308 0.024548 0.017325 0.013441 0.006019
# 4 -0.001465 0.003896 0.017325 0.048554 0.026415 0.001444
# 5 0.002380 -0.003941 0.013441 0.026415 0.048270 0.011203
# 6 0.001385 -0.008808 0.006019 0.001444 0.011203 0.030800
#
#
# Mechanical properties :
#
#
# Convention : Reuss Voigt Hill
#
# Bulk Modulus (GPa) = 33.45077 57.04391 45.24734
# Shear Modulus (GPa) = 24.06701 37.56442 30.81571
#
# Velocity S-wave (km/s) = 3.09722 3.86945 3.50467
# Velocity P-wave (km/s) = 5.11110 6.53455 5.86616
#
# Compressibility (1/GPa) = 0.02989468
#
# Stress axis : x y z
#
# Youngs Moduli (GPa) = 89.32044 69.99709 40.73658
#
# Poissons Ratio (x) = 0.42465 0.02821
# Poissons Ratio (y) = 0.54188 0.13478
# Poissons Ratio (z) = 0.06185 0.23158
#
# Static dielectric constant tensor:
#      x y z
#    x 2.018460 -0.042120 -0.008900 
#    y -0.042120 1.943660 -0.047180 
#    z -0.008900 -0.047180 2.085010 
# 
# From -- ./inp_files/257285.got.cif
#   From: 2010.05.17/outbox.cif.g08.bks.cpg/sg2_129_cif.got.tgz:257285.got - 2010.06.03 11:33:40.
