data_PCOD9081855
_publ_section_title
;
Structure prediction by ZEFSAII (Michael W. Deem and Ramdas Pophale) SiO2 
 PCOD9081855
Probable space group: P -1
;
_chemical_formula_sum "Si O2"
_cell_formula_units_Z 16
_cell_length_a 9.929914
_cell_length_b 11.049388
_cell_length_c 21.405020
_cell_angle_alpha 27.528583
_cell_angle_beta 133.001004
_cell_angle_gamma 124.143292
_cell_volume 787.245012
_symmetry_space_group_name_H-M "P -1"
_symmetry_group_IT_number 2
_symmetry_cell_setting 'triclinic'
loop_
_space_group_symop_operation_xyz
x,y,z
-x,-y,-z
loop_
_atom_site_type_symbol
_atom_site_label
_atom_site_fract_x
_atom_site_fract_y
_atom_site_fract_z
Si Si1 0.572102 0.212782 0.339252
Si Si2 0.666832 0.799392 0.115876
Si Si3 0.822697 0.144062 0.342067
Si Si4 0.061992 0.356980 0.981098
Si Si5 0.325461 0.771431 0.876652
Si Si6 0.084361 0.030708 0.787440
Si Si7 0.200921 0.094643 0.338214
Si Si8 0.240908 0.241621 0.969973
O O1 0.591695 0.521932 0.207671
O O2 0.641946 0.107438 0.342252
O O3 0.369173 0.161109 0.317982
O O4 0.712786 0.061786 0.503203
O O5 0.739981 0.898691 0.027086
O O6 0.838880 0.767155 0.233504
O O7 0.500000 0.000000 0.000000
O O8 0.781519 0.093761 0.279614
O O9 0.840194 0.454884 0.207809
O O10 0.000000 0.000000 0.500000
O O11 0.251214 0.488500 0.992555
O O12 0.114952 0.179489 0.017221
O O13 0.915473 0.625429 0.806491
O O14 0.986898 0.192666 0.088383
O O15 0.259510 0.925279 0.847847
O O16 0.544026 0.756467 0.943102
O O17 0.922474 0.080756 0.662054
#
# Coordination Sequence:
#
# PCOD9081855 Si02
#       8
#     2   2   2   2   2   2   2   2
#     4  10  22  37  60  81 115 154 188 233 284 348
#     4  11  22  38  56  83 114 154 193 228 280 344
#     4  10  19  32  56  84 113 140 189 240 282 329
#     4  10  20  33  58  85 117 138 186 245 279 327
#     4  10  19  34  55  85 112 146 190 235 282 335
#     4  11  22  34  59  85 120 149 184 236 288 332
#     4  10  21  37  57  88 114 146 189 237 294 330
#     4  10  21  34  57  82 112 151 191 230 284 338
#
# _framework density 20.324041999999999
#
# number of rings (size 3 to 8) (size 9 to 14) (size 15 to 20)
#    0.000    1.750    1.250    6.000    7.000    1.000 
#    0.000    0.000    0.000    0.000    0.000    7.875 
#    0.000    0.000    0.000    0.000    0.000    0.000 
#
# Total GULP energy -89204.934961 kJ/mol
# GULP energy per Si atom -5575.308435 kJ/mol
# Density = 2.027778 g / cm^3
# Si number density = 20.324042 Si / 1000 Ang^3
#
#
#
# Elastic Constant Matrix: (Units=GPa)
#
#
# Indices 1 2 3 4 5 6 
#
# 1 142.6979 17.3885 32.8233 16.3455 -1.1064 -20.7526
# 2 17.3885 60.4599 5.5252 25.3750 3.6969 -8.8595
# 3 32.8233 5.5252 71.6272 22.6142 3.6049 2.4352
# 4 16.3455 25.3750 22.6142 21.4778 1.0895 -3.8139
# 5 -1.1064 3.6969 3.6049 1.0895 27.8005 8.1906
# 6 -20.7526 -8.8595 2.4352 -3.8139 8.1906 37.1004
#
#
#
# Elastic Compliance Matrix: (Units=1/GPa)
#
#
# Indices 1 2 3 4 5 6 
#
# 1 0.008842 -0.001683 -0.004286 0.000673 -0.000360 0.004974
# 2 -0.001683 0.049210 0.022358 -0.079546 -0.007205 0.002756
# 3 -0.004286 0.022358 0.033012 -0.058497 -0.003838 -0.004391
# 4 0.000673 -0.079546 -0.058497 0.201861 0.009113 0.003960
# 5 -0.000360 -0.007205 -0.003838 0.009113 0.039864 -0.009534
# 6 0.004974 0.002756 -0.004391 0.003960 -0.009534 0.033194
#
#
# Mechanical properties :
#
#
# Convention : Reuss Voigt Hill
#
# Bulk Modulus (GPa) = 8.07466 42.91766 25.49616
# Shear Modulus (GPa) = 13.35166 31.87893 22.61529
#
# Velocity S-wave (km/s) = 2.56586 3.96477 3.33939
# Velocity P-wave (km/s) = 3.57208 6.49012 5.23839
#
# Compressibility (1/GPa) = 0.12384424
#
# Stress axis : x y z
#
# Youngs Moduli (GPa) = 113.09450 20.32090 30.29232
#
# Poissons Ratio (x) = 0.03420 0.12982
# Poissons Ratio (y) = 0.19032 -0.67729
# Poissons Ratio (z) = 0.48467 -0.45434
#
# Static dielectric constant tensor:
#      x y z
#    x 1.780110 -0.031490 -0.008410 
#    y -0.031490 1.762820 0.045640 
#    z -0.008410 0.045640 1.728640 
# 
# From -- ./inp_files/389061.got.cif
#   From: 2010.05.17/outbox.cif.g08.bks.cpg/sg2_195_cif.got.tgz:389061.got - 2010.06.03 11:33:40.
