data_PCOD9081368
_publ_section_title
;
Structure prediction by ZEFSAII (Michael W. Deem and Ramdas Pophale) SiO2 
 PCOD9081368
Probable space group: P -1
;
_chemical_formula_sum "Si O2"
_cell_formula_units_Z 16
_cell_length_a 14.859206
_cell_length_b 7.420779
_cell_length_c 21.122701
_cell_angle_alpha 38.905559
_cell_angle_beta 32.469604
_cell_angle_gamma 33.458529
_cell_volume 667.304014
_symmetry_space_group_name_H-M "P -1"
_symmetry_group_IT_number 2
_symmetry_cell_setting 'triclinic'
loop_
_space_group_symop_operation_xyz
x,y,z
-x,-y,-z
loop_
_atom_site_type_symbol
_atom_site_label
_atom_site_fract_x
_atom_site_fract_y
_atom_site_fract_z
Si Si1 0.252550 0.857439 0.331318
Si Si2 0.721495 0.270851 0.987749
Si Si3 0.663354 0.870950 0.494220
Si Si4 0.343344 0.151215 0.702009
Si Si5 0.554581 0.599471 0.114725
Si Si6 0.978122 0.603906 0.285473
Si Si7 0.105476 0.631898 0.947145
Si Si8 0.389138 0.266464 0.781414
O O1 0.259944 0.509915 0.424908
O O2 0.366758 0.841867 0.202308
O O3 0.387570 0.839473 0.314762
O O4 0.052269 0.211541 0.357269
O O5 0.827143 0.373640 0.845124
O O6 0.565160 0.584984 0.036869
O O7 0.626529 0.043227 0.095404
O O8 0.927013 0.989441 0.978086
O O9 0.854256 0.824802 0.358882
O O10 0.500000 0.000000 0.500000
O O11 0.534773 0.105847 0.564513
O O12 0.162461 0.290599 0.722221
O O13 0.397013 0.777478 0.793631
O O14 0.309979 0.337206 0.737894
O O15 0.751443 0.594329 0.020405
O O16 0.000000 0.500000 0.000000
O O17 0.731861 0.410739 0.189057
#
# Coordination Sequence:
#
# PCOD9081368 Si02
#       8
#     2   2   2   2   2   2   2   2
#     4  10  21  38  57  81 116 143 180 231 285 317
#     4  10  19  31  56  81 114 146 191 214 275 331
#     4   9  20  39  63  79 103 146 198 226 265 328
#     4   9  18  36  60  81 104 144 195 225 268 321
#     4   9  17  32  54  76 109 150 184 223 260 329
#     4  11  21  33  60  84 110 146 186 228 270 334
#     4   9  16  26  49  80 105 141 183 228 256 306
#     4   9  20  34  57  83 114 146 177 235 273 324
#
# _framework density 23.977077000000001
#
# number of rings (size 3 to 8) (size 9 to 14) (size 15 to 20)
#    0.000    2.500    1.250    0.750    5.250    1.000 
#    0.000    3.125    8.250    0.000    0.000    0.000 
#    0.000    0.000    0.000    0.000    0.000    0.000 
#
# Total GULP energy -89101.288551 kJ/mol
# GULP energy per Si atom -5568.830534 kJ/mol
# Density = 2.392250 g / cm^3
# Si number density = 23.977077 Si / 1000 Ang^3
#
#
#
# Elastic Constant Matrix: (Units=GPa)
#
#
# Indices 1 2 3 4 5 6 
#
# 1 50.8040 6.2520 16.7223 9.6733 7.1213 15.3774
# 2 6.2520 67.0279 19.4595 3.9248 8.7472 -3.2303
# 3 16.7223 19.4595 91.8711 8.4775 17.3324 3.8820
# 4 9.6733 3.9248 8.4775 42.1570 4.8375 6.0380
# 5 7.1213 8.7472 17.3324 4.8375 20.2732 6.6644
# 6 15.3774 -3.2303 3.8820 6.0380 6.6644 28.8944
#
#
#
# Elastic Compliance Matrix: (Units=1/GPa)
#
#
# Indices 1 2 3 4 5 6 
#
# 1 0.025463 -0.001762 -0.003358 -0.003158 -0.000439 -0.012536
# 2 -0.001762 0.016788 -0.002219 -0.000680 -0.006097 0.004661
# 3 -0.003358 -0.002219 0.013893 -0.000961 -0.010247 0.002237
# 4 -0.003158 -0.000680 -0.000961 0.025452 -0.002889 -0.002919
# 5 -0.000439 -0.006097 -0.010247 -0.002889 0.066067 -0.013706
# 6 -0.012536 0.004661 0.002237 -0.002919 -0.013706 0.045272
#
#
# Mechanical properties :
#
#
# Convention : Reuss Voigt Hill
#
# Bulk Modulus (GPa) = 24.11593 32.73005 28.42299
# Shear Modulus (GPa) = 22.58009 29.41620 25.99814
#
# Velocity S-wave (km/s) = 3.07210 3.50644 3.29643
# Velocity P-wave (km/s) = 4.76062 5.48395 5.13503
#
# Compressibility (1/GPa) = 0.04146637
#
# Stress axis : x y z
#
# Youngs Moduli (GPa) = 39.27321 59.56663 71.97672
#
# Poissons Ratio (x) = 0.10497 0.24167
# Poissons Ratio (y) = 0.06921 0.15972
# Poissons Ratio (z) = 0.13186 0.13218
#
# Static dielectric constant tensor:
#      x y z
#    x 1.992790 -0.063860 -0.018960 
#    y -0.063860 2.016170 -0.028180 
#    z -0.018960 -0.028180 2.064900 
# 
# From -- ./inp_files/612946.got.cif
#   From: 2010.05.17/outbox.cif.g08.bks.cpg/sg2_307_cif.got.tgz:612946.got - 2010.06.03 11:33:40.
