data_PCOD9081406
_publ_section_title
;
Structure prediction by ZEFSAII (Michael W. Deem and Ramdas Pophale) SiO2 
 PCOD9081406
Probable space group: P -1
;
_chemical_formula_sum "Si O2"
_cell_formula_units_Z 16
_cell_length_a 19.389330
_cell_length_b 5.013274
_cell_length_c 9.592809
_cell_angle_alpha 102.407395
_cell_angle_beta 77.924561
_cell_angle_gamma 102.583292
_cell_volume 875.813829
_symmetry_space_group_name_H-M "P -1"
_symmetry_group_IT_number 2
_symmetry_cell_setting 'triclinic'
loop_
_space_group_symop_operation_xyz
x,y,z
-x,-y,-z
loop_
_atom_site_type_symbol
_atom_site_label
_atom_site_fract_x
_atom_site_fract_y
_atom_site_fract_z
Si Si1 0.318175 0.918689 0.559168
Si Si2 0.969800 0.718611 0.893360
Si Si3 0.985282 0.198760 0.407640
Si Si4 0.486663 0.451813 0.836707
Si Si5 0.579001 0.171037 0.277945
Si Si6 0.835608 0.979986 0.298569
Si Si7 0.883818 0.439654 0.129342
Si Si8 0.600589 0.532031 0.563721
O O1 0.368399 0.182097 0.495468
O O2 0.344724 0.885989 0.704182
O O3 0.237837 0.968415 0.599160
O O4 0.335090 0.637703 0.450683
O O5 0.963404 0.807643 0.748152
O O6 0.034079 0.538992 0.847445
O O7 0.900884 0.536723 0.974595
O O8 0.000000 0.000000 0.000000
O O9 0.904381 0.113758 0.375253
O O10 0.000000 0.500000 0.500000
O O11 0.000000 0.000000 0.500000
O O12 0.425970 0.615083 0.820421
O O13 0.555288 0.566342 0.723243
O O14 0.466480 0.125005 0.775467
O O15 0.500000 0.500000 0.000000
O O16 0.555516 0.321180 0.444692
O O17 0.846361 0.137090 0.161564
O O18 0.842014 0.660756 0.240873
#
# Coordination Sequence:
#
# PCOD9081406 Si02
#       8
#     2   2   2   2   2   2   2   2
#     4  10  21  35  62  79 109 150 203 237 265 324
#     4  10  19  35  56  82 111 140 177 230 289 341
#     4  11  23  35  55  85 116 140 180 238 295 338
#     4  12  22  34  58  90 125 148 178 233 295 334
#     4  10  20  37  56  86 114 147 194 234 269 329
#     4  11  21  37  56  87 108 147 193 239 279 342
#     4  10  19  31  58  80 107 136 186 229 277 333
#     4  10  20  36  59  85 111 149 196 234 277 318
#
# _framework density 18.268722
#
# number of rings (size 3 to 8) (size 9 to 14) (size 15 to 20)
#    0.750    0.750    3.750    4.125    1.750    0.000 
#    0.000    0.000    0.000    9.000    0.000    0.000 
#    0.000    0.000    0.000    0.000    0.000    0.000 
#
# Total GULP energy -89101.873604 kJ/mol
# GULP energy per Si atom -5568.867100 kJ/mol
# Density = 1.822714 g / cm^3
# Si number density = 18.268722 Si / 1000 Ang^3
#
#
#
# Elastic Constant Matrix: (Units=GPa)
#
#
# Indices 1 2 3 4 5 6 
#
# 1 65.7882 13.7760 27.7143 -4.2413 -4.6418 -16.7590
# 2 13.7760 108.6138 27.9657 -9.6807 8.7225 -24.2636
# 3 27.7143 27.9657 99.9582 -21.4417 15.3992 -7.3777
# 4 -4.2413 -9.6807 -21.4417 26.2926 -6.5832 -3.0428
# 5 -4.6418 8.7225 15.3992 -6.5832 18.1816 1.1083
# 6 -16.7590 -24.2636 -7.3777 -3.0428 1.1083 26.2238
#
#
#
# Elastic Compliance Matrix: (Units=1/GPa)
#
#
# Indices 1 2 3 4 5 6 
#
# 1 0.022011 0.001244 -0.006501 0.002944 0.010786 0.013274
# 2 0.001244 0.013070 -0.001500 0.004329 -0.003915 0.013133
# 3 -0.006501 -0.001500 0.015818 0.008519 -0.011276 0.000372
# 4 0.002944 0.004329 0.008519 0.050914 0.009053 0.013808
# 5 0.010786 -0.003915 -0.011276 0.009053 0.072577 -0.001919
# 6 0.013274 0.013133 0.000372 0.013808 -0.001919 0.060556
#
#
# Mechanical properties :
#
#
# Convention : Reuss Voigt Hill
#
# Bulk Modulus (GPa) = 26.75002 45.91912 36.33457
# Shear Modulus (GPa) = 19.16279 27.79987 23.48133
#
# Velocity S-wave (km/s) = 3.24225 3.90515 3.58904
# Velocity P-wave (km/s) = 5.35635 6.74712 6.09156
#
# Compressibility (1/GPa) = 0.03738315
#
# Stress axis : x y z
#
# Youngs Moduli (GPa) = 45.43247 76.51354 63.21790
#
# Poissons Ratio (x) = -0.09516 0.41098
# Poissons Ratio (y) = -0.05650 0.09485
# Poissons Ratio (z) = 0.29536 0.11480
#
# Static dielectric constant tensor:
#      x y z
#    x 1.667560 -0.030590 -0.008730 
#    y -0.030590 1.668990 -0.014250 
#    z -0.008730 -0.014250 1.650550 
# 
# From -- ./inp_files/339468.got.cif
#   From: 2010.05.17/outbox.cif.g08.bks.cpg/sg2_170_cif.got.tgz:339468.got - 2010.06.03 11:33:40.
