data_PCOD9081831
_publ_section_title
;
Structure prediction by ZEFSAII (Michael W. Deem and Ramdas Pophale) SiO2 
 PCOD9081831
Probable space group: P -1
;
_chemical_formula_sum "Si O2"
_cell_formula_units_Z 16
_cell_length_a 12.145854
_cell_length_b 11.555820
_cell_length_c 11.536474
_cell_angle_alpha 119.427373
_cell_angle_beta 58.694623
_cell_angle_gamma 151.595849
_cell_volume 655.753733
_symmetry_space_group_name_H-M "P -1"
_symmetry_group_IT_number 2
_symmetry_cell_setting 'triclinic'
loop_
_space_group_symop_operation_xyz
x,y,z
-x,-y,-z
loop_
_atom_site_type_symbol
_atom_site_label
_atom_site_fract_x
_atom_site_fract_y
_atom_site_fract_z
Si Si1 0.693913 0.478026 0.347868
Si Si2 0.526007 0.065023 0.292436
Si Si3 0.677190 0.769771 0.146160
Si Si4 0.069782 0.728084 0.715762
Si Si5 0.896809 0.679849 0.022268
Si Si6 0.048122 0.771478 0.506909
Si Si7 0.564541 0.827352 0.015224
Si Si8 0.681146 0.735651 0.371636
O O1 0.606078 0.254229 0.257964
O O2 0.760060 0.653225 0.310310
O O3 0.481294 0.354624 0.480333
O O4 0.903018 0.639472 0.404353
O O5 0.735038 0.215473 0.343762
O O6 0.294553 0.909441 0.412248
O O7 0.503393 0.911481 0.155535
O O8 0.571524 0.711127 0.049151
O O9 0.541268 0.625739 0.271540
O O10 0.796192 0.014402 0.227874
O O11 0.848577 0.790714 0.065670
O O12 0.945731 0.618805 0.605755
O O13 0.926726 0.616611 0.857702
O O14 0.648917 0.400619 0.064137
O O15 0.161588 0.913038 0.048180
O O16 0.101465 0.973628 0.601174
#
# Coordination Sequence:
#
# PCOD9081831 Si02
#       8
#     2   2   2   2   2   2   2   2
#     4  10  20  34  55  76 108 145 182 227 273 326
#     4   9  20  34  50  78 112 146 176 223 277 335
#     4   9  18  35  57  76 110 143 181 228 278 324
#     4   9  19  33  51  84 113 139 179 222 278 337
#     4  10  20  36  56  84 114 147 178 229 278 333
#     4  10  19  32  56  77 109 144 181 221 277 331
#     4  10  21  35  58  84 118 141 182 225 282 334
#     4   9  20  37  51  80 107 138 188 230 270 322
#
# _framework density 24.399403
#
# number of rings (size 3 to 8) (size 9 to 14) (size 15 to 20)
#    0.000    2.750    0.000    2.625    5.250    1.500 
#    2.250    0.000    0.000    3.750    0.000    0.000 
#    0.000    0.000    0.000    0.000    0.000    0.000 
#
# Total GULP energy -89155.818909 kJ/mol
# GULP energy per Si atom -5572.238682 kJ/mol
# Density = 2.434387 g / cm^3
# Si number density = 24.399403 Si / 1000 Ang^3
#
#
#
# Elastic Constant Matrix: (Units=GPa)
#
#
# Indices 1 2 3 4 5 6 
#
# 1 149.5461 0.5774 382.1933 -189.7001 -49.8837 98.3901
# 2 0.5774 137.5370 -210.2256 131.6938 10.8873 -72.2129
# 3 382.1933 -210.2256 1915.7137-1002.0515 -186.6536 548.9986
# 4 -189.7001 131.6938-1002.0515 576.5216 86.3294 -308.3893
# 5 -49.8837 10.8873 -186.6536 86.3294 46.9602 -50.0593
# 6 98.3901 -72.2129 548.9986 -308.3893 -50.0593 182.4207
#
#
#
# Elastic Compliance Matrix: (Units=1/GPa)
#
#
# Indices 1 2 3 4 5 6 
#
# 1 0.019187 -0.006431 -0.004230 0.003370 0.006731 0.007380
# 2 -0.006431 0.011785 0.000633 -0.003918 -0.000376 -0.000496
# 3 -0.004230 0.000633 0.008682 0.009544 0.006175 -0.005769
# 4 0.003370 -0.003918 0.009544 0.032717 0.009933 0.025945
# 5 0.006731 -0.000376 0.006175 0.009933 0.040817 0.005629
# 6 0.007380 -0.000496 -0.005769 0.025945 0.005629 0.064072
#
#
# Mechanical properties :
#
#
# Convention : Reuss Voigt Hill
#
# Bulk Modulus (GPa) = 51.02612 283.09857 167.06234
# Shear Modulus (GPa) = 24.52798 296.53060 160.52929
#
# Velocity S-wave (km/s) = 3.17404 11.03611 8.12005
# Velocity P-wave (km/s) = 5.86438 16.69350 12.51127
#
# Compressibility (1/GPa) = 0.01959781
#
# Stress axis : x y z
#
# Youngs Moduli (GPa) = 52.11962 84.85257 115.17903
#
# Poissons Ratio (x) = 0.54566 0.48720
# Poissons Ratio (y) = 0.33517 -0.07286
# Poissons Ratio (z) = 0.22046 -0.05368
#
# Static dielectric constant tensor:
#      x y z
#    x 1.955920 -0.002280 0.047470 
#    y -0.002280 2.015640 -0.043370 
#    z 0.047470 -0.043370 1.998990 
# 
# From -- ./inp_files/519033.got.cif
#   From: 2010.05.17/outbox.cif.g08.bks.cpg/sg2_260_cif.got.tgz:519033.got - 2010.06.03 11:33:40.
