data_PCOD9081583
_publ_section_title
;
Structure prediction by ZEFSAII (Michael W. Deem and Ramdas Pophale) SiO2 
 PCOD9081583
Probable space group: P -1
;
_chemical_formula_sum "Si O2"
_cell_formula_units_Z 16
_cell_length_a 5.068865
_cell_length_b 27.848963
_cell_length_c 9.908455
_cell_angle_alpha 132.183789
_cell_angle_beta 98.524889
_cell_angle_gamma 58.765357
_cell_volume 840.906236
_symmetry_space_group_name_H-M "P -1"
_symmetry_group_IT_number 2
_symmetry_cell_setting 'triclinic'
loop_
_space_group_symop_operation_xyz
x,y,z
-x,-y,-z
loop_
_atom_site_type_symbol
_atom_site_label
_atom_site_fract_x
_atom_site_fract_y
_atom_site_fract_z
Si Si1 0.391774 0.876794 0.232066
Si Si2 0.038149 0.953863 0.603863
Si Si3 0.821510 0.467886 0.059412
Si Si4 0.754491 0.626191 0.309974
Si Si5 0.495587 0.001248 0.842750
Si Si6 0.067109 0.168712 0.000337
Si Si7 0.685689 0.515131 0.430993
Si Si8 0.803509 0.322171 0.446856
O O1 0.761593 0.830450 0.123264
O O2 0.276820 0.882429 0.387432
O O3 0.214832 0.844143 0.074949
O O4 0.235341 0.969317 0.359253
O O5 0.838364 0.944379 0.685327
O O6 0.253665 0.979347 0.734864
O O7 0.887627 0.536281 0.192570
O O8 0.758512 0.462929 0.202386
O O9 0.500000 0.500000 0.000000
O O10 0.125603 0.389428 0.865573
O O11 0.385213 0.674839 0.426057
O O12 0.932881 0.660292 0.461456
O O13 0.348145 0.090197 0.951488
O O14 0.500000 0.000000 0.000000
O O15 0.947829 0.243250 0.224946
O O16 0.500000 0.500000 0.500000
O O17 0.461288 0.604560 0.527531
O O18 0.000000 0.500000 0.500000
#
# Coordination Sequence:
#
# PCOD9081583 Si02
#       8
#     2   2   2   2   2   2   2   2
#     4   9  17  31  51  78  99 135 180 218 257 302
#     4   9  17  30  51  76 104 131 178 222 253 310
#     4  10  19  35  59  82 107 138 188 229 265 325
#     4  10  19  32  57  80 102 139 188 226 257 314
#     4  10  19  32  52  80 107 136 172 224 272 302
#     4  10  20  33  54  77 108 140 176 217 262 322
#     4  11  23  35  55  84 111 136 176 234 283 308
#     4  11  21  36  54  80 110 143 179 223 273 335
#
# _framework density 19.027090999999999
#
# number of rings (size 3 to 8) (size 9 to 14) (size 15 to 20)
#    0.000    2.000    2.500    3.375    1.750    3.000 
#    0.000    0.000    0.000    9.000    0.000    0.000 
#    0.000    0.000    0.000    0.000    0.000    0.000 
#
# Total GULP energy -89142.636996 kJ/mol
# GULP energy per Si atom -5571.414812 kJ/mol
# Density = 1.898378 g / cm^3
# Si number density = 19.027091 Si / 1000 Ang^3
#
#
#
# Elastic Constant Matrix: (Units=GPa)
#
#
# Indices 1 2 3 4 5 6 
#
# 1 132.5369 17.7257 71.6831 -0.9140 -20.6726 31.7976
# 2 17.7257 27.6418 36.8655 -13.8807 -8.2863 12.1833
# 3 71.6831 36.8655 216.1984 8.5870 -32.6021 44.9676
# 4 -0.9140 -13.8807 8.5870 32.8105 6.3072 -1.2641
# 5 -20.6726 -8.2863 -32.6021 6.3072 44.1144 -14.8214
# 6 31.7976 12.1833 44.9676 -1.2641 -14.8214 25.0263
#
#
#
# Elastic Compliance Matrix: (Units=1/GPa)
#
#
# Indices 1 2 3 4 5 6 
#
# 1 0.011048 -0.000413 -0.001117 -0.000097 0.000390 -0.011605
# 2 -0.000413 0.075036 -0.011291 0.035026 -0.005165 -0.017007
# 3 -0.001117 -0.011291 0.009516 -0.008127 0.002486 -0.009121
# 4 -0.000097 0.035026 -0.008127 0.048779 -0.007990 -0.004593
# 5 0.000390 -0.005165 0.002486 -0.007990 0.029840 0.014821
# 6 -0.011605 -0.017007 -0.009121 -0.004593 0.014821 0.087916
#
#
# Mechanical properties :
#
#
# Convention : Reuss Voigt Hill
#
# Bulk Modulus (GPa) = 14.29380 69.88062 42.08721
# Shear Modulus (GPa) = 16.07224 37.06378 26.56801
#
# Velocity S-wave (km/s) = 2.90953 4.41834 3.74080
# Velocity P-wave (km/s) = 4.33772 7.92689 6.38950
#
# Compressibility (1/GPa) = 0.06996043
#
# Stress axis : x y z
#
# Youngs Moduli (GPa) = 90.51073 13.32687 105.09059
#
# Poissons Ratio (x) = 0.00550 0.11734
# Poissons Ratio (y) = 0.03734 1.18656
# Poissons Ratio (z) = 0.10106 0.15047
#
# Static dielectric constant tensor:
#      x y z
#    x 1.703570 0.033320 -0.053770 
#    y 0.033320 1.658590 -0.019910 
#    z -0.053770 -0.019910 1.683520 
# 
# From -- ./inp_files/142861.got.cif
#   From: 2010.05.17/outbox.cif.g08.bks.cpg/sg2_72_cif.got.tgz:142861.got - 2010.06.03 11:33:40.
