data_PCOD9081582
_publ_section_title
;
Structure prediction by ZEFSAII (Michael W. Deem and Ramdas Pophale) SiO2 
 PCOD9081582
Probable space group: P -1
;
_chemical_formula_sum "Si O2"
_cell_formula_units_Z 16
_cell_length_a 7.533998
_cell_length_b 15.218984
_cell_length_c 16.820734
_cell_angle_alpha 156.459184
_cell_angle_beta 92.502650
_cell_angle_gamma 101.634233
_cell_volume 612.336237
_symmetry_space_group_name_H-M "P -1"
_symmetry_group_IT_number 2
_symmetry_cell_setting 'triclinic'
loop_
_space_group_symop_operation_xyz
x,y,z
-x,-y,-z
loop_
_atom_site_type_symbol
_atom_site_label
_atom_site_fract_x
_atom_site_fract_y
_atom_site_fract_z
Si Si1 0.559177 0.632692 0.782126
Si Si2 0.957959 0.708851 0.335675
Si Si3 0.636693 0.286029 0.873433
Si Si4 0.004989 0.219126 0.784530
Si Si5 0.656789 0.211877 0.456803
Si Si6 0.740473 0.253597 0.054096
Si Si7 0.940412 0.260208 0.360975
Si Si8 0.787503 0.852950 0.815169
O O1 0.627694 0.449535 0.668399
O O2 0.337514 0.578073 0.766497
O O3 0.593096 0.629766 0.685479
O O4 0.730149 0.956092 0.077333
O O5 0.963158 0.489346 0.204391
O O6 0.070023 0.817591 0.341274
O O7 0.995934 0.960253 0.591827
O O8 0.698320 0.497406 0.122302
O O9 0.824524 0.232817 0.835408
O O10 0.400988 0.991719 0.637538
O O11 0.738573 0.498821 0.977134
O O12 0.860556 0.302479 0.477489
O O13 0.442457 0.986456 0.208925
O O14 0.760895 0.082098 0.977795
O O15 0.000000 0.500000 0.500000
O O16 0.140416 0.237165 0.333966
O O17 0.000000 0.000000 0.000000
#
# Coordination Sequence:
#
# PCOD9081582 Si02
#       8
#     2   2   2   2   2   2   2   2
#     4  10  20  34  53  74 102 133 171 223 264 299
#     4   8  14  25  43  68 102 130 159 197 258 305
#     4   8  14  24  42  71 103 128 159 200 253 306
#     4   8  13  24  44  67 105 136 150 199 266 309
#     4  10  19  32  52  80 106 132 175 217 260 302
#     4  10  20  33  50  80 106 129 175 225 256 300
#     4  10  20  37  54  68  99 144 179 211 255 315
#     4  10  21  38  53  68 102 144 178 211 259 311
#
# _framework density 26.129432999999999
#
# number of rings (size 3 to 8) (size 9 to 14) (size 15 to 20)
#    0.750    2.000    1.250    1.125    0.000    0.500 
#    4.500    0.000    0.000    0.000    0.000    1.750 
#    0.000    0.000    0.000    0.000    0.000    0.000 
#
# Total GULP energy -89186.268658 kJ/mol
# GULP energy per Si atom -5574.141791 kJ/mol
# Density = 2.606996 g / cm^3
# Si number density = 26.129433 Si / 1000 Ang^3
#
#
#
# Elastic Constant Matrix: (Units=GPa)
#
#
# Indices 1 2 3 4 5 6 
#
# 1 97.9104 36.8246 34.9949 18.5452 -22.9971 27.7620
# 2 36.8246 90.8860 26.8616 18.0656 -5.9604 14.7160
# 3 34.9949 26.8616 124.5264 32.4952 -20.6974 19.0546
# 4 18.5452 18.0656 32.4952 57.6399 3.3482 5.9121
# 5 -22.9971 -5.9604 -20.6974 3.3482 46.6755 5.4817
# 6 27.7620 14.7160 19.0546 5.9121 5.4817 41.3263
#
#
#
# Elastic Compliance Matrix: (Units=1/GPa)
#
#
# Indices 1 2 3 4 5 6 
#
# 1 0.018101 -0.004058 0.000351 -0.004150 0.010220 -0.011638
# 2 -0.004058 0.013575 -0.001110 -0.002171 -0.000459 -0.001224
# 3 0.000351 -0.001110 0.011589 -0.006133 0.006213 -0.005131
# 4 -0.004150 -0.002171 -0.006133 0.022820 -0.007157 0.004073
# 5 0.010220 -0.000459 0.006213 -0.007157 0.031159 -0.012676
# 6 -0.011638 -0.001224 -0.005131 0.004073 -0.012676 0.035916
#
#
# Mechanical properties :
#
#
# Convention : Reuss Voigt Hill
#
# Bulk Modulus (GPa) = 29.73485 56.74276 43.23881
# Shear Modulus (GPa) = 32.46646 43.43779 37.95212
#
# Velocity S-wave (km/s) = 3.52877 4.08169 3.81526
# Velocity P-wave (km/s) = 5.29221 6.63150 5.99934
#
# Compressibility (1/GPa) = 0.03363057
#
# Stress axis : x y z
#
# Youngs Moduli (GPa) = 55.24630 73.66566 86.28517
#
# Poissons Ratio (x) = 0.29895 -0.03029
# Poissons Ratio (y) = 0.22420 0.09579
# Poissons Ratio (z) = -0.01940 0.08178
#
# Static dielectric constant tensor:
#      x y z
#    x 3.534030 0.016090 1.730880 
#    y 0.016090 2.138180 0.001530 
#    z 1.730880 0.001530 3.985040 
# 
# From -- ./inp_files/590795.got.cif
#   From: 2010.05.17/outbox.cif.g08.bks.cpg/sg2_296_cif.got.tgz:590795.got - 2010.06.03 11:33:40.
