data_PCOD9081788
_publ_section_title
;
Structure prediction by ZEFSAII (Michael W. Deem and Ramdas Pophale) SiO2 
 PCOD9081788
Probable space group: P -1
;
_chemical_formula_sum "Si O2"
_cell_formula_units_Z 16
_cell_length_a 11.638866
_cell_length_b 12.559732
_cell_length_c 17.077912
_cell_angle_alpha 111.335947
_cell_angle_beta 147.814940
_cell_angle_gamma 47.319054
_cell_volume 825.238981
_symmetry_space_group_name_H-M "P -1"
_symmetry_group_IT_number 2
_symmetry_cell_setting 'triclinic'
loop_
_space_group_symop_operation_xyz
x,y,z
-x,-y,-z
loop_
_atom_site_type_symbol
_atom_site_label
_atom_site_fract_x
_atom_site_fract_y
_atom_site_fract_z
Si Si1 0.544847 0.904514 0.315061
Si Si2 0.587405 0.645361 0.223348
Si Si3 0.786855 0.975649 0.346097
Si Si4 0.669185 0.581126 0.433046
Si Si5 0.947033 0.300353 0.121401
Si Si6 0.807832 0.642946 0.860550
Si Si7 0.312896 0.193012 0.458443
Si Si8 0.358744 0.622444 0.525468
O O1 0.441732 0.830401 0.191500
O O2 0.752909 0.903368 0.379922
O O3 0.754315 0.790507 0.482569
O O4 0.225638 0.098085 0.207150
O O5 0.567725 0.610399 0.292419
O O6 0.955587 0.526534 0.380116
O O7 0.389498 0.633598 0.055821
O O8 0.997039 0.820657 0.362922
O O9 0.426633 0.170707 0.182106
O O10 0.000000 0.000000 0.500000
O O11 0.498383 0.759500 0.422403
O O12 0.637862 0.475829 0.431811
O O13 0.981063 0.379041 0.091729
O O14 0.049480 0.302722 0.266967
O O15 0.585804 0.637961 0.686047
O O16 0.000000 0.500000 0.000000
O O17 0.500000 0.000000 0.500000
O O18 0.500000 0.500000 0.500000
#
# Coordination Sequence:
#
# PCOD9081788 Si02
#       8
#     2   2   2   2   2   2   2   2
#     4   9  17  34  56  81 112 145 189 231 282 354
#     4  10  19  32  55  83 112 145 185 231 280 345
#     4   9  19  36  61  85 111 156 204 236 284 354
#     4  10  20  34  55  80 111 149 193 228 285 346
#     4  10  19  33  55  84 116 145 185 234 294 337
#     4  10  21  38  60  87 119 158 198 243 290 352
#     4   9  19  34  53  80 115 144 182 233 285 346
#     4  11  21  37  62  84 114 155 201 249 289 342
#
# _framework density 19.388323
#
# number of rings (size 3 to 8) (size 9 to 14) (size 15 to 20)
#    0.000    2.250    1.250    1.875    0.000    1.500 
#    0.000    0.625    0.000    0.000    0.000    0.000 
#    0.000    0.000    0.000    0.000    0.000    0.000 
#
# Total GULP energy -89068.065378 kJ/mol
# GULP energy per Si atom -5566.754086 kJ/mol
# Density = 1.934419 g / cm^3
# Si number density = 19.388323 Si / 1000 Ang^3
#
#
#
# Elastic Constant Matrix: (Units=GPa)
#
#
# Indices 1 2 3 4 5 6 
#
# 1 65.5072 26.1402 22.1367 -5.3938 2.6107 22.0793
# 2 26.1402 106.8523 0.7479 -2.9984 -0.5967 -1.0833
# 3 22.1367 0.7479 44.9999 9.0213 -7.7165 3.9611
# 4 -5.3938 -2.9984 9.0213 28.1333 3.4603 4.4556
# 5 2.6107 -0.5967 -7.7165 3.4603 25.9501 0.2742
# 6 22.0793 -1.0833 3.9611 4.4556 0.2742 40.1005
#
#
#
# Elastic Compliance Matrix: (Units=1/GPa)
#
#
# Indices 1 2 3 4 5 6 
#
# 1 0.032756 -0.007674 -0.019522 0.015954 -0.011214 -0.018010
# 2 -0.007674 0.011192 0.004171 -0.002628 0.002574 0.004390
# 3 -0.019522 0.004171 0.037356 -0.018637 0.015557 0.009136
# 4 0.015954 -0.002628 -0.018637 0.047895 -0.013465 -0.012244
# 5 -0.011214 0.002574 0.015557 -0.013465 0.046082 0.005888
# 6 -0.018010 0.004390 0.009136 -0.012244 0.005888 0.035390
#
#
# Mechanical properties :
#
#
# Convention : Reuss Voigt Hill
#
# Bulk Modulus (GPa) = 28.36602 35.04545 31.70573
# Shear Modulus (GPa) = 18.62390 30.05909 24.34150
#
# Velocity S-wave (km/s) = 3.10267 3.94175 3.54711
# Velocity P-wave (km/s) = 5.24382 6.23147 5.75886
#
# Compressibility (1/GPa) = 0.03525345
#
# Stress axis : x y z
#
# Youngs Moduli (GPa) = 30.52907 89.34900 26.76946
#
# Poissons Ratio (x) = 0.68568 0.52259
# Poissons Ratio (y) = 0.23429 -0.11165
# Poissons Ratio (z) = 0.59598 -0.37266
#
# Static dielectric constant tensor:
#      x y z
#    x 1.675350 -0.034840 0.020800 
#    y -0.034840 1.777030 -0.038800 
#    z 0.020800 -0.038800 1.706870 
# 
# From -- ./inp_files/333569.got.cif
#   From: 2010.05.17/outbox.cif.g08.bks.cpg/sg2_167_cif.got.tgz:333569.got - 2010.06.03 11:33:40.
