data_PCOD9081193
_publ_section_title
;
Structure prediction by ZEFSAII (Michael W. Deem and Ramdas Pophale) SiO2 
 PCOD9081193
Probable space group: P -1
;
_chemical_formula_sum "Si O2"
_cell_formula_units_Z 16
_cell_length_a 16.027364
_cell_length_b 14.255851
_cell_length_c 16.078886
_cell_angle_alpha 48.158431
_cell_angle_beta 154.093695
_cell_angle_gamma 150.714553
_cell_volume 655.887799
_symmetry_space_group_name_H-M "P -1"
_symmetry_group_IT_number 2
_symmetry_cell_setting 'triclinic'
loop_
_space_group_symop_operation_xyz
x,y,z
-x,-y,-z
loop_
_atom_site_type_symbol
_atom_site_label
_atom_site_fract_x
_atom_site_fract_y
_atom_site_fract_z
Si Si1 0.112663 0.015027 0.002761
Si Si2 0.473539 0.003174 0.574051
Si Si3 0.195315 0.303974 0.538114
Si Si4 0.678170 0.838589 0.569241
Si Si5 0.551170 0.693571 0.093915
Si Si6 0.254999 0.743944 0.918251
Si Si7 0.470403 0.249673 0.696807
Si Si8 0.200231 0.495661 0.726860
O O1 0.304197 0.986942 0.194737
O O2 0.411452 0.282553 0.089689
O O3 0.000000 0.000000 0.000000
O O4 0.802410 0.833138 0.766073
O O5 0.065364 0.762657 0.373556
O O6 0.500000 0.000000 0.500000
O O7 0.551947 0.176048 0.587860
O O8 0.418630 0.413271 0.758152
O O9 0.386843 0.334074 0.618655
O O10 0.068373 0.369101 0.352849
O O11 0.857694 0.028462 0.419700
O O12 0.500819 0.705694 0.401376
O O13 0.073768 0.081845 0.744785
O O14 0.456731 0.757458 0.031645
O O15 0.257018 0.532945 0.854673
O O16 0.236523 0.660925 0.039084
O O17 0.500000 0.000000 0.000000
O O18 0.000000 0.500000 0.500000
#
# Coordination Sequence:
#
# PCOD9081193 Si02
#       8
#     2   2   2   2   2   2   2   2
#     4  10  20  37  54  76 109 146 182 235 275 319
#     4  11  22  38  56  77 108 150 192 232 275 326
#     4   8  14  25  43  67 107 139 167 216 270 327
#     4  10  19  31  51  74 109 143 185 225 272 326
#     4   9  18  30  45  75 108 142 177 220 272 326
#     4   9  15  25  45  70 110 141 168 217 273 329
#     4   8  15  25  40  72 102 138 172 214 270 323
#     4   9  21  36  55  80 111 149 188 229 277 327
#
# _framework density 24.394417000000001
#
# number of rings (size 3 to 8) (size 9 to 14) (size 15 to 20)
#    0.000    2.750    1.250    2.250    0.000   12.000 
#    0.000    1.250    0.000    0.000    0.000    3.500 
#    0.000    9.000    0.000    1.000    0.000    0.000 
#
# Total GULP energy -89268.668517 kJ/mol
# GULP energy per Si atom -5579.291782 kJ/mol
# Density = 2.433889 g / cm^3
# Si number density = 24.394417 Si / 1000 Ang^3
#
#
#
# Elastic Constant Matrix: (Units=GPa)
#
#
# Indices 1 2 3 4 5 6 
#
# 1 124.4027 24.4640 74.5556 -19.9978 -24.3274 8.0069
# 2 24.4640 53.2251 31.5205 -10.0886 6.2508 9.6781
# 3 74.5556 31.5205 207.8087 -30.8321 -15.5611 0.1763
# 4 -19.9978 -10.0886 -30.8321 46.2873 0.7349 1.5243
# 5 -24.3274 6.2508 -15.5611 0.7349 42.1006 -7.9447
# 6 8.0069 9.6781 0.1763 1.5243 -7.9447 24.9250
#
#
#
# Elastic Compliance Matrix: (Units=1/GPa)
#
#
# Indices 1 2 3 4 5 6 
#
# 1 0.012299 -0.004161 -0.002943 0.002355 0.006524 -0.000379
# 2 -0.004161 0.026174 -0.002805 0.002588 -0.009645 -0.012039
# 3 -0.002943 -0.002805 0.006790 0.002536 0.001624 0.002349
# 4 0.002355 0.002588 0.002536 0.024960 0.000909 -0.003016
# 5 0.006524 -0.009645 0.001624 0.000909 0.031747 0.011701
# 6 -0.000379 -0.012039 0.002349 -0.003016 0.011701 0.048814
#
#
# Mechanical properties :
#
#
# Convention : Reuss Voigt Hill
#
# Bulk Modulus (GPa) = 39.30169 71.83518 55.56843
# Shear Modulus (GPa) = 27.91958 39.65567 33.78763
#
# Velocity S-wave (km/s) = 3.38673 4.03625 3.72567
# Velocity P-wave (km/s) = 5.60706 7.15773 6.42932
#
# Compressibility (1/GPa) = 0.02544420
#
# Stress axis : x y z
#
# Youngs Moduli (GPa) = 81.30429 38.20530 147.28620
#
# Poissons Ratio (x) = 0.15898 0.43349
# Poissons Ratio (y) = 0.33832 0.41317
# Poissons Ratio (z) = 0.23929 0.10718
#
# Static dielectric constant tensor:
#      x y z
#    x 1.887730 0.029290 -0.043290 
#    y 0.029290 2.084980 0.081270 
#    z -0.043290 0.081270 2.014370 
# 
# From -- ./inp_files/533279.got.cif
#   From: 2010.05.17/outbox.cif.g08.bks.cpg/sg2_267_cif.got.tgz:533279.got - 2010.06.03 11:33:40.
