data_PCOD9081454
_publ_section_title
;
Structure prediction by ZEFSAII (Michael W. Deem and Ramdas Pophale) SiO2 
 PCOD9081454
Probable space group: P -1
;
_chemical_formula_sum "Si O2"
_cell_formula_units_Z 16
_cell_length_a 14.906378
_cell_length_b 15.416726
_cell_length_c 20.037690
_cell_angle_alpha 143.858904
_cell_angle_beta 166.035098
_cell_angle_gamma 32.360595
_cell_volume 592.158707
_symmetry_space_group_name_H-M "P -1"
_symmetry_group_IT_number 2
_symmetry_cell_setting 'triclinic'
loop_
_space_group_symop_operation_xyz
x,y,z
-x,-y,-z
loop_
_atom_site_type_symbol
_atom_site_label
_atom_site_fract_x
_atom_site_fract_y
_atom_site_fract_z
Si Si1 0.093122 0.898360 0.194009
Si Si2 0.969109 0.632547 0.777374
Si Si3 0.677505 0.037289 0.231851
Si Si4 0.341314 0.020059 0.213167
Si Si5 0.405681 0.540371 0.173260
Si Si6 0.638967 0.740572 0.972975
Si Si7 0.636661 0.674740 0.195594
Si Si8 0.862885 0.238049 0.248776
O O1 0.771206 0.902284 0.020320
O O2 0.835805 0.941273 0.965451
O O3 0.418147 0.712401 0.302571
O O4 0.210696 0.052001 0.382325
O O5 0.078280 0.581544 0.900967
O O6 0.964356 0.482058 0.638874
O O7 0.620372 0.816948 0.635819
O O8 0.369993 0.643348 0.041090
O O9 0.631013 0.184355 0.240827
O O10 0.000000 0.000000 0.500000
O O11 0.845301 0.868729 0.204757
O O12 0.692484 0.836964 0.352559
O O13 0.000000 0.000000 0.000000
O O14 0.234404 0.452775 0.050673
O O15 0.833794 0.403509 0.365235
O O16 0.461713 0.779521 0.945117
O O17 0.331952 0.718388 0.938011
#
# Coordination Sequence:
#
# PCOD9081454 Si02
#       8
#     2   2   2   2   2   2   2   2
#     4   9  15  25  43  63  87 120 145 180 228 262
#     4   8  12  17  30  54  83 110 134 175 211 252
#     4  10  19  32  49  66  88 121 154 184 227 272
#     4   8  13  20  32  55  86 110 138 177 213 258
#     4   8  14  25  41  62  88 113 144 186 223 261
#     4   8  17  32  46  64  92 114 144 200 221 259
#     4   8  11  17  30  51  83 113 135 168 213 253
#     4   7  13  24  38  59  88 116 141 180 217 256
#
# _framework density 27.019783
#
# number of rings (size 3 to 8) (size 9 to 14) (size 15 to 20)
#    0.750    3.000    0.000    0.000    0.000    0.500 
#    0.000    0.625    0.000    0.000    0.000    0.000 
#    0.000   72.000    0.000    0.000    0.000    2.125 
#
# Total GULP energy -89122.603139 kJ/mol
# GULP energy per Si atom -5570.162696 kJ/mol
# Density = 2.695828 g / cm^3
# Si number density = 27.019783 Si / 1000 Ang^3
#
#
#
# Elastic Constant Matrix: (Units=GPa)
#
#
# Indices 1 2 3 4 5 6 
#
# 1 122.2080 20.7173 23.9644 -2.7810 -13.1917 23.4739
# 2 20.7173 293.5965 47.5135 -21.2907 -19.0561 -18.4744
# 3 23.9644 47.5135 74.1852 -11.8592 -14.5880 -1.8065
# 4 -2.7810 -21.2907 -11.8592 45.8261 -1.0640 -27.4418
# 5 -13.1917 -19.0561 -14.5880 -1.0640 42.4566 -12.7013
# 6 23.4739 -18.4744 -1.8065 -27.4418 -12.7013 43.2030
#
#
#
# Elastic Compliance Matrix: (Units=1/GPa)
#
#
# Indices 1 2 3 4 5 6 
#
# 1 0.012030 -0.002068 -0.005632 -0.011494 -0.004263 -0.016210
# 2 -0.002068 0.005116 -0.000077 0.008354 0.004839 0.010037
# 3 -0.005632 -0.000077 0.020185 0.014918 0.010435 0.016414
# 4 -0.011494 0.008354 0.014918 0.064542 0.024461 0.058628
# 5 -0.004263 0.004839 0.010435 0.024461 0.038035 0.031541
# 6 -0.016210 0.010037 0.016414 0.058628 0.031541 0.083445
#
#
# Mechanical properties :
#
#
# Convention : Reuss Voigt Hill
#
# Bulk Modulus (GPa) = 45.92047 74.93111 60.42579
# Shear Modulus (GPa) = 20.31160 52.81677 36.56419
#
# Velocity S-wave (km/s) = 2.74475 4.42605 3.68263
# Velocity P-wave (km/s) = 5.20354 7.34248 6.36352
#
# Compressibility (1/GPa) = 0.02177678
#
# Stress axis : x y z
#
# Youngs Moduli (GPa) = 83.12846 195.46946 49.54162
#
# Poissons Ratio (x) = 0.40414 0.27902
# Poissons Ratio (y) = 0.17187 0.00383
# Poissons Ratio (z) = 0.46819 0.01509
#
# Static dielectric constant tensor:
#      x y z
#    x 2.097770 -0.065740 -0.061930 
#    y -0.065740 2.349830 -0.020580 
#    z -0.061930 -0.020580 2.186710 
# 
# From -- ./inp_files/600415.got.cif
#   From: 2010.05.17/outbox.cif.g08.bks.cpg/sg2_301_cif.got.tgz:600415.got - 2010.06.03 11:33:40.
