data_PCOD9081001
_publ_section_title
;
Structure prediction by ZEFSAII (Michael W. Deem and Ramdas Pophale) SiO2 
 PCOD9081001
Probable space group: P -1
;
_chemical_formula_sum "Si O2"
_cell_formula_units_Z 12
_cell_length_a 9.689440
_cell_length_b 8.956296
_cell_length_c 5.721013
_cell_angle_alpha 96.759396
_cell_angle_beta 108.046433
_cell_angle_gamma 89.864480
_cell_volume 468.467268
_symmetry_space_group_name_H-M "P -1"
_symmetry_group_IT_number 2
_symmetry_cell_setting 'triclinic'
loop_
_space_group_symop_operation_xyz
x,y,z
-x,-y,-z
loop_
_atom_site_type_symbol
_atom_site_label
_atom_site_fract_x
_atom_site_fract_y
_atom_site_fract_z
Si Si1 0.125142 0.794881 0.908261
Si Si2 0.266298 0.544273 0.681094
Si Si3 0.382876 0.031787 0.642155
Si Si4 0.806742 0.886838 0.820506
Si Si5 0.524942 0.760896 0.893208
Si Si6 0.826726 0.482345 0.881016
O O1 0.159384 0.686402 0.689078
O O2 0.954329 0.800584 0.873643
O O3 0.205744 0.698864 0.133485
O O4 0.173587 0.969093 0.973018
O O5 0.431721 0.608670 0.781826
O O6 0.227094 0.476665 0.396726
O O7 0.237646 0.456036 0.895285
O O8 0.229291 0.046539 0.440253
O O9 0.500000 0.000000 0.500000
O O10 0.410543 0.891465 0.797636
O O11 0.425603 0.190227 0.813900
O O12 0.665921 0.791563 0.813760
O O13 0.000000 0.500000 0.000000
#
# Coordination Sequence:
#
# PCOD9081001 Si02
#       6
#     2   2   2   2   2   2
#     4   9  21  33  56  84 114 156 182 225 283 336
#     4  10  21  36  62  86 106 146 191 233 283 325
#     4   9  17  27  47  71 115 149 178 218 265 328
#     4  10  19  34  50  85 122 147 180 223 281 346
#     4  10  19  30  51  81 111 148 184 230 273 335
#     4  10  22  40  62  84 107 144 196 242 273 324
#
# _framework density 25.615449000000002
#
# number of rings (size 3 to 8) (size 9 to 14) (size 15 to 20)
#    1.000    1.333    0.000    4.500    4.667    1.333 
#    0.000    4.167    0.000    2.000    0.000    0.000 
#    0.000    0.000    0.000    0.000    0.000    0.000 
#
# Total GULP energy -66996.877106 kJ/mol
# GULP energy per Si atom -5583.073092 kJ/mol
# Density = 2.555715 g / cm^3
# Si number density = 25.615449 Si / 1000 Ang^3
#
#
#
# Elastic Constant Matrix: (Units=GPa)
#
#
# Indices 1 2 3 4 5 6 
#
# 1 138.2188 28.0741 42.8117 10.7321 -7.7274 5.0875
# 2 28.0741 78.1621 30.6925 7.4837 -4.8705 -12.2884
# 3 42.8117 30.6925 161.6153 2.4255 -19.1250 0.2329
# 4 10.7321 7.4837 2.4255 33.0973 -4.8597 3.1775
# 5 -7.7274 -4.8705 -19.1250 -4.8597 29.8837 3.2106
# 6 5.0875 -12.2884 0.2329 3.1775 3.2106 48.4075
#
#
#
# Elastic Compliance Matrix: (Units=1/GPa)
#
#
# Indices 1 2 3 4 5 6 
#
# 1 0.008472 -0.002384 -0.001695 -0.001866 0.000565 -0.001402
# 2 -0.002384 0.015529 -0.002344 -0.003076 -0.000564 0.004443
# 3 -0.001695 -0.002344 0.007575 0.001237 0.004317 -0.000821
# 4 -0.001866 -0.003076 0.001237 0.032517 0.005427 -0.003085
# 5 0.000565 -0.000564 0.004317 0.005427 0.037492 -0.003066
# 6 -0.001402 0.004443 -0.000821 -0.003085 -0.003066 0.022343
#
#
# Mechanical properties :
#
#
# Convention : Reuss Voigt Hill
#
# Bulk Modulus (GPa) = 53.39137 64.57253 58.98195
# Shear Modulus (GPa) = 34.96068 40.70558 37.83313
#
# Velocity S-wave (km/s) = 3.69837 3.99068 3.84730
# Velocity P-wave (km/s) = 6.25507 6.81888 6.54305
#
# Compressibility (1/GPa) = 0.01872962
#
# Stress axis : x y z
#
# Youngs Moduli (GPa) = 118.03371 64.39658 132.01056
#
# Poissons Ratio (x) = 0.15353 0.22371
# Poissons Ratio (y) = 0.28141 0.30949
# Poissons Ratio (z) = 0.20002 0.15097
#
# Static dielectric constant tensor:
#      x y z
#    x 1.999380 0.027250 0.001990 
#    y 0.027250 2.151610 -0.067130 
#    z 0.001990 -0.067130 1.990420 
# 
# From -- ./inp_files/41760.got.cif
#   From: 2010.05.17/outbox.cif.g08.bks.cpg/sg2_21_cif.got.tgz:41760.got - 2010.06.03 11:33:40.
