data_PCOD9081605
_publ_section_title
;
Structure prediction by ZEFSAII (Michael W. Deem and Ramdas Pophale) SiO2 
 PCOD9081605
Probable space group: P -1
;
_chemical_formula_sum "Si O2"
_cell_formula_units_Z 16
_cell_length_a 9.397655
_cell_length_b 20.683854
_cell_length_c 8.991911
_cell_angle_alpha 140.357483
_cell_angle_beta 130.972784
_cell_angle_gamma 71.510540
_cell_volume 775.325826
_symmetry_space_group_name_H-M "P -1"
_symmetry_group_IT_number 2
_symmetry_cell_setting 'triclinic'
loop_
_space_group_symop_operation_xyz
x,y,z
-x,-y,-z
loop_
_atom_site_type_symbol
_atom_site_label
_atom_site_fract_x
_atom_site_fract_y
_atom_site_fract_z
Si Si1 0.433610 0.875493 0.782738
Si Si2 0.992855 0.507693 0.330580
Si Si3 0.611850 0.721812 0.462397
Si Si4 0.559449 0.606873 0.527767
Si Si5 0.036140 0.295443 0.491243
Si Si6 0.987443 0.697758 0.161302
Si Si7 0.461052 0.627959 0.887752
Si Si8 0.579450 0.233965 0.123397
O O1 0.546077 0.814888 0.650804
O O2 0.186684 0.811027 0.482403
O O3 0.492093 0.861365 0.970195
O O4 0.500000 0.000000 0.000000
O O5 0.892815 0.586338 0.332588
O O6 0.231376 0.572481 0.573009
O O7 0.000000 0.500000 0.500000
O O8 0.928907 0.393050 0.000066
O O9 0.598779 0.638524 0.439218
O O10 0.832708 0.762421 0.604454
O O11 0.464053 0.656620 0.112761
O O12 0.476178 0.476676 0.269209
O O13 0.407466 0.661474 0.580160
O O14 0.780850 0.669535 0.872310
O O15 0.069479 0.310569 0.718000
O O16 0.791339 0.235133 0.205929
O O17 0.547369 0.743273 0.060096
#
# Coordination Sequence:
#
# PCOD9081605 Si02
#       8
#     2   2   2   2   2   2   2   2
#     4  10  23  44  62  78 104 146 197 246 286 326
#     4  10  19  32  52  84 120 155 184 217 271 339
#     4  11  22  35  56  84 116 152 189 229 275 333
#     4  10  20  35  56  87 121 154 183 216 271 343
#     4  10  20  33  53  85 119 148 180 226 282 341
#     4  10  20  36  58  83 114 151 188 229 276 333
#     4  10  19  32  54  86 121 150 179 222 273 335
#     4   9  20  37  57  83 116 152 188 225 274 336
#
# _framework density 20.636486000000001
#
# number of rings (size 3 to 8) (size 9 to 14) (size 15 to 20)
#    0.000    2.000    0.000    4.125    0.000    7.000 
#    0.000    5.625    0.000    0.000    0.000    0.000 
#    0.000    0.000    0.000    0.000    0.000    0.000 
#
# Total GULP energy -89145.772197 kJ/mol
# GULP energy per Si atom -5571.610762 kJ/mol
# Density = 2.058952 g / cm^3
# Si number density = 20.636486 Si / 1000 Ang^3
#
#
#
# Elastic Constant Matrix: (Units=GPa)
#
#
# Indices 1 2 3 4 5 6 
#
# 1 139.0209 48.6729 32.1736 9.2152 -6.1055 13.6872
# 2 48.6729 156.4999 55.5412 1.1376 -4.8248 27.7746
# 3 32.1736 55.5412 56.7880 2.2407 5.2556 9.8239
# 4 9.2152 1.1376 2.2407 36.3232 6.2095 -5.3461
# 5 -6.1055 -4.8248 5.2556 6.2095 22.0074 -12.0134
# 6 13.6872 27.7746 9.8239 -5.3461 -12.0134 39.4566
#
#
#
# Elastic Compliance Matrix: (Units=1/GPa)
#
#
# Indices 1 2 3 4 5 6 
#
# 1 0.008922 -0.001073 -0.004146 -0.002685 0.003689 -0.000548
# 2 -0.001073 0.010949 -0.009519 -0.000492 0.002120 -0.004386
# 3 -0.004146 -0.009519 0.030976 0.001134 -0.012758 -0.003304
# 4 -0.002685 -0.000492 0.001134 0.029931 -0.008169 0.002563
# 5 0.003689 0.002120 -0.012758 -0.008169 0.062240 0.018248
# 6 -0.000548 -0.004386 -0.003304 0.002563 0.018248 0.035348
#
#
# Mechanical properties :
#
#
# Convention : Reuss Voigt Hill
#
# Bulk Modulus (GPa) = 46.79165 69.45379 58.12272
# Shear Modulus (GPa) = 23.25943 33.95220 28.60582
#
# Velocity S-wave (km/s) = 3.36088 4.06057 3.72718
# Velocity P-wave (km/s) = 6.14688 7.46413 6.83730
#
# Compressibility (1/GPa) = 0.02137134
#
# Stress axis : x y z
#
# Youngs Moduli (GPa) = 112.07809 91.33229 32.28320
#
# Poissons Ratio (x) = 0.09799 0.13385
# Poissons Ratio (y) = 0.12025 0.30730
# Poissons Ratio (z) = 0.46470 0.86938
#
# Static dielectric constant tensor:
#      x y z
#    x 1.823160 0.002270 0.050600 
#    y 0.002270 1.829440 -0.031030 
#    z 0.050600 -0.031030 1.727170 
# 
# From -- ./inp_files/224285.got.cif
#   From: 2010.05.17/outbox.cif.g08.bks.cpg/sg2_113_cif.got.tgz:224285.got - 2010.06.03 11:33:40.
