data_PCOD9081707
_publ_section_title
;
Structure prediction by ZEFSAII (Michael W. Deem and Ramdas Pophale) SiO2 
 PCOD9081707
Probable space group: P -1
;
_chemical_formula_sum "Si O2"
_cell_formula_units_Z 16
_cell_length_a 26.429347
_cell_length_b 21.116070
_cell_length_c 14.838435
_cell_angle_alpha 159.086675
_cell_angle_beta 19.769778
_cell_angle_gamma 160.955061
_cell_volume 836.149010
_symmetry_space_group_name_H-M "P -1"
_symmetry_group_IT_number 2
_symmetry_cell_setting 'triclinic'
loop_
_space_group_symop_operation_xyz
x,y,z
-x,-y,-z
loop_
_atom_site_type_symbol
_atom_site_label
_atom_site_fract_x
_atom_site_fract_y
_atom_site_fract_z
Si Si1 0.802628 0.997294 0.585883
Si Si2 0.604403 0.078839 0.292183
Si Si3 0.010479 0.221622 0.785430
Si Si4 0.404047 0.820459 0.749747
Si Si5 0.339001 0.365307 0.520744
Si Si6 0.823873 0.652391 0.517670
Si Si7 0.487498 0.694557 0.111452
Si Si8 0.606116 0.662696 0.316758
O O1 0.749387 0.867663 0.597473
O O2 0.742022 0.829645 0.383925
O O3 0.011762 0.175034 0.468865
O O4 0.691404 0.106720 0.925035
O O5 0.525996 0.032290 0.260235
O O6 0.568169 0.239229 0.617372
O O7 0.517626 0.866239 0.214562
O O8 0.815407 0.171547 0.061670
O O9 0.158816 0.362357 0.800468
O O10 0.089319 0.330769 0.702881
O O11 0.000000 0.000000 0.500000
O O12 0.265880 0.591596 0.631611
O O13 0.535332 0.782496 0.536552
O O14 0.500000 0.500000 0.500000
O O15 0.445217 0.464055 0.380237
O O16 0.669865 0.701305 0.832758
O O17 0.346192 0.460266 0.997382
#
# Coordination Sequence:
#
# PCOD9081707 Si02
#       8
#     2   2   2   2   2   2   2   2
#     4  11  20  33  55  85 111 148 186 230 276 322
#     4  11  22  34  63  85 111 141 192 234 269 328
#     4  12  17  34  59  86 107 138 189 236 269 314
#     4  11  21  34  54  86 114 144 185 233 280 321
#     4  10  19  32  54  80 111 144 179 222 279 321
#     4  11  21  33  59  83 113 142 187 235 273 324
#     4  10  21  40  57  84 108 150 186 228 277 330
#     4  10  21  35  54  78 120 149 180 223 284 337
#
# _framework density 19.135345999999998
#
# number of rings (size 3 to 8) (size 9 to 14) (size 15 to 20)
#    0.000    1.250    6.250    1.500    0.000    2.000 
#    0.000    0.000    0.000   19.500    0.000    0.000 
#    0.000    0.000    0.000    0.000    0.000    0.000 
#
# Total GULP energy -89094.153094 kJ/mol
# GULP energy per Si atom -5568.384568 kJ/mol
# Density = 1.909179 g / cm^3
# Si number density = 19.135346 Si / 1000 Ang^3
#
#
#
# Elastic Constant Matrix: (Units=GPa)
#
#
# Indices 1 2 3 4 5 6 
#
# 1 81.0554 2.6852 20.9043 -3.8636 4.4293 18.2751
# 2 2.6852 27.9778 -2.4279 0.5341 5.5417 16.7230
# 3 20.9043 -2.4279 90.9292 3.0377 13.3630 11.8413
# 4 -3.8636 0.5341 3.0377 20.6409 1.2294 5.2954
# 5 4.4293 5.5417 13.3630 1.2294 22.0823 7.7692
# 6 18.2751 16.7230 11.8413 5.2954 7.7692 36.5216
#
#
#
# Elastic Compliance Matrix: (Units=1/GPa)
#
#
# Indices 1 2 3 4 5 6 
#
# 1 0.015203 0.003782 -0.002418 0.005501 0.000485 -0.009456
# 2 0.003782 0.053582 0.005088 0.006041 -0.008036 -0.027243
# 3 -0.002418 0.005088 0.013307 -0.001154 -0.007487 -0.003674
# 4 0.005501 0.006041 -0.001154 0.052775 -0.000386 -0.012714
# 5 0.000485 -0.008036 -0.007487 -0.000386 0.053692 -0.005502
# 6 -0.009456 -0.027243 -0.003674 -0.012714 -0.005502 0.048793
#
#
# Mechanical properties :
#
#
# Convention : Reuss Voigt Hill
#
# Bulk Modulus (GPa) = 10.52672 26.92063 18.72368
# Shear Modulus (GPa) = 19.52265 27.76901 23.64583
#
# Velocity S-wave (km/s) = 3.19759 3.81358 3.51909
# Velocity P-wave (km/s) = 4.37560 5.78708 5.13011
#
# Compressibility (1/GPa) = 0.09499634
#
# Stress axis : x y z
#
# Youngs Moduli (GPa) = 65.77545 18.66312 75.15036
#
# Poissons Ratio (x) = -0.07059 0.18170
# Poissons Ratio (y) = -0.24877 -0.38237
# Poissons Ratio (z) = 0.15903 -0.09496
#
# Static dielectric constant tensor:
#      x y z
#    x 1.712510 -0.006890 -0.003280 
#    y -0.006890 1.720080 0.033580 
#    z -0.003280 0.033580 1.665430 
# 
# From -- ./inp_files/513673.got.cif
#   From: 2010.05.17/outbox.cif.g08.bks.cpg/sg2_257_cif.got.tgz:513673.got - 2010.06.03 11:33:40.
