data_PCOD9081781
_publ_section_title
;
Structure prediction by ZEFSAII (Michael W. Deem and Ramdas Pophale) SiO2 
 PCOD9081781
Probable space group: P -1
;
_chemical_formula_sum "Si O2"
_cell_formula_units_Z 16
_cell_length_a 10.303264
_cell_length_b 12.700950
_cell_length_c 8.975057
_cell_angle_alpha 85.890656
_cell_angle_beta 123.401255
_cell_angle_gamma 132.272567
_cell_volume 635.111551
_symmetry_space_group_name_H-M "P -1"
_symmetry_group_IT_number 2
_symmetry_cell_setting 'triclinic'
loop_
_space_group_symop_operation_xyz
x,y,z
-x,-y,-z
loop_
_atom_site_type_symbol
_atom_site_label
_atom_site_fract_x
_atom_site_fract_y
_atom_site_fract_z
Si Si1 0.753825 0.852258 0.939048
Si Si2 0.276409 0.671479 0.485629
Si Si3 0.699355 0.159145 0.291063
Si Si4 0.649327 0.922381 0.149107
Si Si5 0.899508 0.551728 0.841868
Si Si6 0.258079 0.847254 0.234932
Si Si7 0.509613 0.626909 0.193054
Si Si8 0.828401 0.680949 0.169288
O O1 0.519810 0.757548 0.705576
O O2 0.781136 0.940806 0.091057
O O3 0.725033 0.719392 0.993457
O O4 0.000000 0.000000 0.000000
O O5 0.152302 0.682041 0.531363
O O6 0.123964 0.497798 0.337058
O O7 0.331995 0.775684 0.367581
O O8 0.778735 0.084271 0.298158
O O9 0.477984 0.018672 0.279579
O O10 0.590515 0.156163 0.074094
O O11 0.588670 0.789396 0.221717
O O12 0.637562 0.456733 0.738903
O O13 0.000000 0.500000 0.000000
O O14 0.079203 0.732961 0.996327
O O15 0.103313 0.822176 0.271876
O O16 0.727363 0.665616 0.267753
O O17 0.298699 0.491753 0.951208
#
# Coordination Sequence:
#
# PCOD9081781 Si02
#       8
#     2   2   2   2   2   2   2   2
#     4  10  20  36  57  84 114 147 184 228 284 335
#     4  10  20  34  56  84 113 144 185 231 277 333
#     4  10  19  32  55  82 109 142 186 231 278 326
#     4   9  18  32  53  78 108 144 181 229 278 324
#     4   9  18  33  56  81 109 147 184 226 275 328
#     4  10  19  34  57  83 111 146 186 229 277 331
#     4   9  17  32  53  77 107 147 188 223 274 331
#     4   9  18  33  56  78 108 149 186 224 275 334
#
# _framework density 25.192423999999999
#
# number of rings (size 3 to 8) (size 9 to 14) (size 15 to 20)
#    0.000    2.500    0.000    3.375    0.000    0.000 
#    0.000    3.750    0.000  131.250    0.000    0.000 
#    0.000    0.000    0.000    0.000    0.000    0.000 
#
# Total GULP energy -89300.811261 kJ/mol
# GULP energy per Si atom -5581.300704 kJ/mol
# Density = 2.513509 g / cm^3
# Si number density = 25.192424 Si / 1000 Ang^3
#
#
#
# Elastic Constant Matrix: (Units=GPa)
#
#
# Indices 1 2 3 4 5 6 
#
# 1 124.1404 23.9164 41.1818 7.2097 -28.8092 11.6567
# 2 23.9164 42.4295 16.8810 7.2952 -4.2595 3.6457
# 3 41.1818 16.8810 109.1405 24.9619 -23.6999 -1.9758
# 4 7.2097 7.2952 24.9619 27.8262 -15.2021 -8.4279
# 5 -28.8092 -4.2595 -23.6999 -15.2021 41.3542 2.5280
# 6 11.6567 3.6457 -1.9758 -8.4279 2.5280 47.1943
#
#
#
# Elastic Compliance Matrix: (Units=1/GPa)
#
#
# Indices 1 2 3 4 5 6 
#
# 1 0.011835 -0.005278 -0.003060 0.004642 0.007791 -0.002232
# 2 -0.005278 0.028234 -0.001625 -0.007586 -0.004363 -0.002066
# 3 -0.003060 -0.001625 0.013165 -0.009804 0.001667 -0.000408
# 4 0.004642 -0.007586 -0.009804 0.057619 0.017503 0.008381
# 5 0.007791 -0.004363 0.001667 0.017503 0.036570 -0.000351
# 6 -0.002232 -0.002066 -0.000408 0.008381 -0.000351 0.023398
#
#
# Mechanical properties :
#
#
# Convention : Reuss Voigt Hill
#
# Bulk Modulus (GPa) = 30.02245 48.85209 39.43727
# Shear Modulus (GPa) = 24.77069 36.19036 30.48052
#
# Velocity S-wave (km/s) = 3.13910 3.79431 3.48215
# Velocity P-wave (km/s) = 5.00816 6.21525 5.64407
#
# Compressibility (1/GPa) = 0.03330841
#
# Stress axis : x y z
#
# Youngs Moduli (GPa) = 84.49305 35.41804 75.95705
#
# Poissons Ratio (x) = 0.18694 0.23241
# Poissons Ratio (y) = 0.44597 0.12344
# Poissons Ratio (z) = 0.25853 0.05756
#
# Static dielectric constant tensor:
#      x y z
#    x 2.068140 -0.013820 -0.006950 
#    y -0.013820 2.074920 0.033870 
#    z -0.006950 0.033870 2.049400 
# 
# From -- ./inp_files/270361.got.cif
#   From: 2010.05.17/outbox.cif.g08.bks.cpg/sg2_136_cif.got.tgz:270361.got - 2010.06.03 11:33:40.
