data_PCOD9081557
_publ_section_title
;
Structure prediction by ZEFSAII (Michael W. Deem and Ramdas Pophale) SiO2 
 PCOD9081557
Probable space group: P -1
;
_chemical_formula_sum "Si O2"
_cell_formula_units_Z 12
_cell_length_a 11.683170
_cell_length_b 5.151909
_cell_length_c 12.860878
_cell_angle_alpha 109.695484
_cell_angle_beta 116.942746
_cell_angle_gamma 62.794176
_cell_volume 605.449199
_symmetry_space_group_name_H-M "P -1"
_symmetry_group_IT_number 2
_symmetry_cell_setting 'triclinic'
loop_
_space_group_symop_operation_xyz
x,y,z
-x,-y,-z
loop_
_atom_site_type_symbol
_atom_site_label
_atom_site_fract_x
_atom_site_fract_y
_atom_site_fract_z
Si Si1 0.778429 0.996400 0.235131
Si Si2 0.923689 0.090092 0.725864
Si Si3 0.503539 0.677446 0.922143
Si Si4 0.902489 0.835504 0.480107
Si Si5 0.210302 0.408778 0.006324
Si Si6 0.907559 0.740062 0.871855
O O1 0.633496 0.262557 0.194153
O O2 0.801017 0.877051 0.346258
O O3 0.776027 0.741048 0.120963
O O4 0.912911 0.059544 0.257579
O O5 0.900682 0.433265 0.780100
O O6 0.844827 0.005865 0.586534
O O7 0.887663 0.958339 0.797830
O O8 0.500000 0.500000 0.000000
O O9 0.651944 0.526870 0.908561
O O10 0.500000 0.000000 0.000000
O O11 0.000000 0.500000 0.500000
O O12 0.000000 0.000000 0.500000
O O13 0.061377 0.666095 0.971311
O O14 0.192578 0.194736 0.060975
#
# Coordination Sequence:
#
# PCOD9081557 Si02
#       6
#     2   2   2   2   2   2
#     4   9  19  33  53  77 103 129 166 213 254 296
#     4  10  19  33  50  74  99 129 166 202 252 292
#     4  10  20  33  50  73 104 134 164 204 250 301
#     4  10  19  32  52  75 101 129 165 212 252 291
#     4   9  19  33  50  75 101 131 166 200 253 297
#     4  10  20  32  51  72 102 133 163 205 241 302
#
# _framework density 19.819996
#
# number of rings (size 3 to 8) (size 9 to 14) (size 15 to 20)
#    0.000    2.333    0.000    4.000    0.000   12.667 
#    0.000    0.000    0.000    2.000    0.000    0.000 
#    0.000    0.000    0.000    0.000    0.000    0.000 
#
# Total GULP energy -66894.397355 kJ/mol
# GULP energy per Si atom -5574.533113 kJ/mol
# Density = 1.977489 g / cm^3
# Si number density = 19.819996 Si / 1000 Ang^3
#
#
#
# Elastic Constant Matrix: (Units=GPa)
#
#
# Indices 1 2 3 4 5 6 
#
# 1 89.4585 21.9439 37.4268 -20.0174 -3.4187 3.8042
# 2 21.9439 90.3015 44.2622 -7.8025 -6.7549 21.6998
# 3 37.4268 44.2622 162.1373 -10.6429 -21.2653 -2.2822
# 4 -20.0174 -7.8025 -10.6429 34.7932 0.3762 -3.6113
# 5 -3.4187 -6.7549 -21.2653 0.3762 27.9920 -10.6459
# 6 3.8042 21.6998 -2.2822 -3.6113 -10.6459 27.6162
#
#
#
# Elastic Compliance Matrix: (Units=1/GPa)
#
#
# Indices 1 2 3 4 5 6 
#
# 1 0.014158 -0.001625 -0.002462 0.007011 -0.000717 -0.000237
# 2 -0.001625 0.017690 -0.005563 -0.000331 -0.006496 -0.016684
# 3 -0.002462 -0.005563 0.009663 0.001147 0.009181 0.009198
# 4 0.007011 -0.000331 0.001147 0.033534 0.003085 0.004963
# 5 -0.000717 -0.006496 0.009181 0.003085 0.050883 0.025981
# 6 -0.000237 -0.016684 0.009198 0.004963 0.025981 0.060777
#
#
# Mechanical properties :
#
#
# Convention : Reuss Voigt Hill
#
# Bulk Modulus (GPa) = 45.01864 61.01815 53.01839
# Shear Modulus (GPa) = 23.42916 33.96458 28.69687
#
# Velocity S-wave (km/s) = 3.44189 4.14412 3.80922
# Velocity P-wave (km/s) = 6.20955 7.33153 6.79374
#
# Compressibility (1/GPa) = 0.02221302
#
# Stress axis : x y z
#
# Youngs Moduli (GPa) = 70.62920 56.52871 103.48321
#
# Poissons Ratio (x) = 0.09185 0.25476
# Poissons Ratio (y) = 0.11476 0.57565
# Poissons Ratio (z) = 0.17388 0.31446
#
# Static dielectric constant tensor:
#      x y z
#    x 1.724610 -0.014400 0.023840 
#    y -0.014400 1.775150 0.018670 
#    z 0.023840 0.018670 1.773030 
# 
# From -- ./inp_files/30784.got.cif
#   From: 2010.05.17/outbox.cif.g08.bks.cpg/sg2_16_cif.got.tgz:30784.got - 2010.06.03 11:33:40.
