data_PCOD9081614
_publ_section_title
;
Structure prediction by ZEFSAII (Michael W. Deem and Ramdas Pophale) SiO2 
 PCOD9081614
Probable space group: P -1
;
_chemical_formula_sum "Si O2"
_cell_formula_units_Z 14
_cell_length_a 7.831118
_cell_length_b 8.351070
_cell_length_c 11.545672
_cell_angle_alpha 109.857580
_cell_angle_beta 92.298306
_cell_angle_gamma 128.894906
_cell_volume 518.555207
_symmetry_space_group_name_H-M "P -1"
_symmetry_group_IT_number 2
_symmetry_cell_setting 'triclinic'
loop_
_space_group_symop_operation_xyz
x,y,z
-x,-y,-z
loop_
_atom_site_type_symbol
_atom_site_label
_atom_site_fract_x
_atom_site_fract_y
_atom_site_fract_z
Si Si1 0.677017 0.864705 0.865524
Si Si2 0.149193 0.929153 0.424465
Si Si3 0.012508 0.317650 0.413407
Si Si4 0.668123 0.433800 0.027062
Si Si5 0.200437 0.726268 0.183590
Si Si6 0.119864 0.074657 0.799407
Si Si7 0.479003 0.551749 0.381696
O O1 0.556737 0.796679 0.970343
O O2 0.514342 0.609880 0.737746
O O3 0.695764 0.059391 0.849597
O O4 0.934696 0.962678 0.871956
O O5 0.253633 0.836329 0.338816
O O6 0.968931 0.756553 0.476903
O O7 0.032087 0.952415 0.320523
O O8 0.343215 0.172996 0.553697
O O9 0.217706 0.446146 0.356797
O O10 0.000000 0.500000 0.500000
O O11 0.819822 0.073789 0.278996
O O12 0.691494 0.652364 0.102771
O O13 0.915443 0.533372 0.115795
O O14 0.702891 0.387656 0.886213
O O15 0.500000 0.500000 0.500000
#
# Coordination Sequence:
#
# PCOD9081614 Si02
#       7
#     2   2   2   2   2   2   2
#     4   9  16  26  44  71  99 129 157 208 249 294
#     4  10  19  32  53  74 105 136 168 212 251 302
#     4  11  23  35  51  78 107 135 168 211 259 305
#     4   9  16  28  45  69 104 131 161 210 255 285
#     4   9  18  26  42  75 102 128 167 206 250 298
#     4   9  19  31  50  76  96 133 174 202 247 310
#     4  11  19  32  54  79 102 133 173 205 253 312
#
# _framework density 26.998090000000001
#
# number of rings (size 3 to 8) (size 9 to 14) (size 15 to 20)
#    0.000    2.571    4.286    1.714    4.000    0.571 
#    0.000    0.000    0.000    0.857    0.000    5.000 
#    0.000    0.000    0.000    0.000    0.000    0.000 
#
# Total GULP energy -78191.830825 kJ/mol
# GULP energy per Si atom -5585.130773 kJ/mol
# Density = 2.693664 g / cm^3
# Si number density = 26.998090 Si / 1000 Ang^3
#
#
#
# Elastic Constant Matrix: (Units=GPa)
#
#
# Indices 1 2 3 4 5 6 
#
# 1 63.7332 35.3548 38.0061 11.3925 -32.5386 3.8331
# 2 35.3548 142.3824 44.4815 -3.9638 -2.3124 27.9088
# 3 38.0061 44.4815 146.5436 23.2944 -38.2052 -0.1800
# 4 11.3925 -3.9638 23.2944 58.2841 3.2549 -4.3179
# 5 -32.5386 -2.3124 -38.2052 3.2549 59.8476 7.3656
# 6 3.8331 27.9088 -0.1800 -4.3179 7.3656 36.7616
#
#
#
# Elastic Compliance Matrix: (Units=1/GPa)
#
#
# Indices 1 2 3 4 5 6 
#
# 1 0.029146 -0.006723 -0.000192 -0.007125 0.016098 -0.001999
# 2 -0.006723 0.010992 -0.003351 0.003198 -0.004765 -0.006330
# 3 -0.000192 -0.003351 0.010325 -0.004624 0.006515 0.000766
# 4 -0.007125 0.003198 -0.004624 0.021251 -0.008156 0.002422
# 5 0.016098 -0.004765 0.006515 -0.008156 0.030508 -0.005100
# 6 -0.001999 -0.006330 0.000766 0.002422 -0.005100 0.033527
#
#
# Mechanical properties :
#
#
# Convention : Reuss Voigt Hill
#
# Bulk Modulus (GPa) = 33.40808 65.37155 49.38982
# Shear Modulus (GPa) = 30.07386 46.63311 38.35348
#
# Velocity S-wave (km/s) = 3.34117 4.16056 3.77317
# Velocity P-wave (km/s) = 5.22357 6.88086 6.10868
#
# Compressibility (1/GPa) = 0.02993288
#
# Stress axis : x y z
#
# Youngs Moduli (GPa) = 34.30948 90.97476 96.84898
#
# Poissons Ratio (x) = 0.61159 0.01855
# Poissons Ratio (y) = 0.23065 0.32457
# Poissons Ratio (z) = 0.00657 0.30488
#
# Static dielectric constant tensor:
#      x y z
#    x 2.415880 -0.002190 0.044380 
#    y -0.002190 2.083030 0.064440 
#    z 0.044380 0.064440 2.141870 
# 
# From -- ./inp_files/453595.got.cif
#   From: 2010.05.17/outbox.cif.g08.bks.cpg/sg2_227_cif.got.tgz:453595.got - 2010.06.03 11:33:40.
