data_PCOD9081462
_publ_section_title
;
Structure prediction by ZEFSAII (Michael W. Deem and Ramdas Pophale) SiO2 
 PCOD9081462
Probable space group: P -1
;
_chemical_formula_sum "Si O2"
_cell_formula_units_Z 14
_cell_length_a 11.937778
_cell_length_b 12.853437
_cell_length_c 5.448082
_cell_angle_alpha 124.224250
_cell_angle_beta 81.720033
_cell_angle_gamma 88.287450
_cell_volume 677.694065
_symmetry_space_group_name_H-M "P -1"
_symmetry_group_IT_number 2
_symmetry_cell_setting 'triclinic'
loop_
_space_group_symop_operation_xyz
x,y,z
-x,-y,-z
loop_
_atom_site_type_symbol
_atom_site_label
_atom_site_fract_x
_atom_site_fract_y
_atom_site_fract_z
Si Si1 0.494737 0.583977 0.862474
Si Si2 0.756643 0.360096 0.065113
Si Si3 0.262439 0.372704 0.274387
Si Si4 0.887992 0.931387 0.429818
Si Si5 0.090915 0.533925 0.213658
Si Si6 0.163438 0.119540 0.114760
Si Si7 0.961574 0.252795 0.134402
O O1 0.500000 0.500000 0.500000
O O2 0.369797 0.665049 0.993673
O O3 0.607380 0.652403 0.896180
O O4 0.500000 0.500000 0.000000
O O5 0.747610 0.502416 0.379111
O O6 0.833096 0.262319 0.090786
O O7 0.832490 0.370553 0.815044
O O8 0.182107 0.421171 0.135828
O O9 0.220001 0.249023 0.243543
O O10 0.816150 0.943051 0.713494
O O11 0.950253 0.786668 0.168367
O O12 0.000000 0.000000 0.500000
O O13 0.813339 0.961209 0.247936
O O14 0.032275 0.612692 0.565245
O O15 0.000000 0.500000 0.000000
O O16 0.023712 0.154759 0.183289
#
# Coordination Sequence:
#
# PCOD9081462 Si02
#       7
#     2   2   2   2   2   2   2
#     4  10  20  35  49  70 104 152 186 211 243 293
#     4  10  19  32  49  72 115 144 182 207 253 300
#     4  10  21  31  48  76 108 145 179 215 249 305
#     4  10  22  39  56  77 105 133 172 225 278 324
#     4  11  19  29  48  76 115 149 172 209 254 309
#     4  10  21  34  54  79 106 131 177 214 270 320
#     4   9  21  32  52  78 108 138 181 209 264 318
#
# _framework density 20.658290000000001
#
# number of rings (size 3 to 8) (size 9 to 14) (size 15 to 20)
#    0.857    1.143    1.429    3.000    4.000    2.286 
#    0.000    2.143    0.000    0.000    0.000    2.000 
#    0.000    0.000    0.000    0.000    0.000    0.000 
#
# Total GULP energy -77942.617322 kJ/mol
# GULP energy per Si atom -5567.329809 kJ/mol
# Density = 2.061127 g / cm^3
# Si number density = 20.658290 Si / 1000 Ang^3
#
#
#
# Elastic Constant Matrix: (Units=GPa)
#
#
# Indices 1 2 3 4 5 6 
#
# 1 115.3865 18.5217 17.7384 -8.1038 6.7375 5.8340
# 2 18.5217 51.5080 31.9796 -15.8327 6.9708 18.6693
# 3 17.7384 31.9796 80.7453 -25.9818 15.2757 7.5870
# 4 -8.1038 -15.8327 -25.9818 29.2617 0.3278 0.9762
# 5 6.7375 6.9708 15.2757 0.3278 22.2287 -3.1089
# 6 5.8340 18.6693 7.5870 0.9762 -3.1089 24.9047
#
#
#
# Elastic Compliance Matrix: (Units=1/GPa)
#
#
# Indices 1 2 3 4 5 6 
#
# 1 0.009312 -0.002310 -0.000368 0.001045 -0.001948 -0.000622
# 2 -0.002310 0.043057 -0.004061 0.020325 -0.014949 -0.033161
# 3 -0.000368 -0.004061 0.024151 0.019564 -0.016486 -0.007052
# 4 0.001045 0.020325 0.019564 0.064014 -0.024863 -0.027054
# 5 -0.001948 -0.014949 -0.016486 -0.024863 0.065576 0.025846
# 6 -0.000622 -0.033161 -0.007052 -0.027054 0.025846 0.071592
#
#
# Mechanical properties :
#
#
# Convention : Reuss Voigt Hill
#
# Bulk Modulus (GPa) = 15.86247 42.67992 29.27120
# Shear Modulus (GPa) = 16.01566 27.23901 21.62733
#
# Velocity S-wave (km/s) = 2.78738 3.63513 3.23911
# Velocity P-wave (km/s) = 4.24906 6.19061 5.30934
#
# Compressibility (1/GPa) = 0.06304187
#
# Stress axis : x y z
#
# Youngs Moduli (GPa) = 107.38320 23.22519 41.40652
#
# Poissons Ratio (x) = 0.05365 0.01522
# Poissons Ratio (y) = 0.24807 0.16817
# Poissons Ratio (z) = 0.03947 0.09433
#
# Static dielectric constant tensor:
#      x y z
#    x 1.755190 0.022570 0.008350 
#    y 0.022570 1.793570 -0.027180 
#    z 0.008350 -0.027180 1.892700 
# 
# From -- ./inp_files/75155.got.cif
#   From: 2010.05.17/outbox.cif.g08.bks.cpg/sg2_38_cif.got.tgz:75155.got - 2010.06.03 11:33:40.
