data_PCOD9081315
_publ_section_title
;
Structure prediction by ZEFSAII (Michael W. Deem and Ramdas Pophale) SiO2 
 PCOD9081315
Probable space group: P -1
;
_chemical_formula_sum "Si O2"
_cell_formula_units_Z 14
_cell_length_a 18.946213
_cell_length_b 11.041053
_cell_length_c 8.084999
_cell_angle_alpha 59.141534
_cell_angle_beta 83.343851
_cell_angle_gamma 32.726829
_cell_volume 575.514905
_symmetry_space_group_name_H-M "P -1"
_symmetry_group_IT_number 2
_symmetry_cell_setting 'triclinic'
loop_
_space_group_symop_operation_xyz
x,y,z
-x,-y,-z
loop_
_atom_site_type_symbol
_atom_site_label
_atom_site_fract_x
_atom_site_fract_y
_atom_site_fract_z
Si Si1 0.856332 0.140483 0.477909
Si Si2 0.455789 0.757867 0.518098
Si Si3 0.034856 0.312139 0.749715
Si Si4 0.574943 0.807842 0.287628
Si Si5 0.212673 0.996588 0.241613
Si Si6 0.821470 0.428740 0.765114
Si Si7 0.683289 0.413398 0.989132
O O1 0.746053 0.406580 0.469287
O O2 0.912538 0.888126 0.711700
O O3 0.719845 0.353763 0.215981
O O4 0.000000 0.000000 0.500000
O O5 0.443378 0.937266 0.320096
O O6 0.290248 0.962981 0.376158
O O7 0.618944 0.387263 0.628916
O O8 0.511349 0.670018 0.756619
O O9 0.000000 0.500000 0.500000
O O10 0.892052 0.457621 0.754499
O O11 0.115409 0.237769 0.942417
O O12 0.167321 0.963109 0.862141
O O13 0.676803 0.719203 0.453389
O O14 0.500000 0.000000 0.000000
O O15 0.714437 0.519123 0.852281
O O16 0.000000 0.000000 0.000000
#
# Coordination Sequence:
#
# PCOD9081315 Si02
#       7
#     2   2   2   2   2   2   2
#     4  11  20  35  60  86 113 152 191 230 284 346
#     4   8  17  35  54  77 110 149 187 223 275 346
#     4  10  19  31  54  83 110 146 191 234 274 330
#     4  10  21  35  60  87 110 145 195 245 277 329
#     4   9  18  33  55  79 110 149 188 224 275 345
#     4   9  17  35  56  79 112 154 194 223 276 356
#     4   9  18  34  56  78 108 150 192 226 274 344
#
# _framework density 24.326042000000001
#
# number of rings (size 3 to 8) (size 9 to 14) (size 15 to 20)
#    0.000    2.571    0.000    5.143    2.000    0.571 
#    0.000    3.571    3.143    0.000    0.000    0.000 
#    0.000    0.000    0.000    0.000    0.000    0.000 
#
# Total GULP energy -78004.375841 kJ/mol
# GULP energy per Si atom -5571.741132 kJ/mol
# Density = 2.427067 g / cm^3
# Si number density = 24.326042 Si / 1000 Ang^3
#
#
#
# Elastic Constant Matrix: (Units=GPa)
#
#
# Indices 1 2 3 4 5 6 
#
# 1 157.2822 31.8110 78.2330 4.9048 6.7234 -0.5483
# 2 31.8110 44.8832 -1.3692 -10.0956 0.0164 9.7296
# 3 78.2330 -1.3692 160.3330 30.2582 1.4760 -6.1941
# 4 4.9048 -10.0956 30.2582 33.1290 5.7146 -2.4479
# 5 6.7234 0.0164 1.4760 5.7146 33.5204 4.6756
# 6 -0.5483 9.7296 -6.1941 -2.4479 4.6756 33.9458
#
#
#
# Elastic Compliance Matrix: (Units=1/GPa)
#
#
# Indices 1 2 3 4 5 6 
#
# 1 0.010748 -0.007822 -0.005525 0.001630 -0.002446 0.001862
# 2 -0.007822 0.031463 0.002273 0.007832 0.001282 -0.008341
# 3 -0.005525 0.002273 0.010538 -0.008445 0.002042 0.000292
# 4 0.001630 0.007832 -0.008445 0.041268 -0.007020 0.000183
# 5 -0.002446 0.001282 0.002042 -0.007020 0.032122 -0.004965
# 6 0.001862 -0.008341 0.000292 0.000183 -0.004965 0.032630
#
#
# Mechanical properties :
#
#
# Convention : Reuss Voigt Hill
#
# Bulk Modulus (GPa) = 32.67708 64.42755 48.55232
# Shear Modulus (GPa) = 26.16189 37.04062 31.60125
#
# Velocity S-wave (km/s) = 3.28299 3.90638 3.60817
# Velocity P-wave (km/s) = 5.27568 6.84755 6.11235
#
# Compressibility (1/GPa) = 0.03060249
#
# Stress axis : x y z
#
# Youngs Moduli (GPa) = 93.03803 31.78336 94.89179
#
# Poissons Ratio (x) = 0.24862 0.52423
# Poissons Ratio (y) = 0.72779 -0.21573
# Poissons Ratio (z) = 0.51399 -0.07226
#
# Static dielectric constant tensor:
#      x y z
#    x 1.998550 0.009920 0.003530 
#    y 0.009920 2.015340 -0.084810 
#    z 0.003530 -0.084810 1.971690 
# 
# From -- ./inp_files/176585.got.cif
#   From: 2010.05.17/outbox.cif.g08.bks.cpg/sg2_89_cif.got.tgz:176585.got - 2010.06.03 11:33:40.
