data_PCOD9081797
_publ_section_title
;
Structure prediction by ZEFSAII (Michael W. Deem and Ramdas Pophale) SiO2 
 PCOD9081797
Probable space group: P -1
;
_chemical_formula_sum "Si O2"
_cell_formula_units_Z 16
_cell_length_a 8.268954
_cell_length_b 10.780954
_cell_length_c 18.364168
_cell_angle_alpha 138.566413
_cell_angle_beta 110.634977
_cell_angle_gamma 97.770277
_cell_volume 774.818372
_symmetry_space_group_name_H-M "P -1"
_symmetry_group_IT_number 2
_symmetry_cell_setting 'triclinic'
loop_
_space_group_symop_operation_xyz
x,y,z
-x,-y,-z
loop_
_atom_site_type_symbol
_atom_site_label
_atom_site_fract_x
_atom_site_fract_y
_atom_site_fract_z
Si Si1 0.256800 0.681534 0.460132
Si Si2 0.927478 0.246442 0.407379
Si Si3 0.105620 0.541415 0.933960
Si Si4 0.143875 0.388070 0.178288
Si Si5 0.458327 0.076820 0.913445
Si Si6 0.670062 0.875090 0.926969
Si Si7 0.775490 0.096255 0.769308
Si Si8 0.232969 0.298946 0.374011
O O1 0.140016 0.765382 0.524981
O O2 0.211555 0.610274 0.337777
O O3 0.160170 0.419389 0.364852
O O4 0.525008 0.887177 0.606906
O O5 0.000000 0.500000 0.500000
O O6 0.136053 0.263069 0.423789
O O7 0.717536 0.035752 0.230563
O O8 0.920412 0.562253 0.886186
O O9 0.969223 0.263269 0.813820
O O10 0.302501 0.668168 0.961391
O O11 0.223608 0.717280 0.099975
O O12 0.320532 0.339823 0.182667
O O13 0.913722 0.132943 0.059391
O O14 0.499884 0.886225 0.857548
O O15 0.377544 0.119406 0.993219
O O16 0.830994 0.956789 0.768123
O O17 0.500000 0.500000 0.500000
#
# Coordination Sequence:
#
# PCOD9081797 Si02
#       8
#     2   2   2   2   2   2   2   2
#     4  10  20  35  59  88 113 144 192 247 293 329
#     4  10  19  32  55  84 117 143 185 240 295 334
#     4  10  22  38  57  78 119 163 192 234 279 350
#     4  10  21  35  58  87 112 153 188 242 289 347
#     4  10  19  35  55  83 115 155 187 243 287 341
#     4   9  20  34  56  84 120 144 192 235 300 340
#     4  10  21  39  56  81 116 158 200 231 282 344
#     4   9  20  34  57  86 113 146 187 245 285 336
#
# _framework density 20.649999999999999
#
# number of rings (size 3 to 8) (size 9 to 14) (size 15 to 20)
#    0.000    2.250    1.250    1.500    7.000    2.500 
#    0.000    1.875    0.000    1.500    0.000    0.000 
#    0.000    0.000    0.000    0.000    0.000    0.000 
#
# Total GULP energy -89156.675766 kJ/mol
# GULP energy per Si atom -5572.292235 kJ/mol
# Density = 2.060300 g / cm^3
# Si number density = 20.650000 Si / 1000 Ang^3
#
#
#
# Elastic Constant Matrix: (Units=GPa)
#
#
# Indices 1 2 3 4 5 6 
#
# 1 86.9559 15.4871 20.6690 -3.7246 -1.7141 16.4580
# 2 15.4871 64.6249 26.8801 12.1111 1.8845 10.5269
# 3 20.6690 26.8801 78.7108 -2.2596 -4.0226 4.4271
# 4 -3.7246 12.1111 -2.2596 34.7772 4.1101 -0.0647
# 5 -1.7141 1.8845 -4.0226 4.1101 14.8418 -2.3150
# 6 16.4580 10.5269 4.4271 -0.0647 -2.3150 16.3711
#
#
#
# Elastic Compliance Matrix: (Units=1/GPa)
#
#
# Indices 1 2 3 4 5 6 
#
# 1 0.015036 -0.000233 -0.003103 0.001674 -0.001780 -0.014372
# 2 -0.000233 0.022213 -0.007266 -0.007704 -0.004676 -0.012776
# 3 -0.003103 -0.007266 0.016092 0.002681 0.004828 0.004134
# 4 0.001674 -0.007704 0.002681 0.032605 -0.006865 0.001704
# 5 -0.001780 -0.004676 0.004828 -0.006865 0.073128 0.013805
# 6 -0.014372 -0.012776 0.004134 0.001704 0.013805 0.084587
#
#
# Mechanical properties :
#
#
# Convention : Reuss Voigt Hill
#
# Bulk Modulus (GPa) = 31.11768 39.59599 35.35684
# Shear Modulus (GPa) = 18.14354 24.34839 21.24596
#
# Velocity S-wave (km/s) = 2.96737 3.43753 3.21106
# Velocity P-wave (km/s) = 5.18095 5.91370 5.55941
#
# Compressibility (1/GPa) = 0.03213607
#
# Stress axis : x y z
#
# Youngs Moduli (GPa) = 66.50728 45.01794 62.14138
#
# Poissons Ratio (x) = 0.01050 0.19284
# Poissons Ratio (y) = 0.01551 0.45154
# Poissons Ratio (z) = 0.20639 0.32711
#
# Static dielectric constant tensor:
#      x y z
#    x 1.838760 0.026150 -0.015850 
#    y 0.026150 1.787840 -0.026810 
#    z -0.015850 -0.026810 1.739720 
# 
# From -- ./inp_files/328813.got.cif
#   From: 2010.05.17/outbox.cif.g08.bks.cpg/sg2_165_cif.got.tgz:328813.got - 2010.06.03 11:33:40.
