data_PCOD9081388
_publ_section_title
;
Structure prediction by ZEFSAII (Michael W. Deem and Ramdas Pophale) SiO2 
 PCOD9081388
Probable space group: P -1
;
_chemical_formula_sum "Si O2"
_cell_formula_units_Z 12
_cell_length_a 9.098189
_cell_length_b 10.979515
_cell_length_c 13.836031
_cell_angle_alpha 41.621848
_cell_angle_beta 146.106148
_cell_angle_gamma 139.680983
_cell_volume 472.865026
_symmetry_space_group_name_H-M "P -1"
_symmetry_group_IT_number 2
_symmetry_cell_setting 'triclinic'
loop_
_space_group_symop_operation_xyz
x,y,z
-x,-y,-z
loop_
_atom_site_type_symbol
_atom_site_label
_atom_site_fract_x
_atom_site_fract_y
_atom_site_fract_z
Si Si1 0.617436 0.906724 0.239322
Si Si2 0.220685 0.553281 0.728630
Si Si3 0.153126 0.230555 0.366037
Si Si4 0.090340 0.822148 0.124777
Si Si5 0.364216 0.411880 0.689302
Si Si6 0.546520 0.009016 0.408035
O O1 0.724882 0.784346 0.452161
O O2 0.291852 0.863782 0.117476
O O3 0.627784 0.801456 0.206465
O O4 0.810022 0.139581 0.227710
O O5 0.346925 0.471371 0.756068
O O6 0.420314 0.775105 0.735283
O O7 0.142256 0.397906 0.865193
O O8 0.931172 0.581792 0.518597
O O9 0.353246 0.428958 0.303715
O O10 0.189041 0.047793 0.436962
O O11 0.295946 0.836038 0.320397
O O12 0.000000 0.000000 0.000000
O O13 0.500000 0.000000 0.500000
#
# Coordination Sequence:
#
# PCOD9081388 Si02
#       6
#     2   2   2   2   2   2
#     4  10  21  34  57  86 121 155 194 249 297 352
#     4  11  21  34  61  90 121 155 196 247 298 352
#     4  10  19  31  56  92 120 145 189 252 303 339
#     4  11  26  43  58  84 125 168 199 234 298 366
#     4  11  19  33  60  95 119 144 197 258 305 335
#     4  11  19  37  64  93 118 148 197 254 297 342
#
# _framework density 25.377220999999999
#
# number of rings (size 3 to 8) (size 9 to 14) (size 15 to 20)
#    0.000    1.333    6.667    1.500    0.000    0.667 
#    0.000    0.833    0.000    2.000    0.000    0.000 
#    0.000    0.000    0.000    0.000    0.000    0.000 
#
# Total GULP energy -67052.385428 kJ/mol
# GULP energy per Si atom -5587.698786 kJ/mol
# Density = 2.531946 g / cm^3
# Si number density = 25.377221 Si / 1000 Ang^3
#
#
#
# Elastic Constant Matrix: (Units=GPa)
#
#
# Indices 1 2 3 4 5 6 
#
# 1 110.0253 21.5608 10.1417 0.2603 25.5247 -7.6295
# 2 21.5608 133.5705 10.9659 -4.2224 2.2875 14.1924
# 3 10.1417 10.9659 31.8523 -4.8497 6.2984 0.8382
# 4 0.2603 -4.2224 -4.8497 19.1186 -7.8669 8.5415
# 5 25.5247 2.2875 6.2984 -7.8669 26.5354 -10.0498
# 6 -7.6295 14.1924 0.8382 8.5415 -10.0498 48.4072
#
#
#
# Elastic Compliance Matrix: (Units=1/GPa)
#
#
# Indices 1 2 3 4 5 6 
#
# 1 0.012877 -0.002041 -0.001852 -0.007137 -0.013461 0.001125
# 2 -0.002041 0.008376 -0.001950 0.003373 0.001562 -0.003015
# 3 -0.001852 -0.001950 0.034890 0.007552 -0.005123 -0.002721
# 4 -0.007137 0.003373 0.007552 0.068224 0.021272 -0.009867
# 5 -0.013461 0.001562 -0.005123 0.021272 0.060407 0.006297
# 6 0.001125 -0.003015 -0.002721 -0.009867 0.006297 0.024815
#
#
# Mechanical properties :
#
#
# Convention : Reuss Voigt Hill
#
# Bulk Modulus (GPa) = 22.49308 40.08720 31.29014
# Shear Modulus (GPa) = 21.17797 34.33089 27.75443
#
# Velocity S-wave (km/s) = 2.89195 3.68206 3.31066
# Velocity P-wave (km/s) = 4.47593 5.82303 5.19334
#
# Compressibility (1/GPa) = 0.04445811
#
# Stress axis : x y z
#
# Youngs Moduli (GPa) = 77.65611 119.38246 28.66115
#
# Poissons Ratio (x) = 0.24369 0.05308
# Poissons Ratio (y) = 0.15851 0.05589
# Poissons Ratio (z) = 0.14381 0.23279
#
# Static dielectric constant tensor:
#      x y z
#    x 2.050080 0.122750 0.068790 
#    y 0.122750 2.053150 0.156990 
#    z 0.068790 0.156990 2.328330 
# 
# From -- ./inp_files/167507.got.cif
#   From: 2010.05.17/outbox.cif.g08.bks.cpg/sg2_84_cif.got.tgz:167507.got - 2010.06.03 11:33:40.
