data_PCOD9081142
_publ_section_title
;
Structure prediction by ZEFSAII (Michael W. Deem and Ramdas Pophale) SiO2 
 PCOD9081142
Probable space group: P -1
;
_chemical_formula_sum "Si O2"
_cell_formula_units_Z 14
_cell_length_a 15.909719
_cell_length_b 18.559868
_cell_length_c 20.458925
_cell_angle_alpha 17.799463
_cell_angle_beta 163.033562
_cell_angle_gamma 153.296690
_cell_volume 528.601410
_symmetry_space_group_name_H-M "P -1"
_symmetry_group_IT_number 2
_symmetry_cell_setting 'triclinic'
loop_
_space_group_symop_operation_xyz
x,y,z
-x,-y,-z
loop_
_atom_site_type_symbol
_atom_site_label
_atom_site_fract_x
_atom_site_fract_y
_atom_site_fract_z
Si Si1 0.061385 0.153964 0.633345
Si Si2 0.128540 0.175245 0.812931
Si Si3 0.308852 0.000114 0.293305
Si Si4 0.209763 0.238909 0.389021
Si Si5 0.298383 0.276498 0.280727
Si Si6 0.125073 0.206514 0.494133
Si Si7 0.436639 0.414863 0.937967
O O1 0.196020 0.139698 0.817923
O O2 0.239813 0.185710 0.672472
O O3 0.914185 0.917912 0.720491
O O4 0.786087 0.382564 0.231374
O O5 0.026306 0.976172 0.954643
O O6 0.809310 0.353969 0.429688
O O7 0.365027 0.298251 0.917297
O O8 0.460735 0.784663 0.544199
O O9 0.500000 0.000000 0.500000
O O10 0.351146 0.231221 0.085579
O O11 0.401980 0.233438 0.470837
O O12 0.322930 0.219566 0.565154
O O13 0.029887 0.023257 0.432699
O O14 0.000000 0.500000 0.000000
O O15 0.111889 0.544216 0.902779
#
# Coordination Sequence:
#
# PCOD9081142 Si02
#       7
#     2   2   2   2   2   2   2
#     4  10  19  31  49  73 101 132 172 212 255 305
#     4  11  21  34  50  72 105 139 178 217 255 304
#     4  11  20  33  51  72 102 140 174 214 253 301
#     4   8  15  28  44  73 105 126 163 214 255 307
#     4   9  17  28  46  72  97 133 173 206 259 301
#     4   9  16  27  49  73 101 132 165 211 258 306
#     4  10  22  34  49  72 104 140 179 215 257 301
#
# _framework density 26.484984000000001
#
# number of rings (size 3 to 8) (size 9 to 14) (size 15 to 20)
#    0.000    2.286    2.857    1.714    2.000    0.000 
#    0.000    0.000    0.000    0.000    0.000   25.000 
#    0.000  106.571    0.000    0.000    0.000    0.000 
#
# Total GULP energy -78263.992496 kJ/mol
# GULP energy per Si atom -5590.285178 kJ/mol
# Density = 2.642470 g / cm^3
# Si number density = 26.484984 Si / 1000 Ang^3
#
#
#
# Elastic Constant Matrix: (Units=GPa)
#
#
# Indices 1 2 3 4 5 6 
#
# 1 280.7307 43.3519 49.7197 16.5111 -9.1724 -57.8703
# 2 43.3519 48.6044 23.2856 4.4999 -9.8154 -27.1421
# 3 49.7197 23.2856 83.3565 -18.1886 17.2929 -5.8912
# 4 16.5111 4.4999 -18.1886 30.3328 -7.4229 -11.0789
# 5 -9.1724 -9.8154 17.2929 -7.4229 52.8746 9.9598
# 6 -57.8703 -27.1421 -5.8912 -11.0789 9.9598 44.8906
#
#
#
# Elastic Compliance Matrix: (Units=1/GPa)
#
#
# Indices 1 2 3 4 5 6 
#
# 1 0.005656 0.000879 -0.004018 -0.003097 0.000828 0.006347
# 2 0.000879 0.038937 -0.012394 -0.004538 0.006957 0.020385
# 3 -0.004018 -0.012394 0.022039 0.013694 -0.007386 -0.004763
# 4 -0.003097 -0.004538 0.013694 0.045750 -0.000660 0.006497
# 5 0.000828 0.006957 -0.007386 -0.000660 0.022845 -0.000927
# 6 0.006347 0.020385 -0.004763 0.006497 -0.000927 0.043968
#
#
# Mechanical properties :
#
#
# Convention : Reuss Voigt Hill
#
# Bulk Modulus (GPa) = 28.11721 71.71178 49.91449
# Shear Modulus (GPa) = 22.51062 45.37523 33.94293
#
# Velocity S-wave (km/s) = 2.91853 4.14363 3.58382
# Velocity P-wave (km/s) = 4.69004 7.07305 6.00102
#
# Compressibility (1/GPa) = 0.03556541
#
# Stress axis : x y z
#
# Youngs Moduli (GPa) = 176.81573 25.68245 45.37332
#
# Poissons Ratio (x) = -0.02257 0.18231
# Poissons Ratio (y) = -0.15536 0.56236
# Poissons Ratio (z) = 0.71044 0.31831
#
# Static dielectric constant tensor:
#      x y z
#    x 2.110370 -0.003660 -0.074130 
#    y -0.003660 2.060350 -0.094500 
#    z -0.074130 -0.094500 2.313600 
# 
# From -- ./inp_files/283568.got.cif
#   From: 2010.05.17/outbox.cif.g08.bks.cpg/sg2_142_cif.got.tgz:283568.got - 2010.06.03 11:33:40.
