data_PCOD9081314
_publ_section_title
;
Structure prediction by ZEFSAII (Michael W. Deem and Ramdas Pophale) SiO2 
 PCOD9081314
Probable space group: P -1
;
_chemical_formula_sum "Si O2"
_cell_formula_units_Z 16
_cell_length_a 20.575861
_cell_length_b 11.031598
_cell_length_c 7.563388
_cell_angle_alpha 71.567241
_cell_angle_beta 102.167470
_cell_angle_gamma 37.432768
_cell_volume 592.765072
_symmetry_space_group_name_H-M "P -1"
_symmetry_group_IT_number 2
_symmetry_cell_setting 'triclinic'
loop_
_space_group_symop_operation_xyz
x,y,z
-x,-y,-z
loop_
_atom_site_type_symbol
_atom_site_label
_atom_site_fract_x
_atom_site_fract_y
_atom_site_fract_z
Si Si1 0.141208 0.129587 0.742008
Si Si2 0.620510 0.097267 0.085130
Si Si3 0.078303 0.780757 0.982974
Si Si4 0.092258 0.150796 0.302154
Si Si5 0.641265 0.631600 0.274091
Si Si6 0.129439 0.567371 0.444763
Si Si7 0.582987 0.715444 0.618118
Si Si8 0.716868 0.952834 0.614341
O O1 0.331979 0.857034 0.010481
O O2 0.000000 0.500000 0.500000
O O3 0.135217 0.081086 0.565668
O O4 0.063530 0.154630 0.804860
O O5 0.747765 0.757721 0.241093
O O6 0.696301 0.987604 0.374070
O O7 0.431047 0.365482 0.865920
O O8 0.188622 0.483359 0.313681
O O9 0.217849 0.619053 0.032786
O O10 0.941103 0.933245 0.739497
O O11 0.000000 0.000000 0.000000
O O12 0.237759 0.977398 0.360744
O O13 0.897319 0.564923 0.969987
O O14 0.824283 0.383103 0.451784
O O15 0.622127 0.633579 0.469309
O O16 0.500000 0.000000 0.000000
O O17 0.500000 0.000000 0.500000
O O18 0.454914 0.823781 0.530945
#
# Coordination Sequence:
#
# PCOD9081314 Si02
#       8
#     2   2   2   2   2   2   2   2
#     4   9  19  28  51  81 112 136 176 223 286 330
#     4   9  16  30  46  80 112 129 167 226 286 321
#     4  11  23  39  55  77 115 157 186 223 273 332
#     4  10  20  34  53  82 113 145 177 233 278 323
#     4   9  18  26  44  72 109 137 161 221 277 312
#     4   9  17  32  47  75 105 141 184 216 263 333
#     4  11  20  33  55  84 107 139 192 231 273 330
#     4  10  19  31  54  83 110 135 180 231 285 316
#
# _framework density 26.992142999999999
#
# number of rings (size 3 to 8) (size 9 to 14) (size 15 to 20)
#    0.000    2.250    2.500    1.500    7.000    1.000 
#    0.000    1.250    0.000    0.000    0.000    8.750 
#    0.000    0.000    0.000    0.000    0.000    0.000 
#
# Total GULP energy -89194.941798 kJ/mol
# GULP energy per Si atom -5574.683862 kJ/mol
# Density = 2.693071 g / cm^3
# Si number density = 26.992143 Si / 1000 Ang^3
#
#
#
# Elastic Constant Matrix: (Units=GPa)
#
#
# Indices 1 2 3 4 5 6 
#
# 1 238.2356 47.9807 51.5336 -7.7791 90.0135 -9.2339
# 2 47.9807 62.1003 11.0262 -1.2485 21.9371 4.2092
# 3 51.5336 11.0262 83.6982 -7.1895 52.7758 0.6572
# 4 -7.7791 -1.2485 -7.1895 35.9780 -5.4755 12.3767
# 5 90.0135 21.9371 52.7758 -5.4755 67.9159 -3.8769
# 6 -9.2339 4.2092 0.6572 12.3767 -3.8769 54.2969
#
#
#
# Elastic Compliance Matrix: (Units=1/GPa)
#
#
# Indices 1 2 3 4 5 6 
#
# 1 0.009460 -0.002927 0.003623 0.000239 -0.014347 0.000713
# 2 -0.002927 0.019615 0.001761 0.000653 -0.003912 -0.002468
# 3 0.003623 0.001761 0.025636 0.002924 -0.025186 -0.002295
# 4 0.000239 0.000653 0.002924 0.030791 -0.000723 -0.007116
# 5 -0.014347 -0.003912 -0.025186 -0.000723 0.054644 0.002235
# 6 0.000713 -0.002468 -0.002295 -0.007116 0.002235 0.020539
#
#
# Mechanical properties :
#
#
# Convention : Reuss Voigt Hill
#
# Bulk Modulus (GPa) = 16.77227 67.23498 42.00363
# Shear Modulus (GPa) = 28.46629 49.87106 39.16868
#
# Velocity S-wave (km/s) = 3.25100 4.30305 3.81348
# Velocity P-wave (km/s) = 4.50769 7.04638 5.91485
#
# Compressibility (1/GPa) = 0.05962221
#
# Stress axis : x y z
#
# Youngs Moduli (GPa) = 105.71020 50.98247 39.00830
#
# Poissons Ratio (x) = 0.14925 -0.14132
# Poissons Ratio (y) = 0.30946 -0.06868
# Poissons Ratio (z) = -0.38297 -0.08977
#
# Static dielectric constant tensor:
#      x y z
#    x 2.411300 0.022360 -0.173900 
#    y 0.022360 2.152870 -0.113380 
#    z -0.173900 -0.113380 2.504540 
# 
# From -- ./inp_files/312496.got.cif
#   From: 2010.05.17/outbox.cif.g08.bks.cpg/sg2_157_cif.got.tgz:312496.got - 2010.06.03 11:33:40.
