data_PCOD9081419
_publ_section_title
;
Structure prediction by ZEFSAII (Michael W. Deem and Ramdas Pophale) SiO2 
 PCOD9081419
Probable space group: P -1
;
_chemical_formula_sum "Si O2"
_cell_formula_units_Z 16
_cell_length_a 12.006081
_cell_length_b 23.034109
_cell_length_c 8.268490
_cell_angle_alpha 51.850853
_cell_angle_beta 68.491721
_cell_angle_gamma 28.085835
_cell_volume 741.910962
_symmetry_space_group_name_H-M "P -1"
_symmetry_group_IT_number 2
_symmetry_cell_setting 'triclinic'
loop_
_space_group_symop_operation_xyz
x,y,z
-x,-y,-z
loop_
_atom_site_type_symbol
_atom_site_label
_atom_site_fract_x
_atom_site_fract_y
_atom_site_fract_z
Si Si1 0.927996 0.371490 0.916315
Si Si2 0.619992 0.582078 0.405678
Si Si3 0.684547 0.958087 0.563202
Si Si4 0.627773 0.280497 0.211619
Si Si5 0.445356 0.479354 0.720885
Si Si6 0.860225 0.215357 0.518776
Si Si7 0.853390 0.597960 0.165035
Si Si8 0.401254 0.251705 0.316042
O O1 0.121623 0.335531 0.885539
O O2 0.788734 0.445549 0.687567
O O3 0.678912 0.528280 0.899276
O O4 0.092107 0.210065 0.164355
O O5 0.703530 0.506828 0.312903
O O6 0.302298 0.742209 0.333913
O O7 0.689096 0.629343 0.301049
O O8 0.831118 0.929794 0.400019
O O9 0.500000 0.000000 0.500000
O O10 0.526801 0.101329 0.516413
O O11 0.807855 0.201566 0.403768
O O12 0.610012 0.204283 0.309394
O O13 0.678804 0.308487 0.988597
O O14 0.500000 0.500000 0.500000
O O15 0.292737 0.621052 0.672246
O O16 0.155997 0.399911 0.315494
O O17 0.720880 0.676094 0.923987
#
# Coordination Sequence:
#
# PCOD9081419 Si02
#       8
#     2   2   2   2   2   2   2   2
#     4  10  21  37  64  92 119 163 200 255 294 359
#     4  10  21  36  64  95 120 153 207 256 302 348
#     4  12  24  39  62  89 129 158 205 241 310 367
#     4  10  19  39  64  89 117 157 219 247 290 354
#     4  10  19  31  59  94 117 147 198 257 300 339
#     4  10  23  37  62  90 122 160 199 255 300 357
#     4  10  19  39  63  88 122 155 215 244 295 358
#     4  10  22  36  63  93 115 169 199 251 295 362
#
# _framework density 21.565932
#
# number of rings (size 3 to 8) (size 9 to 14) (size 15 to 20)
#    0.000    1.750    3.750    0.750    5.250    0.500 
#    0.000    1.250    0.000    0.000    0.000    0.000 
#    0.000    0.000    0.000    0.000    0.000    0.000 
#
# Total GULP energy -89208.567086 kJ/mol
# GULP energy per Si atom -5575.535443 kJ/mol
# Density = 2.151685 g / cm^3
# Si number density = 21.565932 Si / 1000 Ang^3
#
#
#
# Elastic Constant Matrix: (Units=GPa)
#
#
# Indices 1 2 3 4 5 6 
#
# 1 118.4233 35.8170 6.1727 -8.4118 -0.8052 1.3784
# 2 35.8170 48.9734 18.5081 -7.7814 -8.8907 -8.8306
# 3 6.1727 18.5081 43.9668 -3.8071 -7.5458 8.6457
# 4 -8.4118 -7.7814 -3.8071 21.6106 9.3003 -6.9271
# 5 -0.8052 -8.8907 -7.5458 9.3003 36.8605 4.7770
# 6 1.3784 -8.8306 8.6457 -6.9271 4.7770 42.3484
#
#
#
# Elastic Compliance Matrix: (Units=1/GPa)
#
#
# Indices 1 2 3 4 5 6 
#
# 1 0.011443 -0.010102 0.003026 0.001111 -0.001491 -0.002747
# 2 -0.010102 0.038199 -0.016108 0.010649 0.001301 0.013178
# 3 0.003026 -0.016108 0.031840 -0.005004 0.005437 -0.011389
# 4 0.001111 0.010649 -0.005004 0.061291 -0.015842 0.015018
# 5 -0.001491 0.001301 0.005437 -0.015842 0.033448 -0.007155
# 6 -0.002747 0.013178 -0.011389 0.015018 -0.007155 0.032040
#
#
# Mechanical properties :
#
#
# Convention : Reuss Voigt Hill
#
# Bulk Modulus (GPa) = 28.47804 36.92880 32.70342
# Shear Modulus (GPa) = 18.77358 30.22161 24.49759
#
# Velocity S-wave (km/s) = 2.95366 3.74753 3.37403
# Velocity P-wave (km/s) = 4.98657 5.99051 5.51145
#
# Compressibility (1/GPa) = 0.03511478
#
# Stress axis : x y z
#
# Youngs Moduli (GPa) = 87.39283 26.17864 31.40720
#
# Poissons Ratio (x) = 0.26445 -0.09505
# Poissons Ratio (y) = 0.88283 0.50590
# Poissons Ratio (z) = -0.26448 0.42168
#
# Static dielectric constant tensor:
#      x y z
#    x 1.839620 -0.022370 -0.009360 
#    y -0.022370 1.864650 0.022580 
#    z -0.009360 0.022580 1.816590 
# 
# From -- ./inp_files/257736.got.cif
#   From: 2010.05.17/outbox.cif.g08.bks.cpg/sg2_129_cif.got.tgz:257736.got - 2010.06.03 11:33:40.
