data_PCOD9081037
_publ_section_title
;
Structure prediction by ZEFSAII (Michael W. Deem and Ramdas Pophale) SiO2 
 PCOD9081037
Probable space group: P -1
;
_chemical_formula_sum "Si O2"
_cell_formula_units_Z 16
_cell_length_a 13.849156
_cell_length_b 13.083543
_cell_length_c 8.095928
_cell_angle_alpha 68.732211
_cell_angle_beta 136.101992
_cell_angle_gamma 134.877630
_cell_volume 688.345084
_symmetry_space_group_name_H-M "P -1"
_symmetry_group_IT_number 2
_symmetry_cell_setting 'triclinic'
loop_
_space_group_symop_operation_xyz
x,y,z
-x,-y,-z
loop_
_atom_site_type_symbol
_atom_site_label
_atom_site_fract_x
_atom_site_fract_y
_atom_site_fract_z
Si Si1 0.747673 0.891047 0.394753
Si Si2 0.604001 0.936572 0.523685
Si Si3 0.394271 0.985523 0.044611
Si Si4 0.660871 0.603029 0.505433
Si Si5 0.121306 0.045413 0.954024
Si Si6 0.770179 0.373761 0.599149
Si Si7 0.029303 0.684979 0.941303
Si Si8 0.506837 0.383794 0.156242
O O1 0.677140 0.915110 0.460152
O O2 0.652166 0.720550 0.353814
O O3 0.680723 0.933498 0.138975
O O4 0.969793 0.984091 0.656044
O O5 0.414500 0.767011 0.441190
O O6 0.760329 0.001174 0.822572
O O7 0.543663 0.027692 0.346698
O O8 0.201218 0.817697 0.957287
O O9 0.500000 0.000000 0.000000
O O10 0.500000 0.500000 0.500000
O O11 0.874967 0.696653 0.778158
O O12 0.606699 0.476627 0.392264
O O13 0.295895 0.224040 0.027894
O O14 0.000000 0.000000 0.000000
O O15 0.916106 0.534238 0.778892
O O16 0.664446 0.374145 0.310715
O O17 0.897645 0.331482 0.789493
O O18 0.500000 0.500000 0.000000
#
# Coordination Sequence:
#
# PCOD9081037 Si02
#       8
#     2   2   2   2   2   2   2   2
#     4  10  19  30  54  84 109 142 189 240 283 332
#     4   8  15  32  52  77 106 147 188 230 274 344
#     4   9  18  31  50  79 113 143 187 239 284 329
#     4  11  22  37  58  83 118 152 187 234 294 349
#     4   9  17  32  55  79 108 146 193 227 276 349
#     4   8  15  30  53  74 101 139 194 225 264 333
#     4   9  17  30  52  78 104 144 190 230 270 336
#     4  10  21  36  58  84 115 150 191 242 292 336
#
# _framework density 23.244154999999999
#
# number of rings (size 3 to 8) (size 9 to 14) (size 15 to 20)
#    0.000    2.750    0.000    3.000    3.500    1.500 
#    0.000    0.000    2.750    3.000    0.000    0.000 
#    0.000    0.000    0.000    0.000    0.000    0.000 
#
# Total GULP energy -89072.719819 kJ/mol
# GULP energy per Si atom -5567.044989 kJ/mol
# Density = 2.319125 g / cm^3
# Si number density = 23.244155 Si / 1000 Ang^3
#
#
#
# Elastic Constant Matrix: (Units=GPa)
#
#
# Indices 1 2 3 4 5 6 
#
# 1 54.6678 24.3588 39.9197 -0.2538 18.5311 5.1986
# 2 24.3588 141.3956 83.8325 -11.5049 17.6782 -3.5229
# 3 39.9197 83.8325 153.8654 -23.8271 29.1234 1.8777
# 4 -0.2538 -11.5049 -23.8271 55.7686 -12.1630 6.7673
# 5 18.5311 17.6782 29.1234 -12.1630 41.9643 -0.5044
# 6 5.1986 -3.5229 1.8777 6.7673 -0.5044 28.2566
#
#
#
# Elastic Compliance Matrix: (Units=1/GPa)
#
#
# Indices 1 2 3 4 5 6 
#
# 1 0.025603 -0.000657 -0.005189 -0.003644 -0.008529 -0.003727
# 2 -0.000657 0.010573 -0.005623 -0.000546 -0.000396 0.001936
# 3 -0.005189 -0.005623 0.011974 0.003530 -0.002644 -0.001435
# 4 -0.003644 -0.000546 0.003530 0.021051 0.005436 -0.004577
# 5 -0.008529 -0.000396 -0.002644 0.005436 0.031185 0.000950
# 6 -0.003727 0.001936 -0.001435 -0.004577 0.000950 0.037526
#
#
# Mechanical properties :
#
#
# Convention : Reuss Voigt Hill
#
# Bulk Modulus (GPa) = 39.66565 71.79452 55.73009
# Shear Modulus (GPa) = 29.54157 38.65241 34.09699
#
# Velocity S-wave (km/s) = 3.56887 4.08228 3.83418
# Velocity P-wave (km/s) = 5.83817 7.29206 6.60524
#
# Compressibility (1/GPa) = 0.02521073
#
# Stress axis : x y z
#
# Youngs Moduli (GPa) = 39.05819 94.58114 83.51640
#
# Poissons Ratio (x) = 0.06216 0.43336
# Poissons Ratio (y) = 0.02567 0.46963
# Poissons Ratio (z) = 0.20267 0.53185
#
# Static dielectric constant tensor:
#      x y z
#    x 1.885350 -0.024570 0.026860 
#    y -0.024570 1.833170 -0.067270 
#    z 0.026860 -0.067270 2.049350 
# 
# From -- ./inp_files/312902.got.cif
#   From: 2010.05.17/outbox.cif.g08.bks.cpg/sg2_157_cif.got.tgz:312902.got - 2010.06.03 11:33:40.
