data_PCOD9081297
_publ_section_title
;
Structure prediction by ZEFSAII (Michael W. Deem and Ramdas Pophale) SiO2 
 PCOD9081297
Probable space group: P -1
;
_chemical_formula_sum "Si O2"
_cell_formula_units_Z 16
_cell_length_a 12.746896
_cell_length_b 7.734366
_cell_length_c 9.656000
_cell_angle_alpha 81.042522
_cell_angle_beta 82.691237
_cell_angle_gamma 39.499692
_cell_volume 598.105022
_symmetry_space_group_name_H-M "P -1"
_symmetry_group_IT_number 2
_symmetry_cell_setting 'triclinic'
loop_
_space_group_symop_operation_xyz
x,y,z
-x,-y,-z
loop_
_atom_site_type_symbol
_atom_site_label
_atom_site_fract_x
_atom_site_fract_y
_atom_site_fract_z
Si Si1 0.759665 0.678023 0.305281
Si Si2 0.972893 0.193105 0.147428
Si Si3 0.033301 0.280597 0.642584
Si Si4 0.366465 0.495343 0.979284
Si Si5 0.507824 0.720787 0.308761
Si Si6 0.268479 0.791393 0.486244
Si Si7 0.751884 0.435377 0.731613
Si Si8 0.790985 0.943581 0.074660
O O1 0.888026 0.366417 0.279069
O O2 0.862510 0.671246 0.393553
O O3 0.589223 0.794542 0.346474
O O4 0.736003 0.823249 0.150138
O O5 0.818041 0.333592 0.062165
O O6 0.093991 0.068183 0.543208
O O7 0.082157 0.205192 0.054616
O O8 0.839723 0.506198 0.674329
O O9 0.109101 0.125547 0.797078
O O10 0.483162 0.286855 0.858797
O O11 0.295584 0.599778 0.397630
O O12 0.378472 0.398832 0.143155
O O13 0.338774 0.873057 0.385783
O O14 0.624325 0.408349 0.375158
O O15 0.105972 0.877611 0.198926
O O16 0.654535 0.266725 0.037456
#
# Coordination Sequence:
#
# PCOD9081297 Si02
#       8
#     2   2   2   2   2   2   2   2
#     4   9  18  30  54  79  99 136 169 212 246 306
#     4  10  15  29  53  82 105 129 166 208 262 305
#     4  10  18  33  52  80 105 131 163 211 263 303
#     4  10  16  33  57  79 101 133 173 212 250 302
#     4  10  21  38  55  72  99 139 186 206 244 305
#     4  11  23  37  52  73 104 143 174 212 247 302
#     4  11  20  33  56  79 107 131 167 216 261 301
#     4   9  15  27  51  82 101 127 160 208 257 297
#
# _framework density 26.751152999999999
#
# number of rings (size 3 to 8) (size 9 to 14) (size 15 to 20)
#    0.750    1.250    3.750    2.250    0.000    1.000 
#    0.000    2.500    0.000    3.000    0.000    0.000 
#    0.000    0.000    0.000    0.000    0.000    0.000 
#
# Total GULP energy -89379.471802 kJ/mol
# GULP energy per Si atom -5586.216988 kJ/mol
# Density = 2.669027 g / cm^3
# Si number density = 26.751153 Si / 1000 Ang^3
#
#
#
# Elastic Constant Matrix: (Units=GPa)
#
#
# Indices 1 2 3 4 5 6 
#
# 1 111.6669 -1.2594 38.0843 6.1343 -20.0952 14.8684
# 2 -1.2594 37.2149 2.5527 -1.4613 3.4969 -0.6844
# 3 38.0843 2.5527 115.1284 16.4376 -14.8212 5.2784
# 4 6.1343 -1.4613 16.4376 32.0867 11.0459 -6.0679
# 5 -20.0952 3.4969 -14.8212 11.0459 48.7266 9.7555
# 6 14.8684 -0.6844 5.2784 -6.0679 9.7555 30.1488
#
#
#
# Elastic Compliance Matrix: (Units=1/GPa)
#
#
# Indices 1 2 3 4 5 6 
#
# 1 0.012658 -0.000628 -0.001807 -0.006153 0.008071 -0.009790
# 2 -0.000628 0.027649 -0.001812 0.004567 -0.004560 0.003649
# 3 -0.001807 -0.001812 0.011497 -0.008505 0.005758 -0.004738
# 4 -0.006153 0.004567 -0.008505 0.047917 -0.020500 0.020904
# 5 0.008071 -0.004560 0.005758 -0.020500 0.034668 -0.020436
# 6 -0.009790 0.003649 -0.004738 0.020904 -0.020436 0.049729
#
#
# Mechanical properties :
#
#
# Convention : Reuss Voigt Hill
#
# Bulk Modulus (GPa) = 23.08901 38.08504 30.58702
# Shear Modulus (GPa) = 24.14890 37.16793 30.65842
#
# Velocity S-wave (km/s) = 3.00780 3.73150 3.38902
# Velocity P-wave (km/s) = 4.55107 5.73002 5.17423
#
# Compressibility (1/GPa) = 0.04331065
#
# Stress axis : x y z
#
# Youngs Moduli (GPa) = 78.99904 36.16771 86.98123
#
# Poissons Ratio (x) = 0.02270 0.15719
# Poissons Ratio (y) = 0.04958 0.15760
# Poissons Ratio (z) = 0.14277 0.06553
#
# Static dielectric constant tensor:
#      x y z
#    x 2.218950 0.033620 0.009950 
#    y 0.033620 2.034320 -0.058280 
#    z 0.009950 -0.058280 2.092600 
# 
# From -- ./inp_files/294833.got.cif
#   From: 2010.05.17/outbox.cif.g08.bks.cpg/sg2_148_cif.got.tgz:294833.got - 2010.06.03 11:33:40.
