data_PCOD9081802
_publ_section_title
;
Structure prediction by ZEFSAII (Michael W. Deem and Ramdas Pophale) SiO2 
 PCOD9081802
Probable space group: P -1
;
_chemical_formula_sum "Si O2"
_cell_formula_units_Z 14
_cell_length_a 9.538051
_cell_length_b 11.276222
_cell_length_c 12.059032
_cell_angle_alpha 116.362789
_cell_angle_beta 130.124286
_cell_angle_gamma 36.655378
_cell_volume 584.460138
_symmetry_space_group_name_H-M "P -1"
_symmetry_group_IT_number 2
_symmetry_cell_setting 'triclinic'
loop_
_space_group_symop_operation_xyz
x,y,z
-x,-y,-z
loop_
_atom_site_type_symbol
_atom_site_label
_atom_site_fract_x
_atom_site_fract_y
_atom_site_fract_z
Si Si1 0.232126 0.498212 0.380650
Si Si2 0.353566 0.182723 0.417511
Si Si3 0.713908 0.231027 0.959277
Si Si4 0.719559 0.942264 0.292439
Si Si5 0.276907 0.318176 0.926583
Si Si6 0.240063 0.592321 0.754553
Si Si7 0.428817 0.707032 0.735799
O O1 0.389009 0.323432 0.478741
O O2 0.425036 0.442944 0.355913
O O3 0.008879 0.728124 0.400801
O O4 0.025710 0.505864 0.212102
O O5 0.032878 0.346550 0.361619
O O6 0.500000 0.000000 0.500000
O O7 0.478214 0.066771 0.313615
O O8 0.501603 0.260514 0.935593
O O9 0.540418 0.357844 0.813041
O O10 0.777899 0.328997 0.100615
O O11 0.000000 0.000000 0.000000
O O12 0.671721 0.866926 0.135096
O O13 0.738707 0.078987 0.311955
O O14 0.336931 0.354940 0.088900
O O15 0.253963 0.703164 0.720420
#
# Coordination Sequence:
#
# PCOD9081802 Si02
#       7
#     2   2   2   2   2   2   2
#     4   9  20  36  54  80 115 141 193 221 267 336
#     4  11  22  40  61  77 105 152 199 238 268 311
#     4  10  19  33  54  81 118 145 174 227 283 332
#     4   9  20  35  54  82 111 145 191 221 266 337
#     4   9  17  33  54  81 115 149 175 216 270 344
#     4  10  21  35  53  85 112 142 184 228 281 330
#     4  10  19  32  55  85 116 148 168 225 287 339
#
# _framework density 23.953728999999999
#
# number of rings (size 3 to 8) (size 9 to 14) (size 15 to 20)
#    0.857    1.429    1.429    1.714    0.000    2.857 
#    0.000    2.857    0.000    1.714    0.000    0.000 
#    0.000    0.000    0.000    0.000    0.000    0.000 
#
# Total GULP energy -78069.257850 kJ/mol
# GULP energy per Si atom -5576.375561 kJ/mol
# Density = 2.389921 g / cm^3
# Si number density = 23.953729 Si / 1000 Ang^3
#
#
#
# Elastic Constant Matrix: (Units=GPa)
#
#
# Indices 1 2 3 4 5 6 
#
# 1 120.8085 28.5186 10.5872 -10.3433 -22.0056 2.6392
# 2 28.5186 112.1075 25.2720 -14.1410 -21.4090 8.2568
# 3 10.5872 25.2720 79.0107 5.4633 -21.7745 -1.8069
# 4 -10.3433 -14.1410 5.4633 22.8200 4.6282 -10.0553
# 5 -22.0056 -21.4090 -21.7745 4.6282 28.6395 -14.9030
# 6 2.6392 8.2568 -1.8069 -10.0553 -14.9030 27.5254
#
#
#
# Elastic Compliance Matrix: (Units=1/GPa)
#
#
# Indices 1 2 3 4 5 6 
#
# 1 0.010843 -0.000784 0.002172 0.004857 0.012797 0.008041
# 2 -0.000784 0.011590 -0.002224 0.007189 0.006585 0.002644
# 3 0.002172 -0.002224 0.019699 -0.004234 0.021962 0.012096
# 4 0.004857 0.007189 -0.004234 0.060208 0.008483 0.023687
# 5 0.012797 0.006585 0.021962 0.008483 0.091465 0.050860
# 6 0.008041 0.002644 0.012096 0.023687 0.050860 0.071750
#
#
# Mechanical properties :
#
#
# Convention : Reuss Voigt Hill
#
# Bulk Modulus (GPa) = 24.71504 48.96471 36.83987
# Shear Modulus (GPa) = 17.81175 32.30024 25.05600
#
# Velocity S-wave (km/s) = 2.72984 3.67610 3.23773
# Velocity P-wave (km/s) = 4.50292 6.20516 5.42127
#
# Compressibility (1/GPa) = 0.04046119
#
# Stress axis : x y z
#
# Youngs Moduli (GPa) = 92.22256 86.27850 50.76461
#
# Poissons Ratio (x) = 0.06764 -0.11028
# Poissons Ratio (y) = 0.07230 0.11291
# Poissons Ratio (z) = -0.20035 0.19189
#
# Static dielectric constant tensor:
#      x y z
#    x 1.906560 0.041270 -0.007720 
#    y 0.041270 1.953100 -0.007930 
#    z -0.007720 -0.007930 2.041100 
# 
# From -- ./inp_files/499202.got.cif
#   From: 2010.05.17/outbox.cif.g08.bks.cpg/sg2_250_cif.got.tgz:499202.got - 2010.06.03 11:33:40.
