data_PCOD9081495
_publ_section_title
;
Structure prediction by ZEFSAII (Michael W. Deem and Ramdas Pophale) SiO2 
 PCOD9081495
Probable space group: P -1
;
_chemical_formula_sum "Si O2"
_cell_formula_units_Z 14
_cell_length_a 29.931961
_cell_length_b 13.816892
_cell_length_c 18.124837
_cell_angle_alpha 20.874512
_cell_angle_beta 18.998152
_cell_angle_gamma 22.317757
_cell_volume 811.578635
_symmetry_space_group_name_H-M "P -1"
_symmetry_group_IT_number 2
_symmetry_cell_setting 'triclinic'
loop_
_space_group_symop_operation_xyz
x,y,z
-x,-y,-z
loop_
_atom_site_type_symbol
_atom_site_label
_atom_site_fract_x
_atom_site_fract_y
_atom_site_fract_z
Si Si1 0.948938 0.232703 0.638199
Si Si2 0.221299 0.377372 0.139226
Si Si3 0.664594 0.265744 0.402319
Si Si4 0.668203 0.233565 0.686534
Si Si5 0.836691 0.355108 0.211434
Si Si6 0.337806 0.358923 0.135909
Si Si7 0.921908 0.885556 0.640151
O O1 0.782776 0.392157 0.807354
O O2 0.050898 0.410238 0.381201
O O3 0.976840 0.204208 0.527299
O O4 0.023252 0.917134 0.785181
O O5 0.282120 0.373282 0.128507
O O6 0.303676 0.068773 0.188152
O O7 0.252377 0.623606 0.868728
O O8 0.500000 0.500000 0.500000
O O9 0.753499 0.257640 0.344758
O O10 0.654403 0.955097 0.623508
O O11 0.726825 0.423913 0.404156
O O12 0.774060 0.131025 0.664647
O O13 0.499444 0.370590 0.873456
O O14 0.880415 0.617983 0.926135
O O15 0.000000 0.000000 0.500000
#
# Coordination Sequence:
#
# PCOD9081495 Si02
#       7
#     2   2   2   2   2   2   2
#     4  10  23  35  53  84 112 149 179 224 275 325
#     4  10  19  32  50  78 112 156 185 207 261 315
#     4  12  19  29  56  80 113 156 184 214 259 314
#     4  10  20  34  56  83 107 147 186 221 262 326
#     4  10  19  37  57  77 112 136 194 222 263 335
#     4  12  21  34  52  83 126 145 176 219 266 329
#     4  10  21  42  64  78 100 138 192 241 275 318
#
# _framework density 17.250330999999999
#
# number of rings (size 3 to 8) (size 9 to 14) (size 15 to 20)
#    0.000    1.714    7.143    1.714    0.000    4.000 
#    0.000    0.714    0.000    1.714    0.000    0.000 
#    0.000    0.000    0.000    0.000    0.000    0.000 
#
# Total GULP energy -78130.286237 kJ/mol
# GULP energy per Si atom -5580.734731 kJ/mol
# Density = 1.721107 g / cm^3
# Si number density = 17.250331 Si / 1000 Ang^3
#
#
#
# Elastic Constant Matrix: (Units=GPa)
#
#
# Indices 1 2 3 4 5 6 
#
# 1 104.2110 37.6885 36.9377 11.7636 3.4227 -17.1361
# 2 37.6885 90.3255 42.1597 34.5574 7.6763 -5.6561
# 3 36.9377 42.1597 69.1928 10.1714 19.9071 -8.4887
# 4 11.7636 34.5574 10.1714 34.3747 -7.4503 3.8385
# 5 3.4227 7.6763 19.9071 -7.4503 24.1446 -7.0021
# 6 -17.1361 -5.6561 -8.4887 3.8385 -7.0021 4.7274
#
#
#
# Elastic Compliance Matrix: (Units=1/GPa)
#
#
# Indices 1 2 3 4 5 6 
#
# 1 -0.061408 -0.026579 0.013646 0.070783 -0.097457 -0.431719
# 2 -0.026579 0.019772 -0.001767 -0.004279 -0.040977 -0.133083
# 3 0.013646 -0.001767 0.024103 -0.021814 0.006038 0.117289
# 4 0.070783 -0.004279 -0.021814 -0.001885 0.124009 0.397499
# 5 -0.097457 -0.040977 0.006038 0.124009 -0.072188 -0.599068
# 6 -0.431719 -0.133083 0.117289 0.397499 -0.599068 -2.512102
#
#
# Mechanical properties :
#
#
# Convention : Reuss Voigt Hill
#
# Bulk Modulus (GPa) = -21.30718 55.25567 16.97424
# Shear Modulus (GPa) = -1.93054 22.44556 10.25751
#
# Velocity S-wave (km/s) = -1.05904 3.61108 2.44114
# Velocity P-wave (km/s) = 3.72478 7.03475 4.21982
#
# Compressibility (1/GPa) = -0.04693253
#
# Stress axis : x y z
#
# Youngs Moduli (GPa) = -16.28449 50.57739 41.48939
#
# Poissons Ratio (x) = 1.34430 -0.56618
# Poissons Ratio (y) = -0.43283 0.07330
# Poissons Ratio (z) = 0.22223 0.08935
#
# Static dielectric constant tensor:
#      x y z
#    x 1.567180 -0.010180 0.012700 
#    y -0.010180 1.588940 0.002380 
#    z 0.012700 0.002380 1.594780 
# 
# From -- ./inp_files/273136.got.cif
#   From: 2010.05.17/outbox.cif.g08.bks.cpg/sg2_137_cif.got.tgz:273136.got - 2010.06.03 11:33:40.
