data_PCOD9081760
_publ_section_title
;
Structure prediction by ZEFSAII (Michael W. Deem and Ramdas Pophale) SiO2 
 PCOD9081760
Probable space group: P -1
;
_chemical_formula_sum "Si O2"
_cell_formula_units_Z 16
_cell_length_a 14.947413
_cell_length_b 7.280267
_cell_length_c 14.833489
_cell_angle_alpha 61.459280
_cell_angle_beta 30.889680
_cell_angle_gamma 60.690268
_cell_volume 716.596231
_symmetry_space_group_name_H-M "P -1"
_symmetry_group_IT_number 2
_symmetry_cell_setting 'triclinic'
loop_
_space_group_symop_operation_xyz
x,y,z
-x,-y,-z
loop_
_atom_site_type_symbol
_atom_site_label
_atom_site_fract_x
_atom_site_fract_y
_atom_site_fract_z
Si Si1 0.545216 0.211203 0.959685
Si Si2 0.552039 0.540939 0.179230
Si Si3 0.917426 0.846097 0.958060
Si Si4 0.828986 0.450061 0.435035
Si Si5 0.931745 0.395404 0.945457
Si Si6 0.054644 0.715389 0.438706
Si Si7 0.531589 0.989674 0.201807
Si Si8 0.172316 0.963781 0.571887
O O1 0.437380 0.400556 0.949245
O O2 0.750476 0.236527 0.766128
O O3 0.500000 0.000000 0.000000
O O4 0.505143 0.175819 0.106552
O O5 0.366537 0.464334 0.377074
O O6 0.537734 0.768058 0.191791
O O7 0.730074 0.394270 0.092163
O O8 0.922537 0.622919 0.951718
O O9 0.041778 0.978508 0.764928
O O10 0.717240 0.965917 0.096379
O O11 0.987504 0.781704 0.011527
O O12 0.940721 0.319601 0.449706
O O13 0.798887 0.280030 0.426053
O O14 0.943508 0.599236 0.250545
O O15 0.000000 0.500000 0.500000
O O16 0.916829 0.899573 0.467624
O O17 0.365385 0.016769 0.404984
#
# Coordination Sequence:
#
# PCOD9081760 Si02
#       8
#     2   2   2   2   2   2   2   2
#     4   9  17  31  53  77 108 143 178 223 269 326
#     4   8  16  27  44  76 107 134 173 226 270 313
#     4   9  17  30  46  79 113 135 179 236 277 309
#     4   9  19  32  52  78 104 144 187 220 268 337
#     4   9  17  28  50  76 108 143 177 230 277 318
#     4  11  22  36  54  83 120 145 177 236 284 325
#     4   9  16  28  48  75 104 138 180 221 267 325
#     4  10  19  32  55  78 104 150 187 219 276 335
#
# _framework density 22.327777999999999
#
# number of rings (size 3 to 8) (size 9 to 14) (size 15 to 20)
#    0.000    2.750    1.250    1.125    3.500    1.000 
#    0.000    5.625    0.000    0.750    0.000    4.375 
#    0.000    0.000    0.000    0.000    0.000    0.000 
#
# Total GULP energy -89330.257892 kJ/mol
# GULP energy per Si atom -5583.141118 kJ/mol
# Density = 2.227696 g / cm^3
# Si number density = 22.327778 Si / 1000 Ang^3
#
#
#
# Elastic Constant Matrix: (Units=GPa)
#
#
# Indices 1 2 3 4 5 6 
#
# 1 314.0685 -7.0486 26.6168 72.6102 -70.1854 -16.6053
# 2 -7.0486 63.0351 49.3245 -30.5666 7.4232 9.4479
# 3 26.6168 49.3245 183.3004 -17.8185 -2.3797 -50.4329
# 4 72.6102 -30.5666 -17.8185 20.0388 -34.7575 0.6307
# 5 -70.1854 7.4232 -2.3797 -34.7575 36.4483 -13.4629
# 6 -16.6053 9.4479 -50.4329 0.6307 -13.4629 62.9721
#
#
#
# Elastic Compliance Matrix: (Units=1/GPa)
#
#
# Indices 1 2 3 4 5 6 
#
# 1 0.007714 -0.005613 0.003233 -0.000488 0.019287 0.009594
# 2 -0.005613 0.032913 -0.017131 -0.009001 -0.037586 -0.028084
# 3 0.003233 -0.017131 0.013966 -0.005329 0.011899 0.017205
# 4 -0.000488 -0.009001 -0.005329 -0.041177 -0.043098 -0.011848
# 5 0.019287 -0.037586 0.011899 -0.043098 0.042940 0.029866
# 6 0.009594 -0.028084 0.017205 -0.011848 0.029866 0.042906
#
#
# Mechanical properties :
#
#
# Convention : Reuss Voigt Hill
#
# Bulk Modulus (GPa) = 64.22494 77.57660 70.90077
# Shear Modulus (GPa) = 34.84912 56.65926 45.75419
#
# Velocity S-wave (km/s) = 3.95498 5.04294 4.53173
# Velocity P-wave (km/s) = 7.04861 8.29024 7.69451
#
# Compressibility (1/GPa) = 0.01557028
#
# Stress axis : x y z
#
# Youngs Moduli (GPa) = 129.62997 30.38343 71.60157
#
# Poissons Ratio (x) = 0.17054 -0.23147
# Poissons Ratio (y) = 0.72760 1.22662
# Poissons Ratio (z) = -0.41906 0.52051
#
# Static dielectric constant tensor:
#      x y z
#    x 1.784460 0.029110 0.017440 
#    y 0.029110 1.808540 0.024650 
#    z 0.017440 0.024650 1.786710 
# 
# From -- ./inp_files/270074.got.cif
#   From: 2010.05.17/outbox.cif.g08.bks.cpg/sg2_136_cif.got.tgz:270074.got - 2010.06.03 11:33:40.
