data_PCOD9081592
_publ_section_title
;
Structure prediction by ZEFSAII (Michael W. Deem and Ramdas Pophale) SiO2 
 PCOD9081592
Probable space group: P -1
;
_chemical_formula_sum "Si O2"
_cell_formula_units_Z 14
_cell_length_a 12.239370
_cell_length_b 12.210454
_cell_length_c 5.124598
_cell_angle_alpha 79.083336
_cell_angle_beta 75.509453
_cell_angle_gamma 45.679410
_cell_volume 530.382389
_symmetry_space_group_name_H-M "P -1"
_symmetry_group_IT_number 2
_symmetry_cell_setting 'triclinic'
loop_
_space_group_symop_operation_xyz
x,y,z
-x,-y,-z
loop_
_atom_site_type_symbol
_atom_site_label
_atom_site_fract_x
_atom_site_fract_y
_atom_site_fract_z
Si Si1 0.062351 0.522625 0.704638
Si Si2 0.633024 0.152994 0.896467
Si Si3 0.679340 0.671303 0.722294
Si Si4 0.818703 0.196083 0.042574
Si Si5 0.393027 0.049309 0.286741
Si Si6 0.888530 0.262771 0.469017
Si Si7 0.374696 0.487295 0.802487
O O1 0.248346 0.386807 0.582548
O O2 0.026045 0.678922 0.661567
O O3 0.723372 0.767483 0.735359
O O4 0.000000 0.500000 0.000000
O O5 0.775484 0.106949 0.990025
O O6 0.666314 0.034134 0.718054
O O7 0.538763 0.317908 0.739481
O O8 0.505642 0.206851 0.170490
O O9 0.722945 0.538433 0.949102
O O10 0.000000 0.500000 0.500000
O O11 0.913422 0.198360 0.766165
O O12 0.656308 0.375296 0.091902
O O13 0.900033 0.160488 0.286507
O O14 0.500000 0.000000 0.500000
O O15 0.500000 0.000000 0.000000
O O16 0.709566 0.423521 0.456690
#
# Coordination Sequence:
#
# PCOD9081592 Si02
#       7
#     2   2   2   2   2   2   2
#     4  12  23  37  58  80 105 146 187 233 289 316
#     4   9  19  35  54  84 113 155 177 208 271 345
#     4   9  20  38  53  81 118 140 183 235 256 327
#     4  10  19  32  52  81 114 149 170 212 277 335
#     4  10  22  35  54  77 111 156 183 213 264 321
#     4  10  20  35  49  81 112 140 177 226 275 321
#     4   8  18  31  53  74 118 142 174 209 277 306
#
# _framework density 26.396053999999999
#
# number of rings (size 3 to 8) (size 9 to 14) (size 15 to 20)
#    1.714    0.571    1.429    2.143    2.000    4.000 
#    0.000    0.000    0.000    0.000    0.000    6.000 
#    0.000    0.000    0.000    0.000    0.000    0.000 
#
# Total GULP energy -77971.883150 kJ/mol
# GULP energy per Si atom -5569.420225 kJ/mol
# Density = 2.633597 g / cm^3
# Si number density = 26.396054 Si / 1000 Ang^3
#
#
#
# Elastic Constant Matrix: (Units=GPa)
#
#
# Indices 1 2 3 4 5 6 
#
# 1 70.4977 53.6656 26.2278 7.0129 -2.2306 33.7851
# 2 53.6656 152.6444 19.3307 17.5224 1.4493 24.2496
# 3 26.2278 19.3307 154.0426 20.6913 -0.2024 9.9385
# 4 7.0129 17.5224 20.6913 34.9169 9.8266 2.4245
# 5 -2.2306 1.4493 -0.2024 9.8266 41.8246 4.6360
# 6 33.7851 24.2496 9.9385 2.4245 4.6360 57.4368
#
#
#
# Elastic Compliance Matrix: (Units=1/GPa)
#
#
# Indices 1 2 3 4 5 6 
#
# 1 0.026705 -0.007061 -0.002833 -0.000139 0.003071 -0.012479
# 2 -0.007061 0.009342 0.000499 -0.003619 0.000123 0.000265
# 3 -0.002833 0.000499 0.007483 -0.004379 0.000866 0.000276
# 4 -0.000139 -0.003619 -0.004379 0.035328 -0.008375 0.001552
# 5 0.003071 0.000123 0.000866 -0.008375 0.026461 -0.003791
# 6 -0.012479 0.000265 0.000276 0.001552 -0.003791 0.024832
#
#
# Mechanical properties :
#
#
# Convention : Reuss Voigt Hill
#
# Bulk Modulus (GPa) = 40.41862 63.95923 52.18893
# Shear Modulus (GPa) = 31.80914 45.36635 38.58775
#
# Velocity S-wave (km/s) = 3.47518 4.15019 3.82760
# Velocity P-wave (km/s) = 5.60786 6.87377 6.27283
#
# Compressibility (1/GPa) = 0.02474107
#
# Stress axis : x y z
#
# Youngs Moduli (GPa) = 37.44573 107.03823 133.63753
#
# Poissons Ratio (x) = 0.75577 0.37859
# Poissons Ratio (y) = 0.26440 -0.06668
# Poissons Ratio (z) = 0.10608 -0.05341
#
# Static dielectric constant tensor:
#      x y z
#    x 2.290590 -0.029840 -0.028100 
#    y -0.029840 2.182010 -0.053910 
#    z -0.028100 -0.053910 2.043370 
# 
# From -- ./inp_files/92160.got.cif
#   From: 2010.05.17/outbox.cif.g08.bks.cpg/sg2_47_cif.got.tgz:92160.got - 2010.06.03 11:33:40.
