data_PCOD9081287
_publ_section_title
;
Structure prediction by ZEFSAII (Michael W. Deem and Ramdas Pophale) SiO2 
 PCOD9081287
Probable space group: P -1
;
_chemical_formula_sum "Si O2"
_cell_formula_units_Z 15
_cell_length_a 10.936088
_cell_length_b 11.034245
_cell_length_c 16.382725
_cell_angle_alpha 72.165426
_cell_angle_beta 44.534283
_cell_angle_gamma 37.914350
_cell_volume 685.216475
_symmetry_space_group_name_H-M "P -1"
_symmetry_group_IT_number 2
_symmetry_cell_setting 'triclinic'
loop_
_space_group_symop_operation_xyz
x,y,z
-x,-y,-z
loop_
_atom_site_type_symbol
_atom_site_label
_atom_site_fract_x
_atom_site_fract_y
_atom_site_fract_z
Si Si1 0.345534 0.734701 0.551197
Si Si2 0.271137 0.248373 0.660176
Si Si3 0.749820 0.616239 0.967233
Si Si4 0.342994 0.538928 0.393448
Si Si5 0.500000 0.000000 0.000000
Si Si6 0.779769 0.941113 0.709468
Si Si7 0.738791 0.540766 0.168119
Si Si8 0.084130 0.324137 0.548948
O O1 0.500000 0.500000 0.500000
O O2 0.542954 0.730940 0.422013
O O3 0.401964 0.710472 0.626517
O O4 0.973708 0.946255 0.651188
O O5 0.976647 0.419361 0.830299
O O6 0.109638 0.340544 0.628200
O O7 0.561551 0.961282 0.584497
O O8 0.895357 0.669874 0.919617
O O9 0.754815 0.531226 0.064341
O O10 0.416491 0.894600 0.040370
O O11 0.529217 0.557095 0.298954
O O12 0.012782 0.744777 0.566413
O O13 0.213074 0.584979 0.356603
O O14 0.304436 0.100619 0.168677
O O15 0.439712 0.213149 0.779621
O O16 0.000000 0.500000 0.500000
#
# Coordination Sequence:
#
# PCOD9081287 Si02
#       8
#     2   2   2   2   1   2   2   2
#     4  10  19  32  58  88 117 149 191 245 311 361
#     4  11  22  41  63  87 125 159 205 258 298 357
#     4  10  20  37  56  88 122 160 188 248 316 364
#     4  11  19  34  56  83 118 152 200 251 291 351
#     4  10  20  32  52  84 122 152 192 224 308 384
#     4  10  19  31  53  85 116 153 185 244 306 360
#     4  10  20  33  55  87 120 148 197 237 306 381
#     4  11  24  40  61  91 115 164 217 253 294 348
#
# _framework density 21.890891
#
# number of rings (size 3 to 8) (size 9 to 14) (size 15 to 20)
#    0.000    1.600    1.333    6.000    0.000    0.000 
#    0.000    0.667    0.000    0.800    0.000    0.000 
#    0.000    0.000    0.000    0.000    0.000    0.000 
#
# Total GULP energy -83529.744248 kJ/mol
# GULP energy per Si atom -5568.649617 kJ/mol
# Density = 2.184107 g / cm^3
# Si number density = 21.890891 Si / 1000 Ang^3
#
#
#
# Elastic Constant Matrix: (Units=GPa)
#
#
# Indices 1 2 3 4 5 6 
#
# 1 95.7104 19.1087 25.7305 0.6955 10.2376 -19.2328
# 2 19.1087 100.4783 30.8986 -11.9149 14.9313 -16.5966
# 3 25.7305 30.8986 99.9702 -14.4248 20.4959 -0.8965
# 4 0.6955 -11.9149 -14.4248 36.5792 -3.8047 2.8520
# 5 10.2376 14.9313 20.4959 -3.8047 34.3066 -0.6409
# 6 -19.2328 -16.5966 -0.8965 2.8520 -0.6409 34.0670
#
#
#
# Elastic Compliance Matrix: (Units=1/GPa)
#
#
# Indices 1 2 3 4 5 6 
#
# 1 0.013048 -0.000293 -0.003128 -0.002356 -0.002023 0.007301
# 2 -0.000293 0.012545 -0.002737 0.002222 -0.003386 0.005625
# 3 -0.003128 -0.002737 0.013335 0.004109 -0.005446 -0.003195
# 4 -0.002356 0.002222 0.004109 0.029991 0.000558 -0.002640
# 5 -0.002023 -0.003386 -0.005446 0.000558 0.034498 -0.002333
# 6 0.007301 0.005625 -0.003195 -0.002640 -0.002333 0.036309
#
#
# Mechanical properties :
#
#
# Convention : Reuss Voigt Hill
#
# Bulk Modulus (GPa) = 37.57452 49.73716 43.65584
# Shear Modulus (GPa) = 31.07291 35.68531 33.37911
#
# Velocity S-wave (km/s) = 3.77164 4.04188 3.90910
# Velocity P-wave (km/s) = 6.01404 6.67475 6.35299
#
# Compressibility (1/GPa) = 0.02661378
#
# Stress axis : x y z
#
# Youngs Moduli (GPa) = 76.64017 79.70995 74.99216
#
# Poissons Ratio (x) = 0.02332 0.23456
# Poissons Ratio (y) = 0.02242 0.20525
# Poissons Ratio (z) = 0.23971 0.21816
#
# Static dielectric constant tensor:
#      x y z
#    x 1.933360 -0.069110 -0.035080 
#    y -0.069110 2.010900 0.083000 
#    z -0.035080 0.083000 1.874980 
# 
# From -- ./inp_files/568713.got.cif
#   From: 2010.05.17/outbox.cif.g08.bks.cpg/sg2_285_cif.got.tgz:568713.got - 2010.06.03 11:33:40.
