data_PCOD9081982
_publ_section_title
;
Structure prediction by ZEFSAII (Michael W. Deem and Ramdas Pophale) SiO2 
 PCOD9081982
Probable space group: P -1
;
_chemical_formula_sum "Si O2"
_cell_formula_units_Z 13
_cell_length_a 12.294683
_cell_length_b 16.409132
_cell_length_c 10.812834
_cell_angle_alpha 31.344948
_cell_angle_beta 140.804504
_cell_angle_gamma 153.138205
_cell_volume 511.933224
_symmetry_space_group_name_H-M "P -1"
_symmetry_group_IT_number 2
_symmetry_cell_setting 'triclinic'
loop_
_space_group_symop_operation_xyz
x,y,z
-x,-y,-z
loop_
_atom_site_type_symbol
_atom_site_label
_atom_site_fract_x
_atom_site_fract_y
_atom_site_fract_z
Si Si1 0.788216 0.050372 0.279120
Si Si2 0.829186 0.528505 0.358817
Si Si3 0.702587 0.638344 0.740617
Si Si4 0.936081 0.002821 0.080290
Si Si5 0.767317 0.574892 0.528059
Si Si6 0.491282 0.851076 0.017312
Si Si7 0.500000 0.500000 0.000000
O O1 0.053628 0.287976 0.181712
O O2 0.794120 0.872217 0.548579
O O3 0.658027 0.969534 0.134061
O O4 0.635476 0.063480 0.216867
O O5 0.844552 0.556190 0.484511
O O6 0.000000 0.500000 0.500000
O O7 0.560468 0.357538 0.294990
O O8 0.874397 0.734521 0.067039
O O9 0.500770 0.528338 0.601127
O O10 0.566838 0.481892 0.939717
O O11 0.926530 0.830053 0.365964
O O12 0.677045 0.918009 0.987859
O O13 0.000000 0.000000 0.000000
O O14 0.717854 0.404781 0.799274
#
# Coordination Sequence:
#
# PCOD9081982 Si02
#       7
#     2   2   2   2   2   2   1
#     4   9  19  32  54  87 110 140 189 242 279 325
#     4  10  22  36  61  87 113 148 195 241 281 338
#     4   9  18  34  51  80 118 146 180 237 291 329
#     4  10  21  37  56  80 117 155 182 231 293 345
#     4   9  20  36  55  80 115 149 189 225 289 349
#     4  10  19  32  59  83 109 144 199 230 277 345
#     4  10  20  32  58  86 114 144 186 240 290 324
#
# _framework density 25.393939
#
# number of rings (size 3 to 8) (size 9 to 14) (size 15 to 20)
#    0.000    2.462    0.000    1.385   10.769    0.000 
#    0.000    0.769    3.385    3.692    0.000    0.000 
#    0.000    0.000    0.000    0.000    0.000    0.000 
#
# Total GULP energy -72401.050205 kJ/mol
# GULP energy per Si atom -5569.311554 kJ/mol
# Density = 2.533614 g / cm^3
# Si number density = 25.393939 Si / 1000 Ang^3
#
#
#
# Elastic Constant Matrix: (Units=GPa)
#
#
# Indices 1 2 3 4 5 6 
#
# 1 180.6611 42.9913 49.5607 4.6509 17.7203 28.9279
# 2 42.9913 78.6764 39.9658 -14.8846 -1.0205 2.2123
# 3 49.5607 39.9658 97.8264 -27.3840 4.8975 7.9994
# 4 4.6509 -14.8846 -27.3840 33.1859 14.8123 -0.5153
# 5 17.7203 -1.0205 4.8975 14.8123 35.2833 0.4542
# 6 28.9279 2.2123 7.9994 -0.5153 0.4542 48.1529
#
#
#
# Elastic Compliance Matrix: (Units=1/GPa)
#
#
# Indices 1 2 3 4 5 6 
#
# 1 0.008419 -0.003535 -0.003910 -0.005405 -0.001463 -0.004290
# 2 -0.003535 0.017671 -0.004447 0.004307 0.001069 0.002087
# 3 -0.003910 -0.004447 0.019745 0.018756 -0.008774 -0.000444
# 4 -0.005405 0.004307 0.018756 0.059328 -0.024681 0.000801
# 5 -0.001463 0.001069 -0.008774 -0.024681 0.040666 0.001640
# 6 -0.004290 0.002087 -0.000444 0.000801 0.001640 0.023315
#
#
# Mechanical properties :
#
#
# Convention : Reuss Voigt Hill
#
# Bulk Modulus (GPa) = 45.34770 69.13327 57.24048
# Shear Modulus (GPa) = 24.96531 38.30083 31.63307
#
# Velocity S-wave (km/s) = 3.13888 3.88785 3.53327
# Velocity P-wave (km/s) = 5.57074 6.88747 6.26380
#
# Compressibility (1/GPa) = 0.02205184
#
# Stress axis : x y z
#
# Youngs Moduli (GPa) = 118.78540 56.59036 50.64462
#
# Poissons Ratio (x) = 0.20005 0.19801
# Poissons Ratio (y) = 0.41991 0.22520
# Poissons Ratio (z) = 0.46443 0.25164
#
# Static dielectric constant tensor:
#      x y z
#    x 2.086330 -0.047740 -0.006940 
#    y -0.047740 1.525620 -0.043460 
#    z -0.006940 -0.043460 2.032150 
# 
# From -- ./inp_files/151702.got.cif
#   From: 2010.05.17/outbox.cif.g08.bks.cpg/sg2_76_cif.got.tgz:151702.got - 2010.06.03 11:33:40.
