data_PCOD9081232
_publ_section_title
;
Structure prediction by ZEFSAII (Michael W. Deem and Ramdas Pophale) SiO2 
 PCOD9081232
Probable space group: P -1
;
_chemical_formula_sum "Si O2"
_cell_formula_units_Z 14
_cell_length_a 12.587125
_cell_length_b 8.464087
_cell_length_c 8.594987
_cell_angle_alpha 55.979679
_cell_angle_beta 80.197897
_cell_angle_gamma 50.856437
_cell_volume 564.288597
_symmetry_space_group_name_H-M "P -1"
_symmetry_group_IT_number 2
_symmetry_cell_setting 'triclinic'
loop_
_space_group_symop_operation_xyz
x,y,z
-x,-y,-z
loop_
_atom_site_type_symbol
_atom_site_label
_atom_site_fract_x
_atom_site_fract_y
_atom_site_fract_z
Si Si1 0.861050 0.291267 0.343933
Si Si2 0.993068 0.297365 0.033727
Si Si3 0.579655 0.657692 0.815795
Si Si4 0.280544 0.145698 0.468447
Si Si5 0.868728 0.692215 0.270423
Si Si6 0.723466 0.148322 0.636830
Si Si7 0.587499 0.224774 0.928483
O O1 0.882795 0.459004 0.341638
O O2 0.729862 0.327771 0.429498
O O3 0.866559 0.336015 0.134086
O O4 0.000000 0.000000 0.500000
O O5 0.135719 0.015408 0.199696
O O6 0.010244 0.318832 0.835397
O O7 0.000000 0.500000 0.000000
O O8 0.687606 0.679609 0.697429
O O9 0.613339 0.402221 0.901681
O O10 0.426522 0.893303 0.647217
O O11 0.546830 0.705379 0.982631
O O12 0.159731 0.260145 0.566087
O O13 0.253930 0.050667 0.376873
O O14 0.720106 0.934154 0.095062
O O15 0.593392 0.256454 0.725346
#
# Coordination Sequence:
#
# PCOD9081232 Si02
#       7
#     2   2   2   2   2   2   2
#     4   9  17  32  54  75  97 130 166 205 251 300
#     4   8  16  33  51  69  97 132 162 197 248 301
#     4   9  19  36  52  70 104 139 167 202 258 301
#     4  10  20  33  51  77 103 131 168 213 250 293
#     4   9  17  33  54  72 101 136 166 199 255 308
#     4  10  19  31  52  79 100 127 173 211 243 293
#     4   9  18  34  53  72  97 138 172 202 248 304
#
# _framework density 24.809999999999999
#
# number of rings (size 3 to 8) (size 9 to 14) (size 15 to 20)
#    0.000    2.857    0.000    0.857    0.000    1.143 
#    0.000   20.000    0.000    0.000    0.000    0.000 
#    0.000    0.000    0.000    0.000    0.000    0.000 
#
# Total GULP energy -78245.386527 kJ/mol
# GULP energy per Si atom -5588.956181 kJ/mol
# Density = 2.475353 g / cm^3
# Si number density = 24.810000 Si / 1000 Ang^3
#
#
#
# Elastic Constant Matrix: (Units=GPa)
#
#
# Indices 1 2 3 4 5 6 
#
# 1 59.8212 37.1119 43.2388 6.1419 -15.6166 -27.5209
# 2 37.1119 142.4405 68.5315 29.1025 -19.3604 -16.5239
# 3 43.2388 68.5315 168.4217 31.8958 -28.3250 -20.4545
# 4 6.1419 29.1025 31.8958 70.7840 -6.9500 -10.4395
# 5 -15.6166 -19.3604 -28.3250 -6.9500 32.9885 -0.2534
# 6 -27.5209 -16.5239 -20.4545 -10.4395 -0.2534 33.8160
#
#
#
# Elastic Compliance Matrix: (Units=1/GPa)
#
#
# Indices 1 2 3 4 5 6 
#
# 1 0.038000 -0.004228 -0.003215 0.005513 0.014130 0.028723
# 2 -0.004228 0.009845 -0.002316 -0.002640 0.001225 -0.000837
# 3 -0.003215 -0.002316 0.008990 -0.002238 0.004374 0.001032
# 4 0.005513 -0.002640 -0.002238 0.017069 0.002790 0.007133
# 5 0.014130 0.001225 0.004374 0.002790 0.042188 0.015921
# 6 0.028723 -0.000837 0.001032 0.007133 0.015921 0.055485
#
#
# Mechanical properties :
#
#
# Convention : Reuss Voigt Hill
#
# Bulk Modulus (GPa) = 26.79703 74.27198 50.53451
# Shear Modulus (GPa) = 24.56606 42.30445 33.43525
#
# Velocity S-wave (km/s) = 3.15011 4.13381 3.67502
# Velocity P-wave (km/s) = 4.90461 7.26538 6.19843
#
# Compressibility (1/GPa) = 0.03731757
#
# Stress axis : x y z
#
# Youngs Moduli (GPa) = 26.31605 101.57139 111.23316
#
# Poissons Ratio (x) = 0.42942 0.35759
# Poissons Ratio (y) = 0.11126 0.25765
# Poissons Ratio (z) = 0.08460 0.23527
#
# Static dielectric constant tensor:
#      x y z
#    x 1.964520 -0.078340 0.005060 
#    y -0.078340 1.934260 0.024350 
#    z 0.005060 0.024350 2.020160 
# 
# From -- ./inp_files/45929.got.cif
#   From: 2010.05.17/outbox.cif.g08.bks.cpg/sg2_23_cif.got.tgz:45929.got - 2010.06.03 11:33:40.
