data_PCOD9081417
_publ_section_title
;
Structure prediction by ZEFSAII (Michael W. Deem and Ramdas Pophale) SiO2 
 PCOD9081417
Probable space group: P -1
;
_chemical_formula_sum "Si O2"
_cell_formula_units_Z 16
_cell_length_a 14.496271
_cell_length_b 28.220486
_cell_length_c 9.554559
_cell_angle_alpha 144.972719
_cell_angle_beta 132.650142
_cell_angle_gamma 20.714198
_cell_volume 714.303558
_symmetry_space_group_name_H-M "P -1"
_symmetry_group_IT_number 2
_symmetry_cell_setting 'triclinic'
loop_
_space_group_symop_operation_xyz
x,y,z
-x,-y,-z
loop_
_atom_site_type_symbol
_atom_site_label
_atom_site_fract_x
_atom_site_fract_y
_atom_site_fract_z
Si Si1 0.444459 0.860372 0.970162
Si Si2 0.318511 0.521332 0.358258
Si Si3 0.800322 0.158998 0.299619
Si Si4 0.270263 0.843372 0.247654
Si Si5 0.991020 0.796150 0.441501
Si Si6 0.262222 0.174581 0.967633
Si Si7 0.122767 0.234855 0.261330
Si Si8 0.862468 0.956597 0.199892
O O1 0.462400 0.750408 0.738122
O O2 0.228038 0.996111 0.941366
O O3 0.696124 0.771786 0.963420
O O4 0.288004 0.992175 0.264222
O O5 0.500000 0.500000 0.500000
O O6 0.099983 0.669547 0.365863
O O7 0.139978 0.604232 0.512852
O O8 0.510460 0.328962 0.049061
O O9 0.773074 0.271237 0.505880
O O10 0.999878 0.037835 0.350296
O O11 0.000000 0.000000 0.000000
O O12 0.359226 0.861845 0.491122
O O13 0.153987 0.836663 0.205831
O O14 0.915049 0.789030 0.210086
O O15 0.576842 0.947835 0.783717
O O16 0.145981 0.274409 0.240496
O O17 0.096553 0.158769 0.984695
#
# Coordination Sequence:
#
# PCOD9081417 Si02
#       8
#     2   2   2   2   2   2   2   2
#     4   9  17  33  57  85 115 156 204 254 294 352
#     4  12  21  37  60  95 130 157 199 271 325 353
#     4   9  18  33  54  89 116 154 205 252 299 363
#     4  10  19  31  59  84 121 158 200 250 311 370
#     4  11  20  35  64  97 120 156 216 260 304 364
#     4  10  20  35  61  94 119 164 215 256 290 381
#     4  10  20  36  61  87 126 164 208 255 312 364
#     4   9  16  33  54  83 112 159 204 238 295 376
#
# _framework density 22.399442000000001
#
# number of rings (size 3 to 8) (size 9 to 14) (size 15 to 20)
#    0.000    2.000    3.750    2.625    0.000    0.000 
#    0.000    0.625   11.000   15.000    6.500    0.000 
#    0.000    0.000    0.000    0.000    0.000    0.250 
#
# Total GULP energy -89203.789972 kJ/mol
# GULP energy per Si atom -5575.236873 kJ/mol
# Density = 2.234846 g / cm^3
# Si number density = 22.399442 Si / 1000 Ang^3
#
#
#
# Elastic Constant Matrix: (Units=GPa)
#
#
# Indices 1 2 3 4 5 6 
#
# 1 91.8315 18.8859 16.6641 -4.6503 -6.4490 0.6164
# 2 18.8859 43.5772 29.2947 -13.1052 -8.3273 2.4984
# 3 16.6641 29.2947 103.2708 -7.3386 -16.0825 -8.0170
# 4 -4.6503 -13.1052 -7.3386 30.6004 -2.1059 -3.8333
# 5 -6.4490 -8.3273 -16.0825 -2.1059 36.7131 -2.4750
# 6 0.6164 2.4984 -8.0170 -3.8333 -2.4750 20.5585
#
#
#
# Elastic Compliance Matrix: (Units=1/GPa)
#
#
# Indices 1 2 3 4 5 6 
#
# 1 0.012008 -0.004838 -0.000453 -0.000289 0.000803 0.000094
# 2 -0.004838 0.035109 -0.008054 0.012075 0.003973 -0.004533
# 3 -0.000453 -0.008054 0.013328 0.000846 0.004444 0.006882
# 4 -0.000289 0.012075 0.000846 0.039270 0.005776 0.006889
# 5 0.000803 0.003973 0.004444 0.005776 0.030965 0.006031
# 6 0.000094 -0.004533 0.006882 0.006889 0.006031 0.053884
#
#
# Mechanical properties :
#
#
# Convention : Reuss Voigt Hill
#
# Bulk Modulus (GPa) = 29.62607 40.92987 35.27797
# Shear Modulus (GPa) = 22.47131 29.16340 25.81736
#
# Velocity S-wave (km/s) = 3.17078 3.61220 3.39866
# Velocity P-wave (km/s) = 5.16334 5.97576 5.58434
#
# Compressibility (1/GPa) = 0.03375405
#
# Stress axis : x y z
#
# Youngs Moduli (GPa) = 83.27837 28.48261 75.03232
#
# Poissons Ratio (x) = 0.13780 0.03402
# Poissons Ratio (y) = 0.40291 0.60430
# Poissons Ratio (z) = 0.03776 0.22939
#
# Static dielectric constant tensor:
#      x y z
#    x 2.017750 -0.030360 -0.009440 
#    y -0.030360 1.852640 0.008520 
#    z -0.009440 0.008520 1.863050 
# 
# From -- ./inp_files/321091.got.cif
#   From: 2010.05.17/outbox.cif.g08.bks.cpg/sg2_161_cif.got.tgz:321091.got - 2010.06.03 11:33:40.
