data_PCOD9081484
_publ_section_title
;
Structure prediction by ZEFSAII (Michael W. Deem and Ramdas Pophale) SiO2 
 PCOD9081484
Probable space group: P -1
;
_chemical_formula_sum "Si O2"
_cell_formula_units_Z 14
_cell_length_a 11.760643
_cell_length_b 17.387040
_cell_length_c 14.460821
_cell_angle_alpha 165.093412
_cell_angle_beta 77.289882
_cell_angle_gamma 101.026172
_cell_volume 739.335526
_symmetry_space_group_name_H-M "P -1"
_symmetry_group_IT_number 2
_symmetry_cell_setting 'triclinic'
loop_
_space_group_symop_operation_xyz
x,y,z
-x,-y,-z
loop_
_atom_site_type_symbol
_atom_site_label
_atom_site_fract_x
_atom_site_fract_y
_atom_site_fract_z
Si Si1 0.024241 0.941990 0.821446
Si Si2 0.644166 0.440741 0.102853
Si Si3 0.620810 0.786912 0.328521
Si Si4 0.593687 0.762706 0.094411
Si Si5 0.861266 0.675209 0.406275
Si Si6 0.012989 0.972129 0.355201
Si Si7 0.849247 0.707987 0.940279
O O1 0.108345 0.633674 0.438492
O O2 0.905830 0.891749 0.727814
O O3 0.084925 0.200293 0.057182
O O4 0.000000 0.000000 0.000000
O O5 0.652787 0.535617 0.105006
O O6 0.724196 0.651867 0.389164
O O7 0.506527 0.453411 0.166821
O O8 0.685332 0.086385 0.688476
O O9 0.635305 0.696592 0.115239
O O10 0.484516 0.917772 0.516738
O O11 0.710555 0.752944 0.004396
O O12 0.923261 0.770259 0.410198
O O13 0.910357 0.341618 0.038106
O O14 0.000000 0.000000 0.500000
O O15 0.893397 0.923208 0.263951
#
# Coordination Sequence:
#
# PCOD9081484 Si02
#       7
#     2   2   2   2   2   2   2
#     4  10  22  42  59  78 100 137 185 238 282 313
#     4  10  19  32  50  75 106 145 177 209 245 312
#     4   9  20  31  48  77 110 158 172 199 245 317
#     4   9  21  32  51  79 112 140 188 199 262 303
#     4  10  21  35  54  77 102 141 187 207 270 324
#     4  10  21  34  47  79 111 144 168 218 260 315
#     4  10  22  34  59  82 106 138 182 224 267 325
#
# _framework density 18.935922999999999
#
# number of rings (size 3 to 8) (size 9 to 14) (size 15 to 20)
#    0.857    1.429    0.000    2.143    6.000    0.000 
#    0.000    0.000    0.000    1.714    0.000    0.000 
#    0.000    0.000    0.000    0.000    0.000    0.000 
#
# Total GULP energy -78028.104380 kJ/mol
# GULP energy per Si atom -5573.436027 kJ/mol
# Density = 1.889282 g / cm^3
# Si number density = 18.935923 Si / 1000 Ang^3
#
#
#
# Elastic Constant Matrix: (Units=GPa)
#
#
# Indices 1 2 3 4 5 6 
#
# 1 111.1650 27.1640 17.0403 -11.4359 35.3142 15.3882
# 2 27.1640 72.2994 9.3473 -1.4479 16.1366 -4.1382
# 3 17.0403 9.3473 21.9212 4.2819 11.7716 6.5435
# 4 -11.4359 -1.4479 4.2819 39.8227 -4.6328 3.7444
# 5 35.3142 16.1366 11.7716 -4.6328 23.5223 4.9155
# 6 15.3882 -4.1382 6.5435 3.7444 4.9155 15.1059
#
#
#
# Elastic Compliance Matrix: (Units=1/GPa)
#
#
# Indices 1 2 3 4 5 6 
#
# 1 0.019729 -0.002957 0.003327 0.003654 -0.025404 -0.014989
# 2 -0.002957 0.018249 -0.004101 -0.002067 -0.009212 0.013298
# 3 0.003327 -0.004101 0.072151 -0.009010 -0.035467 -0.021992
# 4 0.003654 -0.002067 -0.009010 0.028985 0.008295 -0.010270
# 5 -0.025404 -0.009212 -0.035467 0.008295 0.105894 0.002204
# 6 -0.014989 0.013298 -0.021992 -0.010270 0.002204 0.096466
#
#
# Mechanical properties :
#
#
# Convention : Reuss Voigt Hill
#
# Bulk Modulus (GPa) = 9.74041 34.72096 22.23069
# Shear Modulus (GPa) = 13.04937 25.81244 19.43090
#
# Velocity S-wave (km/s) = 2.62798 3.69609 3.20682
# Velocity P-wave (km/s) = 3.78991 6.04901 5.04748
#
# Compressibility (1/GPa) = 0.10266504
#
# Stress axis : x y z
#
# Youngs Moduli (GPa) = 50.68604 54.79847 13.85980
#
# Poissons Ratio (x) = 0.16207 -0.04611
# Poissons Ratio (y) = 0.14990 0.05684
# Poissons Ratio (z) = -0.16862 0.22474
#
# Static dielectric constant tensor:
#      x y z
#    x 1.719310 -0.005580 0.032380 
#    y -0.005580 1.645700 0.026130 
#    z 0.032380 0.026130 1.667050 
# 
# From -- ./inp_files/117674.got.cif
#   From: 2010.05.17/outbox.cif.g08.bks.cpg/sg2_59_cif.got.tgz:117674.got - 2010.06.03 11:33:40.
