data_PCOD9081541
_publ_section_title
;
Structure prediction by ZEFSAII (Michael W. Deem and Ramdas Pophale) SiO2 
 PCOD9081541
Probable space group: P -1
;
_chemical_formula_sum "Si O2"
_cell_formula_units_Z 16
_cell_length_a 5.406111
_cell_length_b 20.954548
_cell_length_c 16.857195
_cell_angle_alpha 28.722384
_cell_angle_beta 83.371318
_cell_angle_gamma 70.376041
_cell_volume 793.868985
_symmetry_space_group_name_H-M "P -1"
_symmetry_group_IT_number 2
_symmetry_cell_setting 'triclinic'
loop_
_space_group_symop_operation_xyz
x,y,z
-x,-y,-z
loop_
_atom_site_type_symbol
_atom_site_label
_atom_site_fract_x
_atom_site_fract_y
_atom_site_fract_z
Si Si1 0.103987 0.170095 0.994415
Si Si2 0.245189 0.524717 0.423804
Si Si3 0.329613 0.921326 0.859164
Si Si4 0.675706 0.317978 0.171033
Si Si5 0.135561 0.335870 0.218270
Si Si6 0.712093 0.314168 0.986947
Si Si7 0.560331 0.357834 0.436942
Si Si8 0.184225 0.244971 0.488795
O O1 0.921266 0.306046 0.792380
O O2 0.014011 0.240618 0.009960
O O3 0.970439 0.057629 0.118165
O O4 0.439661 0.109197 0.047335
O O5 0.500000 0.500000 0.500000
O O6 0.402408 0.411370 0.468382
O O7 0.000000 0.500000 0.500000
O O8 0.288659 0.070218 0.653465
O O9 0.421174 0.778106 0.953015
O O10 0.470538 0.254812 0.276361
O O11 0.968565 0.255500 0.275836
O O12 0.500000 0.500000 0.000000
O O13 0.724811 0.297111 0.098541
O O14 0.095685 0.347545 0.301195
O O15 0.000000 0.500000 0.000000
O O16 0.548748 0.490271 0.777943
O O17 0.436009 0.259256 0.506964
O O18 0.900378 0.292027 0.500073
#
# Coordination Sequence:
#
# PCOD9081541 Si02
#       8
#     2   2   2   2   2   2   2   2
#     4   9  21  38  64  87 116 168 200 238 303 361
#     4  11  22  39  66 100 129 149 196 251 302 355
#     4  10  22  39  62  85 123 165 209 247 300 367
#     4  10  19  32  51  81 113 150 194 258 307 346
#     4  10  20  33  52  80 117 156 191 255 315 341
#     4   9  22  36  64  84 117 159 220 244 306 370
#     4  11  23  37  66  93 117 156 205 258 292 351
#     4  12  23  40  61  91 124 157 213 255 304 357
#
# _framework density 20.15446
#
# number of rings (size 3 to 8) (size 9 to 14) (size 15 to 20)
#    0.750    1.000    0.000    6.000    5.250    0.000 
#    0.000    1.250    0.000   15.000    0.000    0.000 
#    0.000    0.000    0.000    0.000    0.000    0.000 
#
# Total GULP energy -89132.907059 kJ/mol
# GULP energy per Si atom -5570.806691 kJ/mol
# Density = 2.010859 g / cm^3
# Si number density = 20.154460 Si / 1000 Ang^3
#
#
#
# Elastic Constant Matrix: (Units=GPa)
#
#
# Indices 1 2 3 4 5 6 
#
# 1 158.1923 32.4571 26.2716 7.3318 10.4798 12.4788
# 2 32.4571 44.6237 26.5732 23.7117 -8.5536 3.5153
# 3 26.2716 26.5732 59.6931 6.1269 -10.0701 7.3843
# 4 7.3318 23.7117 6.1269 31.9967 7.5302 -4.7016
# 5 10.4798 -8.5536 -10.0701 7.5302 13.5723 1.3070
# 6 12.4788 3.5153 7.3843 -4.7016 1.3070 29.7188
#
#
#
# Elastic Compliance Matrix: (Units=1/GPa)
#
#
# Indices 1 2 3 4 5 6 
#
# 1 -0.043914 0.214656 0.006843 -0.231550 0.308403 -0.058847
# 2 0.214656 -0.888352 -0.050372 0.964715 -1.321165 0.238188
# 3 0.006843 -0.050372 0.023796 0.042260 -0.043375 0.005765
# 4 -0.231550 0.964715 0.042260 -1.004427 1.399278 -0.247829
# 5 0.308403 -1.321165 -0.043375 1.399278 -1.838339 0.339775
# 6 -0.058847 0.238188 0.005765 -0.247829 0.339775 -0.025399
#
#
# Mechanical properties :
#
#
# Convention : Reuss Voigt Hill
#
# Bulk Modulus (GPa) = -1.76611 48.12366 23.17878
# Shear Modulus (GPa) = -1.16073 26.87137 12.85532
#
# Velocity S-wave (km/s) = -0.75972 3.65536 2.52829
# Velocity P-wave (km/s) = 1.28365 6.46102 4.47756
#
# Compressibility (1/GPa) = -0.56621591
#
# Stress axis : x y z
#
# Youngs Moduli (GPa) = -22.77170 -1.12568 42.02350
#
# Poissons Ratio (x) = 0.24163 -0.28758
# Poissons Ratio (y) = 4.88808 2.11680
# Poissons Ratio (z) = 0.15583 -0.05670
#
# Static dielectric constant tensor:
#      x y z
#    x 1.773070 -0.045990 0.005240 
#    y -0.045990 1.697200 -0.017620 
#    z 0.005240 -0.017620 1.717600 
# 
# From -- ./inp_files/485531.got.cif
#   From: 2010.05.17/outbox.cif.g08.bks.cpg/sg2_243_cif.got.tgz:485531.got - 2010.06.03 11:33:40.
