data_PCOD9081182
_publ_section_title
;
Structure prediction by ZEFSAII (Michael W. Deem and Ramdas Pophale) SiO2 
 PCOD9081182
Probable space group: P -1
;
_chemical_formula_sum "Si O2"
_cell_formula_units_Z 16
_cell_length_a 7.677393
_cell_length_b 13.884834
_cell_length_c 11.767965
_cell_angle_alpha 46.742779
_cell_angle_beta 59.889356
_cell_angle_gamma 78.160838
_cell_volume 770.951406
_symmetry_space_group_name_H-M "P -1"
_symmetry_group_IT_number 2
_symmetry_cell_setting 'triclinic'
loop_
_space_group_symop_operation_xyz
x,y,z
-x,-y,-z
loop_
_atom_site_type_symbol
_atom_site_label
_atom_site_fract_x
_atom_site_fract_y
_atom_site_fract_z
Si Si1 0.757895 0.038786 0.605057
Si Si2 0.492996 0.876831 0.193220
Si Si3 0.775015 0.070993 0.305479
Si Si4 0.050811 0.133337 0.955775
Si Si5 0.838546 0.795772 0.524107
Si Si6 0.838464 0.379726 0.792972
Si Si7 0.460869 0.240394 0.166457
Si Si8 0.886352 0.367410 0.536689
O O1 0.561454 0.069329 0.710482
O O2 0.786520 0.084486 0.427247
O O3 0.960521 0.116327 0.544822
O O4 0.704132 0.874437 0.754737
O O5 0.704487 0.828350 0.158526
O O6 0.309254 0.747536 0.339082
O O7 0.500000 0.000000 0.000000
O O8 0.611266 0.152669 0.246780
O O9 0.722073 0.909955 0.428324
O O10 0.978201 0.113154 0.127104
O O11 0.925584 0.243415 0.867384
O O12 0.000000 0.000000 0.000000
O O13 0.679011 0.707182 0.736322
O O14 0.926023 0.712298 0.467501
O O15 0.020703 0.502529 0.677838
O O16 0.817385 0.418260 0.637976
O O17 0.621366 0.348060 0.953790
#
# Coordination Sequence:
#
# PCOD9081182 Si02
#       8
#     2   2   2   2   2   2   2   2
#     4  10  19  31  50  81 110 132 169 223 273 316
#     4  11  21  35  58  83 110 140 179 225 272 325
#     4  10  19  31  50  81 110 132 169 223 273 316
#     4  11  21  35  58  83 110 140 179 225 272 325
#     4  10  19  32  53  77 106 137 174 220 270 321
#     4  10  22  38  54  76 108 144 183 224 268 323
#     4  10  19  32  53  77 106 137 174 220 270 321
#     4  10  22  38  54  76 108 144 183 224 268 323
#
# _framework density 20.753578000000001
#
# number of rings (size 3 to 8) (size 9 to 14) (size 15 to 20)
#    0.000    1.750    0.000    8.250    0.000    3.000 
#    0.000    0.000    0.000   12.000    0.000    0.000 
#    0.000    1.000    0.000    0.000    0.000    0.000 
#
# Total GULP energy -89101.160609 kJ/mol
# GULP energy per Si atom -5568.822538 kJ/mol
# Density = 2.070634 g / cm^3
# Si number density = 20.753578 Si / 1000 Ang^3
#
#
#
# Elastic Constant Matrix: (Units=GPa)
#
#
# Indices 1 2 3 4 5 6 
#
# 1 40.5187 8.1184 26.7377 12.3138 -14.3934 1.8053
# 2 8.1184 53.8360 36.7731 16.7572 -9.2933 5.1226
# 3 26.7377 36.7731 158.6096 26.6623 -34.0148 8.8226
# 4 12.3138 16.7572 26.6623 48.4257 -6.7056 -10.7306
# 5 -14.3934 -9.2933 -34.0148 -6.7056 35.7362 8.9418
# 6 1.8053 5.1226 8.8226 -10.7306 8.9418 23.5504
#
#
#
# Elastic Compliance Matrix: (Units=1/GPa)
#
#
# Indices 1 2 3 4 5 6 
#
# 1 0.033453 0.002191 -0.000607 -0.009728 0.014866 -0.012891
# 2 0.002191 0.025098 -0.002752 -0.009376 0.005800 -0.011070
# 3 -0.000607 -0.002752 0.010888 -0.005626 0.010882 -0.010129
# 4 -0.009728 -0.009376 -0.005626 0.033281 -0.011586 0.024456
# 5 0.014866 0.005800 0.010882 -0.011586 0.051497 -0.031310
# 6 -0.012891 -0.011070 -0.010129 0.024456 -0.031310 0.072684
#
#
# Mechanical properties :
#
#
# Convention : Reuss Voigt Hill
#
# Bulk Modulus (GPa) = 14.90268 44.02474 29.46371
# Shear Modulus (GPa) = 19.87243 33.63146 26.75195
#
# Velocity S-wave (km/s) = 3.09778 4.02993 3.59420
# Velocity P-wave (km/s) = 4.47116 6.55079 5.60822
#
# Compressibility (1/GPa) = 0.06710204
#
# Stress axis : x y z
#
# Youngs Moduli (GPa) = 29.89257 39.84428 91.84401
#
# Poissons Ratio (x) = -0.08729 0.05573
# Poissons Ratio (y) = -0.06548 0.25278
# Poissons Ratio (z) = 0.01814 0.10966
#
# Static dielectric constant tensor:
#      x y z
#    x 1.810180 0.042610 -0.014450 
#    y 0.042610 1.818230 -0.043560 
#    z -0.014450 -0.043560 1.872220 
# 
# From -- ./inp_files/398543.got.cif
#   From: 2010.05.17/outbox.cif.g08.bks.cpg/sg2_200_cif.got.tgz:398543.got - 2010.06.03 11:33:40.
