data_PCOD9081040
_publ_section_title
;
Structure prediction by ZEFSAII (Michael W. Deem and Ramdas Pophale) SiO2 
 PCOD9081040
Probable space group: P -1
;
_chemical_formula_sum "Si O2"
_cell_formula_units_Z 16
_cell_length_a 9.396452
_cell_length_b 7.068908
_cell_length_c 16.174817
_cell_angle_alpha 98.287674
_cell_angle_beta 43.077673
_cell_angle_gamma 77.375501
_cell_volume 637.336130
_symmetry_space_group_name_H-M "P -1"
_symmetry_group_IT_number 2
_symmetry_cell_setting 'triclinic'
loop_
_space_group_symop_operation_xyz
x,y,z
-x,-y,-z
loop_
_atom_site_type_symbol
_atom_site_label
_atom_site_fract_x
_atom_site_fract_y
_atom_site_fract_z
Si Si1 0.790033 0.483794 0.044390
Si Si2 0.604179 0.671003 0.967638
Si Si3 0.909729 0.021838 0.787995
Si Si4 0.005439 0.826057 0.556213
Si Si5 0.631704 0.832949 0.604746
Si Si6 0.093275 0.985877 0.867444
Si Si7 0.476187 0.339831 0.669570
Si Si8 0.110887 0.363382 0.686177
O O1 0.677879 0.660976 0.031413
O O2 0.613923 0.530971 0.197871
O O3 0.000000 0.500000 0.000000
O O4 0.923145 0.243470 0.934338
O O5 0.363834 0.881233 0.060569
O O6 0.500000 0.500000 0.000000
O O7 0.846776 0.571900 0.806884
O O8 0.047708 0.877018 0.799260
O O9 0.044124 0.168490 0.721482
O O10 0.908084 0.935199 0.692252
O O11 0.278919 0.656988 0.450670
O O12 0.832128 0.747344 0.584518
O O13 0.000000 0.000000 0.500000
O O14 0.740988 0.704397 0.465421
O O15 0.375837 0.871059 0.743494
O O16 0.561170 0.085362 0.632852
O O17 0.000000 0.000000 0.000000
O O18 0.274107 0.391783 0.689235
#
# Coordination Sequence:
#
# PCOD9081040 Si02
#       8
#     2   2   2   2   2   2   2   2
#     4  12  20  36  61  89 118 151 202 258 290 342
#     4  10  19  30  54  93 116 147 194 253 306 335
#     4  11  19  36  57  88 126 153 200 249 301 353
#     4  10  20  29  56  93 121 146 185 264 312 338
#     4  11  20  35  56  86 122 149 201 244 304 353
#     4  12  26  42  59  83 125 173 198 229 299 376
#     4  11  19  30  54  90 116 145 188 253 307 332
#     4  11  18  31  56  91 120 149 187 263 301 344
#
# _framework density 25.104496000000001
#
# number of rings (size 3 to 8) (size 9 to 14) (size 15 to 20)
#    0.000    1.000    8.750    2.625    1.750    0.000 
#    0.000    0.625    0.000    6.000    0.000    0.000 
#    0.000    0.000    0.000    0.000    0.000    0.000 
#
# Total GULP energy -89294.285877 kJ/mol
# GULP energy per Si atom -5580.892867 kJ/mol
# Density = 2.504736 g / cm^3
# Si number density = 25.104496 Si / 1000 Ang^3
#
#
#
# Elastic Constant Matrix: (Units=GPa)
#
#
# Indices 1 2 3 4 5 6 
#
# 1 175.3855 30.1838 76.1246 -9.5005 -15.9027 -32.1318
# 2 30.1838 64.1448 30.7795 -4.2011 -3.8323 -4.4488
# 3 76.1246 30.7795 219.7350 -5.2745 -13.0780 -11.3949
# 4 -9.5005 -4.2011 -5.2745 31.1780 -10.9641 3.0001
# 5 -15.9027 -3.8323 -13.0780 -10.9641 62.2074 2.7867
# 6 -32.1318 -4.4488 -11.3949 3.0001 2.7867 15.1175
#
#
#
# Elastic Compliance Matrix: (Units=1/GPa)
#
#
# Indices 1 2 3 4 5 6 
#
# 1 0.011120 -0.002525 -0.002311 0.001194 0.001487 0.020640
# 2 -0.002525 0.017562 -0.001612 0.001667 0.000473 -0.001832
# 3 -0.002311 -0.001612 0.005550 0.000363 0.000603 -0.001387
# 4 0.001194 0.001667 0.000363 0.035673 0.006999 -0.005067
# 5 0.001487 0.000473 0.000603 0.006999 0.017887 -0.000931
# 6 0.020640 -0.001832 -0.001387 -0.005067 -0.000931 0.109611
#
#
# Mechanical properties :
#
#
# Convention : Reuss Voigt Hill
#
# Bulk Modulus (GPa) = 46.87040 81.49344 64.18192
# Shear Modulus (GPa) = 22.99794 43.17906 33.08850
#
# Velocity S-wave (km/s) = 3.02998 4.15176 3.63441
# Velocity P-wave (km/s) = 5.56342 7.45083 6.57520
#
# Compressibility (1/GPa) = 0.02133543
#
# Stress axis : x y z
#
# Youngs Moduli (GPa) = 89.92503 56.94156 180.17575
#
# Poissons Ratio (x) = 0.14379 0.41644
# Poissons Ratio (y) = 0.22708 0.29044
# Poissons Ratio (z) = 0.20784 0.09179
#
# Static dielectric constant tensor:
#      x y z
#    x 2.020210 -0.005130 -0.061680 
#    y -0.005130 2.053380 -0.185720 
#    z -0.061680 -0.185720 1.617850 
# 
# From -- ./inp_files/281186.got.cif
#   From: 2010.05.17/outbox.cif.g08.bks.cpg/sg2_141_cif.got.tgz:281186.got - 2010.06.03 11:33:40.
