data_PCOD9081674
_publ_section_title
;
Structure prediction by ZEFSAII (Michael W. Deem and Ramdas Pophale) SiO2 
 PCOD9081674
Probable space group: P -1
;
_chemical_formula_sum "Si O2"
_cell_formula_units_Z 16
_cell_length_a 11.975590
_cell_length_b 11.116377
_cell_length_c 8.435631
_cell_angle_alpha 116.403578
_cell_angle_beta 39.385561
_cell_angle_gamma 110.682712
_cell_volume 638.157789
_symmetry_space_group_name_H-M "P -1"
_symmetry_group_IT_number 2
_symmetry_cell_setting 'triclinic'
loop_
_space_group_symop_operation_xyz
x,y,z
-x,-y,-z
loop_
_atom_site_type_symbol
_atom_site_label
_atom_site_fract_x
_atom_site_fract_y
_atom_site_fract_z
Si Si1 0.869237 0.072090 0.521674
Si Si2 0.245223 0.541642 0.192149
Si Si3 0.803084 0.517450 0.158981
Si Si4 0.372560 0.984228 0.979340
Si Si5 0.665327 0.270040 0.334521
Si Si6 0.548674 0.227840 0.792760
Si Si7 0.921096 0.796622 0.124491
Si Si8 0.917721 0.717464 0.730929
O O1 0.810363 0.046243 0.749876
O O2 0.713939 0.143288 0.632458
O O3 0.025265 0.181736 0.408779
O O4 0.895972 0.935919 0.318881
O O5 0.419865 0.631250 0.069330
O O6 0.238016 0.391151 0.180561
O O7 0.090253 0.621413 0.499898
O O8 0.200061 0.527784 0.047884
O O9 0.668761 0.419647 0.343574
O O10 0.791136 0.679030 0.265477
O O11 0.000000 0.500000 0.000000
O O12 0.412662 0.851222 0.757428
O O13 0.500000 0.000000 0.000000
O O14 0.392663 0.120975 0.937203
O O15 0.575810 0.258638 0.596591
O O16 0.873679 0.239942 0.103569
O O17 0.892109 0.798250 0.968334
#
# Coordination Sequence:
#
# PCOD9081674 Si02
#       8
#     2   2   2   2   2   2   2   2
#     4  10  19  34  54  79 115 141 174 210 276 329
#     4   9  16  31  51  77 105 135 180 214 265 305
#     4   9  19  30  49  79 113 140 171 216 265 321
#     4  10  22  37  54  77 105 148 184 220 256 317
#     4  11  19  34  56  82 106 134 183 229 266 309
#     4  10  20  35  58  80 103 144 185 225 254 310
#     4  10  19  32  53  84 115 138 168 219 279 326
#     4   9  16  27  52  80 106 135 168 217 262 317
#
# _framework density 25.072167
#
# number of rings (size 3 to 8) (size 9 to 14) (size 15 to 20)
#    0.000    2.250    2.500    3.000    1.750    0.500 
#    0.000    0.000    0.000   12.750    0.000    0.000 
#    0.000    0.000    0.000    0.000    0.000    0.000 
#
# Total GULP energy -89497.151104 kJ/mol
# GULP energy per Si atom -5593.571944 kJ/mol
# Density = 2.501510 g / cm^3
# Si number density = 25.072167 Si / 1000 Ang^3
#
#
#
# Elastic Constant Matrix: (Units=GPa)
#
#
# Indices 1 2 3 4 5 6 
#
# 1 94.9505 39.8494 27.9820 -6.0147 9.3832 20.4230
# 2 39.8494 241.1640 76.2649 -43.8991 33.7681 13.3492
# 3 27.9820 76.2649 80.7519 -21.3756 19.6441 3.3530
# 4 -6.0147 -43.8991 -21.3756 52.5432 -0.9614 13.1647
# 5 9.3832 33.7681 19.6441 -0.9614 36.5194 -1.7386
# 6 20.4230 13.3492 3.3530 13.1647 -1.7386 36.1166
#
#
#
# Elastic Compliance Matrix: (Units=1/GPa)
#
#
# Indices 1 2 3 4 5 6 
#
# 1 0.013641 -0.000091 -0.003218 0.002216 -0.002026 -0.008287
# 2 -0.000091 0.007381 -0.004167 0.005509 -0.004630 -0.004521
# 3 -0.003218 -0.004167 0.020043 0.004282 -0.006006 -0.000351
# 4 0.002216 0.005509 0.004282 0.029169 -0.007899 -0.014699
# 5 -0.002026 -0.004630 -0.006006 -0.007899 0.035588 0.008007
# 6 -0.008287 -0.004521 -0.000351 -0.014699 0.008007 0.039821
#
#
# Mechanical properties :
#
#
# Convention : Reuss Voigt Hill
#
# Bulk Modulus (GPa) = 38.29304 78.33988 58.31646
# Shear Modulus (GPa) = 29.53383 43.22051 36.37717
#
# Velocity S-wave (km/s) = 3.43586 4.15642 3.81320
# Velocity P-wave (km/s) = 5.57193 7.37211 6.53431
#
# Compressibility (1/GPa) = 0.02611440
#
# Stress axis : x y z
#
# Youngs Moduli (GPa) = 73.30774 135.49177 49.89285
#
# Poissons Ratio (x) = 0.01229 0.16054
# Poissons Ratio (y) = 0.00665 0.20789
# Poissons Ratio (z) = 0.23588 0.56456
#
# Static dielectric constant tensor:
#      x y z
#    x 2.052880 -0.002140 -0.131480 
#    y -0.002140 2.010670 -0.048710 
#    z -0.131480 -0.048710 1.986800 
# 
# From -- ./inp_files/262793.got.cif
#   From: 2010.05.17/outbox.cif.g08.bks.cpg/sg2_132_cif.got.tgz:262793.got - 2010.06.03 11:33:40.
