data_PCOD9081356
_publ_section_title
;
Structure prediction by ZEFSAII (Michael W. Deem and Ramdas Pophale) SiO2 
 PCOD9081356
Probable space group: P -1
;
_chemical_formula_sum "Si O2"
_cell_formula_units_Z 16
_cell_length_a 18.827857
_cell_length_b 9.006870
_cell_length_c 11.332583
_cell_angle_alpha 67.841367
_cell_angle_beta 35.914777
_cell_angle_gamma 97.138410
_cell_volume 638.706276
_symmetry_space_group_name_H-M "P -1"
_symmetry_group_IT_number 2
_symmetry_cell_setting 'triclinic'
loop_
_space_group_symop_operation_xyz
x,y,z
-x,-y,-z
loop_
_atom_site_type_symbol
_atom_site_label
_atom_site_fract_x
_atom_site_fract_y
_atom_site_fract_z
Si Si1 0.383268 0.138412 0.787170
Si Si2 0.824775 0.714650 0.380493
Si Si3 0.701612 0.632571 0.032208
Si Si4 0.125333 0.773366 0.035279
Si Si5 0.629566 0.004757 0.757446
Si Si6 0.001485 0.719753 0.713109
Si Si7 0.436930 0.268611 0.283497
Si Si8 0.732773 0.404234 0.383276
O O1 0.533926 0.375577 0.419106
O O2 0.294820 0.185478 0.973397
O O3 0.525069 0.176042 0.662967
O O4 0.223609 0.882865 0.998981
O O5 0.681388 0.704095 0.619154
O O6 0.714525 0.506900 0.485078
O O7 0.938589 0.698645 0.306306
O O8 0.000000 0.000000 0.000000
O O9 0.615515 0.514813 0.052444
O O10 0.901973 0.744115 0.753464
O O11 0.283397 0.008636 0.654705
O O12 0.064505 0.528364 0.161491
O O13 0.783657 0.282545 0.398161
O O14 0.765334 0.039792 0.648137
O O15 0.512666 0.788078 0.879301
O O16 0.500000 0.000000 0.000000
O O17 0.895442 0.642404 0.004453
#
# Coordination Sequence:
#
# PCOD9081356 Si02
#       8
#     2   2   2   2   2   2   2   2
#     4   9  19  31  54  90 123 144 180 239 295 341
#     4  10  19  31  56  88 117 148 189 237 285 339
#     4   9  19  32  55  89 120 146 185 234 291 346
#     4  10  19  31  55  92 119 143 185 237 290 342
#     4  12  26  41  57  83 118 157 198 241 286 340
#     4  11  21  35  60  89 115 150 189 240 291 345
#     4  10  20  36  56  83 117 155 185 235 292 338
#     4  11  20  38  62  85 119 151 195 238 290 346
#
# _framework density 25.050640999999999
#
# number of rings (size 3 to 8) (size 9 to 14) (size 15 to 20)
#    0.000    1.750    3.750    1.875    8.750    1.500 
#    0.000    1.250    0.000    0.750    0.000    0.000 
#    0.000    0.000    0.000    0.000    0.000    0.000 
#
# Total GULP energy -89577.204303 kJ/mol
# GULP energy per Si atom -5598.575269 kJ/mol
# Density = 2.499362 g / cm^3
# Si number density = 25.050641 Si / 1000 Ang^3
#
#
#
# Elastic Constant Matrix: (Units=GPa)
#
#
# Indices 1 2 3 4 5 6 
#
# 1 115.7446 56.3661 52.4559 5.1937 -33.2010 14.4411
# 2 56.3661 143.6350 26.0106 13.8373 -11.7533 30.7366
# 3 52.4559 26.0106 106.0699 14.5922 -25.4306 17.7264
# 4 5.1937 13.8373 14.5922 31.8848 -8.4239 0.0830
# 5 -33.2010 -11.7533 -25.4306 -8.4239 45.9936 -11.1663
# 6 14.4411 30.7366 17.7264 0.0830 -11.1663 50.6857
#
#
#
# Elastic Compliance Matrix: (Units=1/GPa)
#
#
# Indices 1 2 3 4 5 6 
#
# 1 0.015628 -0.005453 -0.005447 0.004507 0.008330 0.002587
# 2 -0.005453 0.010365 0.001072 -0.004874 -0.002985 -0.005756
# 3 -0.005447 0.001072 0.013655 -0.005263 0.002102 -0.003402
# 4 0.004507 -0.004874 -0.005263 0.037014 0.007095 0.005015
# 5 0.008330 -0.002985 0.002102 0.007095 0.030783 0.005472
# 6 0.002587 -0.005756 -0.003402 0.005015 0.005472 0.024870
#
#
# Mechanical properties :
#
#
# Convention : Reuss Voigt Hill
#
# Bulk Modulus (GPa) = 50.01853 70.56831 60.29342
# Shear Modulus (GPa) = 31.51900 41.08726 36.30313
#
# Velocity S-wave (km/s) = 3.55098 4.05429 3.81095
# Velocity P-wave (km/s) = 6.06819 7.08151 6.59434
#
# Compressibility (1/GPa) = 0.01999259
#
# Stress axis : x y z
#
# Youngs Moduli (GPa) = 63.98784 96.47989 73.23195
#
# Poissons Ratio (x) = 0.52606 0.39888
# Poissons Ratio (y) = 0.34890 -0.07848
# Poissons Ratio (z) = 0.34853 -0.10340
#
# Static dielectric constant tensor:
#      x y z
#    x 1.990090 -0.014880 0.099360 
#    y -0.014880 1.906720 -0.047330 
#    z 0.099360 -0.047330 2.100020 
# 
# From -- ./inp_files/179199.got.cif
#   From: 2010.05.17/outbox.cif.g08.bks.cpg/sg2_90_cif.got.tgz:179199.got - 2010.06.03 11:33:40.
