data_PCOD9081611
_publ_section_title
;
Structure prediction by ZEFSAII (Michael W. Deem and Ramdas Pophale) SiO2 
 PCOD9081611
Probable space group: P -1
;
_chemical_formula_sum "Si O2"
_cell_formula_units_Z 16
_cell_length_a 8.716196
_cell_length_b 29.720276
_cell_length_c 8.698247
_cell_angle_alpha 36.860901
_cell_angle_beta 32.212529
_cell_angle_gamma 40.805371
_cell_volume 697.615990
_symmetry_space_group_name_H-M "P -1"
_symmetry_group_IT_number 2
_symmetry_cell_setting 'triclinic'
loop_
_space_group_symop_operation_xyz
x,y,z
-x,-y,-z
loop_
_atom_site_type_symbol
_atom_site_label
_atom_site_fract_x
_atom_site_fract_y
_atom_site_fract_z
Si Si1 0.713896 0.209985 0.129954
Si Si2 0.283232 0.437113 0.230455
Si Si3 0.714678 0.879350 0.294886
Si Si4 0.640383 0.195143 0.652652
Si Si5 0.077511 0.598278 0.085400
Si Si6 0.779498 0.699586 0.526448
Si Si7 0.204476 0.228887 0.182805
Si Si8 0.326206 0.979942 0.849400
O O1 0.554756 0.142357 0.511689
O O2 0.398895 0.278010 0.222974
O O3 0.958506 0.154258 0.961824
O O4 0.937054 0.264898 0.832758
O O5 0.160930 0.529707 0.077986
O O6 0.170575 0.388765 0.326450
O O7 0.177073 0.413708 0.551093
O O8 0.638144 0.413153 0.011563
O O9 0.716871 0.829619 0.584503
O O10 0.655322 0.966469 0.166431
O O11 0.461437 0.253066 0.520823
O O12 0.984045 0.195289 0.352267
O O13 0.506238 0.228675 0.839053
O O14 0.594915 0.109388 0.925359
O O15 0.976324 0.683834 0.870059
O O16 0.500000 0.000000 0.500000
O O17 0.000000 0.000000 0.000000
#
# Coordination Sequence:
#
# PCOD9081611 Si02
#       8
#     2   2   2   2   2   2   2   2
#     4  10  24  39  58  78 109 167 203 219 271 328
#     4  10  19  32  57  82 127 142 185 221 297 352
#     4  11  22  40  58  81 115 153 196 233 275 351
#     4  12  22  35  59  96 109 149 183 244 293 343
#     4  10  19  32  52  95 116 149 166 240 302 344
#     4  11  20  39  59  81 117 153 196 233 266 348
#     4  12  20  35  61  86 126 136 188 239 299 336
#     4  12  22  38  59  89 119 145 180 238 305 348
#
# _framework density 22.935255000000002
#
# number of rings (size 3 to 8) (size 9 to 14) (size 15 to 20)
#    0.000    1.000    5.000    3.000    0.000    0.000 
#    0.000    3.750    0.000    4.500    0.000    0.000 
#    0.000    0.000    0.000    0.000    0.000    0.000 
#
# Total GULP energy -89100.007949 kJ/mol
# GULP energy per Si atom -5568.750497 kJ/mol
# Density = 2.288305 g / cm^3
# Si number density = 22.935255 Si / 1000 Ang^3
#
#
#
# Elastic Constant Matrix: (Units=GPa)
#
#
# Indices 1 2 3 4 5 6 
#
# 1 18.8599 12.7473 17.0439 -1.4322 -18.5300 14.1939
# 2 12.7473 158.1187 33.3420 -22.9810 -11.5743 36.7592
# 3 17.0439 33.3420 106.9229 16.1700 -25.5605 -2.1083
# 4 -1.4322 -22.9810 16.1700 44.7939 4.7834 -7.2659
# 5 -18.5300 -11.5743 -25.5605 4.7834 32.3696 -12.8589
# 6 14.1939 36.7592 -2.1083 -7.2659 -12.8589 36.6638
#
#
#
# Elastic Compliance Matrix: (Units=1/GPa)
#
#
# Indices 1 2 3 4 5 6 
#
# 1 0.157368 0.003979 -0.010844 -0.003053 0.066369 -0.042864
# 2 0.003979 0.011168 -0.006690 0.006628 -0.005440 -0.013717
# 3 -0.010844 -0.006690 0.017874 -0.009224 0.012656 0.014544
# 4 -0.003053 0.006628 -0.009224 0.029578 -0.012879 -0.004649
# 5 0.066369 -0.005440 0.012656 -0.012879 0.081416 0.006491
# 6 -0.042864 -0.013717 0.014544 -0.004649 0.006491 0.059813
#
#
# Mechanical properties :
#
#
# Convention : Reuss Voigt Hill
#
# Bulk Modulus (GPa) = 6.27739 45.57421 25.92580
# Shear Modulus (GPa) = 11.43042 37.48333 24.45688
#
# Velocity S-wave (km/s) = 2.23486 4.04705 3.26904
# Velocity P-wave (km/s) = 3.06633 6.46158 5.05739
#
# Compressibility (1/GPa) = 0.15930183
#
# Stress axis : x y z
#
# Youngs Moduli (GPa) = 6.35451 89.53817 55.94574
#
# Poissons Ratio (x) = -0.35630 0.60665
# Poissons Ratio (y) = -0.02529 0.37430
# Poissons Ratio (z) = 0.06891 0.59905
#
# Static dielectric constant tensor:
#      x y z
#    x 1.738570 -0.368200 0.216440 
#    y -0.368200 1.035950 0.393760 
#    z 0.216440 0.393760 1.648780 
# 
# From -- ./inp_files/227973.got.cif
#   From: 2010.05.17/outbox.cif.g08.bks.cpg/sg2_114_cif.got.tgz:227973.got - 2010.06.03 11:33:40.
