data_PCOD9081795
_publ_section_title
;
Structure prediction by ZEFSAII (Michael W. Deem and Ramdas Pophale) SiO2 
 PCOD9081795
Probable space group: P -1
;
_chemical_formula_sum "Si O2"
_cell_formula_units_Z 14
_cell_length_a 6.848220
_cell_length_b 16.785733
_cell_length_c 9.776264
_cell_angle_alpha 130.883150
_cell_angle_beta 83.239389
_cell_angle_gamma 61.663548
_cell_volume 572.271891
_symmetry_space_group_name_H-M "P -1"
_symmetry_group_IT_number 2
_symmetry_cell_setting 'triclinic'
loop_
_space_group_symop_operation_xyz
x,y,z
-x,-y,-z
loop_
_atom_site_type_symbol
_atom_site_label
_atom_site_fract_x
_atom_site_fract_y
_atom_site_fract_z
Si Si1 0.322195 0.311125 0.351741
Si Si2 0.043956 0.663438 0.133482
Si Si3 0.578874 0.380055 0.228951
Si Si4 0.971972 0.107235 0.723634
Si Si5 0.093928 0.348091 0.140900
Si Si6 0.282386 0.635359 0.354035
Si Si7 0.796300 0.092218 0.253454
O O1 0.520117 0.332753 0.311049
O O2 0.045017 0.484394 0.622195
O O3 0.480439 0.194208 0.332071
O O4 0.297505 0.252752 0.149675
O O5 0.079565 0.655867 0.284682
O O6 0.935518 0.823902 0.284412
O O7 0.850956 0.673135 0.051754
O O8 0.379772 0.501720 0.881263
O O9 0.857524 0.346425 0.174387
O O10 0.312646 0.557232 0.403062
O O11 0.647924 0.268528 0.977990
O O12 0.124606 0.015659 0.749906
O O13 0.000000 0.000000 0.500000
O O14 0.196593 0.790160 0.558866
O O15 0.000000 0.000000 0.000000
#
# Coordination Sequence:
#
# PCOD9081795 Si02
#       7
#     2   2   2   2   2   2   2
#     4  11  20  35  55  87 119 146 191 240 288 339
#     4   9  17  34  54  79 111 149 190 241 271 338
#     4  10  20  36  58  83 112 154 192 240 281 338
#     4  10  19  32  55  84 114 149 193 232 291 343
#     4   9  20  34  58  82 113 152 191 239 284 337
#     4   9  18  31  56  81 106 148 197 228 282 335
#     4  12  21  32  55  88 117 150 189 240 287 347
#
# _framework density 24.463898
#
# number of rings (size 3 to 8) (size 9 to 14) (size 15 to 20)
#    0.000    2.286    5.714    0.429    0.000    0.000 
#    0.000    3.571    0.000    7.714    0.000    0.000 
#    0.000    0.000    0.000    0.000    0.000    0.000 
#
# Total GULP energy -77997.145227 kJ/mol
# GULP energy per Si atom -5571.224659 kJ/mol
# Density = 2.440822 g / cm^3
# Si number density = 24.463898 Si / 1000 Ang^3
#
#
#
# Elastic Constant Matrix: (Units=GPa)
#
#
# Indices 1 2 3 4 5 6 
#
# 1 65.9336 22.5209 10.5472 -9.3300 20.9134 -9.3193
# 2 22.5209 172.1980 29.9189 2.5650 16.1207 -30.8175
# 3 10.5472 29.9189 116.3982 -7.3261 32.8815 -11.3370
# 4 -9.3300 2.5650 -7.3261 43.4410 -7.3217 20.5755
# 5 20.9134 16.1207 32.8815 -7.3217 25.6596 -13.4840
# 6 -9.3193 -30.8175 -11.3370 20.5755 -13.4840 35.8048
#
#
#
# Elastic Compliance Matrix: (Units=1/GPa)
#
#
# Indices 1 2 3 4 5 6 
#
# 1 0.023737 -0.003106 0.006091 0.005510 -0.027973 -0.008267
# 2 -0.003106 0.008170 -0.002370 -0.005748 0.004247 0.010376
# 3 0.006091 -0.002370 0.015586 0.003041 -0.026361 -0.007194
# 4 0.005510 -0.005748 0.003041 0.036198 -0.008377 -0.026506
# 5 -0.027973 0.004247 -0.026361 -0.008377 0.108130 0.033563
# 6 -0.008267 0.010376 -0.007194 -0.026506 0.033563 0.060302
#
#
# Mechanical properties :
#
#
# Convention : Reuss Voigt Hill
#
# Bulk Modulus (GPa) = 20.52345 53.38930 36.95638
# Shear Modulus (GPa) = 18.71733 40.41726 29.56730
#
# Velocity S-wave (km/s) = 2.76905 4.06904 3.48028
# Velocity P-wave (km/s) = 4.31636 6.62927 5.59366
#
# Compressibility (1/GPa) = 0.04872475
#
# Stress axis : x y z
#
# Youngs Moduli (GPa) = 42.12825 122.39829 64.16114
#
# Poissons Ratio (x) = 0.38011 -0.39081
# Poissons Ratio (y) = 0.13083 0.15203
# Poissons Ratio (z) = -0.25660 0.29003
#
# Static dielectric constant tensor:
#      x y z
#    x 2.066520 -0.051570 -0.059870 
#    y -0.051570 2.012390 -0.016790 
#    z -0.059870 -0.016790 2.024180 
# 
# From -- ./inp_files/404938.got.cif
#   From: 2010.05.17/outbox.cif.g08.bks.cpg/sg2_203_cif.got.tgz:404938.got - 2010.06.03 11:33:40.
