data_PCOD9081159
_publ_section_title
;
Structure prediction by ZEFSAII (Michael W. Deem and Ramdas Pophale) SiO2 
 PCOD9081159
Probable space group: P -1
;
_chemical_formula_sum "Si O2"
_cell_formula_units_Z 16
_cell_length_a 11.574540
_cell_length_b 5.257502
_cell_length_c 15.231488
_cell_angle_alpha 102.934080
_cell_angle_beta 102.872181
_cell_angle_gamma 102.998222
_cell_volume 843.031885
_symmetry_space_group_name_H-M "P -1"
_symmetry_group_IT_number 2
_symmetry_cell_setting 'triclinic'
loop_
_space_group_symop_operation_xyz
x,y,z
-x,-y,-z
loop_
_atom_site_type_symbol
_atom_site_label
_atom_site_fract_x
_atom_site_fract_y
_atom_site_fract_z
Si Si1 0.460387 0.365583 0.885529
Si Si2 0.093362 0.410164 0.611224
Si Si3 0.102095 0.396629 0.110686
Si Si4 0.913942 0.027834 0.779240
Si Si5 0.180292 0.717213 0.982588
Si Si6 0.805986 0.674845 0.195095
Si Si7 0.927978 0.814387 0.587753
Si Si8 0.435500 0.063297 0.084323
O O1 0.314532 0.232382 0.839149
O O2 0.502968 0.631228 0.853490
O O3 0.534466 0.152664 0.862563
O O4 0.500000 0.500000 0.000000
O O5 0.033297 0.661064 0.616547
O O6 0.180868 0.411664 0.709074
O O7 0.142887 0.363180 0.519641
O O8 0.985585 0.125985 0.588596
O O9 0.127693 0.172833 0.161398
O O10 0.958843 0.268545 0.046485
O O11 0.110234 0.680536 0.185962
O O12 0.177807 0.500148 0.043080
O O13 0.861983 0.858259 0.669645
O O14 0.064116 0.114272 0.797265
O O15 0.209994 0.589495 0.888075
O O16 0.289907 0.987156 0.038558
O O17 0.500000 0.000000 0.000000
#
# Coordination Sequence:
#
# PCOD9081159 Si02
#       8
#     2   2   2   2   2   2   2   2
#     4  10  20  31  44  70  88 129 159 191 233 285
#     4   9  18  28  46  72  90 128 153 191 242 298
#     4  10  23  32  47  71  91 133 168 193 229 281
#     4  10  20  33  48  68  94 130 161 200 230 282
#     4  10  20  34  48  66 101 127 164 200 230 277
#     4  10  19  31  50  68 102 129 160 192 242 289
#     4   9  16  31  47  66  97 118 160 195 241 283
#     4  10  20  32  48  65  88 129 159 198 240 275
#
# _framework density 18.979115
#
# number of rings (size 3 to 8) (size 9 to 14) (size 15 to 20)
#    0.000    2.250    2.500    2.250    3.500    7.500 
#    0.000    0.000    0.000    0.000    0.000    0.000 
#    0.000    6.000    0.000    0.000    0.000    0.000 
#
# Total GULP energy -89163.261201 kJ/mol
# GULP energy per Si atom -5572.703825 kJ/mol
# Density = 1.893592 g / cm^3
# Si number density = 18.979115 Si / 1000 Ang^3
#
#
#
# Elastic Constant Matrix: (Units=GPa)
#
#
# Indices 1 2 3 4 5 6 
#
# 1 33.6738 9.9691 25.4091 4.8702 1.1922 1.7730
# 2 9.9691 96.0370 5.6437 1.7185 -9.4892 -14.2697
# 3 25.4091 5.6437 104.9578 -3.4965 -14.9196 -4.2656
# 4 4.8702 1.7185 -3.4965 21.6237 -2.0067 -4.2733
# 5 1.1922 -9.4892 -14.9196 -2.0067 11.1651 1.8264
# 6 1.7730 -14.2697 -4.2656 -4.2733 1.8264 21.7671
#
#
#
# Elastic Compliance Matrix: (Units=1/GPa)
#
#
# Indices 1 2 3 4 5 6 
#
# 1 0.052901 -0.010422 -0.019541 -0.021220 -0.041877 -0.015623
# 2 -0.010422 0.014675 0.005200 0.006037 0.019817 0.011011
# 3 -0.019541 0.005200 0.019440 0.011867 0.033250 0.008350
# 4 -0.021220 0.006037 0.011867 0.058689 0.031033 0.016929
# 5 -0.041877 0.019817 0.033250 0.031033 0.158315 0.015727
# 6 -0.015623 0.011011 0.008350 0.016929 0.015727 0.058072
#
#
# Mechanical properties :
#
#
# Convention : Reuss Voigt Hill
#
# Bulk Modulus (GPa) = 26.67477 35.19026 30.93251
# Shear Modulus (GPa) = 11.78923 23.82098 17.80510
#
# Velocity S-wave (km/s) = 2.49503 3.54660 3.06623
# Velocity P-wave (km/s) = 4.73134 5.94584 5.37301
#
# Compressibility (1/GPa) = 0.03748861
#
# Stress axis : x y z
#
# Youngs Moduli (GPa) = 18.90309 68.14266 51.44095
#
# Poissons Ratio (x) = 0.71022 1.00521
# Poissons Ratio (y) = 0.19702 -0.26748
# Poissons Ratio (z) = 0.36939 -0.35432
#
# Static dielectric constant tensor:
#      x y z
#    x 1.635670 0.072600 -0.037570 
#    y 0.072600 1.555040 0.048740 
#    z -0.037570 0.048740 1.710840 
# 
# From -- ./inp_files/510444.got.cif
#   From: 2010.05.17/outbox.cif.g08.bks.cpg/sg2_256_cif.got.tgz:510444.got - 2010.06.03 11:33:40.
