data_PCOD9081801
_publ_section_title
;
Structure prediction by ZEFSAII (Michael W. Deem and Ramdas Pophale) SiO2 
 PCOD9081801
Probable space group: P -1
;
_chemical_formula_sum "Si O2"
_cell_formula_units_Z 14
_cell_length_a 13.465348
_cell_length_b 19.649826
_cell_length_c 16.521714
_cell_angle_alpha 22.512184
_cell_angle_beta 25.559128
_cell_angle_gamma 19.131692
_cell_volume 533.327667
_symmetry_space_group_name_H-M "P -1"
_symmetry_group_IT_number 2
_symmetry_cell_setting 'triclinic'
loop_
_space_group_symop_operation_xyz
x,y,z
-x,-y,-z
loop_
_atom_site_type_symbol
_atom_site_label
_atom_site_fract_x
_atom_site_fract_y
_atom_site_fract_z
Si Si1 0.025844 0.374450 0.517984
Si Si2 0.857268 0.650173 0.857630
Si Si3 0.912967 0.131623 0.504265
Si Si4 0.075001 0.172798 0.855471
Si Si5 0.131363 0.131289 0.034568
Si Si6 0.508163 0.410706 0.923599
Si Si7 0.746021 0.542974 0.379656
O O1 0.057912 0.566114 0.301749
O O2 0.673502 0.495019 0.668357
O O3 0.016346 0.344488 0.462321
O O4 0.222861 0.161451 0.673321
O O5 0.809655 0.881460 0.659513
O O6 0.121759 0.523161 0.734156
O O7 0.000000 0.500000 0.000000
O O8 0.600868 0.664728 0.984200
O O9 0.574401 0.396705 0.446583
O O10 0.838596 0.035360 0.737407
O O11 0.000000 0.000000 0.500000
O O12 0.789053 0.198960 0.007087
O O13 0.201448 0.029914 0.003473
O O14 0.778879 0.380868 0.039417
O O15 0.323588 0.213105 0.815566
#
# Coordination Sequence:
#
# PCOD9081801 Si02
#       7
#     2   2   2   2   2   2   2
#     4   8  15  30  57  85 105 139 194 230 265 324
#     4  11  23  38  58  82 112 155 195 227 280 343
#     4  12  24  38  56  86 118 147 187 242 289 331
#     4   8  16  30  55  84 111 144 191 228 273 329
#     4  10  19  32  55  85 112 144 186 236 285 325
#     4   9  17  33  54  81 112 149 190 229 269 335
#     4  10  20  38  59  83 111 150 189 232 280 342
#
# _framework density 26.250278000000002
#
# number of rings (size 3 to 8) (size 9 to 14) (size 15 to 20)
#    0.857    1.429    0.000    4.714    0.000    0.000 
#    0.000    0.714    0.000    0.857    0.000    0.000 
#    0.000    0.000    0.000    0.000    0.000    0.000 
#
# Total GULP energy -78103.189601 kJ/mol
# GULP energy per Si atom -5578.799257 kJ/mol
# Density = 2.619053 g / cm^3
# Si number density = 26.250278 Si / 1000 Ang^3
#
#
#
# Elastic Constant Matrix: (Units=GPa)
#
#
# Indices 1 2 3 4 5 6 
#
# 1 240.7676 32.6601 78.5381 3.6288 14.1711 10.6114
# 2 32.6601 39.3569 19.0846 6.1677 4.2192 13.1943
# 3 78.5381 19.0846 101.6018 4.7981 1.1976 -4.8347
# 4 3.6288 6.1677 4.7981 31.0652 -1.3987 5.2864
# 5 14.1711 4.2192 1.1976 -1.3987 74.6209 3.4071
# 6 10.6114 13.1943 -4.8347 5.2864 3.4071 34.3972
#
#
#
# Elastic Compliance Matrix: (Units=1/GPa)
#
#
# Indices 1 2 3 4 5 6 
#
# 1 0.005977 -0.002385 -0.004267 0.000659 -0.000849 -0.001546
# 2 -0.002385 0.034793 -0.005108 -0.003727 -0.000924 -0.012664
# 3 -0.004267 -0.005108 0.014431 -0.001625 0.000586 0.005496
# 4 0.000659 -0.003727 -0.001625 0.033879 0.000943 -0.004302
# 5 -0.000849 -0.000924 0.000586 0.000943 0.013659 -0.000799
# 6 -0.001546 -0.012664 0.005496 -0.004302 -0.000799 0.035920
#
#
# Mechanical properties :
#
#
# Convention : Reuss Voigt Hill
#
# Bulk Modulus (GPa) = 31.56313 71.36577 51.46445
# Shear Modulus (GPa) = 28.94545 44.77956 36.86250
#
# Velocity S-wave (km/s) = 3.32425 4.13470 3.75143
# Velocity P-wave (km/s) = 5.17535 7.07390 6.19775
#
# Compressibility (1/GPa) = 0.03168253
#
# Stress axis : x y z
#
# Youngs Moduli (GPa) = 167.31089 28.74142 69.29332
#
# Poissons Ratio (x) = 0.06854 0.29567
# Poissons Ratio (y) = 0.39901 0.35393
# Poissons Ratio (z) = 0.71389 0.14680
#
# Static dielectric constant tensor:
#      x y z
#    x 2.134060 -0.072450 0.038770 
#    y -0.072450 2.234690 -0.088540 
#    z 0.038770 -0.088540 2.070670 
# 
# From -- ./inp_files/523183.got.cif
#   From: 2010.05.17/outbox.cif.g08.bks.cpg/sg2_262_cif.got.tgz:523183.got - 2010.06.03 11:33:40.
