data_PCOD9081654
_publ_section_title
;
Structure prediction by ZEFSAII (Michael W. Deem and Ramdas Pophale) SiO2 
 PCOD9081654
Probable space group: P -1
;
_chemical_formula_sum "Si O2"
_cell_formula_units_Z 14
_cell_length_a 5.620839
_cell_length_b 16.277569
_cell_length_c 10.245439
_cell_angle_alpha 136.261953
_cell_angle_beta 63.571251
_cell_angle_gamma 122.897198
_cell_volume 541.911866
_symmetry_space_group_name_H-M "P -1"
_symmetry_group_IT_number 2
_symmetry_cell_setting 'triclinic'
loop_
_space_group_symop_operation_xyz
x,y,z
-x,-y,-z
loop_
_atom_site_type_symbol
_atom_site_label
_atom_site_fract_x
_atom_site_fract_y
_atom_site_fract_z
Si Si1 0.730234 0.212264 0.384228
Si Si2 0.664368 0.734909 0.642362
Si Si3 0.522206 0.800557 0.137905
Si Si4 0.232256 0.578653 0.789831
Si Si5 0.610296 0.554920 0.894581
Si Si6 0.710569 0.009491 0.632127
Si Si7 0.124774 0.956353 0.070993
O O1 0.533144 0.283297 0.456172
O O2 0.042852 0.291144 0.450412
O O3 0.543436 0.123888 0.440398
O O4 0.777754 0.126708 0.152758
O O5 0.459154 0.643541 0.695415
O O6 0.780062 0.892319 0.808825
O O7 0.648485 0.705410 0.068538
O O8 0.380547 0.897573 0.330361
O O9 0.784936 0.890603 0.090618
O O10 0.260174 0.701305 0.011230
O O11 0.380463 0.511396 0.780664
O O12 0.906923 0.534016 0.771694
O O13 0.500000 0.500000 0.000000
O O14 0.764391 0.054328 0.822647
O O15 0.000000 0.000000 0.500000
#
# Coordination Sequence:
#
# PCOD9081654 Si02
#       7
#     2   2   2   2   2   2   2
#     4  11  20  32  52  74 106 143 184 220 263 308
#     4  11  18  30  50  78 105 135 176 219 267 319
#     4  10  19  32  55  72 109 145 187 215 273 313
#     4  10  19  32  53  81 105 138 177 226 279 324
#     4  10  21  34  51  75 111 142 179 225 284 330
#     4  11  23  35  47  76 116 159 188 216 259 328
#     4  11  20  33  53  79 109 145 188 219 272 314
#
# _framework density 25.83446
#
# number of rings (size 3 to 8) (size 9 to 14) (size 15 to 20)
#    0.857    0.571    2.857    6.857    0.000    0.571 
#    0.000    0.000    0.000    0.000    0.000    0.000 
#    0.000   24.000    0.000    0.000    0.000    0.000 
#
# Total GULP energy -78123.664867 kJ/mol
# GULP energy per Si atom -5580.261776 kJ/mol
# Density = 2.577566 g / cm^3
# Si number density = 25.834460 Si / 1000 Ang^3
#
#
#
# Elastic Constant Matrix: (Units=GPa)
#
#
# Indices 1 2 3 4 5 6 
#
# 1 243.9740 89.1060 74.8191 -13.8031 -22.7173 -14.9959
# 2 89.1060 121.1785 56.8395 -21.4083 -12.1823 -21.8848
# 3 74.8191 56.8395 70.9955 -0.6538 -10.3937 -9.5882
# 4 -13.8031 -21.4083 -0.6538 41.1310 -2.3305 -1.8064
# 5 -22.7173 -12.1823 -10.3937 -2.3305 62.6894 -2.3079
# 6 -14.9959 -21.8848 -9.5882 -1.8064 -2.3079 57.7943
#
#
#
# Elastic Compliance Matrix: (Units=1/GPa)
#
#
# Indices 1 2 3 4 5 6 
#
# 1 0.006614 -0.002166 -0.005033 0.001086 0.001187 0.000142
# 2 -0.002166 0.017274 -0.010672 0.008365 0.001280 0.004521
# 3 -0.005033 -0.010672 0.027808 -0.006819 0.000425 -0.000930
# 4 0.001086 0.008365 -0.006819 0.029187 0.002096 0.003314
# 5 0.001187 0.001280 0.000425 0.002096 0.016838 0.001601
# 6 0.000142 0.004521 -0.000930 0.003314 0.001601 0.019065
#
#
# Mechanical properties :
#
#
# Convention : Reuss Voigt Hill
#
# Bulk Modulus (GPa) = 62.68323 97.51968 80.10146
# Shear Modulus (GPa) = 31.67654 46.68183 39.17919
#
# Velocity S-wave (km/s) = 3.50542 4.25545 3.89851
# Velocity P-wave (km/s) = 6.37966 7.87242 7.16502
#
# Compressibility (1/GPa) = 0.01595323
#
# Stress axis : x y z
#
# Youngs Moduli (GPa) = 151.19296 57.89164 35.96102
#
# Poissons Ratio (x) = 0.12537 0.18101
# Poissons Ratio (y) = 0.32743 0.38378
# Poissons Ratio (z) = 0.76102 0.61783
#
# Static dielectric constant tensor:
#      x y z
#    x 2.080060 0.007460 0.045750 
#    y 0.007460 2.012680 0.075280 
#    z 0.045750 0.075280 2.065850 
# 
# From -- ./inp_files/368390.got.cif
#   From: 2010.05.17/outbox.cif.g08.bks.cpg/sg2_185_cif.got.tgz:368390.got - 2010.06.03 11:33:40.
