data_PCOD9081637
_publ_section_title
;
Structure prediction by ZEFSAII (Michael W. Deem and Ramdas Pophale) SiO2 
 PCOD9081637
Probable space group: P -1
;
_chemical_formula_sum "Si O2"
_cell_formula_units_Z 14
_cell_length_a 16.377352
_cell_length_b 25.295059
_cell_length_c 13.460585
_cell_angle_alpha 23.340341
_cell_angle_beta 158.423576
_cell_angle_gamma 156.047590
_cell_volume 740.217396
_symmetry_space_group_name_H-M "P -1"
_symmetry_group_IT_number 2
_symmetry_cell_setting 'triclinic'
loop_
_space_group_symop_operation_xyz
x,y,z
-x,-y,-z
loop_
_atom_site_type_symbol
_atom_site_label
_atom_site_fract_x
_atom_site_fract_y
_atom_site_fract_z
Si Si1 0.010657 0.841883 0.888335
Si Si2 0.516039 0.589228 0.129727
Si Si3 0.409035 0.095423 0.805359
Si Si4 0.006344 0.566072 0.282821
Si Si5 0.722247 0.616465 0.117690
Si Si6 0.768982 0.374722 0.844041
Si Si7 0.327628 0.577615 0.135734
O O1 0.778781 0.855901 0.551030
O O2 0.106802 0.737959 0.113790
O O3 0.901851 0.750986 0.022591
O O4 0.239434 0.997066 0.873307
O O5 0.641262 0.675200 0.023147
O O6 0.662812 0.495969 0.492731
O O7 0.449752 0.659550 0.030333
O O8 0.257800 0.479528 0.982524
O O9 0.631151 0.234346 0.862104
O O10 0.500000 0.000000 0.000000
O O11 0.000000 0.500000 0.500000
O O12 0.148237 0.487742 0.520054
O O13 0.500000 0.500000 0.000000
O O14 0.710139 0.336060 0.961409
O O15 0.059568 0.451602 0.027427
O O16 0.500000 0.500000 0.500000
#
# Coordination Sequence:
#
# PCOD9081637 Si02
#       7
#     2   2   2   2   2   2   2
#     4  10  23  36  48  86 117 157 193 217 290 346
#     4  11  19  32  57  85 114 145 183 245 292 332
#     4  11  24  35  57  79 121 162 187 229 279 355
#     4  10  19  32  53  78 120 149 183 232 280 339
#     4  11  20  31  54  81 116 150 185 238 286 333
#     4  10  20  39  55  85 113 151 195 237 288 336
#     4   9  21  35  60  81 109 145 196 249 289 329
#
# _framework density 18.913361999999999
#
# number of rings (size 3 to 8) (size 9 to 14) (size 15 to 20)
#    0.000    1.714    4.286    0.857    6.000    1.143 
#    0.000    0.000    0.000    0.857    0.000   24.000 
#    0.000    0.000    0.000    0.000    0.000    0.000 
#
# Total GULP energy -77953.668246 kJ/mol
# GULP energy per Si atom -5568.119160 kJ/mol
# Density = 1.887031 g / cm^3
# Si number density = 18.913362 Si / 1000 Ang^3
#
#
#
# Elastic Constant Matrix: (Units=GPa)
#
#
# Indices 1 2 3 4 5 6 
#
# 1 167.8772 28.7118 8.4746 -6.4235 2.6977 14.5426
# 2 28.7118 79.1969 33.7696 14.0579 2.4028 3.9244
# 3 8.4746 33.7696 77.3159 14.1730 5.4352 6.8440
# 4 -6.4235 14.0579 14.1730 29.6999 1.0094 -1.0120
# 5 2.6977 2.4028 5.4352 1.0094 21.5234 -1.1577
# 6 14.5426 3.9244 6.8440 -1.0120 -1.1577 24.0554
#
#
#
# Elastic Compliance Matrix: (Units=1/GPa)
#
#
# Indices 1 2 3 4 5 6 
#
# 1 0.006872 -0.002924 0.000455 0.002559 -0.000971 -0.003746
# 2 -0.002924 0.017360 -0.006252 -0.005860 0.000308 0.000483
# 3 0.000455 -0.006252 0.017231 -0.005194 -0.003712 -0.004555
# 4 0.002559 -0.005860 -0.005194 0.039565 -0.000073 0.002548
# 5 -0.000971 0.000308 -0.003712 -0.000073 0.047698 0.003885
# 6 -0.003746 0.000483 -0.004555 0.002548 0.003885 0.045346
#
#
# Mechanical properties :
#
#
# Convention : Reuss Voigt Hill
#
# Bulk Modulus (GPa) = 41.63250 51.81135 46.72192
# Shear Modulus (GPa) = 25.05991 31.95135 28.50563
#
# Velocity S-wave (km/s) = 3.64398 4.11463 3.88644
# Velocity P-wave (km/s) = 6.30593 7.07299 6.70045
#
# Compressibility (1/GPa) = 0.02401970
#
# Stress axis : x y z
#
# Youngs Moduli (GPa) = 145.51945 57.60472 58.03488
#
# Poissons Ratio (x) = 0.16846 -0.02640
# Poissons Ratio (y) = 0.42556 0.36283
# Poissons Ratio (z) = -0.06619 0.36014
#
# Static dielectric constant tensor:
#      x y z
#    x 1.802900 0.022910 0.015410 
#    y 0.022910 1.632450 0.009280 
#    z 0.015410 0.009280 1.670270 
# 
# From -- ./inp_files/370780.got.cif
#   From: 2010.05.17/outbox.cif.g08.bks.cpg/sg2_186_cif.got.tgz:370780.got - 2010.06.03 11:33:40.
