data_PCOD9081457
_publ_section_title
;
Structure prediction by ZEFSAII (Michael W. Deem and Ramdas Pophale) SiO2 
 PCOD9081457
Probable space group: P -1
;
_chemical_formula_sum "Si O2"
_cell_formula_units_Z 16
_cell_length_a 18.411531
_cell_length_b 5.039604
_cell_length_c 11.935259
_cell_angle_alpha 71.074074
_cell_angle_beta 131.613976
_cell_angle_gamma 112.684299
_cell_volume 760.164454
_symmetry_space_group_name_H-M "P -1"
_symmetry_group_IT_number 2
_symmetry_cell_setting 'triclinic'
loop_
_space_group_symop_operation_xyz
x,y,z
-x,-y,-z
loop_
_atom_site_type_symbol
_atom_site_label
_atom_site_fract_x
_atom_site_fract_y
_atom_site_fract_z
Si Si1 0.424173 0.615096 0.491585
Si Si2 0.415770 0.066787 0.239131
Si Si3 0.126799 0.388988 0.747276
Si Si4 0.213989 0.363756 0.255469
Si Si5 0.703201 0.459330 0.932229
Si Si6 0.075899 0.785399 0.130461
Si Si7 0.022731 0.803418 0.824998
Si Si8 0.055206 0.302949 0.460392
O O1 0.500000 0.500000 0.500000
O O2 0.476383 0.728236 0.646636
O O3 0.318876 0.386563 0.422140
O O4 0.396698 0.883851 0.360936
O O5 0.343660 0.276885 0.119048
O O6 0.386213 0.821756 0.147905
O O7 0.141612 0.417868 0.623934
O O8 0.105516 0.055938 0.814669
O O9 0.024679 0.496495 0.647559
O O10 0.216731 0.571540 0.888340
O O11 0.242635 0.444724 0.144124
O O12 0.142709 0.045486 0.232904
O O13 0.845542 0.406426 0.795469
O O14 0.984553 0.539969 0.121383
O O15 0.039157 0.892138 0.960388
O O16 0.931225 0.770006 0.645479
O O17 0.000000 0.000000 0.500000
#
# Coordination Sequence:
#
# PCOD9081457 Si02
#       8
#     2   2   2   2   2   2   2   2
#     4  10  19  32  49  69 105 143 174 208 267 316
#     4  10  20  30  47  73 101 142 166 214 263 316
#     4  10  20  34  56  75 103 143 177 226 270 307
#     4  11  21  33  49  73 105 141 180 209 254 313
#     4  11  20  31  51  75 107 133 178 215 258 316
#     4  11  24  34  51  78 105 150 181 216 249 304
#     4  10  22  35  52  70 110 141 185 217 257 305
#     4   9  20  36  53  75  98 141 180 225 274 307
#
# _framework density 21.048075999999998
#
# number of rings (size 3 to 8) (size 9 to 14) (size 15 to 20)
#    0.000    1.750    3.750    2.250    7.000    1.000 
#    0.000    0.000    0.000    0.000    0.000    0.000 
#    0.000    6.000    0.000    0.000    0.000    0.000 
#
# Total GULP energy -89072.040604 kJ/mol
# GULP energy per Si atom -5567.002538 kJ/mol
# Density = 2.100017 g / cm^3
# Si number density = 21.048076 Si / 1000 Ang^3
#
#
#
# Elastic Constant Matrix: (Units=GPa)
#
#
# Indices 1 2 3 4 5 6 
#
# 1 25.0571 21.3394 19.3991 3.1177 3.5118 0.9545
# 2 21.3394 128.9482 38.7349 17.4522 17.8885 -5.4134
# 3 19.3991 38.7349 155.6507 32.8590 -11.3546 10.1650
# 4 3.1177 17.4522 32.8590 42.1292 1.3874 8.1346
# 5 3.5118 17.8885 -11.3546 1.3874 40.2790 5.4539
# 6 0.9545 -5.4134 10.1650 8.1346 5.4539 22.5475
#
#
#
# Elastic Compliance Matrix: (Units=1/GPa)
#
#
# Indices 1 2 3 4 5 6 
#
# 1 0.049906 -0.006882 -0.005376 0.003841 -0.002660 -0.002083
# 2 -0.006882 0.011015 -0.001956 -0.003593 -0.005595 0.006467
# 3 -0.005376 -0.001956 0.009319 -0.005523 0.004638 -0.003572
# 4 0.003841 -0.003593 -0.005523 0.031134 -0.000048 -0.009756
# 5 -0.002660 -0.005595 0.004638 -0.000048 0.030292 -0.010632
# 6 -0.002083 0.006467 -0.003572 -0.009756 -0.010632 0.053694
#
#
# Mechanical properties :
#
#
# Convention : Reuss Voigt Hill
#
# Bulk Modulus (GPa) = 23.91585 52.06697 37.99141
# Shear Modulus (GPa) = 21.95616 36.33665 29.14640
#
# Velocity S-wave (km/s) = 3.23328 4.15946 3.72526
# Velocity P-wave (km/s) = 5.03249 6.91802 6.04917
#
# Compressibility (1/GPa) = 0.04181328
#
# Stress axis : x y z
#
# Youngs Moduli (GPa) = 20.03749 90.78192 107.30748
#
# Poissons Ratio (x) = 0.62478 0.57689
# Poissons Ratio (y) = 0.13790 0.20984
# Poissons Ratio (z) = 0.10772 0.17753
#
# Static dielectric constant tensor:
#      x y z
#    x 1.866610 -0.067590 0.005580 
#    y -0.067590 1.879080 0.054390 
#    z 0.005580 0.054390 1.830550 
# 
# From -- ./inp_files/467854.got.cif
#   From: 2010.05.17/outbox.cif.g08.bks.cpg/sg2_234_cif.got.tgz:467854.got - 2010.06.03 11:33:40.
