data_PCOD9081749
_publ_section_title
;
Structure prediction by ZEFSAII (Michael W. Deem and Ramdas Pophale) SiO2 
 PCOD9081749
Probable space group: P -1
;
_chemical_formula_sum "Si O2"
_cell_formula_units_Z 16
_cell_length_a 7.916103
_cell_length_b 5.540249
_cell_length_c 25.751995
_cell_angle_alpha 124.573462
_cell_angle_beta 138.597768
_cell_angle_gamma 57.172455
_cell_volume 600.786336
_symmetry_space_group_name_H-M "P -1"
_symmetry_group_IT_number 2
_symmetry_cell_setting 'triclinic'
loop_
_space_group_symop_operation_xyz
x,y,z
-x,-y,-z
loop_
_atom_site_type_symbol
_atom_site_label
_atom_site_fract_x
_atom_site_fract_y
_atom_site_fract_z
Si Si1 0.433716 0.713434 0.784717
Si Si2 0.144583 0.479748 0.272221
Si Si3 0.629175 0.660346 0.004178
Si Si4 0.699263 0.260204 0.425214
Si Si5 0.002066 0.869957 0.189338
Si Si6 0.532951 0.849292 0.546324
Si Si7 0.955832 0.308576 0.390605
Si Si8 0.519772 0.703820 0.170946
O O1 0.576321 0.946663 0.818786
O O2 0.249555 0.933782 0.811621
O O3 0.280675 0.582045 0.688217
O O4 0.568522 0.432527 0.814334
O O5 0.418223 0.461711 0.365250
O O6 0.152614 0.634952 0.237426
O O7 0.844102 0.636195 0.241065
O O8 0.133677 0.131086 0.230335
O O9 0.592305 0.466881 0.921967
O O10 0.500000 0.500000 0.000000
O O11 0.894288 0.697098 0.096973
O O12 0.500000 0.000000 0.000000
O O13 0.639802 0.036706 0.429214
O O14 0.857044 0.132521 0.394060
O O15 0.887407 0.462454 0.518874
O O16 0.500000 0.500000 0.500000
O O17 0.833492 0.861033 0.623514
O O18 0.500000 0.000000 0.500000
#
# Coordination Sequence:
#
# PCOD9081749 Si02
#       8
#     2   2   2   2   2   2   2   2
#     4  10  19  33  51  81 120 155 199 256 305 361
#     4  10  19  34  53  82 122 157 201 259 307 364
#     4  12  16  30  54  91 128 158 202 258 306 378
#     4  10  23  43  65  92 126 171 222 271 321 380
#     4  10  19  32  55  90 122 160 204 251 314 382
#     4  10  22  40  64  90 118 155 206 267 322 368
#     4  10  23  42  65  92 126 171 223 268 322 379
#     4  10  19  32  54  88 121 158 202 249 311 380
#
# _framework density 26.631761999999998
#
# number of rings (size 3 to 8) (size 9 to 14) (size 15 to 20)
#    0.000    1.750    5.000    1.500    0.000    8.500 
#    0.000    6.250    0.000    0.000    0.000    9.625 
#    0.000    0.000    0.000    0.000    0.000    0.000 
#
# Total GULP energy -89329.144629 kJ/mol
# GULP energy per Si atom -5583.071539 kJ/mol
# Density = 2.657115 g / cm^3
# Si number density = 26.631762 Si / 1000 Ang^3
#
#
#
# Elastic Constant Matrix: (Units=GPa)
#
#
# Indices 1 2 3 4 5 6 
#
# 1 160.3997 72.0289 48.7451 -4.8771 4.7664 43.4813
# 2 72.0289 191.7810 65.6970 -3.9499 -10.0018 53.3055
# 3 48.7451 65.6970 211.2229 3.0897 -13.3338 24.7145
# 4 -4.8771 -3.9499 3.0897 42.7633 6.3117 -13.7874
# 5 4.7664 -10.0018 -13.3338 6.3117 34.4774 -11.3903
# 6 43.4813 53.3055 24.7145 -13.7874 -11.3903 69.5451
#
#
#
# Elastic Compliance Matrix: (Units=1/GPa)
#
#
# Indices 1 2 3 4 5 6 
#
# 1 0.008663 -0.001898 -0.001154 0.000096 -0.003572 -0.004117
# 2 -0.001898 0.007582 -0.001372 -0.000874 0.000705 -0.004195
# 3 -0.001154 -0.001372 0.005581 -0.000990 0.002079 -0.000066
# 4 0.000096 -0.000874 -0.000990 0.025673 -0.003542 0.005471
# 5 -0.003572 0.000705 0.002079 -0.003542 0.033026 0.005661
# 6 -0.004117 -0.004195 -0.000066 0.005471 0.005661 0.022204
#
#
# Mechanical properties :
#
#
# Convention : Reuss Voigt Hill
#
# Bulk Modulus (GPa) = 77.05867 104.03840 90.54853
# Shear Modulus (GPa) = 43.14004 54.48601 48.81303
#
# Velocity S-wave (km/s) = 4.02913 4.52807 4.28587
# Velocity P-wave (km/s) = 7.11638 8.15403 7.65281
#
# Compressibility (1/GPa) = 0.01297713
#
# Stress axis : x y z
#
# Youngs Moduli (GPa) = 115.43835 131.89252 179.18538
#
# Poissons Ratio (x) = 0.25036 0.20676
# Poissons Ratio (y) = 0.21912 0.24585
# Poissons Ratio (z) = 0.13320 0.18096
#
# Static dielectric constant tensor:
#      x y z
#    x 2.259660 -0.141810 -0.012680 
#    y -0.141810 2.190540 -0.015920 
#    z -0.012680 -0.015920 2.052180 
# 
# From -- ./inp_files/616368.got.cif
#   From: 2010.05.17/outbox.cif.g08.bks.cpg/sg2_309_cif.got.tgz:616368.got - 2010.06.03 11:33:40.
