data_PCOD9081110
_publ_section_title
;
Structure prediction by ZEFSAII (Michael W. Deem and Ramdas Pophale) SiO2 
 PCOD9081110
Probable space group: P -1
;
_chemical_formula_sum "Si O2"
_cell_formula_units_Z 14
_cell_length_a 17.363047
_cell_length_b 24.767077
_cell_length_c 5.380466
_cell_angle_alpha 88.035357
_cell_angle_beta 81.326450
_cell_angle_gamma 161.780933
_cell_volume 585.396900
_symmetry_space_group_name_H-M "P -1"
_symmetry_group_IT_number 2
_symmetry_cell_setting 'triclinic'
loop_
_space_group_symop_operation_xyz
x,y,z
-x,-y,-z
loop_
_atom_site_type_symbol
_atom_site_label
_atom_site_fract_x
_atom_site_fract_y
_atom_site_fract_z
Si Si1 0.052272 0.585647 0.278371
Si Si2 0.924822 0.873290 0.356620
Si Si3 0.010045 0.607392 0.787784
Si Si4 0.549408 0.719963 0.681456
Si Si5 0.678111 0.062706 0.884572
Si Si6 0.129775 0.965002 0.733462
Si Si7 0.720588 0.058561 0.366009
O O1 0.947067 0.520040 0.053145
O O2 0.000000 0.500000 0.500000
O O3 0.413772 0.839314 0.043042
O O4 0.932713 0.549446 0.543273
O O5 0.650965 0.732016 0.512129
O O6 0.221448 0.110849 0.227063
O O7 0.918478 0.832371 0.614731
O O8 0.969583 0.868363 0.089289
O O9 0.790722 0.505031 0.020804
O O10 0.376777 0.853923 0.570346
O O11 0.631127 0.825481 0.446668
O O12 0.858881 0.171316 0.025561
O O13 0.861700 0.177164 0.527070
O O14 0.500000 0.000000 0.000000
O O15 0.279716 0.006543 0.631957
#
# Coordination Sequence:
#
# PCOD9081110 Si02
#       7
#     2   2   2   2   2   2   2
#     4  10  22  32  49  75 109 133 172 210 255 313
#     4   9  20  32  44  67  97 150 181 206 256 315
#     4  10  22  30  47  73 107 138 171 202 266 310
#     4   9  21  29  49  64 106 145 177 207 261 317
#     4  10  21  37  53  72 110 147 176 210 256 319
#     4  10  19  31  48  67 102 134 173 226 252 307
#     4  10  21  34  51  80 101 132 181 216 261 312
#
# _framework density 23.915396000000001
#
# number of rings (size 3 to 8) (size 9 to 14) (size 15 to 20)
#    0.857    1.429    0.000    2.143   10.000    0.000 
#    0.000    0.000    0.000    0.000    0.000    0.000 
#    0.000   91.429    0.000    0.000    0.000    0.000 
#
# Total GULP energy -77958.068759 kJ/mol
# GULP energy per Si atom -5568.433483 kJ/mol
# Density = 2.386096 g / cm^3
# Si number density = 23.915396 Si / 1000 Ang^3
#
#
#
# Elastic Constant Matrix: (Units=GPa)
#
#
# Indices 1 2 3 4 5 6 
#
# 1 111.3290 32.8593 52.8416 0.7388 -15.9224 3.8037
# 2 32.8593 21.8616 35.1815 13.7275 -4.5530 6.3067
# 3 52.8416 35.1815 156.7395 55.9665 -7.6683 10.1635
# 4 0.7388 13.7275 55.9665 42.1927 9.4764 3.2667
# 5 -15.9224 -4.5530 -7.6683 9.4764 51.1026 0.8927
# 6 3.8037 6.3067 10.1635 3.2667 0.8927 13.9237
#
#
#
# Elastic Compliance Matrix: (Units=1/GPa)
#
#
# Indices 1 2 3 4 5 6 
#
# 1 0.024697 -0.043366 -0.008038 0.023760 -0.002014 0.013318
# 2 -0.043366 0.157366 0.001018 -0.050436 0.010871 -0.049039
# 3 -0.008038 0.001018 0.018695 -0.025689 0.005264 -0.006222
# 4 0.023760 -0.050436 -0.025689 0.075793 -0.015320 0.018306
# 5 -0.002014 0.010871 0.005264 -0.015320 0.023648 -0.006138
# 6 0.013318 -0.049039 -0.006222 0.018306 -0.006138 0.091035
#
#
# Mechanical properties :
#
#
# Convention : Reuss Voigt Hill
#
# Bulk Modulus (GPa) = 10.00133 59.07721 34.53927
# Shear Modulus (GPa) = 9.51776 32.71365 21.11570
#
# Velocity S-wave (km/s) = 1.99710 3.70251 2.97464
# Velocity P-wave (km/s) = 3.08365 6.56006 5.12559
#
# Compressibility (1/GPa) = 0.09998668
#
# Stress axis : x y z
#
# Youngs Moduli (GPa) = 40.49134 6.35461 53.48982
#
# Poissons Ratio (x) = 0.27557 0.42996
# Poissons Ratio (y) = 1.75594 -0.05448
# Poissons Ratio (z) = 0.32548 -0.00647
#
# Static dielectric constant tensor:
#      x y z
#    x 2.044040 -0.047410 0.021760 
#    y -0.047410 2.077050 0.095560 
#    z 0.021760 0.095560 1.993720 
# 
# From -- ./inp_files/100773.got.cif
#   From: 2010.05.17/outbox.cif.g08.bks.cpg/sg2_51_cif.got.tgz:100773.got - 2010.06.03 11:33:40.
