data_PCOD9081509
_publ_section_title
;
Structure prediction by ZEFSAII (Michael W. Deem and Ramdas Pophale) SiO2 
 PCOD9081509
Probable space group: P -1
;
_chemical_formula_sum "Si O2"
_cell_formula_units_Z 16
_cell_length_a 9.378714
_cell_length_b 12.599391
_cell_length_c 12.676395
_cell_angle_alpha 43.476426
_cell_angle_beta 48.136785
_cell_angle_gamma 80.259442
_cell_volume 605.314499
_symmetry_space_group_name_H-M "P -1"
_symmetry_group_IT_number 2
_symmetry_cell_setting 'triclinic'
loop_
_space_group_symop_operation_xyz
x,y,z
-x,-y,-z
loop_
_atom_site_type_symbol
_atom_site_label
_atom_site_fract_x
_atom_site_fract_y
_atom_site_fract_z
Si Si1 0.464832 0.714458 0.795192
Si Si2 0.268271 0.570254 0.216441
Si Si3 0.983179 0.671812 0.781696
Si Si4 0.980963 0.317110 0.011414
Si Si5 0.475692 0.205782 0.884071
Si Si6 0.935921 0.854376 0.349411
Si Si7 0.435000 0.908090 0.272454
Si Si8 0.934140 0.199447 0.896458
O O1 0.300854 0.779660 0.799145
O O2 0.711344 0.833333 0.524856
O O3 0.460319 0.696138 0.936580
O O4 0.288662 0.485503 0.010907
O O5 0.104728 0.338984 0.445875
O O6 0.094287 0.634271 0.245661
O O7 0.410690 0.612869 0.225012
O O8 0.086887 0.544468 0.813053
O O9 0.188493 0.853357 0.480856
O O10 0.983576 0.734264 0.854217
O O11 0.052462 0.265408 0.906439
O O12 0.537869 0.087703 0.011210
O O13 0.591867 0.249177 0.679935
O O14 0.190009 0.051301 0.117689
O O15 0.942036 0.835244 0.233462
O O16 0.654403 0.998569 0.180942
#
# Coordination Sequence:
#
# PCOD9081509 Si02
#       8
#     2   2   2   2   2   2   2   2
#     4   9  19  33  49  75 102 131 166 211 256 294
#     4  10  19  32  51  73 103 141 174 195 241 308
#     4   9  17  33  57  70  95 130 175 210 251 293
#     4   8  18  34  53  76  89 131 178 207 248 303
#     4   9  20  31  47  81 106 132 169 196 252 300
#     4  11  20  32  51  74 110 135 159 212 255 296
#     4   9  17  31  50  76 104 128 164 220 236 290
#     4   9  19  32  50  76  99 130 173 205 250 296
#
# _framework density 26.432539999999999
#
# number of rings (size 3 to 8) (size 9 to 14) (size 15 to 20)
#    0.750    2.000    0.000    2.250    1.750    1.000 
#    0.000    3.125    0.000    3.000    0.000    0.000 
#    0.000    0.000    0.000    0.000    0.000    0.000 
#
# Total GULP energy -89370.465208 kJ/mol
# GULP energy per Si atom -5585.654075 kJ/mol
# Density = 2.637238 g / cm^3
# Si number density = 26.432540 Si / 1000 Ang^3
#
#
#
# Elastic Constant Matrix: (Units=GPa)
#
#
# Indices 1 2 3 4 5 6 
#
# 1 44.0255 35.2534 15.4009 -2.8195 1.5743 -2.0736
# 2 35.2534 168.4786 57.3369 11.0009 1.2902 39.0315
# 3 15.4009 57.3369 117.6005 14.0536 -18.2858 21.3520
# 4 -2.8195 11.0009 14.0536 44.3892 1.6042 1.2785
# 5 1.5743 1.2902 -18.2858 1.6042 19.8982 9.4998
# 6 -2.0736 39.0315 21.3520 1.2785 9.4998 41.7352
#
#
#
# Elastic Compliance Matrix: (Units=1/GPa)
#
#
# Indices 1 2 3 4 5 6 
#
# 1 0.034296 -0.009279 -0.006567 0.006670 -0.016994 0.017406
# 2 -0.009279 0.010966 -0.001059 -0.002817 0.004592 -0.011133
# 3 -0.006567 -0.001059 0.016232 -0.005727 0.021912 -0.012453
# 4 0.006670 -0.002817 -0.005727 0.025651 -0.011349 0.007693
# 5 -0.016994 0.004592 0.021912 -0.011349 0.089746 -0.036430
# 6 0.017406 -0.011133 -0.012453 0.007693 -0.036430 0.049665
#
#
# Mechanical properties :
#
#
# Convention : Reuss Voigt Hill
#
# Bulk Modulus (GPa) = 36.12265 60.67632 48.39949
# Shear Modulus (GPa) = 18.54632 36.01209 27.27920
#
# Velocity S-wave (km/s) = 2.65174 3.69509 3.21601
# Velocity P-wave (km/s) = 4.80325 6.41950 5.66927
#
# Compressibility (1/GPa) = 0.02768346
#
# Stress axis : x y z
#
# Youngs Moduli (GPa) = 29.15766 91.19463 61.60621
#
# Poissons Ratio (x) = 0.84621 0.40457
# Poissons Ratio (y) = 0.27056 0.06524
# Poissons Ratio (z) = 0.19148 0.09657
#
# Static dielectric constant tensor:
#      x y z
#    x 2.123620 -0.059870 0.057670 
#    y -0.059870 2.277080 -0.015280 
#    z 0.057670 -0.015280 2.103060 
# 
# From -- ./inp_files/432801.got.cif
#   From: 2010.05.17/outbox.cif.g08.bks.cpg/sg2_217_cif.got.tgz:432801.got - 2010.06.03 11:33:40.
