data_PCOD9081394
_publ_section_title
;
Structure prediction by ZEFSAII (Michael W. Deem and Ramdas Pophale) SiO2 
 PCOD9081394
Probable space group: P -1
;
_chemical_formula_sum "Si O2"
_cell_formula_units_Z 16
_cell_length_a 10.358294
_cell_length_b 13.481778
_cell_length_c 10.481929
_cell_angle_alpha 69.776867
_cell_angle_beta 75.756989
_cell_angle_gamma 135.288795
_cell_volume 644.815888
_symmetry_space_group_name_H-M "P -1"
_symmetry_group_IT_number 2
_symmetry_cell_setting 'triclinic'
loop_
_space_group_symop_operation_xyz
x,y,z
-x,-y,-z
loop_
_atom_site_type_symbol
_atom_site_label
_atom_site_fract_x
_atom_site_fract_y
_atom_site_fract_z
Si Si1 0.340403 0.729559 0.449820
Si Si2 0.099938 0.187951 0.779360
Si Si3 0.728761 0.879302 0.633002
Si Si4 0.328430 0.514835 0.401642
Si Si5 0.555214 0.977396 0.629991
Si Si6 0.806319 0.450999 0.172422
Si Si7 0.366718 0.284628 0.008585
Si Si8 0.026361 0.817820 0.906105
O O1 0.275565 0.600673 0.411960
O O2 0.348807 0.862822 0.369768
O O3 0.150363 0.567667 0.689754
O O4 0.664465 0.935883 0.312019
O O5 0.118978 0.289097 0.619579
O O6 0.385516 0.324524 0.671035
O O7 0.025052 0.190579 0.929480
O O8 0.866665 0.943669 0.908445
O O9 0.484555 0.685213 0.679486
O O10 0.594426 0.752052 0.856226
O O11 0.781374 0.041362 0.537567
O O12 0.000000 0.000000 0.500000
O O13 0.382877 0.535337 0.230037
O O14 0.500000 0.000000 0.500000
O O15 0.297769 0.715482 0.821044
O O16 0.002149 0.675460 0.969797
O O17 0.211537 0.288004 0.067056
#
# Coordination Sequence:
#
# PCOD9081394 Si02
#       8
#     2   2   2   2   2   2   2   2
#     4  11  17  35  62  83 113 154 192 247 289 324
#     4  10  19  32  51  88 118 149 197 239 284 339
#     4  10  22  39  61  84 122 160 185 239 298 350
#     4  10  19  31  57  84 117 151 192 249 280 334
#     4   8  20  38  60  86 113 155 205 229 286 350
#     4   9  21  37  53  89 114 150 198 240 279 347
#     4  11  21  34  53  88 120 149 194 226 306 348
#     4  11  19  31  60  88 118 150 198 243 284 343
#
# _framework density 24.813282999999998
#
# number of rings (size 3 to 8) (size 9 to 14) (size 15 to 20)
#    0.750    1.250    3.750    1.500    0.000    1.000 
#    0.000    1.875    0.000    0.750    0.000    0.000 
#    0.000    0.000    0.000    0.000    0.000    0.000 
#
# Total GULP energy -89319.388742 kJ/mol
# GULP energy per Si atom -5582.461796 kJ/mol
# Density = 2.475681 g / cm^3
# Si number density = 24.813283 Si / 1000 Ang^3
#
#
#
# Elastic Constant Matrix: (Units=GPa)
#
#
# Indices 1 2 3 4 5 6 
#
# 1 108.5691 33.1375 28.3037 8.5294 22.2975 -42.1109
# 2 33.1375 52.6074 24.6844 -9.5663 7.8591 -20.8944
# 3 28.3037 24.6844 111.0122 1.0735 43.5952 -8.4600
# 4 8.5294 -9.5663 1.0735 41.7127 -4.3243 4.0325
# 5 22.2975 7.8591 43.5952 -4.3243 33.7488 -2.5565
# 6 -42.1109 -20.8944 -8.4600 4.0325 -2.5565 41.7621
#
#
#
# Elastic Compliance Matrix: (Units=1/GPa)
#
#
# Indices 1 2 3 4 5 6 
#
# 1 0.023072 -0.008047 0.005560 -0.010770 -0.020405 0.020156
# 2 -0.008047 0.030238 -0.008790 0.009486 0.011224 0.005005
# 3 0.005560 -0.008790 0.021984 -0.007328 -0.030624 0.004495
# 4 -0.010770 0.009486 -0.007328 0.031293 0.017660 -0.009539
# 5 -0.020405 0.011224 -0.030624 0.017660 0.080963 -0.017913
# 6 0.020156 0.005005 0.004495 -0.009539 -0.017913 0.047509
#
#
# Mechanical properties :
#
#
# Convention : Reuss Voigt Hill
#
# Bulk Modulus (GPa) = 18.96049 49.38220 34.17135
# Shear Modulus (GPa) = 18.16906 35.84893 27.00900
#
# Velocity S-wave (km/s) = 2.70891 3.80511 3.30281
# Velocity P-wave (km/s) = 4.17638 6.26497 5.32409
#
# Compressibility (1/GPa) = 0.05274125
#
# Stress axis : x y z
#
# Youngs Moduli (GPa) = 43.34240 33.07089 45.48666
#
# Poissons Ratio (x) = 0.26612 -0.25292
# Poissons Ratio (y) = 0.34877 0.39984
# Poissons Ratio (z) = -0.24100 0.29070
#
# Static dielectric constant tensor:
#      x y z
#    x 2.115320 -0.025730 -0.084450 
#    y -0.025730 2.010320 0.004010 
#    z -0.084450 0.004010 2.000830 
# 
# From -- ./inp_files/431204.got.cif
#   From: 2010.05.17/outbox.cif.g08.bks.cpg/sg2_216_cif.got.tgz:431204.got - 2010.06.03 11:33:40.
