data_PCOD9081333
_publ_section_title
;
Structure prediction by ZEFSAII (Michael W. Deem and Ramdas Pophale) SiO2 
 PCOD9081333
Probable space group: P -1
;
_chemical_formula_sum "Si O2"
_cell_formula_units_Z 14
_cell_length_a 9.017243
_cell_length_b 11.977566
_cell_length_c 12.516027
_cell_angle_alpha 52.386454
_cell_angle_beta 140.155646
_cell_angle_gamma 139.408774
_cell_volume 562.323411
_symmetry_space_group_name_H-M "P -1"
_symmetry_group_IT_number 2
_symmetry_cell_setting 'triclinic'
loop_
_space_group_symop_operation_xyz
x,y,z
-x,-y,-z
loop_
_atom_site_type_symbol
_atom_site_label
_atom_site_fract_x
_atom_site_fract_y
_atom_site_fract_z
Si Si1 0.824722 0.815794 0.143141
Si Si2 0.411253 0.560074 0.516733
Si Si3 0.025310 0.376428 0.805469
Si Si4 0.334110 0.361356 0.178209
Si Si5 0.402794 0.075177 0.642209
Si Si6 0.444748 0.142666 0.231682
Si Si7 0.786619 0.019301 0.174854
O O1 0.856429 0.666776 0.205905
O O2 0.770905 0.860347 0.203605
O O3 0.607598 0.814690 0.940940
O O4 0.137141 0.984338 0.191916
O O5 0.500000 0.500000 0.500000
O O6 0.095352 0.511357 0.353928
O O7 0.489830 0.516168 0.697164
O O8 0.593640 0.769512 0.497894
O O9 0.739476 0.191145 0.790746
O O10 0.234467 0.431547 0.988206
O O11 0.503496 0.291527 0.256889
O O12 0.043295 0.197456 0.162704
O O13 0.360866 0.927719 0.627176
O O14 0.218148 0.998733 0.689788
O O15 0.500000 0.000000 0.000000
#
# Coordination Sequence:
#
# PCOD9081333 Si02
#       7
#     2   2   2   2   2   2   2
#     4   8  13  24  47  74 108 128 151 199 251 309
#     4  10  22  37  51  71  99 134 183 219 230 277
#     4   8  17  34  49  76  99 129 173 202 241 300
#     4  10  19  31  55  79 101 132 160 202 268 302
#     4   9  17  30  48  76 107 127 156 205 251 299
#     4   8  13  26  46  75 102 122 161 197 245 313
#     4  11  15  26  50  83 112 131 146 199 273 314
#
# _framework density 24.896705999999998
#
# number of rings (size 3 to 8) (size 9 to 14) (size 15 to 20)
#    0.857    2.000    2.857    1.714    0.000    1.714 
#    0.000    0.000    0.000    0.857    0.000    3.000 
#    0.000    0.000    0.000    0.000    0.000    0.000 
#
# Total GULP energy -78179.150834 kJ/mol
# GULP energy per Si atom -5584.225060 kJ/mol
# Density = 2.484004 g / cm^3
# Si number density = 24.896706 Si / 1000 Ang^3
#
#
#
# Elastic Constant Matrix: (Units=GPa)
#
#
# Indices 1 2 3 4 5 6 
#
# 1 141.1137 44.1401 43.2372 13.3246 11.1879 -14.0598
# 2 44.1401 105.0029 33.9346 -13.0481 8.8711 -8.5775
# 3 43.2372 33.9346 102.1343 29.5329 19.9275 -15.4848
# 4 13.3246 -13.0481 29.5329 20.7197 -13.3792 -11.0037
# 5 11.1879 8.8711 19.9275 -13.3792 22.8528 -12.8415
# 6 -14.0598 -8.5775 -15.4848 -11.0037 -12.8415 41.7428
#
#
#
# Elastic Compliance Matrix: (Units=1/GPa)
#
#
# Indices 1 2 3 4 5 6 
#
# 1 0.008692 -0.001957 -0.004246 0.003223 0.003754 0.002955
# 2 -0.001957 0.008466 0.003853 -0.012311 -0.016091 -0.005686
# 3 -0.004246 0.003853 0.000786 0.025003 0.021815 0.012955
# 4 0.003223 -0.012311 0.025003 -0.048679 -0.060342 -0.023565
# 5 0.003754 -0.016091 0.021815 -0.060342 -0.014172 -0.014216
# 6 0.002955 -0.005686 0.012955 -0.023565 -0.014216 0.018004
#
#
# Mechanical properties :
#
#
# Convention : Reuss Voigt Hill
#
# Bulk Modulus (GPa) = 75.50173 65.65274 70.57723
# Shear Modulus (GPa) = -281.08157 32.19234 -124.44462
#
# Velocity S-wave (km/s) = -10.63693 3.59978 -7.07763
# Velocity P-wave (km/s) = 10.97575 6.61099 6.19524
#
# Compressibility (1/GPa) = 0.01324473
#
# Stress axis : x y z
#
# Youngs Moduli (GPa) = 115.04826 118.11767 1271.74361
#
# Poissons Ratio (x) = 0.23116 5.39953
# Poissons Ratio (y) = 0.22515 -4.89991
# Poissons Ratio (z) = 0.48847 -0.45510
#
# Static dielectric constant tensor:
#      x y z
#    x 1.936320 0.050550 0.024650 
#    y 0.050550 2.083520 -0.055210 
#    z 0.024650 -0.055210 2.037060 
# 
# From -- ./inp_files/197957.got.cif
#   From: 2010.05.17/outbox.cif.g08.bks.cpg/sg2_99_cif.got.tgz:197957.got - 2010.06.03 11:33:40.
