data_PCOD9081746
_publ_section_title
;
Structure prediction by ZEFSAII (Michael W. Deem and Ramdas Pophale) SiO2 
 PCOD9081746
Probable space group: P -1
;
_chemical_formula_sum "Si O2"
_cell_formula_units_Z 16
_cell_length_a 11.483013
_cell_length_b 8.305366
_cell_length_c 11.092629
_cell_angle_alpha 42.319646
_cell_angle_beta 118.121530
_cell_angle_gamma 116.890368
_cell_volume 618.506144
_symmetry_space_group_name_H-M "P -1"
_symmetry_group_IT_number 2
_symmetry_cell_setting 'triclinic'
loop_
_space_group_symop_operation_xyz
x,y,z
-x,-y,-z
loop_
_atom_site_type_symbol
_atom_site_label
_atom_site_fract_x
_atom_site_fract_y
_atom_site_fract_z
Si Si1 0.676587 0.925206 0.614709
Si Si2 0.701821 0.501782 0.269097
Si Si3 0.036062 0.362808 0.798549
Si Si4 0.476102 0.965327 0.304343
Si Si5 0.449297 0.757604 0.031470
Si Si6 0.859683 0.744216 0.444047
Si Si7 0.358498 0.524906 0.351940
Si Si8 0.974150 0.922113 0.821284
O O1 0.689255 0.215301 0.437865
O O2 0.600341 0.880505 0.729135
O O3 0.824186 0.868608 0.727616
O O4 0.569228 0.828534 0.511599
O O5 0.803765 0.592396 0.161126
O O6 0.567708 0.611835 0.138176
O O7 0.773438 0.616635 0.361719
O O8 0.983004 0.605212 0.603383
O O9 0.982094 0.156626 0.786158
O O10 0.993712 0.278751 0.958898
O O11 0.358093 0.789108 0.272660
O O12 0.578690 0.127798 0.173261
O O13 0.354402 0.592053 0.171171
O O14 0.500000 0.000000 0.000000
O O15 0.760502 0.678345 0.543849
O O16 0.922209 0.007988 0.276844
O O17 0.500000 0.500000 0.500000
#
# Coordination Sequence:
#
# PCOD9081746 Si02
#       8
#     2   2   2   2   2   2   2   2
#     4  11  19  36  58  84 130 153 190 245 317 378
#     4  11  18  34  58  86 122 154 190 249 312 352
#     4  10  19  32  56  92 118 149 197 252 309 351
#     4  10  22  35  56  88 117 160 196 245 305 362
#     4  10  22  36  55  85 118 156 210 248 278 355
#     4  11  19  34  59  88 118 150 203 249 300 350
#     4  11  20  39  60  82 115 160 204 249 290 345
#     4  10  19  32  54  87 118 153 187 247 308 354
#
# _framework density 25.868780999999998
#
# number of rings (size 3 to 8) (size 9 to 14) (size 15 to 20)
#    0.000    1.500    5.000    1.500    0.000    5.500 
#    0.000    1.250    0.000    1.500    0.000    0.000 
#    0.000    0.000    0.000    0.000    0.000    0.000 
#
# Total GULP energy -89474.813773 kJ/mol
# GULP energy per Si atom -5592.175861 kJ/mol
# Density = 2.580990 g / cm^3
# Si number density = 25.868781 Si / 1000 Ang^3
#
#
#
# Elastic Constant Matrix: (Units=GPa)
#
#
# Indices 1 2 3 4 5 6 
#
# 1 114.2771 9.6400 32.8473 4.2931 -51.5898 23.9359
# 2 9.6400 67.4753 13.9080 7.3789 -9.8231 18.1887
# 3 32.8473 13.9080 124.5542 -5.0192 -45.4130 6.4116
# 4 4.2931 7.3789 -5.0192 33.3798 3.3664 -4.3769
# 5 -51.5898 -9.8231 -45.4130 3.3664 57.8176 -9.5031
# 6 23.9359 18.1887 6.4116 -4.3769 -9.5031 24.5586
#
#
#
# Elastic Compliance Matrix: (Units=1/GPa)
#
#
# Indices 1 2 3 4 5 6 
#
# 1 0.019590 0.005116 0.000919 -0.007549 0.016541 -0.018067
# 2 0.005116 0.021475 -0.001530 -0.008735 0.004161 -0.020438
# 3 0.000919 -0.001530 0.011481 0.001124 0.009709 0.001197
# 4 -0.007549 -0.008735 0.001124 0.035974 -0.006572 0.017402
# 5 0.016541 0.004161 0.009709 -0.006572 0.039519 -0.007617
# 6 -0.018067 -0.020438 0.001197 0.017402 -0.007617 0.073306
#
#
# Mechanical properties :
#
#
# Convention : Reuss Voigt Hill
#
# Bulk Modulus (GPa) = 16.24544 46.56635 31.40589
# Shear Modulus (GPa) = 23.49032 39.81194 31.65113
#
# Velocity S-wave (km/s) = 3.01667 3.92726 3.50169
# Velocity P-wave (km/s) = 4.29270 6.21326 5.34003
#
# Compressibility (1/GPa) = 0.06155575
#
# Stress axis : x y z
#
# Youngs Moduli (GPa) = 51.04600 46.56577 87.10244
#
# Poissons Ratio (x) = -0.23821 -0.08007
# Poissons Ratio (y) = -0.26113 0.13326
# Poissons Ratio (z) = -0.04693 0.07124
#
# Static dielectric constant tensor:
#      x y z
#    x 2.160700 -0.090500 -0.032290 
#    y -0.090500 2.172190 -0.042500 
#    z -0.032290 -0.042500 1.988630 
# 
# From -- ./inp_files/427454.got.cif
#   From: 2010.05.17/outbox.cif.g08.bks.cpg/sg2_214_cif.got.tgz:427454.got - 2010.06.03 11:33:40.
