data_PCOD9081925
_publ_section_title
;
Structure prediction by ZEFSAII (Michael W. Deem and Ramdas Pophale) SiO2 
 PCOD9081925
Probable space group: P -1
;
_chemical_formula_sum "Si O2"
_cell_formula_units_Z 14
_cell_length_a 7.090679
_cell_length_b 12.176473
_cell_length_c 18.745007
_cell_angle_alpha 28.123490
_cell_angle_beta 68.579745
_cell_angle_gamma 88.929786
_cell_volume 513.072739
_symmetry_space_group_name_H-M "P -1"
_symmetry_group_IT_number 2
_symmetry_cell_setting 'triclinic'
loop_
_space_group_symop_operation_xyz
x,y,z
-x,-y,-z
loop_
_atom_site_type_symbol
_atom_site_label
_atom_site_fract_x
_atom_site_fract_y
_atom_site_fract_z
Si Si1 0.746509 0.937720 0.105192
Si Si2 0.693381 0.782936 0.752314
Si Si3 0.286710 0.766832 0.427666
Si Si4 0.830589 0.404973 0.903680
Si Si5 0.395628 0.587059 0.764125
Si Si6 0.348833 0.274498 0.495762
Si Si7 0.023509 0.124721 0.758388
O O1 0.470728 0.631618 0.281844
O O2 0.763553 0.850786 0.233546
O O3 0.798205 0.251017 0.920536
O O4 0.000000 0.000000 0.000000
O O5 0.849360 0.694090 0.742912
O O6 0.508627 0.738829 0.738963
O O7 0.846273 0.117961 0.578357
O O8 0.500000 0.500000 0.000000
O O9 0.436945 0.721917 0.491445
O O10 0.094079 0.445300 0.588836
O O11 0.542833 0.091298 0.162246
O O12 0.117966 0.520501 0.827000
O O13 0.615105 0.780211 0.558384
O O14 0.280133 0.227609 0.983692
O O15 0.081427 0.083821 0.693121
#
# Coordination Sequence:
#
# PCOD9081925 Si02
#       7
#     2   2   2   2   2   2   2
#     4  10  15  30  63  99 120 166 211 256 327 374
#     4  10  25  44  65  93 136 176 212 263 327 390
#     4  10  19  36  65  96 132 171 210 267 320 382
#     4  10  19  40  66  92 131 172 211 261 326 381
#     4  11  23  40  73  98 120 176 220 260 330 382
#     4  11  18  34  67  99 131 159 221 272 317 381
#     4  10  19  35  67 102 125 165 220 268 323 375
#
# _framework density 27.286580000000001
#
# number of rings (size 3 to 8) (size 9 to 14) (size 15 to 20)
#    0.000    1.714    7.143    0.857    0.000    2.857 
#    0.000    4.286    6.286    1.714    0.000    0.000 
#    0.000    0.000    0.000    0.000    0.000    0.000 
#
# Total GULP energy -78267.177121 kJ/mol
# GULP energy per Si atom -5590.512651 kJ/mol
# Density = 2.722447 g / cm^3
# Si number density = 27.286580 Si / 1000 Ang^3
#
#
#
# Elastic Constant Matrix: (Units=GPa)
#
#
# Indices 1 2 3 4 5 6 
#
# 1 58.0150 28.0030 9.6854 -23.2835 14.8295 -15.8113
# 2 28.0030 134.1015 57.1971 -15.9922 25.1948 -26.4233
# 3 9.6854 57.1971 125.7211 -14.7930 16.2677 -10.7405
# 4 -23.2835 -15.9922 -14.7930 58.2622 -4.7031 16.8136
# 5 14.8295 25.1948 16.2677 -4.7031 23.0725 -6.2908
# 6 -15.8113 -26.4233 -10.7405 16.8136 -6.2908 60.8908
#
#
#
# Elastic Compliance Matrix: (Units=1/GPa)
#
#
# Indices 1 2 3 4 5 6 
#
# 1 0.025204 -0.002230 0.001895 0.008241 -0.012790 0.002314
# 2 -0.002230 0.011596 -0.003869 -0.000186 -0.007715 0.003025
# 3 0.001895 -0.003869 0.010292 0.002094 -0.003919 -0.000355
# 4 0.008241 -0.000186 0.002094 0.021813 -0.003194 -0.003924
# 5 -0.012790 -0.007715 -0.003919 -0.003194 0.062082 -0.000065
# 6 0.002314 0.003025 -0.000355 -0.003924 -0.000065 0.019351
#
#
# Mechanical properties :
#
#
# Convention : Reuss Voigt Hill
#
# Bulk Modulus (GPa) = 25.84984 56.40096 41.12540
# Shear Modulus (GPa) = 29.13077 43.30857 36.21967
#
# Velocity S-wave (km/s) = 3.27094 3.98826 3.64728
# Velocity P-wave (km/s) = 4.87436 6.47480 5.73072
#
# Compressibility (1/GPa) = 0.03868495
#
# Stress axis : x y z
#
# Youngs Moduli (GPa) = 39.67554 86.23489 97.16630
#
# Poissons Ratio (x) = 0.19227 -0.18414
# Poissons Ratio (y) = 0.08846 0.37595
# Poissons Ratio (z) = -0.07519 0.33366
#
# Static dielectric constant tensor:
#      x y z
#    x 2.150310 0.010610 0.057570 
#    y 0.010610 2.278610 0.058600 
#    z 0.057570 0.058600 2.195970 
# 
# From -- ./inp_files/588561.got.cif
#   From: 2010.05.17/outbox.cif.g08.bks.cpg/sg2_295_cif.got.tgz:588561.got - 2010.06.03 11:33:40.
