data_PCOD9081349
_publ_section_title
;
Structure prediction by ZEFSAII (Michael W. Deem and Ramdas Pophale) SiO2 
 PCOD9081349
Probable space group: P -1
;
_chemical_formula_sum "Si O2"
_cell_formula_units_Z 14
_cell_length_a 14.647270
_cell_length_b 15.465033
_cell_length_c 13.240815
_cell_angle_alpha 153.033932
_cell_angle_beta 121.585046
_cell_angle_gamma 41.401536
_cell_volume 787.704962
_symmetry_space_group_name_H-M "P -1"
_symmetry_group_IT_number 2
_symmetry_cell_setting 'triclinic'
loop_
_space_group_symop_operation_xyz
x,y,z
-x,-y,-z
loop_
_atom_site_type_symbol
_atom_site_label
_atom_site_fract_x
_atom_site_fract_y
_atom_site_fract_z
Si Si1 0.852240 0.717542 0.824480
Si Si2 0.245020 0.617135 0.295069
Si Si3 0.074569 0.733671 0.900347
Si Si4 0.070942 0.504023 0.145215
Si Si5 0.436221 0.626406 0.705548
Si Si6 0.787039 0.388920 0.354999
Si Si7 0.933650 0.077811 0.696599
O O1 0.887406 0.675543 0.920940
O O2 0.816869 0.546650 0.595296
O O3 0.002320 0.617133 0.751390
O O4 0.703831 0.038748 0.040618
O O5 0.225062 0.424932 0.119573
O O6 0.417008 0.476634 0.256986
O O7 0.173136 0.726697 0.256134
O O8 0.116028 0.890659 0.577896
O O9 0.201370 0.582526 0.727706
O O10 0.121378 0.752921 0.056922
O O11 0.930761 0.059993 0.124143
O O12 0.948375 0.828625 0.449050
O O13 0.000000 0.500000 0.000000
O O14 0.500000 0.500000 0.500000
O O15 0.366625 0.526109 0.611166
#
# Coordination Sequence:
#
# PCOD9081349 Si02
#       7
#     2   2   2   2   2   2   2
#     4  11  21  35  56  86 113 141 184 229 274 324
#     4   9  19  35  53  79 113 142 180 224 275 324
#     4  10  19  36  60  80 110 144 186 231 268 321
#     4  10  19  31  55  87 109 136 183 228 276 319
#     4  11  23  36  55  80 117 148 176 223 280 334
#     4  10  21  37  55  84 111 147 183 222 277 326
#     4   9  18  36  57  79 110 140 187 227 273 317
#
# _framework density 17.773153000000001
#
# number of rings (size 3 to 8) (size 9 to 14) (size 15 to 20)
#    0.857    1.143    1.429    3.857    2.000    2.286 
#    0.000    0.714    0.000    0.857    0.000    0.000 
#    0.000    0.000    0.000    0.000    0.000    0.000 
#
# Total GULP energy -78005.576787 kJ/mol
# GULP energy per Si atom -5571.826913 kJ/mol
# Density = 1.773270 g / cm^3
# Si number density = 17.773153 Si / 1000 Ang^3
#
#
#
# Elastic Constant Matrix: (Units=GPa)
#
#
# Indices 1 2 3 4 5 6 
#
# 1 159.8007 62.3682 47.1790 -16.1747 5.2126 -5.8141
# 2 62.3682 75.0448 25.0909 -13.8834 -7.2085 11.7974
# 3 47.1790 25.0909 40.7005 -20.6674 3.2925 -4.6760
# 4 -16.1747 -13.8834 -20.6674 26.9441 3.5491 1.4318
# 5 5.2126 -7.2085 3.2925 3.5491 28.5808 -3.2762
# 6 -5.8141 11.7974 -4.6760 1.4318 -3.2762 22.7607
#
#
#
# Elastic Compliance Matrix: (Units=1/GPa)
#
#
# Indices 1 2 3 4 5 6 
#
# 1 0.012826 -0.008967 -0.011459 -0.005758 -0.001917 0.005656
# 2 -0.008967 0.027138 -0.007377 0.002925 0.007013 -0.017047
# 3 -0.011459 -0.007377 0.064688 0.039854 -0.011015 0.010094
# 4 -0.005758 0.002925 0.039854 0.067247 -0.011228 -0.000646
# 5 -0.001917 0.007013 -0.011015 -0.011228 0.039775 0.000044
# 6 0.005656 -0.017047 0.010094 -0.000646 0.000044 0.056337
#
#
# Mechanical properties :
#
#
# Convention : Reuss Voigt Hill
#
# Bulk Modulus (GPa) = 20.38829 60.53579 40.46204
# Shear Modulus (GPa) = 14.70736 25.05098 19.87917
#
# Velocity S-wave (km/s) = 2.87976 3.75838 3.34802
# Velocity P-wave (km/s) = 4.74907 7.27792 6.14499
#
# Compressibility (1/GPa) = 0.04904776
#
# Stress axis : x y z
#
# Youngs Moduli (GPa) = 77.96669 36.84813 15.45875
#
# Poissons Ratio (x) = 0.33041 0.17714
# Poissons Ratio (y) = 0.69911 0.11404
# Poissons Ratio (z) = 0.89341 0.27182
#
# Static dielectric constant tensor:
#      x y z
#    x 1.638430 0.009270 0.020270 
#    y 0.009270 1.599940 -0.018280 
#    z 0.020270 -0.018280 1.632740 
# 
# From -- ./inp_files/456038.got.cif
#   From: 2010.05.17/outbox.cif.g08.bks.cpg/sg2_229_cif.got.tgz:456038.got - 2010.06.03 11:33:40.
