data_PCOD9081568
_publ_section_title
;
Structure prediction by ZEFSAII (Michael W. Deem and Ramdas Pophale) SiO2 
 PCOD9081568
Probable space group: P -1
;
_chemical_formula_sum "Si O2"
_cell_formula_units_Z 16
_cell_length_a 12.563176
_cell_length_b 9.453193
_cell_length_c 10.278691
_cell_angle_alpha 94.237999
_cell_angle_beta 67.743008
_cell_angle_gamma 40.127980
_cell_volume 577.300615
_symmetry_space_group_name_H-M "P -1"
_symmetry_group_IT_number 2
_symmetry_cell_setting 'triclinic'
loop_
_space_group_symop_operation_xyz
x,y,z
-x,-y,-z
loop_
_atom_site_type_symbol
_atom_site_label
_atom_site_fract_x
_atom_site_fract_y
_atom_site_fract_z
Si Si1 0.545579 0.026447 0.233537
Si Si2 0.087056 0.456599 0.634571
Si Si3 0.167011 0.827718 0.551956
Si Si4 0.745957 0.547511 0.206516
Si Si5 0.560295 0.607545 0.825974
Si Si6 0.830929 0.966972 0.676459
Si Si7 0.691511 0.396521 0.019260
Si Si8 0.713906 0.025885 0.387095
O O1 0.317498 0.243363 0.435294
O O2 0.495339 0.168984 0.138925
O O3 0.687417 0.981582 0.256775
O O4 0.670564 0.746245 0.149865
O O5 0.100121 0.529826 0.769232
O O6 0.896494 0.735463 0.656490
O O7 0.104130 0.272362 0.648214
O O8 0.341941 0.548611 0.368141
O O9 0.244812 0.849905 0.630749
O O10 0.997838 0.885987 0.681706
O O11 0.111898 0.009878 0.482662
O O12 0.822540 0.334455 0.069456
O O13 0.521044 0.743615 0.407219
O O14 0.351380 0.724276 0.951223
O O15 0.732552 0.393786 0.849927
O O16 0.566859 0.269644 0.828133
#
# Coordination Sequence:
#
# PCOD9081568 Si02
#       8
#     2   2   2   2   2   2   2   2
#     4   9  18  31  54  80 103 127 178 220 250 300
#     4   9  18  31  55  80 105 129 168 221 266 297
#     4  10  19  32  52  77 107 134 175 213 253 306
#     4   9  17  34  51  79 104 134 172 216 254 307
#     4  10  19  34  52  76 103 144 174 208 249 309
#     4  10  19  33  50  79 107 135 167 219 260 302
#     4  10  21  35  53  75 109 139 172 210 256 310
#     4   9  17  32  51  82 103 131 171 221 254 303
#
# _framework density 27.715195000000001
#
# number of rings (size 3 to 8) (size 9 to 14) (size 15 to 20)
#    0.000    2.500    3.750    1.500    0.000    2.500 
#    0.000    0.000    0.000   16.500    0.000    0.000 
#    0.000    0.000    0.000    0.000    0.000    0.000 
#
# Total GULP energy -89436.631566 kJ/mol
# GULP energy per Si atom -5589.789473 kJ/mol
# Density = 2.765211 g / cm^3
# Si number density = 27.715195 Si / 1000 Ang^3
#
#
#
# Elastic Constant Matrix: (Units=GPa)
#
#
# Indices 1 2 3 4 5 6 
#
# 1 114.3902 -5.0204 15.7784 1.6875 22.5344 28.5624
# 2 -5.0204 113.9744 6.9081 -12.0143 -11.8875 17.3021
# 3 15.7784 6.9081 85.6181 6.3376 -4.7107 2.4454
# 4 1.6875 -12.0143 6.3376 20.8295 -7.0946 -1.9584
# 5 22.5344 -11.8875 -4.7107 -7.0946 28.1161 2.7500
# 6 28.5624 17.3021 2.4454 -1.9584 2.7500 32.4476
#
#
#
# Elastic Compliance Matrix: (Units=1/GPa)
#
#
# Indices 1 2 3 4 5 6 
#
# 1 0.014705 0.000943 -0.002708 -0.005052 -0.011889 -0.012540
# 2 0.000943 0.011558 -0.001171 0.008603 0.006786 -0.006961
# 3 -0.002708 -0.001171 0.012618 -0.003179 0.002828 0.001626
# 4 -0.005052 0.008603 -0.003179 0.062252 0.022673 0.001935
# 5 -0.011889 0.006786 0.002828 0.022673 0.053823 0.003440
# 6 -0.012540 -0.006961 0.001626 0.001935 0.003440 0.045272
#
#
# Mechanical properties :
#
#
# Convention : Reuss Voigt Hill
#
# Bulk Modulus (GPa) = 30.29535 38.81276 34.55406
# Shear Modulus (GPa) = 23.03068 36.03308 29.53188
#
# Velocity S-wave (km/s) = 2.88579 3.60963 3.26781
# Velocity P-wave (km/s) = 4.69664 5.60420 5.17037
#
# Compressibility (1/GPa) = 0.03300836
#
# Stress axis : x y z
#
# Youngs Moduli (GPa) = 68.00597 86.52134 79.25323
#
# Poissons Ratio (x) = -0.08159 0.21462
# Poissons Ratio (y) = -0.06413 0.09280
# Poissons Ratio (z) = 0.18416 0.10131
#
# Static dielectric constant tensor:
#      x y z
#    x 2.325180 -0.132850 0.042860 
#    y -0.132850 2.166350 0.024410 
#    z 0.042860 0.024410 2.239480 
# 
# From -- ./inp_files/404705.got.cif
#   From: 2010.05.17/outbox.cif.g08.bks.cpg/sg2_203_cif.got.tgz:404705.got - 2010.06.03 11:33:40.
