data_PCOD9081467
_publ_section_title
;
Structure prediction by ZEFSAII (Michael W. Deem and Ramdas Pophale) SiO2 
 PCOD9081467
Probable space group: P -1
;
_chemical_formula_sum "Si O2"
_cell_formula_units_Z 16
_cell_length_a 17.836816
_cell_length_b 13.344473
_cell_length_c 7.426120
_cell_angle_alpha 85.724169
_cell_angle_beta 49.626444
_cell_angle_gamma 43.979534
_cell_volume 628.767835
_symmetry_space_group_name_H-M "P -1"
_symmetry_group_IT_number 2
_symmetry_cell_setting 'triclinic'
loop_
_space_group_symop_operation_xyz
x,y,z
-x,-y,-z
loop_
_atom_site_type_symbol
_atom_site_label
_atom_site_fract_x
_atom_site_fract_y
_atom_site_fract_z
Si Si1 0.114900 0.056880 0.827745
Si Si2 0.685570 0.753790 0.278947
Si Si3 0.534952 0.211013 0.984631
Si Si4 0.335535 0.705273 0.102455
Si Si5 0.226816 0.418552 0.175717
Si Si6 0.026857 0.347481 0.020193
Si Si7 0.215396 0.200566 0.351348
Si Si8 0.872817 0.151725 0.940737
O O1 0.060853 0.199805 0.018265
O O2 0.294895 0.920858 0.422303
O O3 0.177730 0.901448 0.858925
O O4 0.909724 0.211712 0.007887
O O5 0.880463 0.659761 0.976234
O O6 0.500000 0.000000 0.500000
O O7 0.649713 0.702534 0.187979
O O8 0.791732 0.591498 0.295435
O O9 0.575549 0.261411 0.057417
O O10 0.599608 0.040219 0.964153
O O11 0.317101 0.407785 0.189301
O O12 0.105554 0.921179 0.524603
O O13 0.292651 0.689349 0.982969
O O14 0.500000 0.500000 0.000000
O O15 0.250517 0.282469 0.226592
O O16 0.993262 0.650979 0.442326
O O17 0.169609 0.236744 0.631540
#
# Coordination Sequence:
#
# PCOD9081467 Si02
#       8
#     2   2   2   2   2   2   2   2
#     4   9  18  38  61  81 107 147 189 227 280 330
#     4  10  19  32  49  74 108 142 173 218 271 315
#     4  10  20  35  56  80 108 142 184 226 268 325
#     4  10  22  39  58  84 113 143 181 228 284 335
#     4  10  20  34  55  78 107 146 183 221 265 319
#     4   9  19  34  52  76 106 138 181 224 261 322
#     4   9  19  36  54  77 106 144 184 220 267 318
#     4   9  20  40  61  80 112 144 178 236 283 328
#
# _framework density 25.446593
#
# number of rings (size 3 to 8) (size 9 to 14) (size 15 to 20)
#    0.000    2.500    0.000    1.875    0.000    6.000 
#    0.000   16.875    0.000    0.000    0.000    0.000 
#    0.000    0.000    0.000    0.000    0.000    0.000 
#
# Total GULP energy -89390.423996 kJ/mol
# GULP energy per Si atom -5586.901500 kJ/mol
# Density = 2.538868 g / cm^3
# Si number density = 25.446593 Si / 1000 Ang^3
#
#
#
# Elastic Constant Matrix: (Units=GPa)
#
#
# Indices 1 2 3 4 5 6 
#
# 1 80.2264 11.0104 -1.8108 5.0390 -14.7138 -13.7312
# 2 11.0104 55.1841 6.2658 12.6010 -14.0388 -17.5678
# 3 -1.8108 6.2658 32.2287 21.3509 -1.2523 1.6229
# 4 5.0390 12.6010 21.3509 31.7835 -9.4364 -5.3552
# 5 -14.7138 -14.0388 -1.2523 -9.4364 26.2989 7.3703
# 6 -13.7312 -17.5678 1.6229 -5.3552 7.3703 34.2791
#
#
#
# Elastic Compliance Matrix: (Units=1/GPa)
#
#
# Indices 1 2 3 4 5 6 
#
# 1 0.014492 0.000200 0.000992 -0.000248 0.006961 0.004325
# 2 0.000200 0.024820 -0.002475 -0.003795 0.008968 0.010396
# 3 0.000992 -0.002475 0.061698 -0.045542 -0.011825 -0.008364
# 4 -0.000248 -0.003795 -0.045542 0.070415 0.018961 0.007036
# 5 0.006961 0.008968 -0.011825 0.018961 0.053089 -0.000508
# 6 0.004325 0.010396 -0.008364 0.007036 -0.000508 0.037837
#
#
# Mechanical properties :
#
#
# Convention : Reuss Voigt Hill
#
# Bulk Modulus (GPa) = 10.15793 22.06335 16.11064
# Shear Modulus (GPa) = 16.79366 28.61723 22.70544
#
# Velocity S-wave (km/s) = 2.57175 3.35714 2.99034
# Velocity P-wave (km/s) = 3.58037 4.86996 4.27408
#
# Compressibility (1/GPa) = 0.09844524
#
# Stress axis : x y z
#
# Youngs Moduli (GPa) = 69.00254 40.29007 16.20805
#
# Poissons Ratio (x) = -0.00807 -0.01608
# Poissons Ratio (y) = -0.01383 0.04012
# Poissons Ratio (z) = -0.06848 0.09972
#
# Static dielectric constant tensor:
#      x y z
#    x 1.998630 -0.007010 0.023310 
#    y -0.007010 2.016940 -0.057070 
#    z 0.023310 -0.057070 2.155620 
# 
# From -- ./inp_files/334879.got.cif
#   From: 2010.05.17/outbox.cif.g08.bks.cpg/sg2_168_cif.got.tgz:334879.got - 2010.06.03 11:33:40.
