data_PCOD9081478
_publ_section_title
;
Structure prediction by ZEFSAII (Michael W. Deem and Ramdas Pophale) SiO2 
 PCOD9081478
Probable space group: P -1
;
_chemical_formula_sum "Si O2"
_cell_formula_units_Z 14
_cell_length_a 14.855789
_cell_length_b 15.328866
_cell_length_c 15.025603
_cell_angle_alpha 56.338979
_cell_angle_beta 159.858227
_cell_angle_gamma 135.926720
_cell_volume 708.810866
_symmetry_space_group_name_H-M "P -1"
_symmetry_group_IT_number 2
_symmetry_cell_setting 'triclinic'
loop_
_space_group_symop_operation_xyz
x,y,z
-x,-y,-z
loop_
_atom_site_type_symbol
_atom_site_label
_atom_site_fract_x
_atom_site_fract_y
_atom_site_fract_z
Si Si1 0.854535 0.943068 0.116514
Si Si2 0.564932 0.190430 0.917502
Si Si3 0.572636 0.336015 0.008737
Si Si4 0.301174 0.714668 0.592575
Si Si5 0.646998 0.927653 0.653433
Si Si6 0.716783 0.522254 0.295300
Si Si7 0.970204 0.107074 0.295943
O O1 0.757263 0.817674 0.161274
O O2 0.871005 0.046918 0.137844
O O3 0.530189 0.850945 0.795442
O O4 0.217605 0.037651 0.341636
O O5 0.620197 0.300215 0.975617
O O6 0.364247 0.177902 0.651258
O O7 0.295250 0.036174 0.806934
O O8 0.899471 0.208882 0.193365
O O9 0.482108 0.433440 0.873407
O O10 0.933912 0.407731 0.358089
O O11 0.347884 0.765715 0.506529
O O12 0.463423 0.641804 0.789586
O O13 0.901442 0.601445 0.326938
O O14 0.500000 0.000000 0.500000
O O15 0.000000 0.000000 0.000000
#
# Coordination Sequence:
#
# PCOD9081478 Si02
#       7
#     2   2   2   2   2   2   2
#     4   9  19  32  50  73 101 129 158 195 242 291
#     4   9  17  29  45  68  96 120 153 197 239 286
#     4  10  19  32  50  73  98 127 161 199 241 283
#     4   9  20  34  49  72 102 130 163 197 232 283
#     4  10  20  33  49  69  97 132 162 195 236 281
#     4  10  20  32  50  72  98 132 163 195 235 279
#     4   9  17  28  45  69  95 123 151 190 245 290
#
# _framework density 19.751390000000001
#
# number of rings (size 3 to 8) (size 9 to 14) (size 15 to 20)
#    0.000    2.571    0.000    1.714    0.000   16.571 
#    0.000    0.000    0.000    0.000    0.000    6.000 
#    0.000    0.000    0.000    0.000    0.000    0.000 
#
# Total GULP energy -78055.318008 kJ/mol
# GULP energy per Si atom -5575.379858 kJ/mol
# Density = 1.970643 g / cm^3
# Si number density = 19.751390 Si / 1000 Ang^3
#
#
#
# Elastic Constant Matrix: (Units=GPa)
#
#
# Indices 1 2 3 4 5 6 
#
# 1 108.7069 50.0339 28.7228 -7.3540 2.5127 -22.6677
# 2 50.0339 71.4660 29.7778 -20.0825 7.8829 -16.8184
# 3 28.7228 29.7778 68.0525 -22.7396 6.9917 -17.5056
# 4 -7.3540 -20.0825 -22.7396 28.4278 -11.5227 12.0908
# 5 2.5127 7.8829 6.9917 -11.5227 23.3976 -0.2696
# 6 -22.6677 -16.8184 -17.5056 12.0908 -0.2696 38.4377
#
#
#
# Elastic Compliance Matrix: (Units=1/GPa)
#
#
# Indices 1 2 3 4 5 6 
#
# 1 0.015597 -0.010546 -0.003380 -0.009316 -0.001631 0.005963
# 2 -0.010546 0.026265 -0.002433 0.013915 -0.000139 -0.000213
# 3 -0.003380 -0.002433 0.022751 0.015345 0.001970 0.002491
# 4 -0.009316 0.013915 0.015345 0.072221 0.027122 -0.014944
# 5 -0.001631 -0.000139 0.001970 0.027122 0.055634 -0.008267
# 6 0.005963 -0.000213 0.002491 -0.014944 -0.008267 0.035217
#
#
# Mechanical properties :
#
#
# Convention : Reuss Voigt Hill
#
# Bulk Modulus (GPa) = 31.35112 51.69939 41.52526
# Shear Modulus (GPa) = 18.44784 27.36533 22.90658
#
# Velocity S-wave (km/s) = 3.05946 3.72625 3.40920
# Velocity P-wave (km/s) = 5.32801 6.68918 6.04702
#
# Compressibility (1/GPa) = 0.03189678
#
# Stress axis : x y z
#
# Youngs Moduli (GPa) = 64.11519 38.07353 43.95327
#
# Poissons Ratio (x) = 0.40152 0.14856
# Poissons Ratio (y) = 0.67615 0.10692
# Poissons Ratio (z) = 0.21670 0.09261
#
# Static dielectric constant tensor:
#      x y z
#    x 1.707290 0.027770 -0.005450 
#    y 0.027770 1.740080 0.024310 
#    z -0.005450 0.024310 1.754200 
# 
# From -- ./inp_files/70357.got.cif
#   From: 2010.05.17/outbox.cif.g08.bks.cpg/sg2_36_cif.got.tgz:70357.got - 2010.06.03 11:33:40.
