data_PCOD9081476
_publ_section_title
;
Structure prediction by ZEFSAII (Michael W. Deem and Ramdas Pophale) SiO2 
 PCOD9081476
Probable space group: P -1
;
_chemical_formula_sum "Si O2"
_cell_formula_units_Z 16
_cell_length_a 9.789397
_cell_length_b 12.836312
_cell_length_c 6.343329
_cell_angle_alpha 95.523427
_cell_angle_beta 82.360486
_cell_angle_gamma 50.870393
_cell_volume 595.778719
_symmetry_space_group_name_H-M "P -1"
_symmetry_group_IT_number 2
_symmetry_cell_setting 'triclinic'
loop_
_space_group_symop_operation_xyz
x,y,z
-x,-y,-z
loop_
_atom_site_type_symbol
_atom_site_label
_atom_site_fract_x
_atom_site_fract_y
_atom_site_fract_z
Si Si1 0.704992 0.254176 0.893300
Si Si2 0.920196 0.946302 0.363401
Si Si3 0.944257 0.761566 0.679646
Si Si4 0.457353 0.825060 0.408089
Si Si5 0.349941 0.135736 0.925173
Si Si6 0.350542 0.493728 0.181690
Si Si7 0.237189 0.488984 0.730717
Si Si8 0.148732 0.400981 0.246922
O O1 0.645307 0.177269 0.773343
O O2 0.559314 0.352541 0.124710
O O3 0.921734 0.144346 0.861704
O O4 0.674185 0.370203 0.765488
O O5 0.917647 0.852628 0.513034
O O6 0.708329 0.070062 0.375509
O O7 0.000000 0.000000 0.500000
O O8 0.152596 0.636696 0.675459
O O9 0.859365 0.691691 0.606635
O O10 0.833900 0.829429 0.939136
O O11 0.563520 0.876849 0.320137
O O12 0.597202 0.664817 0.411924
O O13 0.298666 0.279505 0.036660
O O14 0.500000 0.000000 0.000000
O O15 0.292803 0.499315 0.953136
O O16 0.212951 0.481752 0.318671
O O17 0.054761 0.507384 0.782693
#
# Coordination Sequence:
#
# PCOD9081476 Si02
#       8
#     2   2   2   2   2   2   2   2
#     4   9  19  27  45  66  95 128 150 181 222 280
#     4  10  19  31  45  65  96 126 153 183 225 277
#     4   8  17  27  44  73  92 109 154 194 229 259
#     4  10  15  30  47  71  94 118 154 186 232 268
#     4   9  14  23  45  71  92 112 146 197 229 256
#     4  10  15  30  46  70  93 119 153 187 229 273
#     4   8  16  27  50  75  88 111 150 200 232 258
#     4   8  16  25  48  72  91 108 151 199 227 256
#
# _framework density 26.855608
#
# number of rings (size 3 to 8) (size 9 to 14) (size 15 to 20)
#    1.500    1.250    3.750    0.375    1.750    0.000 
#    0.000    6.250    0.000    3.750    0.000    1.750 
#    0.000    0.000    0.000    0.000    0.000    0.000 
#
# Total GULP energy -89072.480999 kJ/mol
# GULP energy per Si atom -5567.030062 kJ/mol
# Density = 2.679448 g / cm^3
# Si number density = 26.855608 Si / 1000 Ang^3
#
#
#
# Elastic Constant Matrix: (Units=GPa)
#
#
# Indices 1 2 3 4 5 6 
#
# 1 123.1500 30.5690 42.3439 -1.8241 -25.9918 6.0626
# 2 30.5690 107.9260 26.4125 16.3631 -15.8836 -22.9237
# 3 42.3439 26.4125 90.6234 38.3225 -36.7696 -16.3947
# 4 -1.8241 16.3631 38.3225 43.1376 -9.1426 -21.8770
# 5 -25.9918 -15.8836 -36.7696 -9.1426 47.0618 7.5619
# 6 6.0626 -22.9237 -16.3947 -21.8770 7.5619 48.4048
#
#
#
# Elastic Compliance Matrix: (Units=1/GPa)
#
#
# Indices 1 2 3 4 5 6 
#
# 1 0.012113 -0.002954 -0.007989 0.007858 0.001344 -0.002280
# 2 -0.002954 0.011559 0.000278 -0.002037 0.001318 0.004812
# 3 -0.007989 0.000278 0.032020 -0.026861 0.015906 -0.002647
# 4 0.007858 -0.002037 -0.026861 0.053603 -0.009271 0.014628
# 5 0.001344 0.001318 0.015906 -0.009271 0.033641 -0.003602
# 6 -0.002280 0.004812 -0.002647 0.014628 -0.003602 0.029501
#
#
# Mechanical properties :
#
#
# Convention : Reuss Voigt Hill
#
# Bulk Modulus (GPa) = 29.10204 57.81666 43.45935
# Shear Modulus (GPa) = 24.36402 42.54578 33.45490
#
# Velocity S-wave (km/s) = 3.01528 3.98457 3.53332
# Velocity P-wave (km/s) = 4.79401 6.53793 5.73267
#
# Compressibility (1/GPa) = 0.03436185
#
# Stress axis : x y z
#
# Youngs Moduli (GPa) = 82.55864 86.51255 31.23012
#
# Poissons Ratio (x) = 0.25552 0.24950
# Poissons Ratio (y) = 0.24384 -0.00867
# Poissons Ratio (z) = 0.65958 -0.02402
#
# Static dielectric constant tensor:
#      x y z
#    x 2.096640 -0.011040 -0.006890 
#    y -0.011040 2.109440 -0.037820 
#    z -0.006890 -0.037820 2.345740 
# 
# From -- ./inp_files/265230.got.cif
#   From: 2010.05.17/outbox.cif.g08.bks.cpg/sg2_133_cif.got.tgz:265230.got - 2010.06.03 11:33:40.
