data_PCOD9081728
_publ_section_title
;
Structure prediction by ZEFSAII (Michael W. Deem and Ramdas Pophale) SiO2 
 PCOD9081728
Probable space group: P -1
;
_chemical_formula_sum "Si O2"
_cell_formula_units_Z 16
_cell_length_a 24.136029
_cell_length_b 15.260103
_cell_length_c 7.766254
_cell_angle_alpha 52.695946
_cell_angle_beta 125.125615
_cell_angle_gamma 164.163025
_cell_volume 620.542154
_symmetry_space_group_name_H-M "P -1"
_symmetry_group_IT_number 2
_symmetry_cell_setting 'triclinic'
loop_
_space_group_symop_operation_xyz
x,y,z
-x,-y,-z
loop_
_atom_site_type_symbol
_atom_site_label
_atom_site_fract_x
_atom_site_fract_y
_atom_site_fract_z
Si Si1 0.419159 0.763676 0.981656
Si Si2 0.183468 0.328462 0.766770
Si Si3 0.479573 0.332213 0.442714
Si Si4 0.502582 0.867554 0.387515
Si Si5 0.078656 0.007859 0.717893
Si Si6 0.780810 0.216702 0.897699
Si Si7 0.553490 0.674600 0.220143
Si Si8 0.990002 0.239319 0.400637
O O1 0.279088 0.480362 0.942112
O O2 0.397381 0.858360 0.772415
O O3 0.373773 0.676250 0.204765
O O4 0.649148 0.076074 0.977561
O O5 0.362240 0.639361 0.578031
O O6 0.101530 0.082077 0.865265
O O7 0.018064 0.170779 0.636146
O O8 0.373264 0.057155 0.512076
O O9 0.691122 0.652437 0.339794
O O10 0.418777 0.368297 0.269766
O O11 0.516577 0.382013 0.655859
O O12 0.000000 0.000000 0.500000
O O13 0.973804 0.743320 0.755341
O O14 0.632230 0.888069 0.974722
O O15 0.847581 0.420170 0.654899
O O16 0.000000 0.500000 0.000000
O O17 0.768019 0.950787 0.341702
#
# Coordination Sequence:
#
# PCOD9081728 Si02
#       8
#     2   2   2   2   2   2   2   2
#     4  11  21  34  56  89 115 143 190 237 286 338
#     4  10  19  34  58  85 111 147 189 237 285 335
#     4   9  16  30  53  79 104 145 192 229 269 337
#     4  10  20  33  54  84 113 144 182 237 283 331
#     4   8  16  30  52  79 107 144 185 225 281 333
#     4  10  19  32  54  84 113 151 190 227 281 348
#     4   9  17  30  52  82 105 148 197 219 279 344
#     4   9  17  31  54  80 111 153 186 228 286 337
#
# _framework density 25.783905000000001
#
# number of rings (size 3 to 8) (size 9 to 14) (size 15 to 20)
#    0.000    2.500    2.500    0.375    0.000    0.000 
#    0.000    0.000    0.000   46.500    0.000    0.000 
#    0.000    0.000    0.000    0.000    0.000    0.000 
#
# Total GULP energy -89126.693874 kJ/mol
# GULP energy per Si atom -5570.418367 kJ/mol
# Density = 2.572522 g / cm^3
# Si number density = 25.783905 Si / 1000 Ang^3
#
#
#
# Elastic Constant Matrix: (Units=GPa)
#
#
# Indices 1 2 3 4 5 6 
#
# 1 128.7778 31.3844 36.2392 -3.9071 9.1992 -5.1781
# 2 31.3844 50.2927 28.4273 -6.5399 1.1830 -12.0774
# 3 36.2392 28.4273 95.5622 -5.3976 -0.5118 -3.2360
# 4 -3.9071 -6.5399 -5.3976 38.2430 -11.2874 6.9199
# 5 9.1992 1.1830 -0.5118 -11.2874 45.2774 -9.3592
# 6 -5.1781 -12.0774 -3.2360 6.9199 -9.3592 49.0603
#
#
#
# Elastic Compliance Matrix: (Units=1/GPa)
#
#
# Indices 1 2 3 4 5 6 
#
# 1 0.009730 -0.004983 -0.002282 -0.000704 -0.002186 -0.000668
# 2 -0.004983 0.028241 -0.006125 0.003017 0.002201 0.006017
# 3 -0.002282 -0.006125 0.013183 0.000983 0.000840 -0.000858
# 4 -0.000704 0.003017 0.000983 0.029145 0.006916 -0.002058
# 5 -0.002186 0.002201 0.000840 0.006916 0.025069 0.004174
# 6 -0.000668 0.006017 -0.000858 -0.002058 0.004174 0.022824
#
#
# Mechanical properties :
#
#
# Convention : Reuss Voigt Hill
#
# Bulk Modulus (GPa) = 41.02768 51.85938 46.44353
# Shear Modulus (GPa) = 30.65715 38.42159 34.53937
#
# Velocity S-wave (km/s) = 3.45193 3.86442 3.66399
# Velocity P-wave (km/s) = 5.64220 6.32996 5.99595
#
# Compressibility (1/GPa) = 0.02437379
#
# Stress axis : x y z
#
# Youngs Moduli (GPa) = 102.77914 35.41010 75.85654
#
# Poissons Ratio (x) = 0.17643 0.17308
# Poissons Ratio (y) = 0.51210 0.46465
# Poissons Ratio (z) = 0.23450 0.21690
#
# Static dielectric constant tensor:
#      x y z
#    x 2.143020 -0.046960 0.027110 
#    y -0.046960 2.104010 -0.000870 
#    z 0.027110 -0.000870 2.094040 
# 
# From -- ./inp_files/354344.got.cif
#   From: 2010.05.17/outbox.cif.g08.bks.cpg/sg2_178_cif.got.tgz:354344.got - 2010.06.03 11:33:40.
