data_PCOD9081071
_publ_section_title
;
Structure prediction by ZEFSAII (Michael W. Deem and Ramdas Pophale) SiO2 
 PCOD9081071
Probable space group: P -1
;
_chemical_formula_sum "Si O2"
_cell_formula_units_Z 16
_cell_length_a 15.026486
_cell_length_b 21.736412
_cell_length_c 9.750836
_cell_angle_alpha 54.764833
_cell_angle_beta 124.316597
_cell_angle_gamma 160.365219
_cell_volume 871.700214
_symmetry_space_group_name_H-M "P -1"
_symmetry_group_IT_number 2
_symmetry_cell_setting 'triclinic'
loop_
_space_group_symop_operation_xyz
x,y,z
-x,-y,-z
loop_
_atom_site_type_symbol
_atom_site_label
_atom_site_fract_x
_atom_site_fract_y
_atom_site_fract_z
Si Si1 0.655512 0.680095 0.373539
Si Si2 0.066115 0.261464 0.347022
Si Si3 0.164475 0.979602 0.786102
Si Si4 0.308245 0.190316 0.999141
Si Si5 0.596849 0.249983 0.048174
Si Si6 0.392012 0.346100 0.124885
Si Si7 0.984270 0.605301 0.760630
Si Si8 0.494959 0.671456 0.493797
O O1 0.387505 0.474847 0.339066
O O2 0.916487 0.794824 0.451971
O O3 0.599134 0.669828 0.491809
O O4 0.672956 0.768192 0.192994
O O5 0.928192 0.144779 0.239737
O O6 0.969223 0.280043 0.292748
O O7 0.908209 0.839764 0.834318
O O8 0.291173 0.125817 0.610442
O O9 0.394603 0.105288 0.932836
O O10 0.438357 0.191446 0.106352
O O11 0.422536 0.321642 0.039506
O O12 0.000000 0.000000 0.000000
O O13 0.752102 0.273926 0.192858
O O14 0.817766 0.451311 0.927477
O O15 0.531503 0.380882 0.312623
O O16 0.500000 0.500000 0.000000
O O17 0.786255 0.483803 0.615331
#
# Coordination Sequence:
#
# PCOD9081071 Si02
#       8
#     2   2   2   2   2   2   2   2
#     4  10  19  35  56  83 116 151 195 230 290 353
#     4  10  19  30  60  84 111 145 192 248 276 333
#     4  11  20  36  59  89 119 151 198 248 289 343
#     4  12  22  36  56  88 119 153 185 243 300 347
#     4  10  20  39  58  85 114 157 201 242 284 351
#     4  12  25  34  56  93 127 149 184 251 309 341
#     4   9  20  38  63  80 113 157 205 239 283 349
#     4  10  20  39  60  85 115 158 199 240 288 354
#
# _framework density 18.354934
#
# number of rings (size 3 to 8) (size 9 to 14) (size 15 to 20)
#    0.000    1.500    6.250    1.125    5.250    0.500 
#    0.000    0.625    0.000    3.000    0.000    0.000 
#    0.000    0.000    0.000    0.000    0.000    0.000 
#
# Total GULP energy -89075.997327 kJ/mol
# GULP energy per Si atom -5567.249833 kJ/mol
# Density = 1.831316 g / cm^3
# Si number density = 18.354934 Si / 1000 Ang^3
#
#
#
# Elastic Constant Matrix: (Units=GPa)
#
#
# Indices 1 2 3 4 5 6 
#
# 1 146.2344 49.3085 38.5196 21.8766 25.0414 -2.3068
# 2 49.3085 74.0914 16.0279 12.6755 7.0397 -13.0510
# 3 38.5196 16.0279 65.5488 9.9363 11.1278 0.3684
# 4 21.8766 12.6755 9.9363 14.7253 4.0186 -0.7230
# 5 25.0414 7.0397 11.1278 4.0186 33.2526 8.4919
# 6 -2.3068 -13.0510 0.3684 -0.7230 8.4919 31.0750
#
#
#
# Elastic Compliance Matrix: (Units=1/GPa)
#
#
# Indices 1 2 3 4 5 6 
#
# 1 0.011745 -0.004927 -0.003319 -0.009436 -0.005589 0.000150
# 2 -0.004927 0.019950 -0.000465 -0.008758 -0.001392 0.008195
# 3 -0.003319 -0.000465 0.018808 -0.006571 -0.002895 -0.000026
# 4 -0.009436 -0.008758 -0.006571 0.093680 0.000407 -0.002232
# 5 -0.005589 -0.001392 -0.002895 0.000407 0.038421 -0.011455
# 6 0.000150 0.008195 -0.000026 -0.002232 -0.011455 0.038712
#
#
# Mechanical properties :
#
#
# Convention : Reuss Voigt Hill
#
# Bulk Modulus (GPa) = 30.22866 54.84296 42.53581
# Shear Modulus (GPa) = 20.01886 27.94515 23.98200
#
# Velocity S-wave (km/s) = 3.30609 3.90614 3.61857
# Velocity P-wave (km/s) = 5.57479 7.09140 6.37833
#
# Compressibility (1/GPa) = 0.03308119
#
# Stress axis : x y z
#
# Youngs Moduli (GPa) = 85.14459 50.12450 53.16991
#
# Poissons Ratio (x) = 0.24694 0.17646
# Poissons Ratio (y) = 0.41948 0.02474
# Poissons Ratio (z) = 0.28258 0.02332
#
# Static dielectric constant tensor:
#      x y z
#    x 1.813010 0.194830 -0.146540 
#    y 0.194830 2.025610 -0.304490 
#    z -0.146540 -0.304490 1.939550 
# 
# From -- ./inp_files/319316.got.cif
#   From: 2010.05.17/outbox.cif.g08.bks.cpg/sg2_160_cif.got.tgz:319316.got - 2010.06.03 11:33:40.
