data_PCOD9081000
_publ_section_title
;
Structure prediction by ZEFSAII (Michael W. Deem and Ramdas Pophale) SiO2 
 PCOD9081000
Probable space group: P -1
;
_chemical_formula_sum "Si O2"
_cell_formula_units_Z 16
_cell_length_a 10.035494
_cell_length_b 17.940845
_cell_length_c 14.259656
_cell_angle_alpha 33.559812
_cell_angle_beta 138.059878
_cell_angle_gamma 153.744338
_cell_volume 627.787911
_symmetry_space_group_name_H-M "P -1"
_symmetry_group_IT_number 2
_symmetry_cell_setting 'triclinic'
loop_
_space_group_symop_operation_xyz
x,y,z
-x,-y,-z
loop_
_atom_site_type_symbol
_atom_site_label
_atom_site_fract_x
_atom_site_fract_y
_atom_site_fract_z
Si Si1 0.214635 0.357130 0.906325
Si Si2 0.865981 0.604460 0.975678
Si Si3 0.921550 0.327954 0.328335
Si Si4 0.367216 0.232875 0.847526
Si Si5 0.565606 0.346394 0.628161
Si Si6 0.844683 0.706201 0.660355
Si Si7 0.186716 0.911863 0.196851
Si Si8 0.221679 0.655238 0.582217
O O1 0.505650 0.411105 0.004030
O O2 0.350158 0.573016 0.720387
O O3 0.004506 0.200081 0.880349
O O4 0.050386 0.289260 0.991493
O O5 0.928171 0.728560 0.788324
O O6 0.981595 0.509398 0.129091
O O7 0.217416 0.431977 0.435817
O O8 0.880370 0.200688 0.359499
O O9 0.684214 0.236912 0.380426
O O10 0.409222 0.212400 0.781760
O O11 0.591823 0.463822 0.758908
O O12 0.034417 0.126659 0.804210
O O13 0.428982 0.141850 0.047682
O O14 0.319698 0.251341 0.519456
O O15 0.859533 0.435057 0.635292
O O16 0.260361 0.797525 0.383976
#
# Coordination Sequence:
#
# PCOD9081000 Si02
#       8
#     2   2   2   2   2   2   2   2
#     4  10  20  32  48  73 107 139 173 205 248 300
#     4  10  19  31  49  79  99 135 173 215 247 293
#     4   8  17  28  50  77 101 123 165 218 256 287
#     4  10  19  30  51  81 108 128 160 217 272 299
#     4   9  17  32  53  80 101 128 170 217 254 293
#     4  11  16  31  55  80 102 129 170 215 257 303
#     4  11  19  31  51  81 105 134 165 213 261 303
#     4   9  17  31  52  75 102 130 175 212 242 298
#
# _framework density 25.486314
#
# number of rings (size 3 to 8) (size 9 to 14) (size 15 to 20)
#    0.750    1.500    2.500    3.000    0.000    0.000 
#    0.000    0.625    0.000    3.750   26.000    0.000 
#    0.000    0.000    0.000    0.000    0.000    0.000 
#
# Total GULP energy -89093.579667 kJ/mol
# GULP energy per Si atom -5568.348729 kJ/mol
# Density = 2.542831 g / cm^3
# Si number density = 25.486314 Si / 1000 Ang^3
#
#
#
# Elastic Constant Matrix: (Units=GPa)
#
#
# Indices 1 2 3 4 5 6 
#
# 1 66.5646 14.0710 36.5016 11.9149 -1.4562 2.4039
# 2 14.0710 37.9597 23.7285 7.4261 -1.9373 -3.7745
# 3 36.5016 23.7285 137.0632 21.4960 -15.1205 4.4473
# 4 11.9149 7.4261 21.4960 34.6833 3.9666 -8.3586
# 5 -1.4562 -1.9373 -15.1205 3.9666 36.2771 7.2397
# 6 2.4039 -3.7745 4.4473 -8.3586 7.2397 19.9111
#
#
#
# Elastic Compliance Matrix: (Units=1/GPa)
#
#
# Indices 1 2 3 4 5 6 
#
# 1 0.018765 -0.004407 -0.003309 -0.004594 0.000536 -0.004485
# 2 -0.004407 0.031724 -0.004829 -0.000010 -0.002173 0.008411
# 3 -0.003309 -0.004829 0.011271 -0.007722 0.006905 -0.008786
# 4 -0.004594 -0.000010 -0.007722 0.042704 -0.013052 0.024950
# 5 0.000536 -0.002173 0.006905 -0.013052 0.035876 -0.020543
# 6 -0.004485 0.008411 -0.008786 0.024950 -0.020543 0.072265
#
#
# Mechanical properties :
#
#
# Convention : Reuss Voigt Hill
#
# Bulk Modulus (GPa) = 27.27166 43.35441 35.31304
# Shear Modulus (GPa) = 20.00646 29.32671 24.66658
#
# Velocity S-wave (km/s) = 2.80480 3.39585 3.11438
# Velocity P-wave (km/s) = 4.60575 5.69417 5.17864
#
# Compressibility (1/GPa) = 0.03666810
#
# Stress axis : x y z
#
# Youngs Moduli (GPa) = 53.28955 31.52231 88.72275
#
# Poissons Ratio (x) = 0.13893 0.29361
# Poissons Ratio (y) = 0.23486 0.42848
# Poissons Ratio (z) = 0.17635 0.15223
#
# Static dielectric constant tensor:
#      x y z
#    x 2.120220 0.041090 -0.055150 
#    y 0.041090 2.065030 -0.046070 
#    z -0.055150 -0.046070 2.111080 
# 
# From -- ./inp_files/523755.got.cif
#   From: 2010.05.17/outbox.cif.g08.bks.cpg/sg2_262_cif.got.tgz:523755.got - 2010.06.03 11:33:40.
