data_PCOD9081871
_publ_section_title
;
Structure prediction by ZEFSAII (Michael W. Deem and Ramdas Pophale) SiO2 
 PCOD9081871
Probable space group: P -1
;
_chemical_formula_sum "Si O2"
_cell_formula_units_Z 16
_cell_length_a 10.995142
_cell_length_b 7.959486
_cell_length_c 9.729506
_cell_angle_alpha 114.196971
_cell_angle_beta 71.527134
_cell_angle_gamma 122.136619
_cell_volume 652.268342
_symmetry_space_group_name_H-M "P -1"
_symmetry_group_IT_number 2
_symmetry_cell_setting 'triclinic'
loop_
_space_group_symop_operation_xyz
x,y,z
-x,-y,-z
loop_
_atom_site_type_symbol
_atom_site_label
_atom_site_fract_x
_atom_site_fract_y
_atom_site_fract_z
Si Si1 0.892633 0.574274 0.751375
Si Si2 0.762812 0.986938 0.814361
Si Si3 0.330608 0.333766 0.007849
Si Si4 0.805619 0.064142 0.246038
Si Si5 0.553166 0.884587 0.649157
Si Si6 0.700748 0.269967 0.115595
Si Si7 0.030134 0.375472 0.823384
Si Si8 0.341057 0.745786 0.445419
O O1 0.779531 0.569987 0.904282
O O2 0.967752 0.435723 0.730167
O O3 0.790608 0.470434 0.622808
O O4 0.021396 0.805292 0.759995
O O5 0.704814 0.807785 0.888768
O O6 0.703849 0.905408 0.655987
O O7 0.935435 0.132534 0.800642
O O8 0.707960 0.157546 0.935767
O O9 0.500000 0.500000 0.000000
O O10 0.273819 0.175426 0.847561
O O11 0.772350 0.172576 0.163458
O O12 0.730763 0.120662 0.416403
O O13 0.457222 0.804938 0.794125
O O14 0.455820 0.741638 0.511372
O O15 0.578358 0.113395 0.668136
O O16 0.797320 0.514424 0.192593
O O17 0.000000 0.500000 0.000000
#
# Coordination Sequence:
#
# PCOD9081871 Si02
#       8
#     2   2   2   2   2   2   2   2
#     4  11  21  39  63  90 117 162 199 247 299 352
#     4  10  19  36  55  84 118 158 195 249 293 352
#     4  11  26  39  61  90 126 157 197 245 308 356
#     4   9  20  39  59  87 121 155 199 243 294 357
#     4  10  19  32  56  87 120 151 196 245 295 340
#     4   8  17  30  54  87 115 142 197 254 295 335
#     4   9  18  33  57  88 115 148 198 253 293 345
#     4  10  21  34  64  92 119 155 205 246 293 356
#
# _framework density 24.529781
#
# number of rings (size 3 to 8) (size 9 to 14) (size 15 to 20)
#    0.000    2.250    1.250    1.875    7.000    2.000 
#    0.000    0.625    0.000    0.750    0.000    0.000 
#    0.000    0.000    0.000    0.000    0.000    0.000 
#
# Total GULP energy -89295.392822 kJ/mol
# GULP energy per Si atom -5580.962051 kJ/mol
# Density = 2.447395 g / cm^3
# Si number density = 24.529781 Si / 1000 Ang^3
#
#
#
# Elastic Constant Matrix: (Units=GPa)
#
#
# Indices 1 2 3 4 5 6 
#
# 1 76.3563 66.3609 26.0797 17.4841 24.2970 17.5318
# 2 66.3609 158.1984 21.3127 15.2373 11.5473 36.7599
# 3 26.0797 21.3127 70.3077 21.2189 12.5665 12.4783
# 4 17.4841 15.2373 21.2189 32.2946 11.9625 13.4668
# 5 24.2970 11.5473 12.5665 11.9625 40.7241 -0.3109
# 6 17.5318 36.7599 12.4783 13.4668 -0.3109 57.6588
#
#
#
# Elastic Compliance Matrix: (Units=1/GPa)
#
#
# Indices 1 2 3 4 5 6 
#
# 1 0.027384 -0.009655 -0.004159 -0.003046 -0.011427 -0.000621
# 2 -0.009655 0.011105 0.000368 0.000742 0.002247 -0.004385
# 3 -0.004159 0.000368 0.018842 -0.009768 -0.000573 -0.000769
# 4 -0.003046 0.000742 -0.009768 0.045279 -0.008741 -0.008056
# 5 -0.011427 0.002247 -0.000573 -0.008741 0.033514 0.004389
# 6 -0.000621 -0.004385 -0.000769 -0.008056 0.004389 0.022400
#
#
# Mechanical properties :
#
#
# Convention : Reuss Voigt Hill
#
# Bulk Modulus (GPa) = 32.85351 59.15213 46.00282
# Shear Modulus (GPa) = 25.56718 38.87610 32.22164
#
# Velocity S-wave (km/s) = 3.23196 3.98534 3.62826
# Velocity P-wave (km/s) = 5.22970 6.73380 6.02884
#
# Compressibility (1/GPa) = 0.03043815
#
# Stress axis : x y z
#
# Youngs Moduli (GPa) = 36.51702 90.04776 53.07402
#
# Poissons Ratio (x) = 0.86942 0.22075
# Poissons Ratio (y) = 0.35258 -0.01952
# Poissons Ratio (z) = 0.15188 -0.03312
#
# Static dielectric constant tensor:
#      x y z
#    x 1.970870 0.027820 -0.025380 
#    y 0.027820 2.072870 -0.044400 
#    z -0.025380 -0.044400 2.023310 
# 
# From -- ./inp_files/418115.got.cif
#   From: 2010.05.17/outbox.cif.g08.bks.cpg/sg2_210_cif.got.tgz:418115.got - 2010.06.03 11:33:40.
