data_PCOD9081516
_publ_section_title
;
Structure prediction by ZEFSAII (Michael W. Deem and Ramdas Pophale) SiO2 
 PCOD9081516
Probable space group: P -1
;
_chemical_formula_sum "Si O2"
_cell_formula_units_Z 16
_cell_length_a 26.836882
_cell_length_b 11.817384
_cell_length_c 8.416669
_cell_angle_alpha 116.157185
_cell_angle_beta 143.544928
_cell_angle_gamma 36.115281
_cell_volume 750.289592
_symmetry_space_group_name_H-M "P -1"
_symmetry_group_IT_number 2
_symmetry_cell_setting 'triclinic'
loop_
_space_group_symop_operation_xyz
x,y,z
-x,-y,-z
loop_
_atom_site_type_symbol
_atom_site_label
_atom_site_fract_x
_atom_site_fract_y
_atom_site_fract_z
Si Si1 0.151613 0.766070 0.022386
Si Si2 0.863542 0.934157 0.408372
Si Si3 0.091388 0.534023 0.522699
Si Si4 0.278443 0.237541 0.143345
Si Si5 0.542235 0.735762 0.401244
Si Si6 0.288091 0.640920 0.624319
Si Si7 0.964765 0.660498 0.801594
Si Si8 0.937045 0.241642 0.664630
O O1 0.326636 0.485355 0.275744
O O2 0.179972 0.798384 0.285515
O O3 0.020505 0.825634 0.752730
O O4 0.075456 0.960671 0.824903
O O5 0.914224 0.789663 0.295018
O O6 0.866325 0.843271 0.513852
O O7 0.716632 0.219403 0.211367
O O8 0.135488 0.601826 0.579897
O O9 0.098968 0.396296 0.355101
O O10 0.196959 0.370270 0.846390
O O11 0.389360 0.216480 0.452747
O O12 0.380483 0.980669 0.222346
O O13 0.140086 0.413775 0.025944
O O14 0.555465 0.622337 0.215801
O O15 0.195768 0.657043 0.505683
O O16 0.981039 0.746111 0.027558
#
# Coordination Sequence:
#
# PCOD9081516 Si02
#       8
#     2   2   2   2   2   2   2   2
#     4   9  15  29  54  70  92 121 161 203 228 285
#     4  10  15  30  48  72  92 123 163 198 240 263
#     4  11  23  28  45  78 106 122 154 200 240 282
#     4  10  18  32  50  72  99 122 167 191 235 287
#     4   9  16  30  55  72  90 126 164 199 228 287
#     4   9  15  29  53  70  94 120 161 204 228 286
#     4  11  17  34  50  65 101 135 160 189 229 296
#     4  11  18  31  49  75  98 126 157 197 249 278
#
# _framework density 21.325099999999999
#
# number of rings (size 3 to 8) (size 9 to 14) (size 15 to 20)
#    0.750    1.250    6.250    2.625    0.000    2.000 
#    0.000    0.625    0.000    7.500    0.000    0.000 
#    0.000    0.000    0.000    0.000    0.000    0.000 
#
# Total GULP energy -89117.780875 kJ/mol
# GULP energy per Si atom -5569.861305 kJ/mol
# Density = 2.127656 g / cm^3
# Si number density = 21.325100 Si / 1000 Ang^3
#
#
#
# Elastic Constant Matrix: (Units=GPa)
#
#
# Indices 1 2 3 4 5 6 
#
# 1 48.8822 14.5891 10.4133 -12.0805 -8.5515 22.1251
# 2 14.5891 157.4231 18.5747 -21.2168 -1.3731 10.6360
# 3 10.4133 18.5747 23.9101 -9.5420 -1.7195 -1.2743
# 4 -12.0805 -21.2168 -9.5420 34.3957 -2.2087 0.7538
# 5 -8.5515 -1.3731 -1.7195 -2.2087 22.0592 -2.6278
# 6 22.1251 10.6360 -1.2743 0.7538 -2.6278 30.7171
#
#
#
# Elastic Compliance Matrix: (Units=1/GPa)
#
#
# Indices 1 2 3 4 5 6 
#
# 1 0.043196 0.001921 -0.015625 0.013565 0.013237 -0.031627
# 2 0.001921 0.007646 -0.005339 0.004049 0.000699 -0.004292
# 3 -0.015625 -0.005339 0.056224 0.006511 0.000469 0.015316
# 4 0.013565 0.004049 0.006511 0.038937 0.008592 -0.011123
# 5 0.013237 0.000699 0.000469 0.008592 0.050734 -0.005628
# 6 -0.031627 -0.004292 0.015316 -0.011123 -0.005628 0.057249
#
#
# Mechanical properties :
#
#
# Convention : Reuss Voigt Hill
#
# Bulk Modulus (GPa) = 14.49702 35.26327 24.88015
# Shear Modulus (GPa) = 15.86968 29.87698 22.87333
#
# Velocity S-wave (km/s) = 2.73092 3.74709 3.27861
# Velocity P-wave (km/s) = 4.09350 5.94078 5.10145
#
# Compressibility (1/GPa) = 0.06897968
#
# Stress axis : x y z
#
# Youngs Moduli (GPa) = 23.15034 130.78648 17.78585
#
# Poissons Ratio (x) = -0.25124 0.27791
# Poissons Ratio (y) = -0.04447 0.09496
# Poissons Ratio (z) = 0.36173 0.69830
#
# Static dielectric constant tensor:
#      x y z
#    x 1.778020 0.004040 0.004850 
#    y 0.004040 1.866460 0.030270 
#    z 0.004850 0.030270 1.803630 
# 
# From -- ./inp_files/356978.got.cif
#   From: 2010.05.17/outbox.cif.g08.bks.cpg/sg2_179_cif.got.tgz:356978.got - 2010.06.03 11:33:40.
