data_PCOD9081477
_publ_section_title
;
Structure prediction by ZEFSAII (Michael W. Deem and Ramdas Pophale) SiO2 
 PCOD9081477
Probable space group: P -1
;
_chemical_formula_sum "Si O2"
_cell_formula_units_Z 16
_cell_length_a 9.791878
_cell_length_b 11.025151
_cell_length_c 13.785279
_cell_angle_alpha 52.326532
_cell_angle_beta 111.419903
_cell_angle_gamma 71.625826
_cell_volume 748.611126
_symmetry_space_group_name_H-M "P -1"
_symmetry_group_IT_number 2
_symmetry_cell_setting 'triclinic'
loop_
_space_group_symop_operation_xyz
x,y,z
-x,-y,-z
loop_
_atom_site_type_symbol
_atom_site_label
_atom_site_fract_x
_atom_site_fract_y
_atom_site_fract_z
Si Si1 0.413451 0.542969 0.705971
Si Si2 0.461394 0.730393 0.321887
Si Si3 0.680414 0.293629 0.078100
Si Si4 0.904410 0.960437 0.578135
Si Si5 0.240354 0.132485 0.948890
Si Si6 0.144753 0.729962 0.294628
Si Si7 0.966818 0.391637 0.350137
Si Si8 0.190388 0.129734 0.718391
O O1 0.489151 0.416577 0.686033
O O2 0.234501 0.563242 0.694184
O O3 0.615036 0.382190 0.908915
O O4 0.306587 0.792528 0.558969
O O5 0.257147 0.807359 0.281112
O O6 0.669477 0.540830 0.534213
O O7 0.413616 0.932623 0.165700
O O8 0.909823 0.183130 0.223216
O O9 0.680548 0.108804 0.178064
O O10 0.500000 0.500000 0.000000
O O11 0.894225 0.805637 0.596968
O O12 0.000000 0.000000 0.500000
O O13 0.136872 0.373308 0.828852
O O14 0.294565 0.101046 0.861926
O O15 0.046398 0.155590 0.885870
O O16 0.026209 0.787367 0.337404
O O17 0.106431 0.306686 0.526818
#
# Coordination Sequence:
#
# PCOD9081477 Si02
#       8
#     2   2   2   2   2   2   2   2
#     4  11  19  33  52  79 103 137 179 213 258 303
#     4  11  19  36  57  79 100 138 183 219 256 297
#     4  12  18  30  50  76 103 136 178 212 248 304
#     4  10  19  32  50  71 110 140 172 212 251 309
#     4  10  22  34  51  78 112 141 165 209 271 319
#     4   9  21  36  54  76 105 135 184 218 249 306
#     4  11  19  35  50  77 117 141 161 206 273 326
#     4  10  19  34  51  78 108 140 165 213 264 306
#
# _framework density 21.372910999999998
#
# number of rings (size 3 to 8) (size 9 to 14) (size 15 to 20)
#    0.750    0.750    7.500    0.750    0.000    0.500 
#    2.250    0.000    0.000    0.750    0.000   10.500 
#    0.000    0.000    0.000    0.000    0.000    0.000 
#
# Total GULP energy -89255.777091 kJ/mol
# GULP energy per Si atom -5578.486068 kJ/mol
# Density = 2.132426 g / cm^3
# Si number density = 21.372911 Si / 1000 Ang^3
#
#
#
# Elastic Constant Matrix: (Units=GPa)
#
#
# Indices 1 2 3 4 5 6 
#
# 1 43.3216 -9.5499 1.9040 -3.5644 -1.8977 -1.5965
# 2 -9.5499 56.9440 7.9456 -20.2269 -5.4348 4.7338
# 3 1.9040 7.9456 129.4267 -1.1163 -5.4742 6.1155
# 4 -3.5644 -20.2269 -1.1163 42.3779 17.4618 0.1504
# 5 -1.8977 -5.4348 -5.4742 17.4618 24.7852 -2.4929
# 6 -1.5965 4.7338 6.1155 0.1504 -2.4929 13.1181
#
#
#
# Elastic Compliance Matrix: (Units=1/GPa)
#
#
# Indices 1 2 3 4 5 6 
#
# 1 0.024868 0.005951 -0.000757 0.005086 -0.000432 0.001092
# 2 0.005951 0.023957 -0.001262 0.014158 -0.005402 -0.008521
# 3 -0.000757 -0.001262 0.008031 -0.001287 0.002047 -0.002977
# 4 0.005086 0.014158 -0.001287 0.042070 -0.027393 -0.009578
# 5 -0.000432 -0.005402 0.002047 -0.027393 0.060157 0.012689
# 6 0.001092 -0.008521 -0.002977 -0.009578 0.012689 0.083348
#
#
# Mechanical properties :
#
#
# Convention : Reuss Voigt Hill
#
# Bulk Modulus (GPa) = 15.45128 25.58797 20.51963
# Shear Modulus (GPa) = 19.52056 31.34907 25.43482
#
# Velocity S-wave (km/s) = 3.02542 3.83399 3.45345
# Velocity P-wave (km/s) = 4.41013 5.62116 5.05207
#
# Compressibility (1/GPa) = 0.06471957
#
# Stress axis : x y z
#
# Youngs Moduli (GPa) = 40.21225 41.74139 124.51564
#
# Poissons Ratio (x) = -0.24839 0.09428
# Poissons Ratio (y) = -0.23930 0.15714
# Poissons Ratio (z) = 0.03045 0.05268
#
# Static dielectric constant tensor:
#      x y z
#    x 1.790570 0.015090 0.027210 
#    y 0.015090 1.798490 0.016070 
#    z 0.027210 0.016070 1.850500 
# 
# From -- ./inp_files/518761.got.cif
#   From: 2010.05.17/outbox.cif.g08.bks.cpg/sg2_260_cif.got.tgz:518761.got - 2010.06.03 11:33:40.
