data_PCOD9081323
_publ_section_title
;
Structure prediction by ZEFSAII (Michael W. Deem and Ramdas Pophale) SiO2 
 PCOD9081323
Probable space group: P -1
;
_chemical_formula_sum "Si O2"
_cell_formula_units_Z 16
_cell_length_a 7.701670
_cell_length_b 27.812544
_cell_length_c 15.632636
_cell_angle_alpha 163.151593
_cell_angle_beta 124.032626
_cell_angle_gamma 49.195849
_cell_volume 700.876337
_symmetry_space_group_name_H-M "P -1"
_symmetry_group_IT_number 2
_symmetry_cell_setting 'triclinic'
loop_
_space_group_symop_operation_xyz
x,y,z
-x,-y,-z
loop_
_atom_site_type_symbol
_atom_site_label
_atom_site_fract_x
_atom_site_fract_y
_atom_site_fract_z
Si Si1 0.096989 0.618174 0.436037
Si Si2 0.068287 0.585647 0.084354
Si Si3 0.519884 0.751743 0.007174
Si Si4 0.734612 0.772686 0.949534
Si Si5 0.245600 0.859711 0.380080
Si Si6 0.407215 0.564925 0.275045
Si Si7 0.842726 0.623399 0.534949
Si Si8 0.851685 0.890789 0.429329
O O1 0.201284 0.674776 0.478275
O O2 0.947862 0.706702 0.633197
O O3 0.344650 0.453753 0.265319
O O4 0.939663 0.533289 0.201968
O O5 0.296306 0.591569 0.195193
O O6 0.860586 0.795447 0.359782
O O7 0.000000 0.500000 0.000000
O O8 0.685103 0.846352 0.244881
O O9 0.264749 0.885798 0.207024
O O10 0.524660 0.754769 0.911292
O O11 0.782017 0.725386 0.783047
O O12 0.965636 0.599610 0.768287
O O13 0.675367 0.989611 0.312809
O O14 0.124945 0.797990 0.316720
O O15 0.450086 0.666716 0.065796
O O16 0.000000 0.000000 0.500000
O O17 0.603998 0.629485 0.445863
#
# Coordination Sequence:
#
# PCOD9081323 Si02
#       8
#     2   2   2   2   2   2   2   2
#     4   9  19  36  56  85 111 147 187 236 278 336
#     4   9  20  34  55  87 109 148 192 241 276 326
#     4   9  17  31  54  81 112 143 175 231 291 332
#     4  10  21  36  53  83 119 147 178 234 286 339
#     4  12  20  33  56  90 113 140 187 239 284 335
#     4  11  21  36  61  81 113 151 190 234 287 331
#     4  10  21  39  55  79 122 152 183 226 286 349
#     4  10  19  31  54  84 116 140 184 236 287 333
#
# _framework density 22.828564
#
# number of rings (size 3 to 8) (size 9 to 14) (size 15 to 20)
#    0.000    2.000    2.500    2.250    5.250    2.000 
#    2.250    1.875    0.000    3.750    0.000    0.000 
#    0.000    0.000    0.000    0.000    0.000    0.000 
#
# Total GULP energy -89078.737888 kJ/mol
# GULP energy per Si atom -5567.421118 kJ/mol
# Density = 2.277660 g / cm^3
# Si number density = 22.828564 Si / 1000 Ang^3
#
#
#
# Elastic Constant Matrix: (Units=GPa)
#
#
# Indices 1 2 3 4 5 6 
#
# 1 87.7670 19.9237 10.0357 -10.2090 -19.8732 9.2626
# 2 19.9237 73.8063 12.0938 -5.4433 -21.2731 15.9093
# 3 10.0357 12.0938 28.3498 -9.5930 -10.5822 6.8720
# 4 -10.2090 -5.4433 -9.5930 11.9486 11.1783 -2.9302
# 5 -19.8732 -21.2731 -10.5822 11.1783 25.0953 -6.9565
# 6 9.2626 15.9093 6.8720 -2.9302 -6.9565 32.3422
#
#
#
# Elastic Compliance Matrix: (Units=1/GPa)
#
#
# Indices 1 2 3 4 5 6 
#
# 1 0.014054 -0.000738 0.000030 0.003221 0.008662 -0.001513
# 2 -0.000738 0.020391 -0.004723 -0.015105 0.019794 -0.005926
# 3 0.000030 -0.004723 0.051270 0.038761 -0.001096 -0.005303
# 4 0.003221 -0.015105 0.038761 0.180023 -0.074497 -0.001441
# 5 0.008662 0.019794 -0.001096 -0.074497 0.096786 0.002083
# 6 -0.001513 -0.005926 -0.005303 -0.001441 0.002083 0.035712
#
#
# Mechanical properties :
#
#
# Convention : Reuss Voigt Hill
#
# Bulk Modulus (GPa) = 13.35982 30.44771 21.90376
# Shear Modulus (GPa) = 11.51942 23.73522 17.62732
#
# Velocity S-wave (km/s) = 2.24878 3.22796 2.78179
# Velocity P-wave (km/s) = 3.55072 5.22106 4.46470
#
# Compressibility (1/GPa) = 0.07485133
#
# Stress axis : x y z
#
# Youngs Moduli (GPa) = 71.15608 49.04128 19.50451
#
# Poissons Ratio (x) = 0.03621 -0.00058
# Poissons Ratio (y) = 0.05253 0.09213
# Poissons Ratio (z) = -0.00213 0.23164
#
# Static dielectric constant tensor:
#      x y z
#    x 1.993440 0.049400 0.015300 
#    y 0.049400 1.924010 0.002040 
#    z 0.015300 0.002040 1.879700 
# 
# From -- ./inp_files/509023.got.cif
#   From: 2010.05.17/outbox.cif.g08.bks.cpg/sg2_255_cif.got.tgz:509023.got - 2010.06.03 11:33:40.
