data_PCOD9081041
_publ_section_title
;
Structure prediction by ZEFSAII (Michael W. Deem and Ramdas Pophale) SiO2 
 PCOD9081041
Probable space group: P -1
;
_chemical_formula_sum "Si O2"
_cell_formula_units_Z 16
_cell_length_a 11.276783
_cell_length_b 14.426117
_cell_length_c 21.107478
_cell_angle_alpha 28.599600
_cell_angle_beta 25.481493
_cell_angle_gamma 29.317439
_cell_volume 652.563447
_symmetry_space_group_name_H-M "P -1"
_symmetry_group_IT_number 2
_symmetry_cell_setting 'triclinic'
loop_
_space_group_symop_operation_xyz
x,y,z
-x,-y,-z
loop_
_atom_site_type_symbol
_atom_site_label
_atom_site_fract_x
_atom_site_fract_y
_atom_site_fract_z
Si Si1 0.668963 0.872932 0.227737
Si Si2 0.374862 0.060529 0.138514
Si Si3 0.620216 0.476265 0.527813
Si Si4 0.975264 0.132110 0.650263
Si Si5 0.341274 0.652627 0.210836
Si Si6 0.673393 0.268012 0.208929
Si Si7 0.673423 0.250716 0.073986
Si Si8 0.866969 0.502714 0.147776
O O1 0.671181 0.692573 0.382314
O O2 0.452420 0.904369 0.253487
O O3 0.565276 0.098538 0.175958
O O4 0.995681 0.802562 0.081226
O O5 0.092993 0.265207 0.171609
O O6 0.287068 0.957800 0.181857
O O7 0.644697 0.139411 0.952301
O O8 0.500000 0.500000 0.500000
O O9 0.916233 0.282482 0.527043
O O10 0.346730 0.480357 0.700654
O O11 0.910155 0.277351 0.656761
O O12 0.249233 0.919308 0.664839
O O13 0.386375 0.469166 0.249597
O O14 0.649289 0.566827 0.154175
O O15 0.651306 0.200088 0.188844
O O16 0.942306 0.353445 0.024000
O O17 0.500000 0.500000 0.000000
#
# Coordination Sequence:
#
# PCOD9081041 Si02
#       8
#     2   2   2   2   2   2   2   2
#     4  11  25  44  62  91 125 163 214 254 304 370
#     4  11  18  36  60  93 129 159 194 251 311 371
#     4  11  23  38  58  94 135 168 196 245 314 383
#     4  11  21  34  61  94 129 162 191 248 320 370
#     4  10  19  30  54  93 127 150 196 247 302 366
#     4  11  20  38  62  93 124 159 207 257 302 361
#     4  11  25  46  69  86 115 167 219 264 302 356
#     4  10  20  33  57  95 132 156 197 246 314 376
#
# _framework density 24.518688000000001
#
# number of rings (size 3 to 8) (size 9 to 14) (size 15 to 20)
#    0.000    1.250    3.750    4.125    3.500    1.500 
#    2.250    0.625    0.000    3.750    0.000    0.000 
#    0.000    0.000    0.000    0.000    0.000    0.000 
#
# Total GULP energy -89454.494256 kJ/mol
# GULP energy per Si atom -5590.905891 kJ/mol
# Density = 2.446288 g / cm^3
# Si number density = 24.518688 Si / 1000 Ang^3
#
#
#
# Elastic Constant Matrix: (Units=GPa)
#
#
# Indices 1 2 3 4 5 6 
#
# 1 82.3337 32.4351 35.3808 -5.4995 23.9772 22.7773
# 2 32.4351 112.3996 41.4586 -29.7256 14.1426 14.4292
# 3 35.3808 41.4586 96.1206 -20.7550 15.8180 -6.5980
# 4 -5.4995 -29.7256 -20.7550 39.5614 -11.5269 17.2713
# 5 23.9772 14.1426 15.8180 -11.5269 35.2904 -5.3563
# 6 22.7773 14.4292 -6.5980 17.2713 -5.3563 39.6153
#
#
#
# Elastic Compliance Matrix: (Units=1/GPa)
#
#
# Indices 1 2 3 4 5 6 
#
# 1 0.025809 0.001566 -0.007851 0.005173 -0.016166 -0.021158
# 2 0.001566 0.016842 -0.004966 0.016167 -0.002624 -0.015265
# 3 -0.007851 -0.004966 0.015781 -0.000093 0.001618 0.009210
# 4 0.005173 0.016167 -0.000093 0.052536 0.002434 -0.031453
# 5 -0.016166 -0.002624 0.001618 0.002434 0.042754 0.015239
# 6 -0.021158 -0.015265 0.009210 -0.031453 0.015239 0.060275
#
#
# Mechanical properties :
#
#
# Convention : Reuss Voigt Hill
#
# Bulk Modulus (GPa) = 27.83091 56.60034 42.21562
# Shear Modulus (GPa) = 20.12281 34.99872 27.56076
#
# Velocity S-wave (km/s) = 2.86792 3.78223 3.35636
# Velocity P-wave (km/s) = 4.72675 6.49680 5.68113
#
# Compressibility (1/GPa) = 0.03593128
#
# Stress axis : x y z
#
# Youngs Moduli (GPa) = 38.74646 59.37572 63.36706
#
# Poissons Ratio (x) = -0.09299 0.49747
# Poissons Ratio (y) = -0.06068 0.31467
# Poissons Ratio (z) = 0.30418 0.29485
#
# Static dielectric constant tensor:
#      x y z
#    x 1.945600 -0.006270 0.004410 
#    y -0.006270 1.968990 -0.041570 
#    z 0.004410 -0.041570 2.021950 
# 
# From -- ./inp_files/595613.got.cif
#   From: 2010.05.17/outbox.cif.g08.bks.cpg/sg2_298_cif.got.tgz:595613.got - 2010.06.03 11:33:40.
