data_PCOD9081853
_publ_section_title
;
Structure prediction by ZEFSAII (Michael W. Deem and Ramdas Pophale) SiO2 
 PCOD9081853
Probable space group: P -1
;
_chemical_formula_sum "Si O2"
_cell_formula_units_Z 16
_cell_length_a 13.058638
_cell_length_b 14.685548
_cell_length_c 9.787879
_cell_angle_alpha 87.668436
_cell_angle_beta 146.819728
_cell_angle_gamma 67.637446
_cell_volume 669.430741
_symmetry_space_group_name_H-M "P -1"
_symmetry_group_IT_number 2
_symmetry_cell_setting 'triclinic'
loop_
_space_group_symop_operation_xyz
x,y,z
-x,-y,-z
loop_
_atom_site_type_symbol
_atom_site_label
_atom_site_fract_x
_atom_site_fract_y
_atom_site_fract_z
Si Si1 0.317088 0.420645 0.326648
Si Si2 0.007596 0.710085 0.544858
Si Si3 0.307085 0.343405 0.839268
Si Si4 0.506451 0.510317 0.706567
Si Si5 0.931318 0.990343 0.187242
Si Si6 0.096248 0.203832 0.889046
Si Si7 0.445172 0.813004 0.588739
Si Si8 0.226036 0.811274 0.807246
O O1 0.452868 0.426411 0.603357
O O2 0.307671 0.503709 0.196356
O O3 0.511335 0.270100 0.484791
O O4 0.000000 0.500000 0.000000
O O5 0.998994 0.729186 0.372673
O O6 0.002567 0.814090 0.593755
O O7 0.745210 0.738808 0.276516
O O8 0.300316 0.559475 0.938466
O O9 0.000000 0.500000 0.500000
O O10 0.425682 0.288297 0.128216
O O11 0.485521 0.333769 0.928877
O O12 0.193127 0.672273 0.356117
O O13 0.822108 0.932494 0.019892
O O14 0.133828 0.951521 0.294165
O O15 0.116933 0.900883 0.538968
O O16 0.724494 0.140823 0.013690
O O17 0.360492 0.170635 0.224027
#
# Coordination Sequence:
#
# PCOD9081853 Si02
#       8
#     2   2   2   2   2   2   2   2
#     4  11  22  36  53  77 114 146 189 230 269 319
#     4  10  22  33  54  83 117 143 174 218 285 338
#     4  10  21  31  52  84 117 142 172 218 278 338
#     4  11  22  34  53  82 113 144 183 225 279 329
#     4   9  18  35  53  78 114 144 190 217 261 338
#     4  10  19  32  56  84 111 142 176 228 277 329
#     4  10  19  33  53  80 106 144 182 225 275 315
#     4   9  20  34  53  80 113 154 174 219 275 324
#
# _framework density 23.900905999999999
#
# number of rings (size 3 to 8) (size 9 to 14) (size 15 to 20)
#    0.000    2.000    2.500    1.125    7.000    2.000 
#    0.000    5.000    0.000    0.750    0.000    2.625 
#    0.000    0.000    0.000    0.000    0.000    0.000 
#
# Total GULP energy -89337.232911 kJ/mol
# GULP energy per Si atom -5583.577057 kJ/mol
# Density = 2.384651 g / cm^3
# Si number density = 23.900906 Si / 1000 Ang^3
#
#
#
# Elastic Constant Matrix: (Units=GPa)
#
#
# Indices 1 2 3 4 5 6 
#
# 1 84.6023 23.5010 34.0570 15.4139 12.5786 5.0146
# 2 23.5010 136.4162 23.2699 30.3015 12.9489 -16.3002
# 3 34.0570 23.2699 35.5178 18.7360 3.0602 4.2500
# 4 15.4139 30.3015 18.7360 38.3317 5.4535 9.5095
# 5 12.5786 12.9489 3.0602 5.4535 33.2946 10.3266
# 6 5.0146 -16.3002 4.2500 9.5095 10.3266 23.8100
#
#
#
# Elastic Compliance Matrix: (Units=1/GPa)
#
#
# Indices 1 2 3 4 5 6 
#
# 1 0.020598 0.000406 -0.020724 0.002061 -0.006938 0.001825
# 2 0.000406 0.013943 -0.004457 -0.012472 -0.009069 0.019169
# 3 -0.020724 -0.004457 0.059990 -0.017139 0.008836 -0.006381
# 4 0.002061 -0.012472 -0.017139 0.049663 0.006353 -0.028503
# 5 -0.006938 -0.009069 0.008836 0.006353 0.042842 -0.027443
# 6 0.001825 0.019169 -0.006381 -0.028503 -0.027443 0.079163
#
#
# Mechanical properties :
#
#
# Convention : Reuss Voigt Hill
#
# Bulk Modulus (GPa) = 22.23227 46.46580 34.34904
# Shear Modulus (GPa) = 15.11748 30.80117 22.95932
#
# Velocity S-wave (km/s) = 2.51770 3.59375 3.10272
# Velocity P-wave (km/s) = 4.21590 6.05832 5.21905
#
# Compressibility (1/GPa) = 0.04497966
#
# Stress axis : x y z
#
# Youngs Moduli (GPa) = 48.54864 71.72307 16.66939
#
# Poissons Ratio (x) = -0.02909 0.34546
# Poissons Ratio (y) = -0.01969 0.07430
# Poissons Ratio (z) = 1.00612 0.31967
#
# Static dielectric constant tensor:
#      x y z
#    x 1.910610 0.040620 -0.039810 
#    y 0.040620 1.990850 -0.036120 
#    z -0.039810 -0.036120 1.966890 
# 
# From -- ./inp_files/436531.got.cif
#   From: 2010.05.17/outbox.cif.g08.bks.cpg/sg2_219_cif.got.tgz:436531.got - 2010.06.03 11:33:40.
