data_PCOD9081823
_publ_section_title
;
Structure prediction by ZEFSAII (Michael W. Deem and Ramdas Pophale) SiO2 
 PCOD9081823
Probable space group: P -1
;
_chemical_formula_sum "Si O2"
_cell_formula_units_Z 14
_cell_length_a 11.120102
_cell_length_b 14.491819
_cell_length_c 9.201453
_cell_angle_alpha 117.832708
_cell_angle_beta 134.145461
_cell_angle_gamma 35.382523
_cell_volume 597.646732
_symmetry_space_group_name_H-M "P -1"
_symmetry_group_IT_number 2
_symmetry_cell_setting 'triclinic'
loop_
_space_group_symop_operation_xyz
x,y,z
-x,-y,-z
loop_
_atom_site_type_symbol
_atom_site_label
_atom_site_fract_x
_atom_site_fract_y
_atom_site_fract_z
Si Si1 0.485589 0.315677 0.165654
Si Si2 0.275976 0.489713 0.398550
Si Si3 0.742124 0.128421 0.973349
Si Si4 0.453057 0.008958 0.297651
Si Si5 0.353852 0.478176 0.774544
Si Si6 0.724548 0.820741 0.128398
Si Si7 0.966233 0.615834 0.782730
O O1 0.497068 0.356427 0.366913
O O2 0.728484 0.192267 0.165968
O O3 0.380102 0.246677 0.034998
O O4 0.241449 0.489086 0.007017
O O5 0.363504 0.500634 0.629240
O O6 0.151329 0.441137 0.321469
O O7 0.035426 0.665028 0.245569
O O8 0.518518 0.293562 0.811203
O O9 0.678785 0.038589 0.878345
O O10 0.000000 0.000000 0.000000
O O11 0.255157 0.195179 0.220534
O O12 0.500000 0.000000 0.500000
O O13 0.715199 0.870354 0.321984
O O14 0.064863 0.594498 0.686020
O O15 0.500000 0.500000 0.000000
O O16 0.500000 0.000000 0.000000
#
# Coordination Sequence:
#
# PCOD9081823 Si02
#       7
#     2   2   2   2   2   2   2
#     4   9  20  36  58  84 113 150 193 239 296 350
#     4  11  20  37  61  88 118 155 196 242 291 350
#     4  10  22  40  58  80 114 153 194 244 289 340
#     4  11  20  32  56  89 114 145 190 237 285 339
#     4  11  23  39  59  84 118 163 202 236 285 350
#     4  10  19  32  55  91 123 145 183 243 296 338
#     4  10  19  36  59  86 118 153 192 241 293 347
#
# _framework density 23.42521
#
# number of rings (size 3 to 8) (size 9 to 14) (size 15 to 20)
#    0.000    1.714    0.000    7.286    0.000    0.000 
#    0.000    3.571    0.000    5.143    0.000    3.000 
#    0.000    0.000    0.000    0.000    0.000    0.000 
#
# Total GULP energy -78151.545066 kJ/mol
# GULP energy per Si atom -5582.253219 kJ/mol
# Density = 2.337189 g / cm^3
# Si number density = 23.425210 Si / 1000 Ang^3
#
#
#
# Elastic Constant Matrix: (Units=GPa)
#
#
# Indices 1 2 3 4 5 6 
#
# 1 67.7751 34.0361 32.6672 9.9379 -16.9673 -26.9068
# 2 34.0361 150.1913 33.9273 9.0942 -8.6967 -12.9672
# 3 32.6672 33.9273 91.6515 25.6391 -30.9326 -10.9536
# 4 9.9379 9.0942 25.6391 30.9820 -8.8254 -23.4147
# 5 -16.9673 -8.6967 -30.9326 -8.8254 40.1140 13.7187
# 6 -26.9068 -12.9672 -10.9536 -23.4147 13.7187 61.6293
#
#
#
# Elastic Compliance Matrix: (Units=1/GPa)
#
#
# Indices 1 2 3 4 5 6 
#
# 1 0.023664 -0.003036 -0.008020 0.008879 0.001233 0.011366
# 2 -0.003036 0.007810 -0.002423 0.000602 -0.001480 0.000445
# 3 -0.008020 -0.002423 0.023664 -0.020458 0.013444 -0.010571
# 4 0.008879 0.000602 -0.020458 0.064067 -0.006759 0.026212
# 5 0.001233 -0.001480 0.013444 -0.006759 0.036794 -0.008142
# 6 0.011366 0.000445 -0.010571 0.026212 -0.008142 0.031174
#
#
# Mechanical properties :
#
#
# Convention : Reuss Voigt Hill
#
# Bulk Modulus (GPa) = 35.48731 56.76435 46.12583
# Shear Modulus (GPa) = 22.36890 40.47754 31.42322
#
# Velocity S-wave (km/s) = 3.09351 4.16137 3.66652
# Velocity P-wave (km/s) = 5.28600 6.88288 6.13661
#
# Compressibility (1/GPa) = 0.02817909
#
# Stress axis : x y z
#
# Youngs Moduli (GPa) = 42.25827 128.04201 42.25892
#
# Poissons Ratio (x) = 0.38873 0.33891
# Poissons Ratio (y) = 0.12829 0.10241
# Poissons Ratio (z) = 0.33890 0.31030
#
# Static dielectric constant tensor:
#      x y z
#    x 2.027280 -0.047800 -0.067190 
#    y -0.047800 1.873400 0.019480 
#    z -0.067190 0.019480 1.939270 
# 
# From -- ./inp_files/204210.got.cif
#   From: 2010.05.17/outbox.cif.g08.bks.cpg/sg2_103_cif.got.tgz:204210.got - 2010.06.03 11:33:40.
