data_PCOD9081345
_publ_section_title
;
Structure prediction by ZEFSAII (Michael W. Deem and Ramdas Pophale) SiO2 
 PCOD9081345
Probable space group: P -1
;
_chemical_formula_sum "Si O2"
_cell_formula_units_Z 16
_cell_length_a 10.126250
_cell_length_b 15.416475
_cell_length_c 11.695862
_cell_angle_alpha 140.559718
_cell_angle_beta 115.305040
_cell_angle_gamma 36.189503
_cell_volume 584.113429
_symmetry_space_group_name_H-M "P -1"
_symmetry_group_IT_number 2
_symmetry_cell_setting 'triclinic'
loop_
_space_group_symop_operation_xyz
x,y,z
-x,-y,-z
loop_
_atom_site_type_symbol
_atom_site_label
_atom_site_fract_x
_atom_site_fract_y
_atom_site_fract_z
Si Si1 0.719645 0.025954 0.615206
Si Si2 0.944743 0.397276 0.537655
Si Si3 0.285352 0.216502 0.804323
Si Si4 0.006503 0.063825 0.752862
Si Si5 0.971248 0.372444 0.138722
Si Si6 0.679821 0.261535 0.245531
Si Si7 0.588528 0.587966 0.415711
Si Si8 0.369653 0.001135 0.097826
O O1 0.988768 0.775184 0.526658
O O2 0.704983 0.934134 0.410832
O O3 0.768985 0.144774 0.723657
O O4 0.481117 0.167401 0.755868
O O5 0.024347 0.468541 0.710430
O O6 0.674910 0.609991 0.583006
O O7 0.142631 0.218842 0.324726
O O8 0.388801 0.116290 0.869839
O O9 0.000000 0.500000 0.000000
O O10 0.094306 0.966289 0.818005
O O11 0.274195 0.824760 0.538783
O O12 0.942747 0.273948 0.936391
O O13 0.728980 0.536220 0.303763
O O14 0.240989 0.139628 0.072004
O O15 0.500000 0.500000 0.500000
O O16 0.722501 0.336454 0.236152
O O17 0.569629 0.207766 0.096128
#
# Coordination Sequence:
#
# PCOD9081345 Si02
#       8
#     2   2   2   2   2   2   2   2
#     4  10  22  40  59  89 123 148 207 254 289 348
#     4  10  20  37  59  87 130 162 187 239 299 372
#     4  10  23  37  60  87 114 162 201 253 299 335
#     4  10  21  34  57  89 121 151 196 252 295 351
#     4  10  22  36  58  93 125 161 187 234 310 365
#     4   9  18  29  51  89 118 145 180 243 303 346
#     4  10  19  31  55  85 122 156 189 235 305 359
#     4   9  19  34  56  84 122 149 198 240 289 356
#
# _framework density 27.391940999999999
#
# number of rings (size 3 to 8) (size 9 to 14) (size 15 to 20)
#    0.000    2.250    1.250    1.500    7.000    3.000 
#    0.000    3.750    0.000    6.750    0.000   18.375 
#    0.000    0.000    0.000    0.000    0.000    0.000 
#
# Total GULP energy -89558.753791 kJ/mol
# GULP energy per Si atom -5597.422112 kJ/mol
# Density = 2.732960 g / cm^3
# Si number density = 27.391941 Si / 1000 Ang^3
#
#
#
# Elastic Constant Matrix: (Units=GPa)
#
#
# Indices 1 2 3 4 5 6 
#
# 1 109.2315 21.9263 54.1539 -8.6285 12.3394 -28.0346
# 2 21.9263 112.2465 30.8207 -2.6099 -3.9696 -19.8155
# 3 54.1539 30.8207 142.0807 -3.4378 -7.4649 -14.0569
# 4 -8.6285 -2.6099 -3.4378 38.5211 -10.0017 3.6399
# 5 12.3394 -3.9696 -7.4649 -10.0017 55.8368 -1.7063
# 6 -28.0346 -19.8155 -14.0569 3.6399 -1.7063 45.0503
#
#
#
# Elastic Compliance Matrix: (Units=1/GPa)
#
#
# Indices 1 2 3 4 5 6 
#
# 1 0.013699 -0.000304 -0.004633 0.001153 -0.003256 0.006729
# 2 -0.000304 0.010119 -0.001663 0.000306 0.000734 0.003746
# 3 -0.004633 -0.001663 0.009219 0.000300 0.002171 -0.000680
# 4 0.001153 0.000306 0.000300 0.027595 0.004716 -0.001105
# 5 -0.003256 0.000734 0.002171 0.004716 0.019796 -0.000657
# 6 0.006729 0.003746 -0.000680 -0.001105 -0.000657 0.027885
#
#
# Mechanical properties :
#
#
# Convention : Reuss Voigt Hill
#
# Bulk Modulus (GPa) = 50.40972 64.15118 57.28045
# Shear Modulus (GPa) = 39.02493 44.99214 42.00853
#
# Velocity S-wave (km/s) = 3.77860 4.05721 3.92038
# Velocity P-wave (km/s) = 6.12210 6.73933 6.43812
#
# Compressibility (1/GPa) = 0.01983745
#
# Stress axis : x y z
#
# Youngs Moduli (GPa) = 73.00053 98.82147 108.47502
#
# Poissons Ratio (x) = 0.03007 0.50252
# Poissons Ratio (y) = 0.02222 0.18035
# Poissons Ratio (z) = 0.33818 0.16430
#
# Static dielectric constant tensor:
#      x y z
#    x 2.270120 -0.029630 -0.024230 
#    y -0.029630 2.205520 0.028070 
#    z -0.024230 0.028070 2.087980 
# 
# From -- ./inp_files/523962.got.cif
#   From: 2010.05.17/outbox.cif.g08.bks.cpg/sg2_262_cif.got.tgz:523962.got - 2010.06.03 11:33:40.
