data_PCOD9081527
_publ_section_title
;
Structure prediction by ZEFSAII (Michael W. Deem and Ramdas Pophale) SiO2 
 PCOD9081527
Probable space group: P -1
;
_chemical_formula_sum "Si O2"
_cell_formula_units_Z 16
_cell_length_a 11.468399
_cell_length_b 11.453403
_cell_length_c 10.925948
_cell_angle_alpha 107.341696
_cell_angle_beta 38.267325
_cell_angle_gamma 119.089451
_cell_volume 767.384592
_symmetry_space_group_name_H-M "P -1"
_symmetry_group_IT_number 2
_symmetry_cell_setting 'triclinic'
loop_
_space_group_symop_operation_xyz
x,y,z
-x,-y,-z
loop_
_atom_site_type_symbol
_atom_site_label
_atom_site_fract_x
_atom_site_fract_y
_atom_site_fract_z
Si Si1 0.213175 0.329632 0.759455
Si Si2 0.749908 0.222440 0.094264
Si Si3 0.057353 0.184733 0.101861
Si Si4 0.780994 0.529409 0.553743
Si Si5 0.166567 0.465809 0.204652
Si Si6 0.551656 0.397651 0.214640
Si Si7 0.320501 0.037392 0.796546
Si Si8 0.431492 0.732144 0.511698
O O1 0.330866 0.489721 0.740291
O O2 0.375703 0.269242 0.567684
O O3 0.147885 0.259324 0.923205
O O4 0.987288 0.281591 0.869083
O O5 0.611163 0.273368 0.143744
O O6 0.748867 0.285004 0.250211
O O7 0.649960 0.064508 0.163829
O O8 0.051257 0.302241 0.228778
O O9 0.218798 0.121785 0.982202
O O10 0.847585 0.058000 0.194753
O O11 0.751842 0.513848 0.718215
O O12 0.690280 0.631043 0.606672
O O13 0.634203 0.393496 0.562569
O O14 0.009425 0.537410 0.343990
O O15 0.340490 0.528301 0.977469
O O16 0.502111 0.140112 0.593085
#
# Coordination Sequence:
#
# PCOD9081527 Si02
#       8
#     2   2   2   2   2   2   2   2
#     4   8  17  30  45  69 101 135 163 198 252 302
#     4  11  20  30  49  76 109 141 162 198 260 311
#     4   8  15  31  53  74  98 130 171 211 249 294
#     4  10  21  35  56  80  97 131 177 209 254 304
#     4  10  20  37  57  74 100 133 170 219 255 291
#     4  10  20  32  49  76 107 134 165 207 256 308
#     4   9  17  30  49  77 105 134 170 204 249 303
#     4  10  19  32  51  77 105 132 171 214 246 296
#
# _framework density 20.850041000000001
#
# number of rings (size 3 to 8) (size 9 to 14) (size 15 to 20)
#    0.000    2.500    0.000    4.875    0.000    3.000 
#    0.000    0.000    0.000    3.000    0.000    4.375 
#    0.000    0.000    0.000    0.000    0.000    0.000 
#
# Total GULP energy -89156.600856 kJ/mol
# GULP energy per Si atom -5572.287554 kJ/mol
# Density = 2.080259 g / cm^3
# Si number density = 20.850041 Si / 1000 Ang^3
#
#
#
# Elastic Constant Matrix: (Units=GPa)
#
#
# Indices 1 2 3 4 5 6 
#
# 1 81.2439 35.3340 20.4342 9.6060 -26.1716 -25.1845
# 2 35.3340 47.6877 13.1476 11.9076 -3.6898 -34.0425
# 3 20.4342 13.1476 85.0365 7.1330 -18.5653 -3.9383
# 4 9.6060 11.9076 7.1330 26.6664 -6.2444 -5.1240
# 5 -26.1716 -3.6898 -18.5653 -6.2444 35.3259 16.9097
# 6 -25.1845 -34.0425 -3.9383 -5.1240 16.9097 31.8364
#
#
#
# Elastic Compliance Matrix: (Units=1/GPa)
#
#
# Indices 1 2 3 4 5 6 
#
# 1 0.009771 0.039176 -0.009955 -0.012692 -0.024578 0.059400
# 2 0.039176 -0.172067 0.034047 0.044953 0.140326 -0.216085
# 3 -0.009955 0.034047 0.007124 -0.010909 -0.020438 0.038513
# 4 -0.012692 0.044953 -0.010909 0.028384 -0.033747 0.059172
# 5 -0.024578 0.140326 -0.020438 -0.033747 -0.067929 0.158727
# 6 0.059400 -0.216085 0.038513 0.059172 0.158727 -0.222678
#
#
# Mechanical properties :
#
#
# Convention : Reuss Voigt Hill
#
# Bulk Modulus (GPa) = -34.92182 39.08889 2.08354
# Shear Modulus (GPa) = -9.03382 28.43590 9.70104
#
# Velocity S-wave (km/s) = -2.08379 3.69701 2.15937
# Velocity P-wave (km/s) = 4.75131 6.08377 2.68675
#
# Compressibility (1/GPa) = -0.02863540
#
# Stress axis : x y z
#
# Youngs Moduli (GPa) = 102.34670 -5.81170 140.36423
#
# Poissons Ratio (x) = 0.22768 1.39736
# Poissons Ratio (y) = -4.00954 -4.77903
# Poissons Ratio (z) = 1.01889 0.19787
#
# Static dielectric constant tensor:
#      x y z
#    x 1.810820 -0.047230 -0.075650 
#    y -0.047230 1.769750 0.025550 
#    z -0.075650 0.025550 1.843240 
# 
# From -- ./inp_files/423863.got.cif
#   From: 2010.05.17/outbox.cif.g08.bks.cpg/sg2_212_cif.got.tgz:423863.got - 2010.06.03 11:33:40.
