data_PCOD9081734
_publ_section_title
;
Structure prediction by ZEFSAII (Michael W. Deem and Ramdas Pophale) SiO2 
 PCOD9081734
Probable space group: P -1
;
_chemical_formula_sum "Si O2"
_cell_formula_units_Z 16
_cell_length_a 16.924181
_cell_length_b 22.197943
_cell_length_c 8.907859
_cell_angle_alpha 149.608177
_cell_angle_beta 40.921640
_cell_angle_gamma 151.074437
_cell_volume 818.875562
_symmetry_space_group_name_H-M "P -1"
_symmetry_group_IT_number 2
_symmetry_cell_setting 'triclinic'
loop_
_space_group_symop_operation_xyz
x,y,z
-x,-y,-z
loop_
_atom_site_type_symbol
_atom_site_label
_atom_site_fract_x
_atom_site_fract_y
_atom_site_fract_z
Si Si1 0.079522 0.717602 0.624682
Si Si2 0.871483 0.367506 0.193682
Si Si3 0.162967 0.913552 0.198416
Si Si4 0.486620 0.848582 0.698716
Si Si5 0.964489 0.098090 0.344837
Si Si6 0.097486 0.410174 0.708503
Si Si7 0.636079 0.217417 0.823932
Si Si8 0.611892 0.953888 0.430018
O O1 0.251774 0.780320 0.453568
O O2 0.990172 0.549005 0.474046
O O3 0.969049 0.662189 0.516856
O O4 0.101720 0.846300 0.974836
O O5 0.690433 0.302370 0.312092
O O6 0.851449 0.228992 0.011459
O O7 0.958550 0.390461 0.960008
O O8 0.066140 0.929330 0.491244
O O9 0.351200 0.081299 0.294234
O O10 0.509273 0.833482 0.457726
O O11 0.500000 0.000000 0.000000
O O12 0.104344 0.288787 0.522390
O O13 0.796581 0.038900 0.384738
O O14 0.000000 0.000000 0.000000
O O15 0.259115 0.597870 0.885061
O O16 0.470265 0.140680 0.810724
O O17 0.605990 0.094888 0.728187
#
# Coordination Sequence:
#
# PCOD9081734 Si02
#       8
#     2   2   2   2   2   2   2   2
#     4  11  19  30  49  82 114 141 167 218 272 330
#     4   9  17  30  47  74 111 143 167 209 265 337
#     4   9  19  31  48  76 106 137 180 212 268 314
#     4   9  17  27  45  70 110 141 169 200 266 321
#     4  10  21  40  58  75 103 146 194 227 256 314
#     4  10  21  33  54  79 111 146 179 216 274 316
#     4  10  19  32  54  84 119 134 170 217 282 334
#     4  10  20  33  53  83 110 143 174 220 272 324
#
# _framework density 19.538988
#
# number of rings (size 3 to 8) (size 9 to 14) (size 15 to 20)
#    0.000    2.250    1.250    4.125    5.250    2.000 
#    0.000    1.250    0.000    0.000    0.000    4.375 
#    0.000    0.000    0.000    0.000    0.000    0.000 
#
# Total GULP energy -89162.356735 kJ/mol
# GULP energy per Si atom -5572.647296 kJ/mol
# Density = 1.949452 g / cm^3
# Si number density = 19.538988 Si / 1000 Ang^3
#
#
#
# Elastic Constant Matrix: (Units=GPa)
#
#
# Indices 1 2 3 4 5 6 
#
# 1 45.7429 14.2505 23.5868 -0.7730 27.7341 2.5204
# 2 14.2505 92.6310 22.6691 8.1220 12.8373 -8.5513
# 3 23.5868 22.6691 104.3369 -3.5350 21.4013 1.6778
# 4 -0.7730 8.1220 -3.5350 17.1372 -0.7791 3.8202
# 5 27.7341 12.8373 21.4013 -0.7791 27.9786 3.3778
# 6 2.5204 -8.5513 1.6778 3.8202 3.3778 13.0531
#
#
#
# Elastic Compliance Matrix: (Units=1/GPa)
#
#
# Indices 1 2 3 4 5 6 
#
# 1 0.055163 -0.000242 -0.001447 -0.000951 -0.053925 0.003609
# 2 -0.000242 0.014720 -0.002361 -0.011133 -0.006831 0.015020
# 3 -0.001447 -0.002361 0.011853 0.003728 -0.006169 -0.002285
# 4 -0.000951 -0.011133 0.003728 0.071641 0.008921 -0.030864
# 5 -0.053925 -0.006831 -0.006169 0.008921 0.099922 -0.021738
# 6 0.003609 0.015020 -0.002285 -0.030864 -0.021738 0.100705
#
#
# Mechanical properties :
#
#
# Convention : Reuss Voigt Hill
#
# Bulk Modulus (GPa) = 13.58046 40.41372 26.99709
# Shear Modulus (GPa) = 12.93161 23.78072 18.35617
#
# Velocity S-wave (km/s) = 2.57541 3.49247 3.06839
# Velocity P-wave (km/s) = 3.97607 6.08208 5.13813
#
# Compressibility (1/GPa) = 0.07363521
#
# Stress axis : x y z
#
# Youngs Moduli (GPa) = 18.12801 67.93491 84.36790
#
# Poissons Ratio (x) = 0.01647 0.12208
# Poissons Ratio (y) = 0.00440 0.19919
# Poissons Ratio (z) = 0.02623 0.16039
#
# Static dielectric constant tensor:
#      x y z
#    x 1.771370 -0.035030 0.061360 
#    y -0.035030 1.739640 -0.013680 
#    z 0.061360 -0.013680 1.708610 
# 
# From -- ./inp_files/338630.got.cif
#   From: 2010.05.17/outbox.cif.g08.bks.cpg/sg2_170_cif.got.tgz:338630.got - 2010.06.03 11:33:40.
