data_PCOD9081383
_publ_section_title
;
Structure prediction by ZEFSAII (Michael W. Deem and Ramdas Pophale) SiO2 
 PCOD9081383
Probable space group: P -1
;
_chemical_formula_sum "Si O2"
_cell_formula_units_Z 16
_cell_length_a 7.933861
_cell_length_b 14.151815
_cell_length_c 7.321771
_cell_angle_alpha 74.311317
_cell_angle_beta 119.341993
_cell_angle_gamma 73.206884
_cell_volume 596.625367
_symmetry_space_group_name_H-M "P -1"
_symmetry_group_IT_number 2
_symmetry_cell_setting 'triclinic'
loop_
_space_group_symop_operation_xyz
x,y,z
-x,-y,-z
loop_
_atom_site_type_symbol
_atom_site_label
_atom_site_fract_x
_atom_site_fract_y
_atom_site_fract_z
Si Si1 0.134670 0.357318 0.043145
Si Si2 0.151436 0.831166 0.806518
Si Si3 0.027465 0.681431 0.654822
Si Si4 0.603742 0.097240 0.868062
Si Si5 0.259668 0.745898 0.297824
Si Si6 0.781082 0.448632 0.513893
Si Si7 0.237932 0.149874 0.949335
Si Si8 0.518130 0.621903 0.989066
O O1 0.223709 0.235891 0.052347
O O2 0.092619 0.346445 0.236278
O O3 0.302195 0.401226 0.056463
O O4 0.905204 0.440566 0.770395
O O5 0.182261 0.928534 0.869125
O O6 0.185289 0.753768 0.043305
O O7 0.379340 0.759429 0.854239
O O8 0.980035 0.809810 0.609353
O O9 0.015670 0.632984 0.476782
O O10 0.303092 0.606497 0.856046
O O11 0.603057 0.188252 0.677638
O O12 0.647131 0.981765 0.861458
O O13 0.385248 0.146034 0.854478
O O14 0.352345 0.619118 0.483024
O O15 0.022338 0.815613 0.238159
O O16 0.637332 0.565756 0.272581
#
# Coordination Sequence:
#
# PCOD9081383 Si02
#       8
#     2   2   2   2   2   2   2   2
#     4  11  20  38  56  80 111 141 177 229 267 315
#     4   8  17  33  52  75 104 137 176 213 257 319
#     4  10  21  37  54  79 110 143 187 213 267 323
#     4   9  17  29  52  84  97 137 183 211 264 327
#     4   9  18  32  47  80 104 135 174 217 260 313
#     4  11  21  35  58  80 109 147 178 224 264 317
#     4  10  15  29  56  76 106 134 175 223 263 312
#     4  10  20  37  54  78 114 143 180 221 267 315
#
# _framework density 26.817499000000002
#
# number of rings (size 3 to 8) (size 9 to 14) (size 15 to 20)
#    1.500    0.750    3.750    1.125    0.000    2.500 
#    0.000    5.000    0.000    6.750    0.000    9.625 
#    0.000    0.000    0.000    0.000    0.000    0.000 
#
# Total GULP energy -89148.626213 kJ/mol
# GULP energy per Si atom -5571.789138 kJ/mol
# Density = 2.675646 g / cm^3
# Si number density = 26.817499 Si / 1000 Ang^3
#
#
#
# Elastic Constant Matrix: (Units=GPa)
#
#
# Indices 1 2 3 4 5 6 
#
# 1 173.2848 29.7319 40.4742 -10.2815 -36.6020 16.7320
# 2 29.7319 121.0699 9.3439 -9.9056 -4.8333 11.4822
# 3 40.4742 9.3439 38.8211 14.4237 -18.6233 4.9094
# 4 -10.2815 -9.9056 14.4237 30.7370 -4.7315 -6.8829
# 5 -36.6020 -4.8333 -18.6233 -4.7315 45.0407 4.0456
# 6 16.7320 11.4822 4.9094 -6.8829 4.0456 37.2105
#
#
#
# Elastic Compliance Matrix: (Units=1/GPa)
#
#
# Indices 1 2 3 4 5 6 
#
# 1 0.010188 -0.000548 -0.011343 0.008867 0.004622 -0.001778
# 2 -0.000548 0.009055 -0.002879 0.003737 -0.000140 -0.001461
# 3 -0.011343 -0.002879 0.056402 -0.031354 0.011262 -0.008476
# 4 0.008867 0.003737 -0.031354 0.053330 -0.000556 0.008921
# 5 0.004622 -0.000140 0.011262 -0.000556 0.031171 -0.007013
# 6 -0.001778 -0.001461 -0.008476 0.008921 -0.007013 0.031655
#
#
# Mechanical properties :
#
#
# Convention : Reuss Voigt Hill
#
# Bulk Modulus (GPa) = 21.68945 54.69729 38.19337
# Shear Modulus (GPa) = 21.12288 39.50603 30.31445
#
# Velocity S-wave (km/s) = 2.80956 3.84232 3.36579
# Velocity P-wave (km/s) = 4.31627 6.33443 5.42011
#
# Compressibility (1/GPa) = 0.04610537
#
# Stress axis : x y z
#
# Youngs Moduli (GPa) = 98.15221 110.43328 17.72990
#
# Poissons Ratio (x) = 0.06051 0.20111
# Poissons Ratio (y) = 0.05378 0.05105
# Poissons Ratio (z) = 1.11332 0.31796
#
# Static dielectric constant tensor:
#      x y z
#    x 2.105450 0.026400 0.030780 
#    y 0.026400 2.273990 0.001300 
#    z 0.030780 0.001300 2.193680 
# 
# From -- ./inp_files/212256.got.cif
#   From: 2010.05.17/outbox.cif.g08.bks.cpg/sg2_107_cif.got.tgz:212256.got - 2010.06.03 11:33:40.
