data_PCOD9081337
_publ_section_title
;
Structure prediction by ZEFSAII (Michael W. Deem and Ramdas Pophale) SiO2 
 PCOD9081337
Probable space group: P -1
;
_chemical_formula_sum "Si O2"
_cell_formula_units_Z 14
_cell_length_a 12.451895
_cell_length_b 7.978401
_cell_length_c 13.856995
_cell_angle_alpha 80.943302
_cell_angle_beta 30.247422
_cell_angle_gamma 85.725294
_cell_volume 679.572722
_symmetry_space_group_name_H-M "P -1"
_symmetry_group_IT_number 2
_symmetry_cell_setting 'triclinic'
loop_
_space_group_symop_operation_xyz
x,y,z
-x,-y,-z
loop_
_atom_site_type_symbol
_atom_site_label
_atom_site_fract_x
_atom_site_fract_y
_atom_site_fract_z
Si Si1 0.834034 0.869278 0.756872
Si Si2 0.954569 0.251812 0.582124
Si Si3 0.121333 0.351714 0.652287
Si Si4 0.868883 0.278586 0.318053
Si Si5 0.465893 0.590921 0.119721
Si Si6 0.231960 0.551553 0.953718
Si Si7 0.462233 0.673238 0.570951
O O1 0.620762 0.770885 0.977407
O O2 0.890492 0.768821 0.625836
O O3 0.030397 0.853559 0.680212
O O4 0.826988 0.063229 0.716146
O O5 0.073491 0.298919 0.585552
O O6 0.778759 0.376805 0.684533
O O7 0.183886 0.558984 0.590913
O O8 0.307099 0.262812 0.568164
O O9 0.904009 0.328273 0.887461
O O10 0.664106 0.220653 0.416071
O O11 0.065104 0.376492 0.092808
O O12 0.500000 0.500000 0.000000
O O13 0.564284 0.487837 0.138189
O O14 0.306620 0.623063 0.786540
O O15 0.500000 0.500000 0.500000
#
# Coordination Sequence:
#
# PCOD9081337 Si02
#       7
#     2   2   2   2   2   2   2
#     4  10  23  38  54  82 114 149 181 222 273 329
#     4  11  22  37  56  79 118 149 179 221 273 333
#     4   9  20  33  53  82 106 143 177 227 268 318
#     4   8  18  36  52  79 108 137 184 228 262 319
#     4  11  21  35  58  85 108 143 182 232 272 325
#     4   9  19  32  50  85 107 133 175 231 277 307
#     4  10  19  31  55  82 105 141 175 232 277 311
#
# _framework density 20.601178999999998
#
# number of rings (size 3 to 8) (size 9 to 14) (size 15 to 20)
#    0.857    1.429    1.429    0.857    6.000    1.143 
#    0.000    0.714    0.000    0.857    0.000    0.000 
#    0.000    0.000    0.000    0.000    0.000    0.000 
#
# Total GULP energy -78092.822370 kJ/mol
# GULP energy per Si atom -5578.058741 kJ/mol
# Density = 2.055429 g / cm^3
# Si number density = 20.601179 Si / 1000 Ang^3
#
#
#
# Elastic Constant Matrix: (Units=GPa)
#
#
# Indices 1 2 3 4 5 6 
#
# 1 168.3405 15.9565 52.1443 24.0327 -9.2592 -1.1463
# 2 15.9565 31.5448 11.1300 4.4131 -2.1937 -5.2881
# 3 52.1443 11.1300 81.7357 10.5221 4.0506 1.4438
# 4 24.0327 4.4131 10.5221 18.0410 -2.7062 -2.9889
# 5 -9.2592 -2.1937 4.0506 -2.7062 34.0268 0.7462
# 6 -1.1463 -5.2881 1.4438 -2.9889 0.7462 15.3797
#
#
#
# Elastic Compliance Matrix: (Units=1/GPa)
#
#
# Indices 1 2 3 4 5 6 
#
# 1 0.008797 -0.001784 -0.004337 -0.008653 0.002136 -0.001336
# 2 -0.001784 0.036439 -0.003884 -0.001950 0.001901 0.012289
# 3 -0.004337 -0.003884 0.016282 -0.003934 -0.003599 -0.003777
# 4 -0.008653 -0.001950 -0.003934 0.072393 0.003461 0.012955
# 5 0.002136 0.001901 -0.003599 0.003461 0.030789 0.000330
# 6 -0.001336 0.012289 -0.003777 0.012955 0.000330 0.072003
#
#
# Mechanical properties :
#
#
# Convention : Reuss Voigt Hill
#
# Bulk Modulus (GPa) = 24.09242 48.89807 36.49525
# Shear Modulus (GPa) = 18.48092 26.98217 22.73154
#
# Velocity S-wave (km/s) = 2.99838 3.62296 3.32536
# Velocity P-wave (km/s) = 4.86899 6.42559 5.70067
#
# Compressibility (1/GPa) = 0.04150684
#
# Stress axis : x y z
#
# Youngs Moduli (GPa) = 113.67902 27.44304 61.41753
#
# Poissons Ratio (x) = 0.04896 0.26639
# Poissons Ratio (y) = 0.20283 0.23854
# Poissons Ratio (z) = 0.49306 0.10659
#
# Static dielectric constant tensor:
#      x y z
#    x 1.743720 0.017410 -0.034470 
#    y 0.017410 1.741050 -0.008740 
#    z -0.034470 -0.008740 1.736820 
# 
# From -- ./inp_files/417272.got.cif
#   From: 2010.05.17/outbox.cif.g08.bks.cpg/sg2_209_cif.got.tgz:417272.got - 2010.06.03 11:33:40.
