data_PCOD9081827
_publ_section_title
;
Structure prediction by ZEFSAII (Michael W. Deem and Ramdas Pophale) SiO2 
 PCOD9081827
Probable space group: P -1
;
_chemical_formula_sum "Si O2"
_cell_formula_units_Z 16
_cell_length_a 21.723219
_cell_length_b 9.963214
_cell_length_c 5.047218
_cell_angle_alpha 122.125558
_cell_angle_beta 58.954726
_cell_angle_gamma 132.393495
_cell_volume 661.306598
_symmetry_space_group_name_H-M "P -1"
_symmetry_group_IT_number 2
_symmetry_cell_setting 'triclinic'
loop_
_space_group_symop_operation_xyz
x,y,z
-x,-y,-z
loop_
_atom_site_type_symbol
_atom_site_label
_atom_site_fract_x
_atom_site_fract_y
_atom_site_fract_z
Si Si1 0.480780 0.330793 0.576002
Si Si2 0.333037 0.942229 0.606381
Si Si3 0.170626 0.214141 0.231688
Si Si4 0.925380 0.026673 0.287317
Si Si5 0.837766 0.436701 0.513983
Si Si6 0.281541 0.040602 0.329122
Si Si7 0.644501 0.597233 0.733328
Si Si8 0.891529 0.309041 0.774235
O O1 0.500000 0.500000 0.500000
O O2 0.572514 0.392680 0.563893
O O3 0.426057 0.099033 0.429750
O O4 0.415883 0.349414 0.927550
O O5 0.266154 0.714944 0.477381
O O6 0.279046 0.995166 0.591892
O O7 0.336652 0.988363 0.959081
O O8 0.114429 0.097783 0.489378
O O9 0.147041 0.360363 0.338506
O O10 0.271489 0.343943 0.226149
O O11 0.143108 0.064911 0.898625
O O12 0.956865 0.248231 0.488962
O O13 0.000000 0.000000 0.000000
O O14 0.863914 0.396294 0.696547
O O15 0.893492 0.406957 0.142931
O O16 0.317903 0.258259 0.442969
O O17 0.191700 0.906641 0.243900
#
# Coordination Sequence:
#
# PCOD9081827 Si02
#       8
#     2   2   2   2   2   2   2   2
#     4  10  19  32  55  94 133 170 230 286 324 377
#     4   9  18  31  54  82 124 164 218 263 309 378
#     4  12  26  44  70 101 141 176 225 281 350 403
#     4  12  27  47  73 106 135 167 225 295 340 398
#     4  10  22  41  65  99 134 185 224 264 333 423
#     4   9  16  29  54  84 110 156 216 265 299 369
#     4  10  21  33  56  94 130 172 222 281 333 378
#     4  10  20  40  67  94 127 175 226 264 332 406
#
# _framework density 24.194527999999998
#
# number of rings (size 3 to 8) (size 9 to 14) (size 15 to 20)
#    0.000    1.750    2.500    1.875    8.750    0.000 
#    0.000    4.375    0.000    0.750    0.000    0.000 
#    0.000    0.000    0.000    0.000    0.000    0.000 
#
# Total GULP energy -89074.298484 kJ/mol
# GULP energy per Si atom -5567.143655 kJ/mol
# Density = 2.413946 g / cm^3
# Si number density = 24.194528 Si / 1000 Ang^3
#
#
#
# Elastic Constant Matrix: (Units=GPa)
#
#
# Indices 1 2 3 4 5 6 
#
# 1 89.1571 36.3665 21.5736 -8.9900 4.5776 8.6534
# 2 36.3665 101.4459 34.2014 -2.1714 10.2423 1.9947
# 3 21.5736 34.2014 68.1214 -15.2870 16.2387 -8.2350
# 4 -8.9900 -2.1714 -15.2870 32.7463 -7.2826 3.8458
# 5 4.5776 10.2423 16.2387 -7.2826 33.1026 -6.1957
# 6 8.6534 1.9947 -8.2350 3.8458 -6.1957 43.0345
#
#
#
# Elastic Compliance Matrix: (Units=1/GPa)
#
#
# Indices 1 2 3 4 5 6 
#
# 1 0.014063 -0.004237 -0.002146 0.003067 0.000486 -0.003246
# 2 -0.004237 0.013463 -0.005876 -0.003265 -0.001571 -0.000831
# 3 -0.002146 -0.005876 0.021898 0.007438 -0.006371 0.003312
# 4 0.003067 -0.003265 0.007438 0.035828 0.004522 -0.001593
# 5 0.000486 -0.001571 -0.006371 0.004522 0.035393 0.003447
# 6 -0.003246 -0.000831 0.003312 -0.001593 0.003447 0.025201
#
#
# Mechanical properties :
#
#
# Convention : Reuss Voigt Hill
#
# Bulk Modulus (GPa) = 40.15378 49.22305 44.68841
# Shear Modulus (GPa) = 27.98506 32.88220 30.43363
#
# Velocity S-wave (km/s) = 3.40467 3.69056 3.55050
# Velocity P-wave (km/s) = 5.66463 6.20880 5.94295
#
# Compressibility (1/GPa) = 0.02490426
#
# Stress axis : x y z
#
# Youngs Moduli (GPa) = 71.10692 74.28010 45.66687
#
# Poissons Ratio (x) = 0.31476 0.09802
# Poissons Ratio (y) = 0.30131 0.26833
# Poissons Ratio (z) = 0.15262 0.43646
#
# Static dielectric constant tensor:
#      x y z
#    x 2.027460 0.108800 -0.082240 
#    y 0.108800 2.035560 -0.024850 
#    z -0.082240 -0.024850 2.073890 
# 
# From -- ./inp_files/117304.got.cif
#   From: 2010.05.17/outbox.cif.g08.bks.cpg/sg2_59_cif.got.tgz:117304.got - 2010.06.03 11:33:40.
