data_PCOD9081382
_publ_section_title
;
Structure prediction by ZEFSAII (Michael W. Deem and Ramdas Pophale) SiO2 
 PCOD9081382
Probable space group: P -1
;
_chemical_formula_sum "Si O2"
_cell_formula_units_Z 16
_cell_length_a 8.637391
_cell_length_b 9.649272
_cell_length_c 11.610243
_cell_angle_alpha 129.571646
_cell_angle_beta 68.252846
_cell_angle_gamma 91.451417
_cell_volume 662.125667
_symmetry_space_group_name_H-M "P -1"
_symmetry_group_IT_number 2
_symmetry_cell_setting 'triclinic'
loop_
_space_group_symop_operation_xyz
x,y,z
-x,-y,-z
loop_
_atom_site_type_symbol
_atom_site_label
_atom_site_fract_x
_atom_site_fract_y
_atom_site_fract_z
Si Si1 0.948431 0.765279 0.215128
Si Si2 0.854535 0.743258 0.470662
Si Si3 0.564869 0.642645 0.636624
Si Si4 0.583479 0.805064 0.947728
Si Si5 0.307877 0.807857 0.220251
Si Si6 0.210343 0.778079 0.471558
Si Si7 0.937854 0.771251 0.965085
Si Si8 0.213134 0.801918 0.742542
O O1 0.862752 0.687497 0.304812
O O2 0.924585 0.693882 0.056106
O O3 0.152908 0.736399 0.170540
O O4 0.857703 0.992588 0.374883
O O5 0.737539 0.664691 0.544642
O O6 0.051440 0.703161 0.436732
O O7 0.774902 0.968120 0.623506
O O8 0.500000 0.500000 0.500000
O O9 0.581198 0.645257 0.769945
O O10 0.394556 0.821560 0.749967
O O11 0.465680 0.783389 0.076582
O O12 0.779003 0.772876 0.924845
O O13 0.500000 0.000000 0.000000
O O14 0.342626 0.735563 0.304436
O O15 0.247967 0.716653 0.560240
O O16 0.917940 0.988835 0.119029
O O17 0.117657 0.702882 0.807966
#
# Coordination Sequence:
#
# PCOD9081382 Si02
#       8
#     2   2   2   2   2   2   2   2
#     4   8  16  28  52  85 113 136 172 229 284 319
#     4   9  16  33  53  78 112 146 179 220 272 331
#     4  12  25  38  53  78 115 154 183 219 274 329
#     4  12  21  34  55  80 108 143 186 231 270 313
#     4   9  16  30  55  84 112 134 177 229 281 320
#     4   8  16  29  53  84 109 140 172 229 283 318
#     4  10  19  31  56  87 109 137 181 235 277 315
#     4  10  19  33  54  82 114 142 181 228 273 322
#
# _framework density 24.164597000000001
#
# number of rings (size 3 to 8) (size 9 to 14) (size 15 to 20)
#    0.000    2.250    2.500    3.000    3.500    1.000 
#    0.000    6.250    0.000    9.750    0.000    0.000 
#    0.000    0.000    0.000    0.000    0.000    0.000 
#
# Total GULP energy -89292.273255 kJ/mol
# GULP energy per Si atom -5580.767078 kJ/mol
# Density = 2.410960 g / cm^3
# Si number density = 24.164597 Si / 1000 Ang^3
#
#
#
# Elastic Constant Matrix: (Units=GPa)
#
#
# Indices 1 2 3 4 5 6 
#
# 1 57.9784 30.0581 54.2825 -32.3381 29.7765 -1.2943
# 2 30.0581 87.7987 52.6117 -39.3042 11.6709 3.0975
# 3 54.2825 52.6117 178.4764 -50.7830 25.5751 0.5721
# 4 -32.3381 -39.3042 -50.7830 61.0397 -5.0202 -2.1533
# 5 29.7765 11.6709 25.5751 -5.0202 40.8628 -17.1888
# 6 -1.2943 3.0975 0.5721 -2.1533 -17.1888 23.4708
#
#
#
# Elastic Compliance Matrix: (Units=1/GPa)
#
#
# Indices 1 2 3 4 5 6 
#
# 1 0.059669 0.000408 -0.004203 0.022969 -0.051815 -0.032500
# 2 0.000408 0.017366 -0.001864 0.009247 -0.005106 -0.005115
# 3 -0.004203 -0.001864 0.008760 0.003650 -0.001997 -0.001327
# 4 0.022969 0.009247 0.003650 0.035154 -0.023130 -0.013757
# 5 -0.051815 -0.005106 -0.001997 -0.023130 0.087153 0.059569
# 6 -0.032500 -0.005115 -0.001327 -0.013757 0.059569 0.083885
#
#
# Mechanical properties :
#
#
# Convention : Reuss Voigt Hill
#
# Bulk Modulus (GPa) = 13.42738 66.46200 39.94469
# Shear Modulus (GPa) = 15.23784 37.56141 26.39962
#
# Velocity S-wave (km/s) = 2.51387 3.94686 3.30887
# Velocity P-wave (km/s) = 3.74096 6.95226 5.58250
#
# Compressibility (1/GPa) = 0.07447470
#
# Stress axis : x y z
#
# Youngs Moduli (GPa) = 16.75922 57.58481 114.15847
#
# Poissons Ratio (x) = -0.02348 0.47986
# Poissons Ratio (y) = -0.00683 0.21279
# Poissons Ratio (z) = 0.07045 0.10734
#
# Static dielectric constant tensor:
#      x y z
#    x 1.944890 -0.103020 -0.093780 
#    y -0.103020 2.061190 0.126830 
#    z -0.093780 0.126830 2.035160 
# 
# From -- ./inp_files/262670.got.cif
#   From: 2010.05.17/outbox.cif.g08.bks.cpg/sg2_132_cif.got.tgz:262670.got - 2010.06.03 11:33:40.
