data_PCOD9081139
_publ_section_title
;
Structure prediction by ZEFSAII (Michael W. Deem and Ramdas Pophale) SiO2 
 PCOD9081139
Probable space group: P -1
;
_chemical_formula_sum "Si O2"
_cell_formula_units_Z 16
_cell_length_a 15.691658
_cell_length_b 9.796603
_cell_length_c 8.305125
_cell_angle_alpha 61.341242
_cell_angle_beta 120.456906
_cell_angle_gamma 146.050499
_cell_volume 609.955010
_symmetry_space_group_name_H-M "P -1"
_symmetry_group_IT_number 2
_symmetry_cell_setting 'triclinic'
loop_
_space_group_symop_operation_xyz
x,y,z
-x,-y,-z
loop_
_atom_site_type_symbol
_atom_site_label
_atom_site_fract_x
_atom_site_fract_y
_atom_site_fract_z
Si Si1 0.141820 0.568071 0.027499
Si Si2 0.207000 0.179013 0.750203
Si Si3 0.585753 0.928103 0.654048
Si Si4 0.466153 0.275531 0.605327
Si Si5 0.426680 0.156640 0.961126
Si Si6 0.097871 0.898826 0.127903
Si Si7 0.891086 0.105797 0.502281
Si Si8 0.794552 0.471008 0.547775
O O1 0.184319 0.506754 0.251236
O O2 0.000000 0.500000 0.000000
O O3 0.064931 0.385936 0.907462
O O4 0.286154 0.860177 0.973127
O O5 0.360276 0.253170 0.852070
O O6 0.117172 0.009969 0.599662
O O7 0.219839 0.376672 0.626230
O O8 0.128682 0.046186 0.921331
O O9 0.749799 0.029044 0.771993
O O10 0.655191 0.182565 0.542436
O O11 0.496174 0.753060 0.512511
O O12 0.508543 0.807564 0.822955
O O13 0.500000 0.500000 0.500000
O O14 0.532156 0.284726 0.829045
O O15 0.278834 0.022744 0.584283
O O16 0.902975 0.040382 0.725268
O O17 0.043424 0.395257 0.452481
#
# Coordination Sequence:
#
# PCOD9081139 Si02
#       8
#     2   2   2   2   2   2   2   2
#     4  11  16  31  49  75 108 141 163 208 257 310
#     4  10  19  35  46  76 115 141 166 201 252 320
#     4   9  20  34  53  82 103 131 172 213 265 308
#     4  10  21  36  55  78 101 131 183 225 249 295
#     4   9  19  34  55  74 106 142 164 209 270 296
#     4  10  19  31  49  72 110 141 170 200 253 315
#     4  10  21  32  51  76 104 144 165 207 263 301
#     4  11  20  32  53  79 116 133 166 209 252 327
#
# _framework density 26.231442999999999
#
# number of rings (size 3 to 8) (size 9 to 14) (size 15 to 20)
#    0.000    2.000    5.000    1.125    1.750    2.000 
#    0.000    0.000    0.000    3.000    0.000   21.875 
#    0.000    0.000    0.000    0.000    0.000    0.000 
#
# Total GULP energy -89532.630055 kJ/mol
# GULP energy per Si atom -5595.789378 kJ/mol
# Density = 2.617174 g / cm^3
# Si number density = 26.231443 Si / 1000 Ang^3
#
#
#
# Elastic Constant Matrix: (Units=GPa)
#
#
# Indices 1 2 3 4 5 6 
#
# 1 47.6557 19.7449 73.0298 -9.9317 -10.1784 -3.0643
# 2 19.7449 86.4300 73.9621 -4.2329 -9.7113 -1.8759
# 3 73.0298 73.9621 268.2536 -9.8807 -47.2760 -37.8358
# 4 -9.9317 -4.2329 -9.8807 47.5229 -1.5454 2.4253
# 5 -10.1784 -9.7113 -47.2760 -1.5454 57.2719 -4.8479
# 6 -3.0643 -1.8759 -37.8358 2.4253 -4.8479 37.2497
#
#
#
# Elastic Compliance Matrix: (Units=1/GPa)
#
#
# Indices 1 2 3 4 5 6 
#
# 1 0.041239 0.002166 -0.014107 0.006328 -0.004782 -0.011862
# 2 0.002166 0.016041 -0.006231 0.000797 -0.002501 -0.005720
# 3 -0.014107 -0.006231 0.012268 -0.001322 0.007548 0.012055
# 4 0.006328 0.000797 -0.001322 0.022290 0.000587 -0.002157
# 5 -0.004782 -0.002501 0.007548 0.000587 0.023292 0.010141
# 6 -0.011862 -0.005720 0.012055 -0.002157 0.010141 0.039287
#
#
# Mechanical properties :
#
#
# Convention : Reuss Voigt Hill
#
# Bulk Modulus (GPa) = 30.11570 81.75699 55.93634
# Shear Modulus (GPa) = 24.77350 44.11573 34.44462
#
# Velocity S-wave (km/s) = 3.07648 4.10541 3.62761
# Velocity P-wave (km/s) = 4.91175 7.32856 6.23831
#
# Compressibility (1/GPa) = 0.03320528
#
# Stress axis : x y z
#
# Youngs Moduli (GPa) = 24.24873 62.34056 81.51255
#
# Poissons Ratio (x) = -0.13503 1.14989
# Poissons Ratio (y) = -0.05252 0.50787
# Poissons Ratio (z) = 0.34207 0.38842
#
# Static dielectric constant tensor:
#      x y z
#    x 2.138180 0.051030 0.044470 
#    y 0.051030 2.046690 0.053270 
#    z 0.044470 0.053270 2.078960 
# 
# From -- ./inp_files/345966.got.cif
#   From: 2010.05.17/outbox.cif.g08.bks.cpg/sg2_173_cif.got.tgz:345966.got - 2010.06.03 11:33:40.
