data_PCOD9081013
_publ_section_title
;
Structure prediction by ZEFSAII (Michael W. Deem and Ramdas Pophale) SiO2 
 PCOD9081013
Probable space group: P -1
;
_chemical_formula_sum "Si O2"
_cell_formula_units_Z 16
_cell_length_a 12.831006
_cell_length_b 20.934322
_cell_length_c 9.301017
_cell_angle_alpha 107.489871
_cell_angle_beta 69.388566
_cell_angle_gamma 45.064724
_cell_volume 926.175876
_symmetry_space_group_name_H-M "P -1"
_symmetry_group_IT_number 2
_symmetry_cell_setting 'triclinic'
loop_
_space_group_symop_operation_xyz
x,y,z
-x,-y,-z
loop_
_atom_site_type_symbol
_atom_site_label
_atom_site_fract_x
_atom_site_fract_y
_atom_site_fract_z
Si Si1 0.191184 0.990024 0.501918
Si Si2 0.299700 0.621970 0.550235
Si Si3 0.703983 0.086270 0.266286
Si Si4 0.670494 0.227909 0.765581
Si Si5 0.677387 0.971154 0.063915
Si Si6 0.689640 0.452185 0.803853
Si Si7 0.245313 0.798832 0.620083
Si Si8 0.735859 0.919444 0.663847
O O1 0.248026 0.027970 0.418557
O O2 0.885498 0.135956 0.714422
O O3 0.232065 0.969824 0.639118
O O4 0.365524 0.832181 0.248280
O O5 0.500000 0.500000 0.500000
O O6 0.325842 0.554713 0.363256
O O7 0.371378 0.657164 0.482491
O O8 0.981073 0.797101 0.858908
O O9 0.595755 0.221636 0.420668
O O10 0.551981 0.107525 0.282244
O O11 0.971960 0.946091 0.943963
O O12 0.804743 0.165156 0.500739
O O13 0.416631 0.415464 0.023012
O O14 0.502404 0.001598 0.200165
O O15 0.700519 0.965185 0.875755
O O16 0.986305 0.273769 0.595374
O O17 0.500000 0.500000 0.000000
#
# Coordination Sequence:
#
# PCOD9081013 Si02
#       8
#     2   2   2   2   2   2   2   2
#     4  10  19  30  52  80 104 133 173 220 255 302
#     4  10  20  32  52  80 106 130 169 218 260 302
#     4   9  18  30  51  76 102 130 172 212 260 303
#     4  10  19  32  49  78 109 135 170 213 263 308
#     4   9  20  37  55  73 102 141 175 206 259 315
#     4  11  19  32  54  78 105 136 172 211 263 304
#     4   9  17  32  48  72 108 136 162 210 259 312
#     4  10  20  37  57  73 102 142 178 212 250 314
#
# _framework density 17.275337
#
# number of rings (size 3 to 8) (size 9 to 14) (size 15 to 20)
#    0.000    2.250    2.500    1.500    3.500    1.500 
#    0.000    0.000    2.750    3.750    0.000    0.000 
#    0.000    0.000    0.000    0.000    0.000    0.000 
#
# Total GULP energy -89094.880988 kJ/mol
# GULP energy per Si atom -5568.430062 kJ/mol
# Density = 1.723602 g / cm^3
# Si number density = 17.275337 Si / 1000 Ang^3
#
#
#
# Elastic Constant Matrix: (Units=GPa)
#
#
# Indices 1 2 3 4 5 6 
#
# 1 104.6495 46.5383 33.6693 7.7938 4.4520 12.1608
# 2 46.5383 95.1213 29.9739 3.6174 -3.0409 16.4302
# 3 33.6693 29.9739 51.6781 3.2164 5.8096 6.2684
# 4 7.7938 3.6174 3.2164 17.1777 2.9016 1.5584
# 5 4.4520 -3.0409 5.8096 2.9016 22.5864 8.0178
# 6 12.1608 16.4302 6.2684 1.5584 8.0178 22.8139
#
#
#
# Elastic Compliance Matrix: (Units=1/GPa)
#
#
# Indices 1 2 3 4 5 6 
#
# 1 0.014044 -0.004482 -0.005978 -0.004021 -0.000556 -0.002146
# 2 -0.004482 0.017008 -0.006545 -0.000818 0.008916 -0.011140
# 3 -0.005978 -0.006545 0.027553 -0.000017 -0.007890 0.003104
# 4 -0.004021 -0.000818 -0.000017 0.061393 -0.007636 0.001227
# 5 -0.000556 0.008916 -0.007890 -0.007636 0.056915 -0.023438
# 6 -0.002146 -0.011140 0.003104 0.001227 -0.023438 0.060300
#
#
# Mechanical properties :
#
#
# Convention : Reuss Voigt Hill
#
# Bulk Modulus (GPa) = 40.65663 52.42354 46.54009
# Shear Modulus (GPa) = 17.89402 21.93342 19.91372
#
# Velocity S-wave (km/s) = 3.22190 3.56706 3.39886
# Velocity P-wave (km/s) = 6.11771 6.88310 6.51166
#
# Compressibility (1/GPa) = 0.02459623
#
# Stress axis : x y z
#
# Youngs Moduli (GPa) = 71.20231 58.79434 36.29355
#
# Poissons Ratio (x) = 0.26350 0.21695
# Poissons Ratio (y) = 0.31911 0.23756
# Poissons Ratio (z) = 0.42563 0.38483
#
# Static dielectric constant tensor:
#      x y z
#    x 1.628720 0.024190 0.033920 
#    y 0.024190 1.593210 0.005790 
#    z 0.033920 0.005790 1.599500 
# 
# From -- ./inp_files/251931.got.cif
#   From: 2010.05.17/outbox.cif.g08.bks.cpg/sg2_126_cif.got.tgz:251931.got - 2010.06.03 11:33:40.
