data_PCOD9081633
_publ_section_title
;
Structure prediction by ZEFSAII (Michael W. Deem and Ramdas Pophale) SiO2 
 PCOD9081633
Probable space group: P -1
;
_chemical_formula_sum "Si O2"
_cell_formula_units_Z 14
_cell_length_a 11.529627
_cell_length_b 11.926559
_cell_length_c 11.762716
_cell_angle_alpha 37.244667
_cell_angle_beta 36.340034
_cell_angle_gamma 60.148193
_cell_volume 531.645382
_symmetry_space_group_name_H-M "P -1"
_symmetry_group_IT_number 2
_symmetry_cell_setting 'triclinic'
loop_
_space_group_symop_operation_xyz
x,y,z
-x,-y,-z
loop_
_atom_site_type_symbol
_atom_site_label
_atom_site_fract_x
_atom_site_fract_y
_atom_site_fract_z
Si Si1 0.995231 0.807745 0.741705
Si Si2 0.456702 0.789750 0.636929
Si Si3 0.358703 0.147186 0.891076
Si Si4 0.177080 0.662250 0.151341
Si Si5 0.170580 0.564108 0.657208
Si Si6 0.829866 0.738674 0.274485
Si Si7 0.556805 0.943423 0.766632
O O1 0.059083 0.717291 0.651347
O O2 0.197311 0.012318 0.449959
O O3 0.782170 0.845736 0.896814
O O4 0.956074 0.632548 0.007542
O O5 0.653123 0.725350 0.517387
O O6 0.415183 0.854964 0.492220
O O7 0.500000 0.000000 0.500000
O O8 0.263314 0.623010 0.992929
O O9 0.586825 0.333838 0.570625
O O10 0.217659 0.153519 0.886214
O O11 0.427550 0.961040 0.965729
O O12 0.000000 0.500000 0.500000
O O13 0.064171 0.817185 0.082661
O O14 0.394624 0.757559 0.974882
O O15 0.187784 0.475844 0.591457
#
# Coordination Sequence:
#
# PCOD9081633 Si02
#       7
#     2   2   2   2   2   2   2
#     4   9  15  27  49  77 112 138 160 210 271 321
#     4   9  19  34  54  78 103 135 180 225 269 315
#     4   9  17  30  53  83 111 135 169 224 278 323
#     4  11  24  38  52  75 110 150 188 222 262 319
#     4   9  17  28  49  86 115 133 167 218 279 328
#     4  10  19  32  53  78 109 143 175 221 270 317
#     4   9  19  33  52  80 106 136 181 222 265 318
#
# _framework density 26.333342999999999
#
# number of rings (size 3 to 8) (size 9 to 14) (size 15 to 20)
#    0.000    2.571    0.000    3.429    0.000   11.429 
#    0.000    0.000    0.000    3.429    0.000    9.000 
#    0.000    0.000    0.000    0.000    0.000    0.000 
#
# Total GULP energy -78100.178903 kJ/mol
# GULP energy per Si atom -5578.584207 kJ/mol
# Density = 2.627341 g / cm^3
# Si number density = 26.333343 Si / 1000 Ang^3
#
#
#
# Elastic Constant Matrix: (Units=GPa)
#
#
# Indices 1 2 3 4 5 6 
#
# 1 67.4653 20.0758 50.8260 1.9209 8.0795 10.0854
# 2 20.0758 140.9445 62.0247 53.9023 -8.5031 5.5851
# 3 50.8260 62.0247 173.0598 32.3253 -12.7676 -1.3081
# 4 1.9209 53.9023 32.3253 59.6439 -1.7498 -1.8239
# 5 8.0795 -8.5031 -12.7676 -1.7498 44.3546 -0.0378
# 6 10.0854 5.5851 -1.3081 -1.8239 -0.0378 32.7311
#
#
#
# Elastic Compliance Matrix: (Units=1/GPa)
#
#
# Indices 1 2 3 4 5 6 
#
# 1 0.022516 -0.001829 -0.007320 0.004504 -0.006387 -0.006675
# 2 -0.001829 0.012163 -0.001853 -0.009944 0.001738 -0.002138
# 3 -0.007320 -0.001853 0.009441 -0.003016 0.003579 0.002785
# 4 0.004504 -0.009944 -0.003016 0.027220 -0.002520 0.001702
# 5 -0.006387 0.001738 0.003579 -0.002520 0.024974 0.001703
# 6 -0.006675 -0.002138 0.002785 0.001702 0.001703 0.033182
#
#
# Mechanical properties :
#
#
# Convention : Reuss Voigt Hill
#
# Bulk Modulus (GPa) = 45.21574 71.92475 58.57024
# Shear Modulus (GPa) = 31.47188 43.91546 37.69367
#
# Velocity S-wave (km/s) = 3.46082 4.08815 3.78750
# Velocity P-wave (km/s) = 5.75999 7.04673 6.43560
#
# Compressibility (1/GPa) = 0.02211619
#
# Stress axis : x y z
#
# Youngs Moduli (GPa) = 44.41314 82.21510 105.92409
#
# Poissons Ratio (x) = 0.15037 0.77537
# Poissons Ratio (y) = 0.08123 0.19625
# Poissons Ratio (z) = 0.32511 0.15233
#
# Static dielectric constant tensor:
#      x y z
#    x 2.259030 0.022520 0.012720 
#    y 0.022520 2.123450 -0.027790 
#    z 0.012720 -0.027790 2.122710 
# 
# From -- ./inp_files/532876.got.cif
#   From: 2010.05.17/outbox.cif.g08.bks.cpg/sg2_267_cif.got.tgz:532876.got - 2010.06.03 11:33:40.
