data_PCOD9081680
_publ_section_title
;
Structure prediction by ZEFSAII (Michael W. Deem and Ramdas Pophale) SiO2 
 PCOD9081680
Probable space group: P -1
;
_chemical_formula_sum "Si O2"
_cell_formula_units_Z 16
_cell_length_a 12.006864
_cell_length_b 8.984150
_cell_length_c 8.855252
_cell_angle_alpha 110.748532
_cell_angle_beta 124.726959
_cell_angle_gamma 85.897929
_cell_volume 723.538558
_symmetry_space_group_name_H-M "P -1"
_symmetry_group_IT_number 2
_symmetry_cell_setting 'triclinic'
loop_
_space_group_symop_operation_xyz
x,y,z
-x,-y,-z
loop_
_atom_site_type_symbol
_atom_site_label
_atom_site_fract_x
_atom_site_fract_y
_atom_site_fract_z
Si Si1 0.630141 0.429768 0.004924
Si Si2 0.292574 0.975538 0.541460
Si Si3 0.498882 0.172308 0.987540
Si Si4 0.933710 0.876835 0.769648
Si Si5 0.735286 0.710086 0.031906
Si Si6 0.118089 0.936032 0.662980
Si Si7 0.432202 0.698913 0.430805
Si Si8 0.274429 0.385543 0.331797
O O1 0.635852 0.277361 0.062824
O O2 0.604291 0.365571 0.790662
O O3 0.500000 0.500000 0.000000
O O4 0.749853 0.585086 0.132929
O O5 0.214048 0.876048 0.587838
O O6 0.383072 0.867003 0.483325
O O7 0.393748 0.127262 0.748624
O O8 0.177831 0.033572 0.369729
O O9 0.427417 0.279207 0.087375
O O10 0.500000 0.000000 0.000000
O O11 0.847770 0.703777 0.691477
O O12 0.048396 0.848605 0.724909
O O13 0.000000 0.000000 0.000000
O O14 0.797203 0.895145 0.155690
O O15 0.784844 0.647400 0.893649
O O16 0.000000 0.000000 0.500000
O O17 0.348581 0.571316 0.440585
O O18 0.594919 0.705402 0.576603
#
# Coordination Sequence:
#
# PCOD9081680 Si02
#       8
#     2   2   2   2   2   2   2   2
#     4   9  19  34  53  79 117 158 193 231 297 369
#     4  10  22  38  59  89 125 158 197 257 306 360
#     4  10  19  32  53  85 122 153 189 242 306 360
#     4  11  21  38  65  87 116 160 216 251 293 357
#     4   9  17  33  54  78 110 152 197 237 288 358
#     4   9  19  37  59  83 114 158 205 247 298 350
#     4  10  21  38  58  90 127 156 193 251 323 363
#     4  10  20  35  62  89 119 158 201 249 306 368
#
# _framework density 22.113541999999999
#
# number of rings (size 3 to 8) (size 9 to 14) (size 15 to 20)
#    0.000    2.250    1.250    1.500    0.000    5.000 
#    0.000    1.250    0.000    0.000    0.000    0.000 
#    0.000    0.000    0.000    0.000    0.000    0.000 
#
# Total GULP energy -89071.659033 kJ/mol
# GULP energy per Si atom -5566.978690 kJ/mol
# Density = 2.206321 g / cm^3
# Si number density = 22.113542 Si / 1000 Ang^3
#
#
#
# Elastic Constant Matrix: (Units=GPa)
#
#
# Indices 1 2 3 4 5 6 
#
# 1 96.4424 42.2938 6.7310 5.0357 -16.9060 37.3927
# 2 42.2938 90.8144 0.7860 -8.9484 -9.1704 37.7366
# 3 6.7310 0.7860 57.6447 -2.7841 -7.8120 0.6746
# 4 5.0357 -8.9484 -2.7841 22.6814 -1.5406 -7.9598
# 5 -16.9060 -9.1704 -7.8120 -1.5406 26.5742 0.3310
# 6 37.3927 37.7366 0.6746 -7.9598 0.3310 55.5538
#
#
#
# Elastic Compliance Matrix: (Units=1/GPa)
#
#
# Indices 1 2 3 4 5 6 
#
# 1 0.018767 -0.003934 -0.001111 -0.009156 0.009865 -0.011317
# 2 -0.003934 0.017240 0.001139 0.005165 0.004185 -0.008361
# 3 -0.001111 0.001139 0.018337 0.003376 0.005270 0.000204
# 4 -0.009156 0.005165 0.003376 0.052101 -0.000155 0.010080
# 5 0.009865 0.004185 0.005270 -0.000155 0.047014 -0.009849
# 6 -0.011317 -0.008361 0.000204 0.010080 -0.009849 0.032798
#
#
# Mechanical properties :
#
#
# Convention : Reuss Voigt Hill
#
# Bulk Modulus (GPa) = 21.49085 38.28034 29.88559
# Shear Modulus (GPa) = 23.85756 33.96793 28.91274
#
# Velocity S-wave (km/s) = 3.28817 3.92352 3.61982
# Velocity P-wave (km/s) = 4.91484 6.15417 5.56908
#
# Compressibility (1/GPa) = 0.04653143
#
# Stress axis : x y z
#
# Youngs Moduli (GPa) = 53.28584 58.00584 54.53554
#
# Poissons Ratio (x) = 0.22819 0.06057
# Poissons Ratio (y) = 0.20962 -0.06210
# Poissons Ratio (z) = 0.05918 -0.06605
#
# Static dielectric constant tensor:
#      x y z
#    x 1.831880 0.078650 -0.013370 
#    y 0.078650 1.920130 -0.007860 
#    z -0.013370 -0.007860 1.841250 
# 
# From -- ./inp_files/181256.got.cif
#   From: 2010.05.17/outbox.cif.g08.bks.cpg/sg2_91_cif.got.tgz:181256.got - 2010.06.03 11:33:40.
