data_PCOD9081064
_publ_section_title
;
Structure prediction by ZEFSAII (Michael W. Deem and Ramdas Pophale) SiO2 
 PCOD9081064
Probable space group: P -1
;
_chemical_formula_sum "Si O2"
_cell_formula_units_Z 16
_cell_length_a 9.616617
_cell_length_b 8.279073
_cell_length_c 16.519758
_cell_angle_alpha 96.037067
_cell_angle_beta 92.568314
_cell_angle_gamma 32.108246
_cell_volume 692.761154
_symmetry_space_group_name_H-M "P -1"
_symmetry_group_IT_number 2
_symmetry_cell_setting 'triclinic'
loop_
_space_group_symop_operation_xyz
x,y,z
-x,-y,-z
loop_
_atom_site_type_symbol
_atom_site_label
_atom_site_fract_x
_atom_site_fract_y
_atom_site_fract_z
Si Si1 0.942970 0.288683 0.654709
Si Si2 0.070050 0.245301 0.963636
Si Si3 0.704005 0.825733 0.254403
Si Si4 0.550900 0.726731 0.370196
Si Si5 0.616105 0.750832 0.867059
Si Si6 0.069399 0.230633 0.136614
Si Si7 0.474131 0.711178 0.541331
Si Si8 0.923869 0.970262 0.713279
O O1 0.682787 0.540596 0.607873
O O2 0.035530 0.355168 0.709269
O O3 0.942691 0.142500 0.711006
O O4 0.183611 0.021367 0.584498
O O5 0.869044 0.409688 0.893468
O O6 0.371643 0.950415 0.929185
O O7 0.000000 0.500000 0.000000
O O8 0.028465 0.195445 0.044957
O O9 0.552335 0.887947 0.325851
O O10 0.816828 0.581893 0.180813
O O11 0.519964 0.134673 0.218403
O O12 0.534464 0.761230 0.467355
O O13 0.812606 0.373226 0.331805
O O14 0.307105 0.862739 0.341483
O O15 0.707338 0.850541 0.870893
O O16 0.127749 0.044079 0.198519
O O17 0.500000 0.500000 0.500000
#
# Coordination Sequence:
#
# PCOD9081064 Si02
#       8
#     2   2   2   2   2   2   2   2
#     4  12  26  40  64  89 118 158 197 239 309 357
#     4  10  19  30  57  90 111 155 200 237 277 340
#     4  11  25  38  59  93 127 151 190 250 307 345
#     4  11  23  39  64  84 116 155 200 246 292 341
#     4  11  19  35  56  88 120 152 192 244 286 339
#     4  10  21  36  61  88 122 150 199 246 283 340
#     4  12  23  43  65  85 115 157 205 248 284 352
#     4  11  21  39  61  88 114 158 199 242 286 352
#
# _framework density 23.095983
#
# number of rings (size 3 to 8) (size 9 to 14) (size 15 to 20)
#    0.000    1.000    6.250    2.625    1.750    1.000 
#    0.000    0.000    0.000    1.500    0.000    0.875 
#    0.000    0.000    0.000    0.000    0.000    0.000 
#
# Total GULP energy -89476.127567 kJ/mol
# GULP energy per Si atom -5592.257973 kJ/mol
# Density = 2.304342 g / cm^3
# Si number density = 23.095983 Si / 1000 Ang^3
#
#
#
# Elastic Constant Matrix: (Units=GPa)
#
#
# Indices 1 2 3 4 5 6 
#
# 1 56.9485 16.0458 41.1243 3.2880 -10.2834 -14.2933
# 2 16.0458 95.3231 32.0795 -4.2142 0.9755 -26.1645
# 3 41.1243 32.0795 182.0125 -15.9181 -31.7252 0.0415
# 4 3.2880 -4.2142 -15.9181 31.9135 -4.8791 1.4112
# 5 -10.2834 0.9755 -31.7252 -4.8791 38.2282 -4.6809
# 6 -14.2933 -26.1645 0.0415 1.4112 -4.6809 29.4978
#
#
#
# Elastic Compliance Matrix: (Units=1/GPa)
#
#
# Indices 1 2 3 4 5 6 
#
# 1 0.026156 0.001411 -0.006152 -0.005774 0.002955 0.014679
# 2 0.001411 0.015168 -0.003222 -0.000527 -0.001034 0.014004
# 3 -0.006152 -0.003222 0.009015 0.005854 0.006022 -0.005176
# 4 -0.005774 -0.000527 0.005854 0.036089 0.007457 -0.003816
# 5 0.002955 -0.001034 0.006022 0.007457 0.033601 0.005482
# 6 0.014679 0.014004 -0.005176 -0.003816 0.005482 0.054495
#
#
# Mechanical properties :
#
#
# Convention : Reuss Voigt Hill
#
# Bulk Modulus (GPa) = 29.05745 56.97593 43.01669
# Shear Modulus (GPa) = 24.76237 36.26354 30.51295
#
# Velocity S-wave (km/s) = 3.27792 3.96678 3.63869
# Velocity P-wave (km/s) = 5.18988 6.76041 6.02653
#
# Compressibility (1/GPa) = 0.03441459
#
# Stress axis : x y z
#
# Youngs Moduli (GPa) = 38.23243 65.92669 110.93009
#
# Poissons Ratio (x) = -0.09303 0.68240
# Poissons Ratio (y) = -0.05395 0.35738
# Poissons Ratio (z) = 0.23519 0.21239
#
# Static dielectric constant tensor:
#      x y z
#    x 1.862300 0.032130 -0.006160 
#    y 0.032130 1.892990 -0.010690 
#    z -0.006160 -0.010690 1.944550 
# 
# From -- ./inp_files/557253.got.cif
#   From: 2010.05.17/outbox.cif.g08.bks.cpg/sg2_279_cif.got.tgz:557253.got - 2010.06.03 11:33:40.
