data_PCOD9081717
_publ_section_title
;
Structure prediction by ZEFSAII (Michael W. Deem and Ramdas Pophale) SiO2 
 PCOD9081717
Probable space group: P -1
;
_chemical_formula_sum "Si O2"
_cell_formula_units_Z 16
_cell_length_a 12.733182
_cell_length_b 9.420798
_cell_length_c 12.593158
_cell_angle_alpha 47.281263
_cell_angle_beta 77.965938
_cell_angle_gamma 56.883766
_cell_volume 896.721164
_symmetry_space_group_name_H-M "P -1"
_symmetry_group_IT_number 2
_symmetry_cell_setting 'triclinic'
loop_
_space_group_symop_operation_xyz
x,y,z
-x,-y,-z
loop_
_atom_site_type_symbol
_atom_site_label
_atom_site_fract_x
_atom_site_fract_y
_atom_site_fract_z
Si Si1 0.923267 0.607785 0.799645
Si Si2 0.873111 0.260080 0.876805
Si Si3 0.668403 0.422556 0.179685
Si Si4 0.575804 0.115635 0.961097
Si Si5 0.987589 0.732506 0.348517
Si Si6 0.200331 0.289913 0.002733
Si Si7 0.284105 0.864307 0.896599
Si Si8 0.903424 0.974614 0.462126
O O1 0.883765 0.433428 0.862698
O O2 0.077391 0.451668 0.869727
O O3 0.887051 0.790111 0.621051
O O4 0.854368 0.725852 0.865264
O O5 0.893375 0.318260 0.724052
O O6 0.752529 0.255457 0.943809
O O7 0.000000 0.000000 0.000000
O O8 0.527865 0.606376 0.166894
O O9 0.728843 0.574345 0.066164
O O10 0.662858 0.301435 0.134161
O O11 0.767596 0.215895 0.342888
O O12 0.621347 0.081767 0.091795
O O13 0.500000 0.000000 0.000000
O O14 0.705430 0.964036 0.940485
O O15 0.000000 0.500000 0.500000
O O16 0.851638 0.898452 0.229536
O O17 0.971147 0.875407 0.384594
O O18 0.000000 0.000000 0.500000
#
# Coordination Sequence:
#
# PCOD9081717 Si02
#       8
#     2   2   2   2   2   2   2   2
#     4  11  20  34  58  84 121 145 182 236 288 337
#     4  10  19  32  54  82 114 149 182 234 281 333
#     4  10  20  38  56  84 111 150 194 229 276 338
#     4  10  22  37  59  82 110 147 197 238 277 333
#     4  10  20  32  54  86 120 146 185 225 288 345
#     4  10  20  34  57  85 112 149 188 229 282 332
#     4  10  20  35  57  81 111 146 194 235 281 328
#     4  11  22  34  55  84 121 149 178 231 289 334
#
# _framework density 17.842782
#
# number of rings (size 3 to 8) (size 9 to 14) (size 15 to 20)
#    0.000    1.750    3.750    1.875    0.000    1.000 
#    0.000    0.625    0.000    3.750    0.000    0.000 
#    0.000    0.000    0.000    0.000    0.000    0.000 
#
# Total GULP energy -89187.544235 kJ/mol
# GULP energy per Si atom -5574.221515 kJ/mol
# Density = 1.780217 g / cm^3
# Si number density = 17.842782 Si / 1000 Ang^3
#
#
#
# Elastic Constant Matrix: (Units=GPa)
#
#
# Indices 1 2 3 4 5 6 
#
# 1 68.6446 39.0122 24.4496 -0.0004 16.8228 14.9134
# 2 39.0122 132.9471 48.3507 -8.1015 20.7487 -10.6419
# 3 24.4496 48.3507 87.9965 5.3457 5.6570 -5.8121
# 4 -0.0004 -8.1015 5.3457 19.5129 4.5148 2.3333
# 5 16.8228 20.7487 5.6570 4.5148 26.7572 2.8975
# 6 14.9134 -10.6419 -5.8121 2.3333 2.8975 34.9663
#
#
#
# Elastic Compliance Matrix: (Units=1/GPa)
#
#
# Indices 1 2 3 4 5 6 
#
# 1 0.023597 -0.004596 -0.004356 0.002889 -0.009584 -0.011585
# 2 -0.004596 0.013034 -0.005529 0.008160 -0.007981 0.005125
# 3 -0.004356 -0.005529 0.016002 -0.008122 0.004690 0.002988
# 4 0.002889 0.008160 -0.008122 0.060995 -0.016414 -0.002808
# 5 -0.009584 -0.007981 0.004690 -0.016414 0.051444 -0.000729
# 6 -0.011585 0.005125 0.002988 -0.002808 -0.000729 0.035845
#
#
# Mechanical properties :
#
#
# Convention : Reuss Voigt Hill
#
# Bulk Modulus (GPa) = 42.24470 57.02366 49.63418
# Shear Modulus (GPa) = 21.02891 28.09900 24.56395
#
# Velocity S-wave (km/s) = 3.43675 3.97269 3.71440
# Velocity P-wave (km/s) = 6.28298 7.28501 6.80247
#
# Compressibility (1/GPa) = 0.02367161
#
# Stress axis : x y z
#
# Youngs Moduli (GPa) = 42.37856 76.72124 62.49397
#
# Poissons Ratio (x) = 0.35260 0.27220
# Poissons Ratio (y) = 0.19476 0.34553
# Poissons Ratio (z) = 0.18459 0.42419
#
# Static dielectric constant tensor:
#      x y z
#    x 1.637490 -0.002860 -0.008230 
#    y -0.002860 1.634570 0.005850 
#    z -0.008230 0.005850 1.605880 
# 
# From -- ./inp_files/176409.got.cif
#   From: 2010.05.17/outbox.cif.g08.bks.cpg/sg2_89_cif.got.tgz:176409.got - 2010.06.03 11:33:40.
