data_PCOD9081937
_publ_section_title
;
Structure prediction by ZEFSAII (Michael W. Deem and Ramdas Pophale) SiO2 
 PCOD9081937
Probable space group: P -1
;
_chemical_formula_sum "Si O2"
_cell_formula_units_Z 12
_cell_length_a 9.074315
_cell_length_b 18.044883
_cell_length_c 8.147384
_cell_angle_alpha 127.008993
_cell_angle_beta 106.607180
_cell_angle_gamma 31.373738
_cell_volume 463.673762
_symmetry_space_group_name_H-M "P -1"
_symmetry_group_IT_number 2
_symmetry_cell_setting 'triclinic'
loop_
_space_group_symop_operation_xyz
x,y,z
-x,-y,-z
loop_
_atom_site_type_symbol
_atom_site_label
_atom_site_fract_x
_atom_site_fract_y
_atom_site_fract_z
Si Si1 0.391598 0.664271 0.698997
Si Si2 0.785733 0.266941 0.770843
Si Si3 0.293779 0.421448 0.636715
Si Si4 0.762417 0.962395 0.713311
Si Si5 0.193488 0.423274 0.122362
Si Si6 0.730059 0.889129 0.085410
O O1 0.500000 0.500000 0.500000
O O2 0.518498 0.662121 0.586847
O O3 0.602924 0.590337 0.820162
O O4 0.992362 0.869330 0.818377
O O5 0.574569 0.288061 0.690435
O O6 0.001167 0.169196 0.544403
O O7 0.049459 0.139332 0.833636
O O8 0.500000 0.500000 0.000000
O O9 0.086357 0.440696 0.640614
O O10 0.010950 0.655746 0.863757
O O11 0.553850 0.980085 0.693817
O O12 0.488347 0.189637 0.917057
O O13 0.000000 0.500000 0.000000
O O14 0.500000 0.000000 0.000000
#
# Coordination Sequence:
#
# PCOD9081937 Si02
#       6
#     2   2   2   2   2   2
#     4  11  23  42  68  97 129 175 223 270 326 395
#     4   9  19  37  60  89 126 169 214 264 321 384
#     4   9  21  40  61  87 127 173 214 264 323 387
#     4  10  22  40  63  92 131 176 217 269 329 394
#     4  11  25  43  65  96 134 176 220 271 331 391
#     4  10  19  32  57  97 131 163 212 268 324 385
#
# _framework density 25.880267
#
# number of rings (size 3 to 8) (size 9 to 14) (size 15 to 20)
#    0.000    2.000    0.000    2.500    0.000   13.333 
#    0.000    3.333    0.000    0.000    0.000    0.000 
#    0.000    0.000    0.000    0.000    0.000    0.000 
#
# Total GULP energy -67083.696602 kJ/mol
# GULP energy per Si atom -5590.308050 kJ/mol
# Density = 2.582136 g / cm^3
# Si number density = 25.880267 Si / 1000 Ang^3
#
#
#
# Elastic Constant Matrix: (Units=GPa)
#
#
# Indices 1 2 3 4 5 6 
#
# 1 102.7084 64.7270 14.3435 6.3834 -1.9872 -48.4800
# 2 64.7270 227.1296 19.7270 0.1100 7.3688 -64.3188
# 3 14.3435 19.7270 72.0360 3.0564 -22.2389 -5.5317
# 4 6.3834 0.1100 3.0564 40.0086 -6.5511 -4.8842
# 5 -1.9872 7.3688 -22.2389 -6.5511 37.6629 -2.3410
# 6 -48.4800 -64.3188 -5.5317 -4.8842 -2.3410 54.3490
#
#
#
# Elastic Compliance Matrix: (Units=1/GPa)
#
#
# Indices 1 2 3 4 5 6 
#
# 1 0.017280 -0.000725 -0.001896 -0.000748 0.000695 0.014325
# 2 -0.000725 0.006900 -0.001786 0.000826 -0.001844 0.007332
# 3 -0.001896 -0.001786 0.017967 0.000535 0.010861 -0.001461
# 4 -0.000748 0.000826 0.000535 0.026224 0.004858 0.002932
# 5 0.000695 -0.001844 0.010861 0.004858 0.034297 0.001457
# 6 0.014325 0.007332 -0.001461 0.002932 0.001457 0.040033
#
#
# Mechanical properties :
#
#
# Convention : Reuss Voigt Hill
#
# Bulk Modulus (GPa) = 30.00148 66.60764 48.30456
# Shear Modulus (GPa) = 30.74527 46.60920 38.67724
#
# Velocity S-wave (km/s) = 3.45045 4.24837 3.87003
# Velocity P-wave (km/s) = 5.24325 7.06099 6.21889
#
# Compressibility (1/GPa) = 0.03333169
#
# Stress axis : x y z
#
# Youngs Moduli (GPa) = 57.87112 144.91929 55.65869
#
# Poissons Ratio (x) = 0.10510 0.10552
# Poissons Ratio (y) = 0.04197 0.09943
# Poissons Ratio (z) = 0.10972 0.25889
#
# Static dielectric constant tensor:
#      x y z
#    x 2.023640 -0.001830 -0.028820 
#    y -0.001830 2.085410 -0.100690 
#    z -0.028820 -0.100690 2.038860 
# 
# From -- ./inp_files/199888.got.cif
#   From: 2010.05.17/outbox.cif.g08.bks.cpg/sg2_100_cif.got.tgz:199888.got - 2010.06.03 11:33:40.
