data_PCOD9081753
_publ_section_title
;
Structure prediction by ZEFSAII (Michael W. Deem and Ramdas Pophale) SiO2 
 PCOD9081753
Probable space group: P -1
;
_chemical_formula_sum "Si O2"
_cell_formula_units_Z 16
_cell_length_a 13.858060
_cell_length_b 9.668288
_cell_length_c 11.320284
_cell_angle_alpha 57.662874
_cell_angle_beta 122.065521
_cell_angle_gamma 152.661284
_cell_volume 582.431679
_symmetry_space_group_name_H-M "P -1"
_symmetry_group_IT_number 2
_symmetry_cell_setting 'triclinic'
loop_
_space_group_symop_operation_xyz
x,y,z
-x,-y,-z
loop_
_atom_site_type_symbol
_atom_site_label
_atom_site_fract_x
_atom_site_fract_y
_atom_site_fract_z
Si Si1 0.762140 0.438772 0.776205
Si Si2 0.602566 0.340090 0.352187
Si Si3 0.750121 0.779705 0.644322
Si Si4 0.292294 0.972205 0.658801
Si Si5 0.167588 0.665925 0.353616
Si Si6 0.909805 0.116014 0.005085
Si Si7 0.106309 0.293620 0.814096
Si Si8 0.372756 0.251446 0.806378
O O1 0.807937 0.684643 0.653786
O O2 0.824983 0.365552 0.766538
O O3 0.899291 0.601705 0.911333
O O4 0.504664 0.128231 0.751822
O O5 0.718201 0.358857 0.507307
O O6 0.673288 0.380387 0.246825
O O7 0.671954 0.610280 0.290925
O O8 0.348994 0.016420 0.345504
O O9 0.609125 0.538449 0.773213
O O10 0.651536 0.805251 0.490856
O O11 0.951046 0.103432 0.688404
O O12 0.076341 0.630174 0.627108
O O13 0.240485 0.993138 0.741364
O O14 0.001134 0.265104 0.866336
O O15 0.872884 0.875302 0.070345
O O16 0.695718 0.896349 0.041744
#
# Coordination Sequence:
#
# PCOD9081753 Si02
#       8
#     2   2   2   2   2   2   2   2
#     4  10  20  35  55  83 110 141 185 224 270 325
#     4  10  21  36  53  81 113 147 179 221 274 332
#     4  10  19  32  54  89 109 138 182 232 275 319
#     4  11  20  34  58  85 112 140 180 229 276 323
#     4  11  21  36  56  81 114 150 176 218 280 328
#     4   9  18  33  57  78 103 151 182 226 270 311
#     4   9  18  34  53  78 111 142 185 224 270 319
#     4  10  19  34  56  82 113 140 182 229 271 320
#
# _framework density 27.471035000000001
#
# number of rings (size 3 to 8) (size 9 to 14) (size 15 to 20)
#    0.000    2.000    2.500    3.000    0.000    1.500 
#    2.250    3.750    0.000    0.750    0.000    0.000 
#    0.000    0.000    0.000    0.000    0.000    0.000 
#
# Total GULP energy -89385.159210 kJ/mol
# GULP energy per Si atom -5586.572451 kJ/mol
# Density = 2.740851 g / cm^3
# Si number density = 27.471035 Si / 1000 Ang^3
#
#
#
# Elastic Constant Matrix: (Units=GPa)
#
#
# Indices 1 2 3 4 5 6 
#
# 1 88.8542 16.3179 -13.5861 -2.0100 -29.9562 -1.0079
# 2 16.3179 163.6288 9.8700 0.7058 -3.2513 9.9569
# 3 -13.5861 9.8700 54.7925 -13.1122 -19.0534 -6.9450
# 4 -2.0100 0.7058 -13.1122 37.6468 3.9083 -3.8880
# 5 -29.9562 -3.2513 -19.0534 3.9083 36.8057 3.4898
# 6 -1.0079 9.9569 -6.9450 -3.8880 3.4898 45.1104
#
#
#
# Elastic Compliance Matrix: (Units=1/GPa)
#
#
# Indices 1 2 3 4 5 6 
#
# 1 0.023879 -0.003041 0.017445 0.004780 0.027483 0.002176
# 2 -0.003041 0.006700 -0.003773 -0.001444 -0.003495 -0.001982
# 3 0.017445 -0.003773 0.037697 0.011422 0.031640 0.005563
# 4 0.004780 -0.001444 0.011422 0.030650 0.006007 0.004361
# 5 0.027483 -0.003495 0.031640 0.006007 0.064804 0.001761
# 6 0.002176 -0.001982 0.005563 0.004361 0.001761 0.023750
#
#
# Mechanical properties :
#
#
# Convention : Reuss Voigt Hill
#
# Bulk Modulus (GPa) = 11.16830 36.94211 24.05521
# Shear Modulus (GPa) = 25.50227 43.55748 34.52987
#
# Velocity S-wave (km/s) = 3.05016 3.98625 3.54920
# Velocity P-wave (km/s) = 4.05943 5.88760 5.05681
#
# Compressibility (1/GPa) = 0.08953912
#
# Stress axis : x y z
#
# Youngs Moduli (GPa) = 41.87816 149.26381 26.52756
#
# Poissons Ratio (x) = 0.45384 -0.46278
# Poissons Ratio (y) = 0.12733 0.10008
# Poissons Ratio (z) = -0.73058 0.56312
#
# Static dielectric constant tensor:
#      x y z
#    x 2.222390 0.031980 0.004700 
#    y 0.031980 2.127790 -0.035010 
#    z 0.004700 -0.035010 2.173010 
# 
# From -- ./inp_files/308811.got.cif
#   From: 2010.05.17/outbox.cif.g08.bks.cpg/sg2_155_cif.got.tgz:308811.got - 2010.06.03 11:33:40.
