data_PCOD9081577
_publ_section_title
;
Structure prediction by ZEFSAII (Michael W. Deem and Ramdas Pophale) SiO2 
 PCOD9081577
Probable space group: P -1
;
_chemical_formula_sum "Si O2"
_cell_formula_units_Z 14
_cell_length_a 9.032529
_cell_length_b 13.873047
_cell_length_c 5.564209
_cell_angle_alpha 79.746563
_cell_angle_beta 89.860321
_cell_angle_gamma 131.573786
_cell_volume 506.349505
_symmetry_space_group_name_H-M "P -1"
_symmetry_group_IT_number 2
_symmetry_cell_setting 'triclinic'
loop_
_space_group_symop_operation_xyz
x,y,z
-x,-y,-z
loop_
_atom_site_type_symbol
_atom_site_label
_atom_site_fract_x
_atom_site_fract_y
_atom_site_fract_z
Si Si1 0.224223 0.550325 0.472405
Si Si2 0.778502 0.449555 0.028306
Si Si3 0.896316 0.732984 0.391258
Si Si4 0.124079 0.065072 0.721207
Si Si5 0.520014 0.892733 0.095375
Si Si6 0.574459 0.144706 0.390325
Si Si7 0.029031 0.745761 0.885584
O O1 0.325898 0.619037 0.189308
O O2 0.000000 0.500000 0.500000
O O3 0.194546 0.417813 0.532459
O O4 0.326562 0.621751 0.691842
O O5 0.834439 0.588845 0.969388
O O6 0.000000 0.500000 0.000000
O O7 0.001368 0.792830 0.621602
O O8 0.776261 0.780941 0.344835
O O9 0.035366 0.794812 0.125934
O O10 0.296104 0.060752 0.755393
O O11 0.000000 0.000000 0.500000
O O12 0.000000 0.000000 0.000000
O O13 0.358609 0.799611 0.357216
O O14 0.558672 0.872417 0.827592
O O15 0.500000 0.000000 0.000000
O O16 0.776803 0.230817 0.187020
O O17 0.500000 0.000000 0.500000
#
# Coordination Sequence:
#
# PCOD9081577 Si02
#       7
#     2   2   2   2   2   2   2
#     4   8  14  27  45  70 102 132 157 208 276 331
#     4   8  14  25  43  70 106 130 159 208 278 328
#     4  10  21  32  52  77 110 133 182 223 284 320
#     4  12  26  38  56  78 110 149 188 238 282 314
#     4  10  23  39  54  72 101 148 193 225 267 324
#     4  10  21  33  54  70 103 140 192 224 263 313
#     4  10  19  32  52  79 104 141 174 232 273 320
#
# _framework density 27.648883000000001
#
# number of rings (size 3 to 8) (size 9 to 14) (size 15 to 20)
#    0.000    2.286    0.000    2.571   12.000    0.000 
#    0.000    0.000    0.000    0.000    0.000    0.000 
#    0.000  109.714    0.000    0.000    0.000    0.000 
#
# Total GULP energy -77974.318422 kJ/mol
# GULP energy per Si atom -5569.594173 kJ/mol
# Density = 2.758595 g / cm^3
# Si number density = 27.648883 Si / 1000 Ang^3
#
#
#
# Elastic Constant Matrix: (Units=GPa)
#
#
# Indices 1 2 3 4 5 6 
#
# 1 67.3846 4.4103 14.6983 4.7959 25.5197 -19.9109
# 2 4.4103 90.8103 52.7265 7.6851 15.1992 -26.3402
# 3 14.6983 52.7265 319.4418 47.6135 -3.1103 -8.8626
# 4 4.7959 7.6851 47.6135 45.8266 6.5327 10.8874
# 5 25.5197 15.1992 -3.1103 6.5327 36.9423 -8.8566
# 6 -19.9109 -26.3402 -8.8626 10.8874 -8.8566 33.0726
#
#
#
# Elastic Compliance Matrix: (Units=1/GPa)
#
#
# Indices 1 2 3 4 5 6 
#
# 1 0.027250 0.008614 -0.001527 -0.005073 -0.016798 0.020028
# 2 0.008614 0.019495 -0.002406 -0.005057 -0.008623 0.019423
# 3 -0.001527 -0.002406 0.004339 -0.004611 0.003407 0.000758
# 4 -0.005073 -0.005057 -0.004611 0.033811 -0.005818 -0.021006
# 5 -0.016798 -0.008623 0.003407 -0.005818 0.042898 -0.002665
# 6 0.020028 0.019423 0.000758 -0.021006 -0.002665 0.064168
#
#
# Mechanical properties :
#
#
# Convention : Reuss Voigt Hill
#
# Bulk Modulus (GPa) = 16.54358 69.03410 42.78884
# Shear Modulus (GPa) = 24.66093 50.22174 37.44134
#
# Velocity S-wave (km/s) = 2.98976 4.26656 3.68390
# Velocity P-wave (km/s) = 4.23258 7.02095 5.79691
#
# Compressibility (1/GPa) = 0.06044640
#
# Stress axis : x y z
#
# Youngs Moduli (GPa) = 36.69680 51.29391 230.45384
#
# Poissons Ratio (x) = -0.44182 0.35198
# Poissons Ratio (y) = -0.31609 0.55437
# Poissons Ratio (z) = 0.05605 0.12339
#
# Static dielectric constant tensor:
#      x y z
#    x 2.310410 -0.028320 -0.150230 
#    y -0.028320 2.000110 0.130190 
#    z -0.150230 0.130190 2.432570 
# 
# From -- ./inp_files/34407.got.cif
#   From: 2010.05.17/outbox.cif.g08.bks.cpg/sg2_18_cif.got.tgz:34407.got - 2010.06.03 11:33:40.
