data_PCOD9081787
_publ_section_title
;
Structure prediction by ZEFSAII (Michael W. Deem and Ramdas Pophale) SiO2 
 PCOD9081787
Probable space group: P -1
;
_chemical_formula_sum "Si O2"
_cell_formula_units_Z 16
_cell_length_a 14.705432
_cell_length_b 7.359961
_cell_length_c 15.887947
_cell_angle_alpha 61.055127
_cell_angle_beta 38.271715
_cell_angle_gamma 88.107806
_cell_volume 716.099517
_symmetry_space_group_name_H-M "P -1"
_symmetry_group_IT_number 2
_symmetry_cell_setting 'triclinic'
loop_
_space_group_symop_operation_xyz
x,y,z
-x,-y,-z
loop_
_atom_site_type_symbol
_atom_site_label
_atom_site_fract_x
_atom_site_fract_y
_atom_site_fract_z
Si Si1 0.596338 0.644492 0.755418
Si Si2 0.719955 0.199084 0.317040
Si Si3 0.531747 0.212642 0.019886
Si Si4 0.122214 0.874177 0.334042
Si Si5 0.111313 0.773570 0.648185
Si Si6 0.942246 0.473907 0.680299
Si Si7 0.785995 0.718343 0.964294
Si Si8 0.971935 0.840016 0.969836
O O1 0.602571 0.428301 0.845084
O O2 0.794101 0.925573 0.519597
O O3 0.518638 0.714526 0.873473
O O4 0.442161 0.509150 0.821707
O O5 0.739716 0.180379 0.405925
O O6 0.819798 0.512619 0.160250
O O7 0.500000 0.000000 0.500000
O O8 0.835577 0.113850 0.206645
O O9 0.714765 0.242317 0.905156
O O10 0.325440 0.951257 0.195479
O O11 0.003045 0.643100 0.402393
O O12 0.998983 0.748520 0.536321
O O13 0.182377 0.129821 0.181263
O O14 0.062026 0.575124 0.653895
O O15 0.911321 0.627810 0.874588
O O16 0.885286 0.888487 0.940317
O O17 0.000000 0.000000 0.000000
#
# Coordination Sequence:
#
# PCOD9081787 Si02
#       8
#     2   2   2   2   2   2   2   2
#     4  10  19  32  55  83 110 148 195 235 282 346
#     4  10  23  44  67  95 127 162 210 263 320 383
#     4  10  19  33  52  77 114 154 191 229 281 338
#     4  10  22  35  51  80 118 153 188 234 285 351
#     4  11  21  35  61  85 110 153 195 241 297 358
#     4  11  21  34  53  80 119 152 188 236 286 343
#     4  10  21  38  59  83 111 150 197 242 294 363
#     4  10  23  43  69  94 125 161 209 266 324 375
#
# _framework density 22.343263
#
# number of rings (size 3 to 8) (size 9 to 14) (size 15 to 20)
#    0.000    1.750    2.500    1.875    1.750    1.500 
#    0.000    0.000    5.500    0.000    0.000    0.000 
#    0.000    0.000    0.000    0.000    0.000    0.000 
#
# Total GULP energy -89120.956952 kJ/mol
# GULP energy per Si atom -5570.059809 kJ/mol
# Density = 2.229241 g / cm^3
# Si number density = 22.343263 Si / 1000 Ang^3
#
#
#
# Elastic Constant Matrix: (Units=GPa)
#
#
# Indices 1 2 3 4 5 6 
#
# 1 111.0730 38.0260 32.3604 0.5500 -25.5079 43.9380
# 2 38.0260 87.1899 21.1022 -0.1296 -14.2569 39.5058
# 3 32.3604 21.1022 94.7348 -13.9578 -30.7078 17.1279
# 4 0.5500 -0.1296 -13.9578 25.9243 6.7005 1.3461
# 5 -25.5079 -14.2569 -30.7078 6.7005 37.0278 -9.5486
# 6 43.9380 39.5058 17.1279 1.3461 -9.5486 41.7818
#
#
#
# Elastic Compliance Matrix: (Units=1/GPa)
#
#
# Indices 1 2 3 4 5 6 
#
# 1 0.017566 0.002094 -0.000933 -0.001929 0.007782 -0.018229
# 2 0.002094 0.020642 -0.000353 -0.000028 0.003761 -0.020715
# 3 -0.000933 -0.000353 0.015748 0.005950 0.010445 -0.002945
# 4 -0.001929 -0.000028 0.005950 0.043258 -0.004985 -0.002917
# 5 0.007782 0.003761 0.010445 -0.004985 0.041750 -0.006319
# 6 -0.018229 -0.020715 -0.002945 -0.002917 -0.006319 0.062547
#
#
# Mechanical properties :
#
#
# Convention : Reuss Voigt Hill
#
# Bulk Modulus (GPa) = 17.99466 52.88609 35.44038
# Shear Modulus (GPa) = 22.89171 34.38072 28.63622
#
# Velocity S-wave (km/s) = 3.20433 3.92695 3.58390
# Velocity P-wave (km/s) = 4.66492 6.65450 5.74647
#
# Compressibility (1/GPa) = 0.05557204
#
# Stress axis : x y z
#
# Youngs Moduli (GPa) = 56.92953 48.44449 63.49994
#
# Poissons Ratio (x) = -0.10145 0.05923
# Poissons Ratio (y) = -0.11922 0.02243
# Poissons Ratio (z) = 0.05310 0.01712
#
# Static dielectric constant tensor:
#      x y z
#    x 1.976990 -0.143820 0.095010 
#    y -0.143820 1.984450 -0.086080 
#    z 0.095010 -0.086080 1.935830 
# 
# From -- ./inp_files/305973.got.cif
#   From: 2010.05.17/outbox.cif.g08.bks.cpg/sg2_153_cif.got.tgz:305973.got - 2010.06.03 11:33:40.
