data_PCOD9081299
_publ_section_title
;
Structure prediction by ZEFSAII (Michael W. Deem and Ramdas Pophale) SiO2 
 PCOD9081299
Probable space group: P -1
;
_chemical_formula_sum "Si O2"
_cell_formula_units_Z 14
_cell_length_a 10.510859
_cell_length_b 9.680776
_cell_length_c 15.155490
_cell_angle_alpha 62.840742
_cell_angle_beta 155.114367
_cell_angle_gamma 107.940787
_cell_volume 553.741543
_symmetry_space_group_name_H-M "P -1"
_symmetry_group_IT_number 2
_symmetry_cell_setting 'triclinic'
loop_
_space_group_symop_operation_xyz
x,y,z
-x,-y,-z
loop_
_atom_site_type_symbol
_atom_site_label
_atom_site_fract_x
_atom_site_fract_y
_atom_site_fract_z
Si Si1 0.120299 0.986974 0.446848
Si Si2 0.862603 0.268265 0.063648
Si Si3 0.290685 0.263143 0.162037
Si Si4 0.088546 0.652867 0.472035
Si Si5 0.403747 0.340225 0.468449
Si Si6 0.533546 0.858056 0.256265
Si Si7 0.033439 0.203164 0.830190
O O1 0.456972 0.914472 0.630956
O O2 0.002730 0.824946 0.422073
O O3 0.927072 0.122213 0.219430
O O4 0.198548 0.060725 0.566101
O O5 0.048484 0.265919 0.087422
O O6 0.045845 0.377808 0.199715
O O7 0.518550 0.266792 0.813980
O O8 0.528212 0.376906 0.287187
O O9 0.141328 0.271502 0.967921
O O10 0.927359 0.701290 0.261093
O O11 0.000000 0.500000 0.500000
O O12 0.500000 0.500000 0.500000
O O13 0.465430 0.241576 0.625274
O O14 0.658139 0.231835 0.592335
O O15 0.234926 0.016543 0.006964
#
# Coordination Sequence:
#
# PCOD9081299 Si02
#       7
#     2   2   2   2   2   2   2
#     4   8  18  27  45  76 102 128 167 207 254 309
#     4  11  17  30  52  71 104 138 167 204 257 314
#     4   9  18  28  47  76 100 135 167 201 261 305
#     4  10  20  32  48  77 110 133 168 223 269 292
#     4  11  23  32  47  80 113 139 168 204 258 315
#     4  10  19  31  54  76 101 139 173 206 258 317
#     4  11  19  33  53  72 105 139 173 209 254 308
#
# _framework density 25.282551999999999
#
# number of rings (size 3 to 8) (size 9 to 14) (size 15 to 20)
#    0.857    1.143    4.286    0.857    4.000    1.143 
#    0.000    0.000    0.000    0.000    0.000    5.000 
#    0.000    0.143    0.000    0.000    0.000    0.000 
#
# Total GULP energy -77993.862983 kJ/mol
# GULP energy per Si atom -5570.990213 kJ/mol
# Density = 2.522501 g / cm^3
# Si number density = 25.282552 Si / 1000 Ang^3
#
#
#
# Elastic Constant Matrix: (Units=GPa)
#
#
# Indices 1 2 3 4 5 6 
#
# 1 158.7929 22.3871 -19.5967 -45.9384 -300.9392 76.0710
# 2 22.3871 245.4905 94.3591 37.7568 87.7413 10.9736
# 3 -19.5967 94.3591 170.8673 58.5823 165.3714 -47.4938
# 4 -45.9384 37.7568 58.5823 63.8878 121.8940 -33.2792
# 5 -300.9392 87.7413 165.3714 121.8940 814.6792 -174.5746
# 6 76.0710 10.9736 -47.4938 -33.2792 -174.5746 84.6698
#
#
#
# Elastic Compliance Matrix: (Units=1/GPa)
#
#
# Indices 1 2 3 4 5 6 
#
# 1 0.040814 -0.005541 -0.012938 0.012144 0.014774 -0.007974
# 2 -0.005541 0.006913 -0.001745 -0.003162 -0.002804 -0.003922
# 3 -0.012938 -0.001745 0.015082 -0.009448 -0.004806 0.006687
# 4 0.012144 -0.003162 -0.009448 0.031063 0.002377 0.001311
# 5 0.014774 -0.002804 -0.004806 0.002377 0.007995 0.001814
# 6 -0.007974 -0.003922 0.006687 0.001311 0.001814 0.027489
#
#
# Mechanical properties :
#
#
# Convention : Reuss Voigt Hill
#
# Bulk Modulus (GPa) = 44.71903 85.49441 65.10672
# Shear Modulus (GPa) = 28.20719 224.51409 126.36064
#
# Velocity S-wave (km/s) = 3.34380 9.43370 7.07728
# Velocity P-wave (km/s) = 5.71263 12.35106 9.62244
#
# Compressibility (1/GPa) = 0.02236184
#
# Stress axis : x y z
#
# Youngs Moduli (GPa) = 24.50115 144.64492 66.30395
#
# Poissons Ratio (x) = 0.80144 0.85785
# Poissons Ratio (y) = 0.13575 0.11572
# Poissons Ratio (z) = 0.31700 0.25244
#
# Static dielectric constant tensor:
#      x y z
#    x 2.162520 -0.096570 0.116380 
#    y -0.096570 2.128110 -0.022970 
#    z 0.116380 -0.022970 1.995010 
# 
# From -- ./inp_files/517737.got.cif
#   From: 2010.05.17/outbox.cif.g08.bks.cpg/sg2_259_cif.got.tgz:517737.got - 2010.06.03 11:33:40.
