data_PCOD9081907
_publ_section_title
;
Structure prediction by ZEFSAII (Michael W. Deem and Ramdas Pophale) SiO2 
 PCOD9081907
Probable space group: P -1
;
_chemical_formula_sum "Si O2"
_cell_formula_units_Z 16
_cell_length_a 13.576817
_cell_length_b 9.413185
_cell_length_c 11.995199
_cell_angle_alpha 57.560959
_cell_angle_beta 43.576712
_cell_angle_gamma 81.964523
_cell_volume 806.163977
_symmetry_space_group_name_H-M "P -1"
_symmetry_group_IT_number 2
_symmetry_cell_setting 'triclinic'
loop_
_space_group_symop_operation_xyz
x,y,z
-x,-y,-z
loop_
_atom_site_type_symbol
_atom_site_label
_atom_site_fract_x
_atom_site_fract_y
_atom_site_fract_z
Si Si1 0.543820 0.931379 0.322044
Si Si2 0.860301 0.308749 0.727014
Si Si3 0.154226 0.049920 0.692173
Si Si4 0.115056 0.865450 0.012662
Si Si5 0.360115 0.389137 0.074599
Si Si6 0.038666 0.115713 0.534079
Si Si7 0.498683 0.895765 0.933403
Si Si8 0.474630 0.726774 0.677251
O O1 0.454666 0.756588 0.549564
O O2 0.564035 0.117070 0.295222
O O3 0.724743 0.958151 0.150526
O O4 0.470830 0.959694 0.254924
O O5 0.876329 0.294981 0.852754
O O6 0.679730 0.263476 0.870759
O O7 0.000000 0.500000 0.500000
O O8 0.900977 0.157383 0.687783
O O9 0.097827 0.020201 0.624074
O O10 0.336591 0.196454 0.487513
O O11 0.043597 0.125555 0.817731
O O12 0.129422 0.872963 0.864447
O O13 0.187146 0.312476 0.302359
O O14 0.500000 0.500000 0.000000
O O15 0.385405 0.203407 0.109659
O O16 0.386295 0.526006 0.890641
O O17 0.000000 0.000000 0.500000
O O18 0.500000 0.000000 0.000000
#
# Coordination Sequence:
#
# PCOD9081907 Si02
#       8
#     2   2   2   2   2   2   2   2
#     4   9  18  34  53  82 110 142 178 225 279 321
#     4  10  21  35  56  81 105 139 183 228 264 315
#     4   9  16  32  51  78 102 138 176 221 262 318
#     4   8  17  29  52  76 103 133 180 221 259 314
#     4  12  21  36  59  87 107 142 196 232 260 322
#     4  11  22  35  55  81 114 144 174 222 285 330
#     4  11  22  37  57  82 115 147 177 223 287 335
#     4  10  19  32  57  83 106 137 188 236 260 311
#
# _framework density 19.847076999999999
#
# number of rings (size 3 to 8) (size 9 to 14) (size 15 to 20)
#    0.000    2.000    2.500    1.500    3.500    0.000 
#    0.000    0.625    2.750    0.750    0.000    0.000 
#    0.000    0.000    0.000    0.000    0.000    0.000 
#
# Total GULP energy -89113.438413 kJ/mol
# GULP energy per Si atom -5569.589901 kJ/mol
# Density = 1.980190 g / cm^3
# Si number density = 19.847077 Si / 1000 Ang^3
#
#
#
# Elastic Constant Matrix: (Units=GPa)
#
#
# Indices 1 2 3 4 5 6 
#
# 1 88.2573 25.9483 52.0393 -3.0218 37.1912 -3.6390
# 2 25.9483 41.4604 5.3659 12.7519 8.8204 -3.1979
# 3 52.0393 5.3659 128.7157 0.6980 30.7245 -8.0587
# 4 -3.0218 12.7519 0.6980 25.4128 -10.4420 -4.5106
# 5 37.1912 8.8204 30.7245 -10.4420 58.3286 11.8815
# 6 -3.6390 -3.1979 -8.0587 -4.5106 11.8815 27.3236
#
#
#
# Elastic Compliance Matrix: (Units=1/GPa)
#
#
# Indices 1 2 3 4 5 6 
#
# 1 0.023471 -0.013623 -0.006449 0.006850 -0.009257 0.004785
# 2 -0.013623 0.040534 0.005329 -0.023689 -0.005059 0.002791
# 3 -0.006449 0.005329 0.011530 -0.004845 -0.004516 0.004329
# 4 0.006850 -0.023689 -0.004845 0.057215 0.011801 0.001025
# 5 -0.009257 -0.005059 -0.004516 0.011801 0.031324 -0.014830
# 6 0.004785 0.002791 0.004329 0.001025 -0.014830 0.045457
#
#
# Mechanical properties :
#
#
# Convention : Reuss Voigt Hill
#
# Bulk Modulus (GPa) = 21.71690 47.23783 34.47737
# Shear Modulus (GPa) = 19.65662 33.88498 26.77080
#
# Velocity S-wave (km/s) = 3.15048 4.13644 3.67666
# Velocity P-wave (km/s) = 4.91934 6.83125 5.95256
#
# Compressibility (1/GPa) = 0.04604708
#
# Stress axis : x y z
#
# Youngs Moduli (GPa) = 42.60539 24.67090 86.73282
#
# Poissons Ratio (x) = 0.33610 0.55937
# Poissons Ratio (y) = 0.58043 -0.46220
# Poissons Ratio (z) = 0.27478 -0.13147
#
# Static dielectric constant tensor:
#      x y z
#    x 1.794120 -0.098430 0.012580 
#    y -0.098430 1.869410 -0.008810 
#    z 0.012580 -0.008810 1.766490 
# 
# From -- ./inp_files/348297.got.cif
#   From: 2010.05.17/outbox.cif.g08.bks.cpg/sg2_175_cif.got.tgz:348297.got - 2010.06.03 11:33:40.
