data_PCOD9081100
_publ_section_title
;
Structure prediction by ZEFSAII (Michael W. Deem and Ramdas Pophale) SiO2 
 PCOD9081100
Probable space group: P -1
;
_chemical_formula_sum "Si O2"
_cell_formula_units_Z 16
_cell_length_a 12.673672
_cell_length_b 4.989918
_cell_length_c 14.514122
_cell_angle_alpha 101.661673
_cell_angle_beta 99.908568
_cell_angle_gamma 97.632873
_cell_volume 872.059880
_symmetry_space_group_name_H-M "P -1"
_symmetry_group_IT_number 2
_symmetry_cell_setting 'triclinic'
loop_
_space_group_symop_operation_xyz
x,y,z
-x,-y,-z
loop_
_atom_site_type_symbol
_atom_site_label
_atom_site_fract_x
_atom_site_fract_y
_atom_site_fract_z
Si Si1 0.860664 0.724891 0.143165
Si Si2 0.214735 0.749514 0.772189
Si Si3 0.788686 0.257256 0.833450
Si Si4 0.425914 0.796698 0.097637
Si Si5 0.879705 0.842752 0.949051
Si Si6 0.010236 0.511818 0.611443
Si Si7 0.429125 0.637314 0.877758
Si Si8 0.073256 0.966229 0.296294
O O1 0.844779 0.416570 0.159848
O O2 0.983630 0.868603 0.195970
O O3 0.788834 0.924808 0.197264
O O4 0.833573 0.735871 0.033653
O O5 0.135226 0.625999 0.668850
O O6 0.333767 0.673753 0.795078
O O7 0.666395 0.279723 0.844517
O O8 0.863844 0.561930 0.867096
O O9 0.815587 0.102687 0.733602
O O10 0.819991 0.064633 0.906904
O O11 0.527319 0.650303 0.130791
O O12 0.468755 0.123597 0.114607
O O13 0.392198 0.692491 0.981184
O O14 0.000000 0.000000 0.000000
O O15 0.062941 0.276856 0.342465
O O16 0.000000 0.500000 0.500000
O O17 0.969599 0.220319 0.635114
#
# Coordination Sequence:
#
# PCOD9081100 Si02
#       8
#     2   2   2   2   2   2   2   2
#     4  10  19  31  46  74 104 140 172 208 255 308
#     4  10  20  33  55  75 103 135 177 225 268 310
#     4  12  23  35  49  76 108 148 183 216 264 305
#     4  10  21  33  52  71 104 145 187 222 252 293
#     4  12  22  30  48  70 110 149 181 207 245 306
#     4  10  21  38  58  83 105 133 169 216 281 345
#     4  10  19  35  50  73 101 140 188 227 255 286
#     4  10  21  34  53  75 109 136 169 214 260 331
#
# _framework density 18.347363999999999
#
# number of rings (size 3 to 8) (size 9 to 14) (size 15 to 20)
#    0.000    1.500    1.250    5.250    3.500    2.000 
#    0.000    0.000    0.000    0.000    0.000    5.250 
#    0.000    0.000    0.000    0.000    0.000    0.000 
#
# Total GULP energy -89315.615121 kJ/mol
# GULP energy per Si atom -5582.225945 kJ/mol
# Density = 1.830560 g / cm^3
# Si number density = 18.347364 Si / 1000 Ang^3
#
#
#
# Elastic Constant Matrix: (Units=GPa)
#
#
# Indices 1 2 3 4 5 6 
#
# 1 75.5807 3.0412 28.7796 4.9241 1.1342 -2.0913
# 2 3.0412 66.7790 -7.4702 -7.3368 2.0823 -6.0482
# 3 28.7796 -7.4702 69.6059 -7.3974 8.4040 -0.5105
# 4 4.9241 -7.3368 -7.3974 17.2661 -3.1437 0.1658
# 5 1.1342 2.0823 8.4040 -3.1437 18.3547 -7.5533
# 6 -2.0913 -6.0482 -0.5105 0.1658 -7.5533 23.2547
#
#
#
# Elastic Compliance Matrix: (Units=1/GPa)
#
#
# Indices 1 2 3 4 5 6 
#
# 1 0.017271 -0.002733 -0.008690 -0.009424 0.002197 0.001432
# 2 -0.002733 0.016991 0.004041 0.009642 -0.000267 0.004106
# 3 -0.008690 0.004041 0.020597 0.011544 -0.008209 -0.002027
# 4 -0.009424 0.009642 0.011544 0.071071 0.008027 0.004014
# 5 0.002197 -0.000267 -0.008209 0.008027 0.068640 0.022185
# 6 0.001432 0.004106 -0.002027 0.004014 0.022185 0.051332
#
#
# Mechanical properties :
#
#
# Convention : Reuss Voigt Hill
#
# Bulk Modulus (GPa) = 24.94219 28.96297 26.95258
# Shear Modulus (GPa) = 18.24622 24.28277 21.26449
#
# Velocity S-wave (km/s) = 3.15697 3.64194 3.40809
# Velocity P-wave (km/s) = 5.18773 5.78837 5.49626
#
# Compressibility (1/GPa) = 0.04009271
#
# Stress axis : x y z
#
# Youngs Moduli (GPa) = 57.90202 58.85530 48.55189
#
# Poissons Ratio (x) = 0.16084 0.42193
# Poissons Ratio (y) = 0.15823 -0.19617
# Poissons Ratio (z) = 0.50319 -0.23781
#
# Static dielectric constant tensor:
#      x y z
#    x 1.694450 0.012190 -0.019480 
#    y 0.012190 1.646940 0.005380 
#    z -0.019480 0.005380 1.610460 
# 
# From -- ./inp_files/410548.got.cif
#   From: 2010.05.17/outbox.cif.g08.bks.cpg/sg2_206_cif.got.tgz:410548.got - 2010.06.03 11:33:40.
