data_PCOD9081806
_publ_section_title
;
Structure prediction by ZEFSAII (Michael W. Deem and Ramdas Pophale) SiO2 
 PCOD9081806
Probable space group: P -1
;
_chemical_formula_sum "Si O2"
_cell_formula_units_Z 16
_cell_length_a 16.296340
_cell_length_b 12.728239
_cell_length_c 5.282677
_cell_angle_alpha 98.773335
_cell_angle_beta 122.077662
_cell_angle_gamma 50.355365
_cell_volume 685.164895
_symmetry_space_group_name_H-M "P -1"
_symmetry_group_IT_number 2
_symmetry_cell_setting 'triclinic'
loop_
_space_group_symop_operation_xyz
x,y,z
-x,-y,-z
loop_
_atom_site_type_symbol
_atom_site_label
_atom_site_fract_x
_atom_site_fract_y
_atom_site_fract_z
Si Si1 0.670883 0.933902 0.168218
Si Si2 0.090270 0.111400 0.125973
Si Si3 0.102098 0.311781 0.909052
Si Si4 0.503006 0.895750 0.644662
Si Si5 0.759045 0.064566 0.187883
Si Si6 0.838349 0.432484 0.322843
Si Si7 0.269406 0.398845 0.300498
Si Si8 0.106732 0.840099 0.499738
O O1 0.800374 0.805568 0.185856
O O2 0.637751 0.001643 0.418681
O O3 0.640822 0.067181 0.016341
O O4 0.596331 0.875108 0.013787
O O5 0.148970 0.043675 0.468963
O O6 0.180234 0.996386 0.010148
O O7 0.082311 0.241366 0.080210
O O8 0.952402 0.154774 0.863748
O O9 0.963658 0.414655 0.582230
O O10 0.173989 0.364867 0.140897
O O11 0.587589 0.742338 0.603456
O O12 0.500000 0.000000 0.500000
O O13 0.760628 0.188945 0.290946
O O14 0.738567 0.536951 0.420707
O O15 0.879758 0.279984 0.373234
O O16 0.786384 0.491122 0.980915
O O17 0.000000 0.000000 0.500000
#
# Coordination Sequence:
#
# PCOD9081806 Si02
#       8
#     2   2   2   2   2   2   2   2
#     4   9  21  36  60  94 117 153 211 256 304 345
#     4   9  19  31  52  86 120 155 191 239 289 355
#     4   9  20  36  59  87 129 160 197 240 304 377
#     4  10  23  40  65  87 120 163 210 259 299 361
#     4  10  19  32  55  86 116 146 196 254 296 338
#     4  11  24  40  58  92 127 165 196 244 311 378
#     4  11  25  39  61  85 128 166 202 244 309 369
#     4   9  20  38  60  86 122 164 206 248 298 360
#
# _framework density 23.352043999999999
#
# number of rings (size 3 to 8) (size 9 to 14) (size 15 to 20)
#    0.000    2.250    0.000    1.875   10.500   11.000 
#    0.000    0.000    0.000    1.500    0.000    0.000 
#    0.000    0.000    0.000    0.000    0.000    0.000 
#
# Total GULP energy -89152.645852 kJ/mol
# GULP energy per Si atom -5572.040366 kJ/mol
# Density = 2.329889 g / cm^3
# Si number density = 23.352044 Si / 1000 Ang^3
#
#
#
# Elastic Constant Matrix: (Units=GPa)
#
#
# Indices 1 2 3 4 5 6 
#
# 1 75.0850 40.5877 9.8505 13.6860 -11.5832 -4.2606
# 2 40.5877 113.8297 22.8456 12.6991 -11.2523 -5.0003
# 3 9.8505 22.8456 74.1729 5.6340 -0.9516 5.8091
# 4 13.6860 12.6991 5.6340 34.7182 1.3756 1.3787
# 5 -11.5832 -11.2523 -0.9516 1.3756 32.6376 10.5879
# 6 -4.2606 -5.0003 5.8091 1.3787 10.5879 49.7747
#
#
#
# Elastic Compliance Matrix: (Units=1/GPa)
#
#
# Indices 1 2 3 4 5 6 
#
# 1 0.017897 -0.005259 -0.000311 -0.005275 0.004691 0.000188
# 2 -0.005259 0.011643 -0.002777 -0.001838 0.001922 0.000686
# 3 -0.000311 -0.002777 0.014623 -0.001158 0.000053 -0.001992
# 4 -0.005275 -0.001838 -0.001158 0.031913 -0.003690 -0.000600
# 5 0.004691 0.001922 0.000053 -0.003690 0.035338 -0.006826
# 6 0.000188 0.000686 -0.001992 -0.000600 -0.006826 0.021877
#
#
# Mechanical properties :
#
#
# Convention : Reuss Voigt Hill
#
# Bulk Modulus (GPa) = 36.40373 45.51724 40.96049
# Shear Modulus (GPa) = 31.41856 36.07971 33.74914
#
# Velocity S-wave (km/s) = 3.67199 3.93496 3.80575
# Velocity P-wave (km/s) = 5.79663 6.33871 6.07372
#
# Compressibility (1/GPa) = 0.02746971
#
# Stress axis : x y z
#
# Youngs Moduli (GPa) = 55.87382 85.89104 68.38427
#
# Poissons Ratio (x) = 0.45168 0.02127
# Poissons Ratio (y) = 0.29383 0.18990
# Poissons Ratio (z) = 0.01738 0.23852
#
# Static dielectric constant tensor:
#      x y z
#    x 2.114870 0.012490 0.256120 
#    y 0.012490 1.907690 0.004130 
#    z 0.256120 0.004130 2.291380 
# 
# From -- ./inp_files/109804.got.cif
#   From: 2010.05.17/outbox.cif.g08.bks.cpg/sg2_55_cif.got.tgz:109804.got - 2010.06.03 11:33:40.
