data_PCOD9081906
_publ_section_title
;
Structure prediction by ZEFSAII (Michael W. Deem and Ramdas Pophale) SiO2 
 PCOD9081906
Probable space group: P -1
;
_chemical_formula_sum "Si O2"
_cell_formula_units_Z 16
_cell_length_a 9.799414
_cell_length_b 18.836917
_cell_length_c 8.418657
_cell_angle_alpha 43.404709
_cell_angle_beta 62.521258
_cell_angle_gamma 83.091196
_cell_volume 886.523378
_symmetry_space_group_name_H-M "P -1"
_symmetry_group_IT_number 2
_symmetry_cell_setting 'triclinic'
loop_
_space_group_symop_operation_xyz
x,y,z
-x,-y,-z
loop_
_atom_site_type_symbol
_atom_site_label
_atom_site_fract_x
_atom_site_fract_y
_atom_site_fract_z
Si Si1 0.729377 0.788108 0.759179
Si Si2 0.107497 0.681718 0.718720
Si Si3 0.784818 0.512729 0.014318
Si Si4 0.133064 0.446657 0.462999
Si Si5 0.085441 0.977972 0.741201
Si Si6 0.039576 0.863036 0.288226
Si Si7 0.486311 0.557547 0.247118
Si Si8 0.025586 0.231734 0.069666
O O1 0.749802 0.916373 0.550234
O O2 0.844459 0.791161 0.536744
O O3 0.827500 0.762731 0.897248
O O4 0.557135 0.690582 0.004316
O O5 0.132744 0.782554 0.421308
O O6 0.100523 0.732718 0.812065
O O7 0.925908 0.590145 0.930401
O O8 0.226813 0.613287 0.749607
O O9 0.846282 0.544813 0.750639
O O10 0.614347 0.528257 0.112734
O O11 0.304639 0.512263 0.350072
O O12 0.000000 0.500000 0.500000
O O13 0.081544 0.321291 0.754999
O O14 0.952167 0.038383 0.751875
O O15 0.041820 0.889943 0.768903
O O16 0.087655 0.915268 0.006307
O O17 0.500000 0.500000 0.500000
#
# Coordination Sequence:
#
# PCOD9081906 Si02
#       8
#     2   2   2   2   2   2   2   2
#     4   9  18  34  54  82 115 157 195 244 296 354
#     4  10  19  32  57  82 123 155 199 244 301 353
#     4  11  21  38  56  84 122 166 196 248 302 357
#     4  12  25  38  60  93 120 157 204 252 303 365
#     4   9  17  29  57  86 120 152 207 249 290 353
#     4   8  16  32  50  90 114 156 201 245 299 350
#     4  12  23  42  60  88 126 159 203 250 304 366
#     4  11  18  33  54  90 117 153 204 245 288 361
#
# _framework density 18.048029
#
# number of rings (size 3 to 8) (size 9 to 14) (size 15 to 20)
#    0.750    1.000    5.000    1.500    1.750    0.000 
#    0.000    0.000    0.000    0.750    0.000    2.625 
#    0.000    0.000    0.000    0.000    0.000    0.000 
#
# Total GULP energy -89112.351161 kJ/mol
# GULP energy per Si atom -5569.521948 kJ/mol
# Density = 1.800695 g / cm^3
# Si number density = 18.048029 Si / 1000 Ang^3
#
#
#
# Elastic Constant Matrix: (Units=GPa)
#
#
# Indices 1 2 3 4 5 6 
#
# 1 51.9286 30.6891 23.9477 -5.5249 -4.0254 -6.5738
# 2 30.6891 109.9032 31.9475 -14.5923 -2.6036 2.4302
# 3 23.9477 31.9475 93.9572 -18.6632 16.5734 -4.0358
# 4 -5.5249 -14.5923 -18.6632 37.3631 -0.7920 2.0248
# 5 -4.0254 -2.6036 16.5734 -0.7920 32.9720 -3.9653
# 6 -6.5738 2.4302 -4.0358 2.0248 -3.9653 19.9173
#
#
#
# Elastic Compliance Matrix: (Units=1/GPa)
#
#
# Indices 1 2 3 4 5 6 
#
# 1 0.027325 -0.006171 -0.006029 -0.001781 0.007056 0.010136
# 2 -0.006171 0.011973 -0.002262 0.002873 0.000909 -0.004067
# 3 -0.006029 -0.002262 0.015622 0.005891 -0.008732 -0.000886
# 4 -0.001781 0.002873 0.005891 0.030694 -0.002622 -0.003387
# 5 0.007056 0.000909 -0.008732 -0.002622 0.036549 0.007991
# 6 0.010136 -0.004067 -0.000886 -0.003387 0.007991 0.055805
#
#
# Mechanical properties :
#
#
# Convention : Reuss Voigt Hill
#
# Bulk Modulus (GPa) = 38.47060 47.66194 43.06627
# Shear Modulus (GPa) = 23.19565 29.33079 26.26322
#
# Velocity S-wave (km/s) = 3.58888 4.03569 3.81883
# Velocity P-wave (km/s) = 6.20769 6.94129 6.58471
#
# Compressibility (1/GPa) = 0.02599387
#
# Stress axis : x y z
#
# Youngs Moduli (GPa) = 36.59608 83.52310 64.01432
#
# Poissons Ratio (x) = 0.51543 0.38596
# Poissons Ratio (y) = 0.22584 0.14483
# Poissons Ratio (z) = 0.22065 0.18897
#
# Static dielectric constant tensor:
#      x y z
#    x 1.609480 0.002370 0.019560 
#    y 0.002370 1.648810 -0.016520 
#    z 0.019560 -0.016520 1.645670 
# 
# From -- ./inp_files/222995.got.cif
#   From: 2010.05.17/outbox.cif.g08.bks.cpg/sg2_112_cif.got.tgz:222995.got - 2010.06.03 11:33:40.
