data_PCOD9081612
_publ_section_title
;
Structure prediction by ZEFSAII (Michael W. Deem and Ramdas Pophale) SiO2 
 PCOD9081612
Probable space group: P -1
;
_chemical_formula_sum "Si O2"
_cell_formula_units_Z 16
_cell_length_a 28.052380
_cell_length_b 15.468792
_cell_length_c 16.214366
_cell_angle_alpha 25.988873
_cell_angle_beta 163.822247
_cell_angle_gamma 154.882335
_cell_volume 806.198690
_symmetry_space_group_name_H-M "P -1"
_symmetry_group_IT_number 2
_symmetry_cell_setting 'triclinic'
loop_
_space_group_symop_operation_xyz
x,y,z
-x,-y,-z
loop_
_atom_site_type_symbol
_atom_site_label
_atom_site_fract_x
_atom_site_fract_y
_atom_site_fract_z
Si Si1 0.306079 0.846043 0.771786
Si Si2 0.216701 0.031521 0.610175
Si Si3 0.453505 0.066003 0.669796
Si Si4 0.944154 0.846518 0.615593
Si Si5 0.712862 0.184523 0.733931
Si Si6 0.536456 0.520370 0.196899
Si Si7 0.523195 0.468901 0.723370
Si Si8 0.576838 0.165038 0.355377
O O1 0.168211 0.881327 0.578714
O O2 0.303695 0.936212 0.599098
O O3 0.329752 0.620804 0.995757
O O4 0.500000 0.000000 0.000000
O O5 0.330487 0.272915 0.564042
O O6 0.360291 0.963922 0.963063
O O7 0.057068 0.030218 0.406984
O O8 0.476719 0.310521 0.499878
O O9 0.413696 0.965101 0.599351
O O10 0.738117 0.694652 0.391281
O O11 0.090312 0.732820 0.969053
O O12 0.000000 0.000000 0.500000
O O13 0.582039 0.316556 0.423337
O O14 0.724180 0.180107 0.657759
O O15 0.610213 0.962287 0.797998
O O16 0.445944 0.500806 0.153104
O O17 0.428026 0.611288 0.874366
#
# Coordination Sequence:
#
# PCOD9081612 Si02
#       8
#     2   2   2   2   2   2   2   2
#     4   8  16  28  45  74 101 126 162 212 252 295
#     4   9  19  31  48  73 102 129 170 207 248 298
#     4  10  15  30  51  71 102 133 160 208 258 298
#     4  11  20  37  54  72 107 141 168 205 256 302
#     4  11  23  33  52  77 105 135 176 210 251 302
#     4  11  19  35  54  75 102 137 173 210 254 304
#     4   9  16  26  50  76  97 127 166 205 258 297
#     4  11  20  35  51  78 104 133 173 216 250 302
#
# _framework density 19.846225
#
# number of rings (size 3 to 8) (size 9 to 14) (size 15 to 20)
#    0.000    2.250    6.250    0.750    0.000    4.500 
#    0.000    0.000    0.000    0.750    0.000    0.875 
#    0.000    0.000    0.000    0.000    0.000    0.000 
#
# Total GULP energy -89130.594426 kJ/mol
# GULP energy per Si atom -5570.662152 kJ/mol
# Density = 1.980105 g / cm^3
# Si number density = 19.846225 Si / 1000 Ang^3
#
#
#
# Elastic Constant Matrix: (Units=GPa)
#
#
# Indices 1 2 3 4 5 6 
#
# 1 95.1033 12.3969 13.0393 -6.2315 -0.4344 -24.9667
# 2 12.3969 40.4281 27.1423 -29.5176 2.2317 -9.6429
# 3 13.0393 27.1423 59.2162 -22.0047 -14.5042 -2.9237
# 4 -6.2315 -29.5176 -22.0047 31.1403 -6.6928 3.5374
# 5 -0.4344 2.2317 -14.5042 -6.6928 25.6805 -3.1041
# 6 -24.9667 -9.6429 -2.9237 3.5374 -3.1041 23.2848
#
#
#
# Elastic Compliance Matrix: (Units=1/GPa)
#
#
# Indices 1 2 3 4 5 6 
#
# 1 0.015068 0.002231 -0.002735 0.001506 0.000919 0.016630
# 2 0.002231 0.104698 -0.009100 0.092552 0.013836 0.032392
# 3 -0.002735 -0.009100 0.036711 0.022833 0.027195 -0.001934
# 4 0.001506 0.092552 0.022833 0.142955 0.045416 0.027148
# 5 0.000919 0.013836 0.027195 0.045416 0.066410 0.012084
# 6 0.016630 0.032392 -0.001934 0.027148 0.012084 0.071436
#
#
# Mechanical properties :
#
#
# Convention : Reuss Voigt Hill
#
# Bulk Modulus (GPa) = 7.28493 33.32271 20.30382
# Shear Modulus (GPa) = 9.95540 25.49907 17.72723
#
# Velocity S-wave (km/s) = 2.24213 3.58834 2.99194
# Velocity P-wave (km/s) = 3.22204 5.83054 4.71045
#
# Compressibility (1/GPa) = 0.13726966
#
# Stress axis : x y z
#
# Youngs Moduli (GPa) = 66.36708 9.55132 27.24012
#
# Poissons Ratio (x) = -0.02131 0.07449
# Poissons Ratio (y) = -0.14809 0.24788
# Poissons Ratio (z) = 0.18149 0.08692
#
# Static dielectric constant tensor:
#      x y z
#    x 1.772760 -0.038290 0.018830 
#    y -0.038290 1.730150 -0.004530 
#    z 0.018830 -0.004530 1.702070 
# 
# From -- ./inp_files/538716.got.cif
#   From: 2010.05.17/outbox.cif.g08.bks.cpg/sg2_270_cif.got.tgz:538716.got - 2010.06.03 11:33:40.
