data_PCOD9081167
_publ_section_title
;
Structure prediction by ZEFSAII (Michael W. Deem and Ramdas Pophale) SiO2 
 PCOD9081167
Probable space group: P -1
;
_chemical_formula_sum "Si O2"
_cell_formula_units_Z 14
_cell_length_a 12.520833
_cell_length_b 11.889114
_cell_length_c 8.012305
_cell_angle_alpha 111.050729
_cell_angle_beta 92.971787
_cell_angle_gamma 36.137138
_cell_volume 591.740469
_symmetry_space_group_name_H-M "P -1"
_symmetry_group_IT_number 2
_symmetry_cell_setting 'triclinic'
loop_
_space_group_symop_operation_xyz
x,y,z
-x,-y,-z
loop_
_atom_site_type_symbol
_atom_site_label
_atom_site_fract_x
_atom_site_fract_y
_atom_site_fract_z
Si Si1 0.286214 0.319184 0.480496
Si Si2 0.713238 0.176409 0.101556
Si Si3 0.844874 0.307903 0.176863
Si Si4 0.782616 0.725836 0.895245
Si Si5 0.699459 0.931998 0.459862
Si Si6 0.509604 0.808222 0.073677
Si Si7 0.052189 0.211577 0.859343
O O1 0.215616 0.517316 0.633856
O O2 0.187144 0.374680 0.329395
O O3 0.530486 0.084383 0.381538
O O4 0.240471 0.258655 0.578848
O O5 0.703868 0.327993 0.201009
O O6 0.771753 0.050960 0.208419
O O7 0.529217 0.285496 0.057232
O O8 0.924189 0.949427 0.896787
O O9 0.860714 0.330884 0.994284
O O10 0.626255 0.973792 0.937587
O O11 0.715399 0.683410 0.993475
O O12 0.919713 0.689591 0.985726
O O13 0.582809 0.098261 0.698426
O O14 0.891350 0.817129 0.341617
#
# Coordination Sequence:
#
# PCOD9081167 Si02
#       7
#     2   2   2   2   2   2   2
#     4  10  19  31  50  77 102 131 159 204 245 300
#     4   8  17  36  55  67  97 133 171 204 235 286
#     4   9  19  34  55  70  99 131 173 198 242 285
#     4   9  16  28  51  76  98 124 168 203 248 280
#     4  10  19  31  50  75 106 127 160 199 257 293
#     4   9  16  31  52  73  97 133 160 206 243 290
#     4   9  17  33  53  74 101 131 158 207 247 293
#
# _framework density 23.659020999999999
#
# number of rings (size 3 to 8) (size 9 to 14) (size 15 to 20)
#    0.857    2.000    0.000    4.286    0.000    1.143 
#    0.000    4.286    0.000    0.000    0.000    0.000 
#    0.000    0.000    0.000    0.000    0.000    0.000 
#
# Total GULP energy -78036.541703 kJ/mol
# GULP energy per Si atom -5574.038693 kJ/mol
# Density = 2.360517 g / cm^3
# Si number density = 23.659021 Si / 1000 Ang^3
#
#
#
# Elastic Constant Matrix: (Units=GPa)
#
#
# Indices 1 2 3 4 5 6 
#
# 1 122.6671 36.6106 22.4379 -8.0491 -2.8309 35.7098
# 2 36.6106 65.7242 26.1072 -7.0878 5.6264 4.6960
# 3 22.4379 26.1072 88.4895 -11.3782 -9.8161 25.2720
# 4 -8.0491 -7.0878 -11.3782 29.9524 10.2139 0.3732
# 5 -2.8309 5.6264 -9.8161 10.2139 21.3981 2.1249
# 6 35.7098 4.6960 25.2720 0.3732 2.1249 54.4179
#
#
#
# Elastic Compliance Matrix: (Units=1/GPa)
#
#
# Indices 1 2 3 4 5 6 
#
# 1 0.012877 -0.007824 0.002328 0.000779 0.005358 -0.009071
# 2 -0.007824 0.024081 -0.008132 0.005313 -0.014364 0.007357
# 3 0.002328 -0.008132 0.017113 0.001785 0.010357 -0.009190
# 4 0.000779 0.005313 0.001785 0.042600 -0.020682 -0.001283
# 5 0.005358 -0.014364 0.010357 -0.020682 0.066790 -0.009552
# 6 -0.009071 0.007357 -0.009190 -0.001283 -0.009552 0.028343
#
#
# Mechanical properties :
#
#
# Convention : Reuss Voigt Hill
#
# Bulk Modulus (GPa) = 37.29372 49.68802 43.49087
# Shear Modulus (GPa) = 21.93013 33.93535 27.93274
#
# Velocity S-wave (km/s) = 3.04785 3.79139 3.43977
# Velocity P-wave (km/s) = 5.30877 6.34141 5.84793
#
# Compressibility (1/GPa) = 0.02681417
#
# Stress axis : x y z
#
# Youngs Moduli (GPa) = 77.65952 41.52727 58.43653
#
# Poissons Ratio (x) = 0.32491 -0.13606
# Poissons Ratio (y) = 0.60762 0.47521
# Poissons Ratio (z) = -0.18081 0.33770
#
# Static dielectric constant tensor:
#      x y z
#    x 1.966900 -0.113520 -0.093040 
#    y -0.113520 2.040470 0.055950 
#    z -0.093040 0.055950 1.965380 
# 
# From -- ./inp_files/303659.got.cif
#   From: 2010.05.17/outbox.cif.g08.bks.cpg/sg2_152_cif.got.tgz:303659.got - 2010.06.03 11:33:40.
