data_PCOD9081711
_publ_section_title
;
Structure prediction by ZEFSAII (Michael W. Deem and Ramdas Pophale) SiO2 
 PCOD9081711
Probable space group: P -1
;
_chemical_formula_sum "Si O2"
_cell_formula_units_Z 16
_cell_length_a 10.119597
_cell_length_b 11.064322
_cell_length_c 7.984802
_cell_angle_alpha 108.454809
_cell_angle_beta 125.264469
_cell_angle_gamma 87.752758
_cell_volume 680.434342
_symmetry_space_group_name_H-M "P -1"
_symmetry_group_IT_number 2
_symmetry_cell_setting 'triclinic'
loop_
_space_group_symop_operation_xyz
x,y,z
-x,-y,-z
loop_
_atom_site_type_symbol
_atom_site_label
_atom_site_fract_x
_atom_site_fract_y
_atom_site_fract_z
Si Si1 0.771559 0.988748 0.868569
Si Si2 0.165788 0.008863 0.469829
Si Si3 0.443039 0.341900 0.174085
Si Si4 0.160970 0.664868 0.270840
Si Si5 0.985895 0.770841 0.874606
Si Si6 0.578515 0.121530 0.288220
Si Si7 0.701024 0.562746 0.567814
Si Si8 0.900522 0.770754 0.295697
O O1 0.763003 0.001780 0.667079
O O2 0.594327 0.951528 0.802530
O O3 0.875788 0.873037 0.911001
O O4 0.870669 0.127549 0.065345
O O5 0.137948 0.154194 0.535243
O O6 0.297476 0.977536 0.689942
O O7 0.002353 0.900344 0.331224
O O8 0.537465 0.222087 0.164567
O O9 0.574718 0.475774 0.310364
O O10 0.393844 0.354896 0.340540
O O11 0.270693 0.306043 0.936664
O O12 0.316932 0.779267 0.459535
O O13 0.226412 0.533464 0.292980
O O14 0.033694 0.678776 0.334961
O O15 0.069270 0.695381 0.048275
O O16 0.856103 0.657165 0.644502
#
# Coordination Sequence:
#
# PCOD9081711 Si02
#       8
#     2   2   2   2   2   2   2   2
#     4  11  20  34  54  80 116 132 171 223 266 324
#     4  10  21  33  54  76 111 150 165 215 264 323
#     4  10  19  32  54  81 107 135 173 232 260 305
#     4  10  19  33  56  81 108 134 177 223 259 311
#     4  11  20  32  54  84 104 140 170 222 269 314
#     4  10  19  33  52  84 111 132 174 218 270 314
#     4  10  19  33  53  84 104 134 180 223 274 288
#     4  10  19  36  51  79 109 140 182 207 266 316
#
# _framework density 23.514393999999999
#
# number of rings (size 3 to 8) (size 9 to 14) (size 15 to 20)
#    0.000    1.750    5.000    0.750    1.750    0.500 
#    0.000    0.000    0.000    1.500    0.000    0.000 
#    0.000    0.000    0.000    0.000    0.000    0.000 
#
# Total GULP energy -89184.149371 kJ/mol
# GULP energy per Si atom -5574.009336 kJ/mol
# Density = 2.346087 g / cm^3
# Si number density = 23.514394 Si / 1000 Ang^3
#
#
#
# Elastic Constant Matrix: (Units=GPa)
#
#
# Indices 1 2 3 4 5 6 
#
# 1 31.4080 19.2277 38.8381 7.2838 27.5672 1.8686
# 2 19.2277 95.6442 38.2694 -9.8785 17.8692 -0.9499
# 3 38.8381 38.2694 142.9038 31.2683 50.9409 6.8374
# 4 7.2838 -9.8785 31.2683 45.5462 5.8370 19.9877
# 5 27.5672 17.8692 50.9409 5.8370 43.9181 7.6754
# 6 1.8686 -0.9499 6.8374 19.9877 7.6754 27.3318
#
#
#
# Elastic Compliance Matrix: (Units=1/GPa)
#
#
# Indices 1 2 3 4 5 6 
#
# 1 0.085754 -0.009814 0.001511 -0.020221 -0.052932 0.023070
# 2 -0.009814 0.014489 -0.005586 0.010877 0.006561 -0.007225
# 3 0.001511 -0.005586 0.018403 -0.017432 -0.020061 0.013481
# 4 -0.020221 0.010877 -0.017432 0.054029 0.028542 -0.041405
# 5 -0.052932 0.006561 -0.020061 0.028542 0.078765 -0.034126
# 6 0.023070 -0.007225 0.013481 -0.041405 -0.034126 0.071250
#
#
# Mechanical properties :
#
#
# Convention : Reuss Voigt Hill
#
# Bulk Modulus (GPa) = 11.00490 51.40294 31.20392
# Shear Modulus (GPa) = 13.13174 34.93393 24.03284
#
# Velocity S-wave (km/s) = 2.36573 3.85858 3.20042
# Velocity P-wave (km/s) = 3.48604 6.46214 5.19190
#
# Compressibility (1/GPa) = 0.09086865
#
# Stress axis : x y z
#
# Youngs Moduli (GPa) = 11.66130 69.01657 54.33756
#
# Poissons Ratio (x) = 0.67734 -0.08212
# Poissons Ratio (y) = 0.11445 0.30353
# Poissons Ratio (z) = -0.01762 0.38553
#
# Static dielectric constant tensor:
#      x y z
#    x 1.923390 -0.012440 -0.027390 
#    y -0.012440 1.928610 0.001990 
#    z -0.027390 0.001990 1.954940 
# 
# From -- ./inp_files/424147.got.cif
#   From: 2010.05.17/outbox.cif.g08.bks.cpg/sg2_213_cif.got.tgz:424147.got - 2010.06.03 11:33:40.
