data_PCOD9081649
_publ_section_title
;
Structure prediction by ZEFSAII (Michael W. Deem and Ramdas Pophale) SiO2 
 PCOD9081649
Probable space group: P -1
;
_chemical_formula_sum "Si O2"
_cell_formula_units_Z 16
_cell_length_a 13.879819
_cell_length_b 11.535020
_cell_length_c 22.871251
_cell_angle_alpha 32.574438
_cell_angle_beta 148.545501
_cell_angle_gamma 126.485915
_cell_volume 922.706756
_symmetry_space_group_name_H-M "P -1"
_symmetry_group_IT_number 2
_symmetry_cell_setting 'triclinic'
loop_
_space_group_symop_operation_xyz
x,y,z
-x,-y,-z
loop_
_atom_site_type_symbol
_atom_site_label
_atom_site_fract_x
_atom_site_fract_y
_atom_site_fract_z
Si Si1 0.121080 0.211575 0.940595
Si Si2 0.528005 0.355032 0.484005
Si Si3 0.244662 0.889782 0.681906
Si Si4 0.362047 0.468951 0.008418
Si Si5 0.893893 0.499854 0.021327
Si Si6 0.678414 0.734682 0.693296
Si Si7 0.321483 0.331801 0.501410
Si Si8 0.051047 0.056230 0.097597
O O1 0.897708 0.438754 0.720252
O O2 0.279448 0.324948 0.982128
O O3 0.125668 0.084695 0.058769
O O4 0.127289 0.026293 0.972200
O O5 0.410465 0.380986 0.352291
O O6 0.422012 0.263556 0.518290
O O7 0.540573 0.582904 0.423268
O O8 0.761465 0.156197 0.682778
O O9 0.393449 0.700705 0.790622
O O10 0.294420 0.116344 0.608443
O O11 0.307198 0.725143 0.842172
O O12 0.000000 0.000000 0.500000
O O13 0.236512 0.502021 0.989095
O O14 0.109044 0.267777 0.219872
O O15 0.749485 0.584558 0.853870
O O16 0.975743 0.702141 0.988336
O O17 0.500000 0.000000 0.500000
#
# Coordination Sequence:
#
# PCOD9081649 Si02
#       8
#     2   2   2   2   2   2   2   2
#     4   9  16  28  47  74 107 140 173 211 263 326
#     4  10  19  32  53  80 111 144 176 222 280 328
#     4  11  22  34  53  82 111 144 184 224 271 328
#     4  10  21  36  53  76 111 148 183 224 273 324
#     4  10  21  36  53  76 111 148 183 224 273 324
#     4  11  22  34  53  82 111 144 184 224 271 328
#     4  10  19  32  53  80 111 144 176 222 280 328
#     4   9  16  28  47  74 107 140 173 211 263 326
#
# _framework density 17.340287
#
# number of rings (size 3 to 8) (size 9 to 14) (size 15 to 20)
#    0.000    2.000    2.500    3.000    0.000    3.000 
#    0.000    0.000    0.000    0.750    0.000    1.750 
#    0.000    0.000    0.000    0.000    0.000    0.000 
#
# Total GULP energy -89134.961051 kJ/mol
# GULP energy per Si atom -5570.935066 kJ/mol
# Density = 1.730082 g / cm^3
# Si number density = 17.340287 Si / 1000 Ang^3
#
#
#
# Elastic Constant Matrix: (Units=GPa)
#
#
# Indices 1 2 3 4 5 6 
#
# 1 95.9527 39.6882 43.9714 3.5108 2.3273 2.4427
# 2 39.6882 84.8922 29.1947 10.2918 -21.0985 -0.1568
# 3 43.9714 29.1947 118.3997 14.0243 10.6790 -0.6447
# 4 3.5108 10.2918 14.0243 25.4564 1.4244 -7.4819
# 5 2.3273 -21.0985 10.6790 1.4244 30.5158 -0.6199
# 6 2.4427 -0.1568 -0.6447 -7.4819 -0.6199 25.9461
#
#
#
# Elastic Compliance Matrix: (Units=1/GPa)
#
#
# Indices 1 2 3 4 5 6 
#
# 1 0.015275 -0.007538 -0.003705 0.003032 -0.005238 -0.000826
# 2 -0.007538 0.021427 -0.003167 -0.007078 0.016810 -0.000879
# 3 -0.003705 -0.003167 0.011660 -0.004553 -0.005792 -0.000832
# 4 0.003032 -0.007078 -0.004553 0.048484 -0.005522 0.013408
# 5 -0.005238 0.016810 -0.005792 -0.005522 0.047076 -0.000017
# 6 -0.000826 -0.000879 -0.000832 0.013408 -0.000017 0.042459
#
#
# Mechanical properties :
#
#
# Convention : Reuss Voigt Hill
#
# Bulk Modulus (GPa) = 51.17173 58.32815 54.74994
# Shear Modulus (GPa) = 22.55151 28.80967 25.68059
#
# Velocity S-wave (km/s) = 3.61019 4.08049 3.85252
# Velocity P-wave (km/s) = 6.85218 7.47736 7.17158
#
# Compressibility (1/GPa) = 0.01954204
#
# Stress axis : x y z
#
# Youngs Moduli (GPa) = 65.46730 46.67008 85.76351
#
# Poissons Ratio (x) = 0.35180 0.31778
# Poissons Ratio (y) = 0.49349 0.27158
# Poissons Ratio (z) = 0.24258 0.14779
#
# Static dielectric constant tensor:
#      x y z
#    x 1.603080 -0.007530 0.052600 
#    y -0.007530 1.628490 -0.005200 
#    z 0.052600 -0.005200 1.653720 
# 
# From -- ./inp_files/431526.got.cif
#   From: 2010.05.17/outbox.cif.g08.bks.cpg/sg2_216_cif.got.tgz:431526.got - 2010.06.03 11:33:40.
