data_PCOD9081206
_publ_section_title
;
Structure prediction by ZEFSAII (Michael W. Deem and Ramdas Pophale) SiO2 
 PCOD9081206
Probable space group: P -1
;
_chemical_formula_sum "Si O2"
_cell_formula_units_Z 16
_cell_length_a 8.111107
_cell_length_b 20.971306
_cell_length_c 9.818930
_cell_angle_alpha 135.698958
_cell_angle_beta 144.873305
_cell_angle_gamma 66.261011
_cell_volume 597.763553
_symmetry_space_group_name_H-M "P -1"
_symmetry_group_IT_number 2
_symmetry_cell_setting 'triclinic'
loop_
_space_group_symop_operation_xyz
x,y,z
-x,-y,-z
loop_
_atom_site_type_symbol
_atom_site_label
_atom_site_fract_x
_atom_site_fract_y
_atom_site_fract_z
Si Si1 0.142857 0.985901 0.431259
Si Si2 0.766496 0.511806 0.088887
Si Si3 0.801739 0.737268 0.170083
Si Si4 0.615071 0.488732 0.412712
Si Si5 0.282603 0.740292 0.272931
Si Si6 0.352102 0.013127 0.065470
Si Si7 0.932178 0.764173 0.832887
Si Si8 0.206262 0.757327 0.723325
O O1 0.515229 0.025480 0.777488
O O2 0.000000 0.000000 0.500000
O O3 0.020487 0.026350 0.282192
O O4 0.991964 0.864967 0.112799
O O5 0.004734 0.471909 0.255731
O O6 0.008232 0.631740 0.401261
O O7 0.500000 0.500000 0.000000
O O8 0.563504 0.470191 0.749359
O O9 0.001085 0.714775 0.153364
O O10 0.069421 0.790024 0.548443
O O11 0.541601 0.633262 0.905915
O O12 0.583062 0.783564 0.022558
O O13 0.500000 0.500000 0.500000
O O14 0.491848 0.865021 0.613068
O O15 0.554837 0.707424 0.451672
O O16 0.109034 0.713999 0.968577
O O17 0.500000 0.000000 0.000000
O O18 0.110496 0.790481 0.849945
#
# Coordination Sequence:
#
# PCOD9081206 Si02
#       8
#     2   2   2   2   2   2   2   2
#     4   8  14  25  42  68  94 118 152 203 246 278
#     4  10  21  36  54  75 101 135 171 209 253 299
#     4  10  21  36  51  73 107 138 163 203 261 309
#     4  10  21  36  54  75 101 135 171 209 253 299
#     4  10  19  31  51  78  98 127 173 211 244 292
#     4   8  14  25  42  68  94 118 152 203 246 278
#     4  10  19  31  51  78  98 127 173 211 244 292
#     4  10  21  36  51  73 107 138 163 203 261 309
#
# _framework density 26.766435999999999
#
# number of rings (size 3 to 8) (size 9 to 14) (size 15 to 20)
#    0.000    2.500    0.000    2.250    0.000    2.000 
#    0.000    0.000    0.000    0.000    0.000   84.000 
#    0.000    0.000    0.000    0.000    0.000    0.000 
#
# Total GULP energy -89470.411876 kJ/mol
# GULP energy per Si atom -5591.900742 kJ/mol
# Density = 2.670551 g / cm^3
# Si number density = 26.766436 Si / 1000 Ang^3
#
#
#
# Elastic Constant Matrix: (Units=GPa)
#
#
# Indices 1 2 3 4 5 6 
#
# 1 114.6136 22.8996 42.9702 -33.2589 -3.3807 1.1180
# 2 22.8996 121.6993 67.1645 -54.5649 -1.2414 13.0076
# 3 42.9702 67.1645 250.6224 -64.6506 6.8611 16.4449
# 4 -33.2589 -54.5649 -64.6506 73.4087 2.1052 -8.8210
# 5 -3.3807 -1.2414 6.8611 2.1052 40.2773 -9.3295
# 6 1.1180 13.0076 16.4449 -8.8210 -9.3295 34.2339
#
#
#
# Elastic Compliance Matrix: (Units=1/GPa)
#
#
# Indices 1 2 3 4 5 6 
#
# 1 0.010237 0.000321 -0.000865 0.004246 0.001109 0.001355
# 2 0.000321 0.012786 -0.001169 0.008361 -0.000337 -0.002245
# 3 -0.000865 -0.001169 0.005490 0.003413 -0.001622 -0.001728
# 4 0.004246 0.008361 0.003413 0.024939 -0.000993 0.001201
# 5 0.001109 -0.000337 -0.001622 -0.000993 0.027091 0.007998
# 6 0.001355 -0.002245 -0.001728 0.001201 0.007998 0.033339
#
#
# Mechanical properties :
#
#
# Convention : Reuss Voigt Hill
#
# Bulk Modulus (GPa) = 39.85928 83.66710 61.76319
# Shear Modulus (GPa) = 39.78686 53.17740 46.48213
#
# Velocity S-wave (km/s) = 3.85963 4.46210 4.17175
# Velocity P-wave (km/s) = 5.89798 7.60744 6.80659
#
# Compressibility (1/GPa) = 0.02508826
#
# Stress axis : x y z
#
# Youngs Moduli (GPa) = 97.68778 78.20764 182.15556
#
# Poissons Ratio (x) = -0.02514 0.15762
# Poissons Ratio (y) = -0.03140 0.21285
# Poissons Ratio (z) = 0.08453 0.09139
#
# Static dielectric constant tensor:
#      x y z
#    x 1.921610 -0.056570 0.009960 
#    y -0.056570 2.047940 0.045860 
#    z 0.009960 0.045860 2.135660 
# 
# From -- ./inp_files/13604.got.cif
#   From: 2010.05.17/outbox.cif.g08.bks.cpg/sg2_7_cif.got.tgz:13604.got - 2010.06.03 11:33:40.
