data_PCOD9081990
_publ_section_title
;
Structure prediction by ZEFSAII (Michael W. Deem and Ramdas Pophale) SiO2 
 PCOD9081990
Probable space group: P -1
;
_chemical_formula_sum "Si O2"
_cell_formula_units_Z 16
_cell_length_a 11.284441
_cell_length_b 8.311546
_cell_length_c 8.547947
_cell_angle_alpha 64.461655
_cell_angle_beta 105.895476
_cell_angle_gamma 105.965143
_cell_volume 684.253288
_symmetry_space_group_name_H-M "P -1"
_symmetry_group_IT_number 2
_symmetry_cell_setting 'triclinic'
loop_
_space_group_symop_operation_xyz
x,y,z
-x,-y,-z
loop_
_atom_site_type_symbol
_atom_site_label
_atom_site_fract_x
_atom_site_fract_y
_atom_site_fract_z
Si Si1 0.178452 0.339579 0.217153
Si Si2 0.389882 0.649945 0.047100
Si Si3 0.302397 0.995813 0.856278
Si Si4 0.779400 0.230402 0.555365
Si Si5 0.148167 0.032384 0.070913
Si Si6 0.421094 0.600218 0.708094
Si Si7 0.364373 0.135678 0.504210
Si Si8 0.058682 0.820999 0.640039
O O1 0.262317 0.522104 0.111440
O O2 0.256892 0.257303 0.412244
O O3 0.040182 0.324568 0.240636
O O4 0.173005 0.192255 0.138888
O O5 0.508580 0.570781 0.186964
O O6 0.378780 0.849278 0.010490
O O7 0.395768 0.643043 0.862350
O O8 0.180008 0.888275 0.762943
O O9 0.386069 0.102586 0.706215
O O10 0.239243 0.089317 0.933294
O O11 0.817886 0.152674 0.765611
O O12 0.703397 0.394010 0.440895
O O13 0.897927 0.259485 0.470607
O O14 0.688723 0.055010 0.518853
O O15 0.000000 0.000000 0.000000
O O16 0.523855 0.756194 0.601507
O O17 0.000000 0.000000 0.500000
#
# Coordination Sequence:
#
# PCOD9081990 Si02
#       8
#     2   2   2   2   2   2   2   2
#     4  10  20  36  60  88 117 151 185 237 293 339
#     4  10  22  36  61  89 116 146 192 248 280 337
#     4  11  20  35  58  91 113 148 194 236 290 333
#     4  10  19  32  59  87 110 153 192 234 278 341
#     4  11  21  36  58  86 123 149 187 239 286 341
#     4  10  19  38  60  83 115 149 201 236 282 329
#     4   9  18  33  63  85 109 150 199 237 270 339
#     4  11  16  33  57  86 111 145 196 236 270 338
#
# _framework density 23.383153
#
# number of rings (size 3 to 8) (size 9 to 14) (size 15 to 20)
#    0.000    1.750    7.500    0.375    0.000    0.500 
#    0.000    1.250    5.500    1.500    0.000    0.000 
#    0.000    0.000    0.000    0.000    0.000    0.000 
#
# Total GULP energy -89431.600918 kJ/mol
# GULP energy per Si atom -5589.475057 kJ/mol
# Density = 2.332993 g / cm^3
# Si number density = 23.383153 Si / 1000 Ang^3
#
#
#
# Elastic Constant Matrix: (Units=GPa)
#
#
# Indices 1 2 3 4 5 6 
#
# 1 84.0129 18.8702 47.2589 -14.1632 6.5442 -0.2102
# 2 18.8702 39.9084 23.1090 -5.6145 2.1935 0.7540
# 3 47.2589 23.1090 123.8445 -17.7444 2.5689 3.5173
# 4 -14.1632 -5.6145 -17.7444 16.7074 -2.1261 0.3502
# 5 6.5442 2.1935 2.5689 -2.1261 48.5729 -6.9142
# 6 -0.2102 0.7540 3.5173 0.3502 -6.9142 18.2777
#
#
#
# Elastic Compliance Matrix: (Units=1/GPa)
#
#
# Indices 1 2 3 4 5 6 
#
# 1 0.016807 -0.004169 -0.004492 0.007884 -0.001416 0.000543
# 2 -0.004169 0.029469 -0.003499 0.002595 -0.000593 -0.000865
# 3 -0.004492 -0.003499 0.011555 0.007355 0.000159 -0.002212
# 4 0.007884 0.002595 0.007355 0.075448 0.001400 -0.002348
# 5 -0.001416 -0.000593 0.000159 0.001400 0.022038 0.008287
# 6 0.000543 -0.000865 -0.002212 -0.002348 0.008287 0.058359
#
#
# Mechanical properties :
#
#
# Convention : Reuss Voigt Hill
#
# Bulk Modulus (GPa) = 29.84154 47.36024 38.60089
# Shear Modulus (GPa) = 20.06688 27.28011 23.67350
#
# Velocity S-wave (km/s) = 2.93264 3.41934 3.18530
# Velocity P-wave (km/s) = 4.92513 5.99059 5.48380
#
# Compressibility (1/GPa) = 0.03351034
#
# Stress axis : x y z
#
# Youngs Moduli (GPa) = 59.49888 33.93397 86.54219
#
# Poissons Ratio (x) = 0.14148 0.38875
# Poissons Ratio (y) = 0.24806 0.30283
# Poissons Ratio (z) = 0.26727 0.11874
#
# Static dielectric constant tensor:
#      x y z
#    x 1.917620 0.005210 0.024590 
#    y 0.005210 1.878690 -0.020790 
#    z 0.024590 -0.020790 1.900630 
# 
# From -- ./inp_files/204403.got.cif
#   From: 2010.05.17/outbox.cif.g08.bks.cpg/sg2_103_cif.got.tgz:204403.got - 2010.06.03 11:33:40.
