data_PCOD9081446
_publ_section_title
;
Structure prediction by ZEFSAII (Michael W. Deem and Ramdas Pophale) SiO2 
 PCOD9081446
Probable space group: P -1
;
_chemical_formula_sum "Si O2"
_cell_formula_units_Z 16
_cell_length_a 9.966133
_cell_length_b 19.511057
_cell_length_c 10.920469
_cell_angle_alpha 32.899043
_cell_angle_beta 144.879883
_cell_angle_gamma 131.236009
_cell_volume 660.942302
_symmetry_space_group_name_H-M "P -1"
_symmetry_group_IT_number 2
_symmetry_cell_setting 'triclinic'
loop_
_space_group_symop_operation_xyz
x,y,z
-x,-y,-z
loop_
_atom_site_type_symbol
_atom_site_label
_atom_site_fract_x
_atom_site_fract_y
_atom_site_fract_z
Si Si1 0.222555 0.902483 0.346613
Si Si2 0.183827 0.798287 0.950186
Si Si3 0.832849 0.554668 0.423497
Si Si4 0.588488 0.061081 0.294336
Si Si5 0.985552 0.629659 0.869044
Si Si6 0.790176 0.681804 0.969241
Si Si7 0.859225 0.735994 0.367676
Si Si8 0.507163 0.346726 0.410837
O O1 0.283622 0.923988 0.502856
O O2 0.103462 0.772294 0.436979
O O3 0.451069 0.934278 0.393402
O O4 0.000000 0.000000 0.000000
O O5 0.369034 0.765310 0.246012
O O6 0.938353 0.786546 0.857061
O O7 0.250408 0.913785 0.741109
O O8 0.182780 0.682152 0.024111
O O9 0.809557 0.680963 0.132069
O O10 0.804553 0.603738 0.466092
O O11 0.636700 0.468626 0.358662
O O12 0.065442 0.458229 0.731920
O O13 0.369894 0.168860 0.964960
O O14 0.918498 0.732206 0.560186
O O15 0.756866 0.628582 0.780714
O O16 0.000000 0.500000 0.000000
O O17 0.534831 0.678631 0.724848
#
# Coordination Sequence:
#
# PCOD9081446 Si02
#       8
#     2   2   2   2   2   2   2   2
#     4   9  20  35  53  77 106 132 167 213 268 321
#     4  10  19  32  52  73 101 135 173 211 256 311
#     4  10  21  34  51  71 105 146 181 213 249 305
#     4  10  19  34  54  79 103 133 172 212 267 323
#     4  11  21  29  45  77 112 137 166 207 257 311
#     4   9  20  36  49  73 102 143 189 214 243 291
#     4  11  20  32  51  78 108 138 167 214 265 308
#     4  10  19  32  48  70  99 141 176 213 246 296
#
# _framework density 24.207861000000001
#
# number of rings (size 3 to 8) (size 9 to 14) (size 15 to 20)
#    0.000    2.000    2.500    2.625    1.750    2.000 
#    0.000    0.000    0.000    0.750    0.000    8.750 
#    0.000    0.000    0.000    0.000    0.000    0.000 
#
# Total GULP energy -89231.339002 kJ/mol
# GULP energy per Si atom -5576.958688 kJ/mol
# Density = 2.415276 g / cm^3
# Si number density = 24.207861 Si / 1000 Ang^3
#
#
#
# Elastic Constant Matrix: (Units=GPa)
#
#
# Indices 1 2 3 4 5 6 
#
# 1 65.3174 23.4645 21.6879 0.6907 -27.5470 29.3055
# 2 23.4645 97.2672 39.2842 13.5887 -12.3249 24.9873
# 3 21.6879 39.2842 125.6785 33.8385 -38.1152 -0.8771
# 4 0.6907 13.5887 33.8385 40.3316 -3.8669 -7.0327
# 5 -27.5470 -12.3249 -38.1152 -3.8669 38.6072 -8.9715
# 6 29.3055 24.9873 -0.8771 -7.0327 -8.9715 43.6469
#
#
#
# Elastic Compliance Matrix: (Units=1/GPa)
#
#
# Indices 1 2 3 4 5 6 
#
# 1 0.030498 -0.000918 0.001141 -0.002268 0.018537 -0.016484
# 2 -0.000918 0.014696 -0.004573 -0.002933 -0.002851 -0.008947
# 3 0.001141 -0.004573 0.016801 -0.010408 0.015771 0.003754
# 4 -0.002268 -0.002933 -0.010408 0.035049 -0.007678 0.007061
# 5 0.018537 -0.002851 0.015771 -0.007678 0.052815 -0.000879
# 6 -0.016484 -0.008947 0.003754 0.007061 -0.000879 0.040134
#
#
# Mechanical properties :
#
#
# Convention : Reuss Voigt Hill
#
# Bulk Modulus (GPa) = 18.76291 50.79292 34.77791
# Shear Modulus (GPa) = 23.09924 38.10558 30.60241
#
# Velocity S-wave (km/s) = 3.09237 3.97180 3.55935
# Velocity P-wave (km/s) = 4.52967 6.48545 5.59370
#
# Compressibility (1/GPa) = 0.05329664
#
# Stress axis : x y z
#
# Youngs Moduli (GPa) = 32.78872 68.04452 59.52151
#
# Poissons Ratio (x) = 0.06247 -0.06794
# Poissons Ratio (y) = 0.03010 0.27217
# Poissons Ratio (z) = -0.03743 0.31114
#
# Static dielectric constant tensor:
#      x y z
#    x 2.019080 0.017410 -0.072460 
#    y 0.017410 2.002890 -0.025260 
#    z -0.072460 -0.025260 2.001570 
# 
# From -- ./inp_files/67312.got.cif
#   From: 2010.05.17/outbox.cif.g08.bks.cpg/sg2_34_cif.got.tgz:67312.got - 2010.06.03 11:33:40.
