data_PCOD9081889
_publ_section_title
;
Structure prediction by ZEFSAII (Michael W. Deem and Ramdas Pophale) SiO2 
 PCOD9081889
Probable space group: P -1
;
_chemical_formula_sum "Si O2"
_cell_formula_units_Z 16
_cell_length_a 13.898571
_cell_length_b 9.477690
_cell_length_c 14.289938
_cell_angle_alpha 148.074559
_cell_angle_beta 141.004682
_cell_angle_gamma 38.619693
_cell_volume 583.003772
_symmetry_space_group_name_H-M "P -1"
_symmetry_group_IT_number 2
_symmetry_cell_setting 'triclinic'
loop_
_space_group_symop_operation_xyz
x,y,z
-x,-y,-z
loop_
_atom_site_type_symbol
_atom_site_label
_atom_site_fract_x
_atom_site_fract_y
_atom_site_fract_z
Si Si1 0.378229 0.869059 0.432665
Si Si2 0.054044 0.412401 0.137986
Si Si3 0.165579 0.811775 0.791115
Si Si4 0.687238 0.309405 0.529136
Si Si5 0.743195 0.879735 0.705233
Si Si6 0.321048 0.521822 0.914800
Si Si7 0.865984 0.025230 0.334700
Si Si8 0.474678 0.257744 0.055729
O O1 0.500000 0.500000 0.500000
O O2 0.290087 0.896684 0.480760
O O3 0.270127 0.101964 0.406443
O O4 0.414238 0.561136 0.236146
O O5 0.201682 0.502102 0.261297
O O6 0.894782 0.691787 0.150429
O O7 0.109423 0.347436 0.252267
O O8 0.063265 0.117572 0.932898
O O9 0.097664 0.819214 0.640311
O O10 0.346209 0.801753 0.888415
O O11 0.204574 0.569661 0.763550
O O12 0.559380 0.885331 0.594355
O O13 0.712786 0.206110 0.382782
O O14 0.749430 0.176992 0.914711
O O15 0.359061 0.290124 0.895101
O O16 0.500000 0.500000 0.000000
O O17 0.000000 0.000000 0.500000
O O18 0.500000 0.000000 0.000000
#
# Coordination Sequence:
#
# PCOD9081889 Si02
#       8
#     2   2   2   2   2   2   2   2
#     4  10  19  33  56  86 123 153 195 243 308 351
#     4  10  20  37  58  83 117 155 203 243 301 359
#     4  10  19  35  58  80 112 159 202 243 292 361
#     4  11  20  35  57  85 120 153 196 252 299 350
#     4   9  18  33  57  85 113 159 195 244 297 363
#     4   8  17  33  52  83 121 149 198 239 297 361
#     4  10  23  37  56  85 117 158 204 249 300 360
#     4  10  19  32  56  93 126 147 190 251 310 353
#
# _framework density 27.444075999999999
#
# number of rings (size 3 to 8) (size 9 to 14) (size 15 to 20)
#    0.000    2.250    1.250    1.875    1.750    0.000 
#    2.250    0.625    0.000    3.000    0.000   14.875 
#    0.000    0.000    0.000    0.000    0.000    0.000 
#
# Total GULP energy -89488.310655 kJ/mol
# GULP energy per Si atom -5593.019416 kJ/mol
# Density = 2.738161 g / cm^3
# Si number density = 27.444076 Si / 1000 Ang^3
#
#
#
# Elastic Constant Matrix: (Units=GPa)
#
#
# Indices 1 2 3 4 5 6 
#
# 1 71.6957 27.1471 9.9867 -8.9901 -13.6839 7.2317
# 2 27.1471 183.0570 48.3542 -40.2343 -23.1574 32.3665
# 3 9.9867 48.3542 139.0884 -14.3332 -31.1264 6.0381
# 4 -8.9901 -40.2343 -14.3332 53.8029 6.5996 -19.6373
# 5 -13.6839 -23.1574 -31.1264 6.5996 31.9696 2.0244
# 6 7.2317 32.3665 6.0381 -19.6373 2.0244 48.9147
#
#
#
# Elastic Compliance Matrix: (Units=1/GPa)
#
#
# Indices 1 2 3 4 5 6 
#
# 1 0.015839 -0.001356 0.000963 0.000456 0.006746 -0.001659
# 2 -0.001356 0.007851 -0.001384 0.003596 0.003239 -0.003514
# 3 0.000963 -0.001384 0.009625 0.000392 0.008739 -0.000619
# 4 0.000456 0.003596 0.000392 0.024450 -0.002335 0.007417
# 5 0.006746 0.003239 0.008739 -0.002335 0.045950 -0.007059
# 6 -0.001659 -0.003514 -0.000619 0.007417 -0.007059 0.026360
#
#
# Mechanical properties :
#
#
# Convention : Reuss Voigt Hill
#
# Bulk Modulus (GPa) = 33.60258 62.75747 48.18003
# Shear Modulus (GPa) = 34.83106 47.49432 41.16269
#
# Velocity S-wave (km/s) = 3.56640 4.16454 3.87702
# Velocity P-wave (km/s) = 5.40643 6.78540 6.13478
#
# Compressibility (1/GPa) = 0.02975962
#
# Stress axis : x y z
#
# Youngs Moduli (GPa) = 63.13413 127.37417 103.90086
#
# Poissons Ratio (x) = 0.17277 -0.10004
# Poissons Ratio (y) = 0.08563 0.14380
# Poissons Ratio (z) = -0.06079 0.17629
#
# Static dielectric constant tensor:
#      x y z
#    x 2.628750 -0.090130 -0.138630 
#    y -0.090130 2.310520 0.037960 
#    z -0.138630 0.037960 2.277420 
# 
# From -- ./inp_files/302416.got.cif
#   From: 2010.05.17/outbox.cif.g08.bks.cpg/sg2_152_cif.got.tgz:302416.got - 2010.06.03 11:33:40.
