data_PCOD9081854
_publ_section_title
;
Structure prediction by ZEFSAII (Michael W. Deem and Ramdas Pophale) SiO2 
 PCOD9081854
Probable space group: P -1
;
_chemical_formula_sum "Si O2"
_cell_formula_units_Z 16
_cell_length_a 9.139238
_cell_length_b 14.092128
_cell_length_c 11.611308
_cell_angle_alpha 56.216809
_cell_angle_beta 125.865886
_cell_angle_gamma 131.736342
_cell_volume 869.580875
_symmetry_space_group_name_H-M "P -1"
_symmetry_group_IT_number 2
_symmetry_cell_setting 'triclinic'
loop_
_space_group_symop_operation_xyz
x,y,z
-x,-y,-z
loop_
_atom_site_type_symbol
_atom_site_label
_atom_site_fract_x
_atom_site_fract_y
_atom_site_fract_z
Si Si1 0.616335 0.055452 0.637027
Si Si2 0.340123 0.678289 0.485476
Si Si3 0.985723 0.358562 0.819008
Si Si4 0.439800 0.180301 0.076268
Si Si5 0.091545 0.209308 0.796080
Si Si6 0.215716 0.616751 0.072129
Si Si7 0.404691 0.606440 0.806296
Si Si8 0.525876 0.515764 0.285679
O O1 0.565790 0.165401 0.589656
O O2 0.868648 0.125800 0.688339
O O3 0.500000 0.000000 0.500000
O O4 0.559741 0.941387 0.781082
O O5 0.128914 0.614849 0.358328
O O6 0.319033 0.658090 0.627336
O O7 0.460202 0.599399 0.562025
O O8 0.840670 0.322583 0.886548
O O9 0.031783 0.248952 0.863682
O O10 0.203263 0.490588 0.852797
O O11 0.455655 0.278078 0.120881
O O12 0.231210 0.143105 0.932413
O O13 0.640227 0.270071 0.028625
O O14 0.249952 0.348508 0.711691
O O15 0.353748 0.551295 0.218158
O O16 0.000000 0.500000 0.000000
O O17 0.513538 0.540834 0.826197
#
# Coordination Sequence:
#
# PCOD9081854 Si02
#       8
#     2   2   2   2   2   2   2   2
#     4  11  20  35  59  85 109 143 189 230 270 324
#     4   9  19  34  55  83 108 139 184 230 281 313
#     4  10  19  32  56  84 111 144 180 225 281 328
#     4  11  21  36  55  85 117 141 182 230 273 327
#     4   9  21  34  57  85 112 143 181 230 280 319
#     4  11  22  34  52  84 112 147 184 220 277 333
#     4   9  17  32  56  81 109 137 174 235 274 318
#     4   8  19  34  55  82 111 136 180 231 276 316
#
# _framework density 18.399667999999998
#
# number of rings (size 3 to 8) (size 9 to 14) (size 15 to 20)
#    0.750    1.500    2.500    0.750    3.500    2.000 
#    0.000    2.500    0.000    0.750    0.000    0.000 
#    0.000    0.000    0.000    0.000    0.000    0.000 
#
# Total GULP energy -89075.787469 kJ/mol
# GULP energy per Si atom -5567.236717 kJ/mol
# Density = 1.835779 g / cm^3
# Si number density = 18.399668 Si / 1000 Ang^3
#
#
#
# Elastic Constant Matrix: (Units=GPa)
#
#
# Indices 1 2 3 4 5 6 
#
# 1 66.5469 14.5318 23.3268 -0.3653 10.9870 8.3188
# 2 14.5318 83.9006 51.8657 -5.8822 17.8210 4.2753
# 3 23.3268 51.8657 109.6205 -5.0291 18.1577 9.0182
# 4 -0.3653 -5.8822 -5.0291 39.0107 -4.9781 6.1947
# 5 10.9870 17.8210 18.1577 -4.9781 17.8880 1.4397
# 6 8.3188 4.2753 9.0182 6.1947 1.4397 15.8496
#
#
#
# Elastic Compliance Matrix: (Units=1/GPa)
#
#
# Indices 1 2 3 4 5 6 
#
# 1 0.018043 0.000318 -0.001888 0.000069 -0.008843 -0.007705
# 2 0.000318 0.018659 -0.006920 0.000511 -0.011585 -0.000410
# 3 -0.001888 -0.006920 0.014198 0.000838 -0.005720 -0.005029
# 4 0.000069 0.000511 0.000838 0.028793 0.007625 -0.012597
# 5 -0.008843 -0.011585 -0.005720 0.007625 0.080748 0.000706
# 6 -0.007705 -0.000410 -0.005029 -0.012597 0.000706 0.074968
#
#
# Mechanical properties :
#
#
# Convention : Reuss Voigt Hill
#
# Bulk Modulus (GPa) = 29.48134 48.83517 39.15826
# Shear Modulus (GPa) = 18.96126 25.90592 22.43359
#
# Velocity S-wave (km/s) = 3.21366 3.75634 3.49555
# Velocity P-wave (km/s) = 5.46147 6.73888 6.13352
#
# Compressibility (1/GPa) = 0.03391976
#
# Stress axis : x y z
#
# Youngs Moduli (GPa) = 55.42324 53.59372 70.43328
#
# Poissons Ratio (x) = -0.01703 0.13298
# Poissons Ratio (y) = -0.01762 0.48738
# Poissons Ratio (z) = 0.10464 0.37086
#
# Static dielectric constant tensor:
#      x y z
#    x 1.631540 -0.021150 0.012570 
#    y -0.021150 1.649050 -0.011430 
#    z 0.012570 -0.011430 1.680880 
# 
# From -- ./inp_files/395662.got.cif
#   From: 2010.05.17/outbox.cif.g08.bks.cpg/sg2_198_cif.got.tgz:395662.got - 2010.06.03 11:33:40.
