data_PCOD9081690
_publ_section_title
;
Structure prediction by ZEFSAII (Michael W. Deem and Ramdas Pophale) SiO2 
 PCOD9081690
Probable space group: P -1
;
_chemical_formula_sum "Si O2"
_cell_formula_units_Z 14
_cell_length_a 11.935973
_cell_length_b 16.341436
_cell_length_c 6.202837
_cell_angle_alpha 127.854974
_cell_angle_beta 102.430307
_cell_angle_gamma 53.498512
_cell_volume 746.197878
_symmetry_space_group_name_H-M "P -1"
_symmetry_group_IT_number 2
_symmetry_cell_setting 'triclinic'
loop_
_space_group_symop_operation_xyz
x,y,z
-x,-y,-z
loop_
_atom_site_type_symbol
_atom_site_label
_atom_site_fract_x
_atom_site_fract_y
_atom_site_fract_z
Si Si1 0.864297 0.620320 0.920760
Si Si2 0.542299 0.556257 0.295093
Si Si3 0.731708 0.829760 0.840718
Si Si4 0.696280 0.411878 0.519868
Si Si5 0.606505 0.667454 0.141031
Si Si6 0.532311 0.062132 0.420572
Si Si7 0.002866 0.667749 0.411856
O O1 0.783255 0.709461 0.825650
O O2 0.947383 0.467571 0.671876
O O3 0.747925 0.654482 0.112664
O O4 0.963760 0.652279 0.128318
O O5 0.669725 0.439801 0.301312
O O6 0.398231 0.632169 0.503184
O O7 0.592398 0.632701 0.321662
O O8 0.500000 0.500000 0.000000
O O9 0.597264 0.874153 0.704587
O O10 0.865464 0.784265 0.669783
O O11 0.674061 0.950377 0.172217
O O12 0.860963 0.330513 0.521773
O O13 0.622748 0.557034 0.820701
O O14 0.475774 0.817244 0.294915
O O15 0.500000 0.000000 0.500000
#
# Coordination Sequence:
#
# PCOD9081690 Si02
#       7
#     2   2   2   2   2   2   2
#     4  10  20  33  49  82 113 142 175 219 269 329
#     4   9  19  36  53  81 104 137 180 224 275 313
#     4  11  21  33  51  74 113 151 182 211 265 320
#     4   9  20  34  56  78 108 139 177 224 271 321
#     4  10  19  32  54  75 109 140 179 220 262 314
#     4  11  22  35  50  75 113 148 188 222 250 318
#     4  10  20  32  52  80 113 142 172 220 269 330
#
# _framework density 18.761779000000001
#
# number of rings (size 3 to 8) (size 9 to 14) (size 15 to 20)
#    0.000    2.000    2.857    0.429    4.000    4.571 
#    0.000    0.000    0.000    0.857    0.000   13.000 
#    0.000    0.000    0.000    0.000    0.000    0.000 
#
# Total GULP energy -77983.898895 kJ/mol
# GULP energy per Si atom -5570.278493 kJ/mol
# Density = 1.871908 g / cm^3
# Si number density = 18.761779 Si / 1000 Ang^3
#
#
#
# Elastic Constant Matrix: (Units=GPa)
#
#
# Indices 1 2 3 4 5 6 
#
# 1 75.6199 11.7820 4.4467 -14.5779 -8.6159 -10.9886
# 2 11.7820 81.3479 8.8759 -17.8997 -4.5717 -0.1920
# 3 4.4467 8.8759 57.9344 15.4979 -15.0654 -8.8234
# 4 -14.5779 -17.8997 15.4979 38.6375 -11.8362 -5.4610
# 5 -8.6159 -4.5717 -15.0654 -11.8362 19.7851 -3.4034
# 6 -10.9886 -0.1920 -8.8234 -5.4610 -3.4034 28.0065
#
#
#
# Elastic Compliance Matrix: (Units=1/GPa)
#
#
# Indices 1 2 3 4 5 6 
#
# 1 0.021314 0.002065 0.002039 0.017947 0.024718 0.015522
# 2 0.002065 0.015792 -0.002583 0.013101 0.011109 0.004009
# 3 0.002039 -0.002583 0.024888 -0.003069 0.019188 0.010356
# 4 0.017947 0.013101 -0.003069 0.057597 0.046936 0.023099
# 5 0.024718 0.011109 0.019188 0.046936 0.113226 0.038731
# 6 0.015522 0.004009 0.010356 0.023099 0.038731 0.054298
#
#
# Mechanical properties :
#
#
# Convention : Reuss Voigt Hill
#
# Bulk Modulus (GPa) = 15.37622 29.45682 22.41652
# Shear Modulus (GPa) = 16.35313 29.93899 23.14606
#
# Velocity S-wave (km/s) = 2.95552 3.99901 3.51619
# Velocity P-wave (km/s) = 4.45647 6.08747 5.33467
#
# Compressibility (1/GPa) = 0.06503551
#
# Stress axis : x y z
#
# Youngs Moduli (GPa) = 46.91729 63.32254 40.18002
#
# Poissons Ratio (x) = -0.13079 -0.08191
# Poissons Ratio (y) = -0.09690 0.10380
# Poissons Ratio (z) = -0.09564 0.16358
#
# Static dielectric constant tensor:
#      x y z
#    x 1.688790 0.009590 -0.009710 
#    y 0.009590 1.672830 -0.007550 
#    z -0.009710 -0.007550 1.734240 
# 
# From -- ./inp_files/69694.got.cif
#   From: 2010.05.17/outbox.cif.g08.bks.cpg/sg2_35_cif.got.tgz:69694.got - 2010.06.03 11:33:40.
