data_PCOD9081171
_publ_section_title
;
Structure prediction by ZEFSAII (Michael W. Deem and Ramdas Pophale) SiO2 
 PCOD9081171
Probable space group: P -1
;
_chemical_formula_sum "Si O2"
_cell_formula_units_Z 16
_cell_length_a 6.431367
_cell_length_b 15.803699
_cell_length_c 11.211898
_cell_angle_alpha 92.502911
_cell_angle_beta 110.241173
_cell_angle_gamma 63.392312
_cell_volume 947.512913
_symmetry_space_group_name_H-M "P -1"
_symmetry_group_IT_number 2
_symmetry_cell_setting 'triclinic'
loop_
_space_group_symop_operation_xyz
x,y,z
-x,-y,-z
loop_
_atom_site_type_symbol
_atom_site_label
_atom_site_fract_x
_atom_site_fract_y
_atom_site_fract_z
Si Si1 0.697229 0.723511 0.994618
Si Si2 0.642153 0.377095 0.123245
Si Si3 0.153978 0.215923 0.213597
Si Si4 0.401763 0.085242 0.887332
Si Si5 0.412463 0.931206 0.547278
Si Si6 0.825583 0.449875 0.934389
Si Si7 0.023034 0.047512 0.683880
Si Si8 0.892245 0.963947 0.867971
O O1 0.509339 0.677623 0.959496
O O2 0.733419 0.743141 0.863809
O O3 0.597670 0.822524 0.050344
O O4 0.973693 0.648111 0.092247
O O5 0.435685 0.466752 0.162464
O O6 0.900715 0.298184 0.224514
O O7 0.737620 0.417846 0.034991
O O8 0.355988 0.155176 0.348629
O O9 0.086025 0.140605 0.125361
O O10 0.131924 0.105584 0.786114
O O11 0.600641 0.040102 0.817654
O O12 0.500000 0.000000 0.000000
O O13 0.249929 0.900439 0.425287
O O14 0.500000 0.000000 0.500000
O O15 0.219766 0.992636 0.616214
O O16 0.000000 0.500000 0.000000
O O17 0.016968 0.970898 0.770958
O O18 0.000000 0.000000 0.000000
#
# Coordination Sequence:
#
# PCOD9081171 Si02
#       8
#     2   2   2   2   2   2   2   2
#     4  10  19  31  50  76 107 138 173 211 265 321
#     4   9  18  29  51  72 103 134 167 217 268 312
#     4  11  20  30  47  75  99 138 180 214 259 309
#     4  12  20  32  47  74 106 140 176 212 256 314
#     4  11  22  37  51  67 100 147 191 226 258 303
#     4   8  16  33  48  73 103 132 167 212 265 325
#     4  11  22  35  50  67 101 145 180 224 260 296
#     4  12  21  31  49  72 106 138 176 214 260 310
#
# _framework density 16.886315
#
# number of rings (size 3 to 8) (size 9 to 14) (size 15 to 20)
#    0.000    1.500    5.000    0.750    1.750    1.000 
#    0.000    0.000    0.000    0.000    0.000    0.875 
#    0.000   38.000    0.000    3.250    0.000    0.250 
#
# Total GULP energy -89099.075567 kJ/mol
# GULP energy per Si atom -5568.692223 kJ/mol
# Density = 1.684788 g / cm^3
# Si number density = 16.886315 Si / 1000 Ang^3
#
#
#
# Elastic Constant Matrix: (Units=GPa)
#
#
# Indices 1 2 3 4 5 6 
#
# 1 109.4303 32.4981 31.2039 -11.4236 0.5248 5.9822
# 2 32.4981 82.8464 19.2723 -16.5852 6.0372 -8.5453
# 3 31.2039 19.2723 73.0091 -9.3699 20.0545 1.4123
# 4 -11.4236 -16.5852 -9.3699 16.4335 -6.6382 10.3546
# 5 0.5248 6.0372 20.0545 -6.6382 37.0415 -4.3921
# 6 5.9822 -8.5453 1.4123 10.3546 -4.3921 37.3024
#
#
#
# Elastic Compliance Matrix: (Units=1/GPa)
#
#
# Indices 1 2 3 4 5 6 
#
# 1 0.012217 -0.003070 -0.004415 0.006775 0.003461 -0.003968
# 2 -0.003070 0.016307 -0.001473 0.013330 0.000650 0.000660
# 3 -0.004415 -0.001473 0.019214 0.004165 -0.009668 -0.002651
# 4 0.006775 0.013330 0.004165 0.101533 0.010694 -0.025116
# 5 0.003461 0.000650 -0.009668 0.010694 0.034112 0.001008
# 6 -0.003968 0.000660 -0.002651 -0.025116 0.001008 0.034786
#
#
# Mechanical properties :
#
#
# Convention : Reuss Voigt Hill
#
# Bulk Modulus (GPa) = 33.53416 47.91493 40.72454
# Shear Modulus (GPa) = 20.32292 30.30958 25.31625
#
# Velocity S-wave (km/s) = 3.47293 4.24125 3.87617
# Velocity P-wave (km/s) = 5.99863 7.24022 6.64847
#
# Compressibility (1/GPa) = 0.02982034
#
# Stress axis : x y z
#
# Youngs Moduli (GPa) = 81.85522 61.32395 52.04431
#
# Poissons Ratio (x) = 0.18829 0.22980
# Poissons Ratio (y) = 0.25133 0.07666
# Poissons Ratio (z) = 0.36143 0.09032
#
# Static dielectric constant tensor:
#      x y z
#    x 1.645230 -0.014430 0.031650 
#    y -0.014430 1.598540 -0.022760 
#    z 0.031650 -0.022760 1.577630 
# 
# From -- ./inp_files/75039.got.cif
#   From: 2010.05.17/outbox.cif.g08.bks.cpg/sg2_38_cif.got.tgz:75039.got - 2010.06.03 11:33:40.
