data_PCOD9081558
_publ_section_title
;
Structure prediction by ZEFSAII (Michael W. Deem and Ramdas Pophale) SiO2 
 PCOD9081558
Probable space group: P -1
;
_chemical_formula_sum "Si O2"
_cell_formula_units_Z 14
_cell_length_a 17.892229
_cell_length_b 27.998093
_cell_length_c 8.873293
_cell_angle_alpha 38.739594
_cell_angle_beta 30.573256
_cell_angle_gamma 16.641535
_cell_volume 615.937723
_symmetry_space_group_name_H-M "P -1"
_symmetry_group_IT_number 2
_symmetry_cell_setting 'triclinic'
loop_
_space_group_symop_operation_xyz
x,y,z
-x,-y,-z
loop_
_atom_site_type_symbol
_atom_site_label
_atom_site_fract_x
_atom_site_fract_y
_atom_site_fract_z
Si Si1 0.476696 0.766155 0.662806
Si Si2 0.101206 0.674736 0.271551
Si Si3 0.769270 0.892739 0.592430
Si Si4 0.053853 0.860899 0.769578
Si Si5 0.737351 0.067564 0.087779
Si Si6 0.207162 0.045231 0.317143
Si Si7 0.186093 0.463083 0.637058
O O1 0.755536 0.600284 0.475438
O O2 0.475223 0.773846 0.829795
O O3 0.432209 0.873670 0.420377
O O4 0.118489 0.896035 0.917443
O O5 0.021523 0.623761 0.500703
O O6 0.993640 0.738923 0.471256
O O7 0.500000 0.500000 0.000000
O O8 0.967010 0.812262 0.077395
O O9 0.633446 0.030361 0.402853
O O10 0.970562 0.828946 0.546163
O O11 0.460157 0.987037 0.949995
O O12 0.433876 0.699897 0.558879
O O13 0.015337 0.886706 0.594709
O O14 0.800771 0.032925 0.883078
O O15 0.000000 0.500000 0.000000
#
# Coordination Sequence:
#
# PCOD9081558 Si02
#       7
#     2   2   2   2   2   2   2
#     4   9  17  31  51  75 101 132 163 202 256 301
#     4   9  18  34  52  72 101 140 174 196 239 304
#     4   9  18  33  53  75  99 134 168 206 255 298
#     4   9  19  34  53  77 100 129 169 213 250 289
#     4   8  16  30  49  74  97 128 164 200 250 293
#     4  10  19  32  53  80 103 122 164 221 261 287
#     4  10  19  32  52  75 103 138 170 198 243 306
#
# _framework density 22.729569999999999
#
# number of rings (size 3 to 8) (size 9 to 14) (size 15 to 20)
#    0.000    2.857    0.000    1.714    0.000    4.571 
#    0.000    4.286    0.000    3.429    0.000   53.000 
#    0.000    0.000    0.000    0.000    0.000    0.000 
#
# Total GULP energy -78026.186865 kJ/mol
# GULP energy per Si atom -5573.299062 kJ/mol
# Density = 2.267784 g / cm^3
# Si number density = 22.729570 Si / 1000 Ang^3
#
#
#
# Elastic Constant Matrix: (Units=GPa)
#
#
# Indices 1 2 3 4 5 6 
#
# 1 97.8841 63.5083 -1.7163 17.4059 29.9035 29.5545
# 2 63.5083 68.9130 19.3850 4.2938 10.9771 37.0374
# 3 -1.7163 19.3850 91.8306 -1.2289 -1.0528 18.7553
# 4 17.4059 4.2938 -1.2289 27.5553 16.5704 0.8963
# 5 29.9035 10.9771 -1.0528 16.5704 39.2431 8.8964
# 6 29.5545 37.0374 18.7553 0.8963 8.8964 47.0602
#
#
#
# Elastic Compliance Matrix: (Units=1/GPa)
#
#
# Indices 1 2 3 4 5 6 
#
# 1 0.042273 -0.041062 0.007858 -0.009345 -0.017979 0.006213
# 2 -0.041062 0.065613 -0.009190 0.006770 0.015557 -0.025259
# 3 0.007858 -0.009190 0.013490 -0.001844 -0.001657 -0.002730
# 4 -0.009345 0.006770 -0.001844 0.051353 -0.017316 0.003571
# 5 -0.017979 0.015557 -0.001657 -0.017316 0.043974 -0.008275
# 6 0.006213 -0.025259 -0.002730 0.003571 -0.008275 0.039811
#
#
# Mechanical properties :
#
#
# Convention : Reuss Voigt Hill
#
# Bulk Modulus (GPa) = 27.33082 46.77576 37.05329
# Shear Modulus (GPa) = 14.14433 34.60175 24.37304
#
# Velocity S-wave (km/s) = 2.49728 3.90593 3.27816
# Velocity P-wave (km/s) = 4.51283 6.40044 5.53766
#
# Compressibility (1/GPa) = 0.03658873
#
# Stress axis : x y z
#
# Youngs Moduli (GPa) = 23.65554 15.24088 74.12689
#
# Poissons Ratio (x) = 0.62581 -0.58248
# Poissons Ratio (y) = 0.97133 0.68125
# Poissons Ratio (z) = -0.18588 0.14007
#
# Static dielectric constant tensor:
#      x y z
#    x 1.937170 0.016840 0.014470 
#    y 0.016840 1.838450 -0.028460 
#    z 0.014470 -0.028460 1.862740 
# 
# From -- ./inp_files/176154.got.cif
#   From: 2010.05.17/outbox.cif.g08.bks.cpg/sg2_89_cif.got.tgz:176154.got - 2010.06.03 11:33:40.
