data_PCOD9081442
_publ_section_title
;
Structure prediction by ZEFSAII (Michael W. Deem and Ramdas Pophale) SiO2 
 PCOD9081442
Probable space group: P -1
;
_chemical_formula_sum "Si O2"
_cell_formula_units_Z 12
_cell_length_a 5.192903
_cell_length_b 27.278157
_cell_length_c 15.348312
_cell_angle_alpha 159.009403
_cell_angle_beta 64.857319
_cell_angle_gamma 116.937797
_cell_volume 694.292214
_symmetry_space_group_name_H-M "P -1"
_symmetry_group_IT_number 2
_symmetry_cell_setting 'triclinic'
loop_
_space_group_symop_operation_xyz
x,y,z
-x,-y,-z
loop_
_atom_site_type_symbol
_atom_site_label
_atom_site_fract_x
_atom_site_fract_y
_atom_site_fract_z
Si Si1 0.316468 0.967184 0.883333
Si Si2 0.315019 0.512504 0.362635
Si Si3 0.494388 0.792769 0.879168
Si Si4 0.193013 0.654490 0.314916
Si Si5 0.132770 0.329323 0.244188
Si Si6 0.558260 0.486690 0.105088
O O1 0.278974 0.807901 0.595018
O O2 0.448341 0.068119 0.953514
O O3 0.500000 0.000000 0.000000
O O4 0.000000 0.000000 0.000000
O O5 0.517752 0.662499 0.595563
O O6 0.319202 0.416901 0.288169
O O7 0.998607 0.559851 0.491376
O O8 0.408685 0.447052 0.153136
O O9 0.705761 0.772122 0.892644
O O10 0.161273 0.756419 0.896366
O O11 0.328524 0.552597 0.190739
O O12 0.850475 0.600592 0.265297
O O13 0.337669 0.634422 0.167064
#
# Coordination Sequence:
#
# PCOD9081442 Si02
#       6
#     2   2   2   2   2   2
#     4  12  23  34  55  77 108 142 175 213 264 320
#     4   9  19  31  54  75 101 136 172 216 266 294
#     4  10  19  32  47  75 106 133 161 227 254 304
#     4  10  22  38  49  84 102 142 178 210 264 312
#     4   9  20  30  50  78 104 127 178 214 262 301
#     4  10  21  35  59  71 112 136 176 222 252 318
#
# _framework density 17.28379
#
# number of rings (size 3 to 8) (size 9 to 14) (size 15 to 20)
#    1.000    1.000    0.000    4.500    4.667    0.000 
#    0.000    0.000    0.000    2.000    0.000    0.000 
#    0.000    0.000    0.000    0.000    0.000    0.000 
#
# Total GULP energy -66827.129869 kJ/mol
# GULP energy per Si atom -5568.927489 kJ/mol
# Density = 1.724445 g / cm^3
# Si number density = 17.283790 Si / 1000 Ang^3
#
#
#
# Elastic Constant Matrix: (Units=GPa)
#
#
# Indices 1 2 3 4 5 6 
#
# 1 80.8454 8.0473 -3.4317 -2.9191 1.3964 -14.1106
# 2 8.0473 75.6924 30.0594 -22.7773 -5.1539 -2.4045
# 3 -3.4317 30.0594 69.4271 -10.1081 12.1857 -3.8117
# 4 -2.9191 -22.7773 -10.1081 28.7021 -1.0783 -1.8325
# 5 1.3964 -5.1539 12.1857 -1.0783 17.8592 3.6033
# 6 -14.1106 -2.4045 -3.8117 -1.8325 3.6033 20.7150
#
#
#
# Elastic Compliance Matrix: (Units=1/GPa)
#
#
# Indices 1 2 3 4 5 6 
#
# 1 0.015121 -0.003047 0.004164 0.001084 -0.007273 0.012074
# 2 -0.003047 0.023383 -0.011099 0.014756 0.016032 -0.002887
# 3 0.004164 -0.011099 0.023716 -0.000229 -0.021673 0.009662
# 4 0.001084 0.014756 -0.000229 0.047160 0.006062 0.005527
# 5 -0.007273 0.016032 -0.021673 0.006062 0.080489 -0.020546
# 6 0.012074 -0.002887 0.009662 0.005527 -0.020546 0.062004
#
#
# Mechanical properties :
#
#
# Convention : Reuss Voigt Hill
#
# Bulk Modulus (GPa) = 23.66455 32.81276 28.23866
# Shear Modulus (GPa) = 17.48727 26.20792 21.84760
#
# Velocity S-wave (km/s) = 3.18429 3.89823 3.55921
# Velocity P-wave (km/s) = 5.21930 6.26798 5.76752
#
# Compressibility (1/GPa) = 0.04225730
#
# Stress axis : x y z
#
# Youngs Moduli (GPa) = 66.13136 42.76604 42.16583
#
# Poissons Ratio (x) = 0.13029 -0.17557
# Poissons Ratio (y) = 0.20148 0.46799
# Poissons Ratio (z) = -0.27536 0.47465
#
# Static dielectric constant tensor:
#      x y z
#    x 1.618390 0.014650 0.012610 
#    y 0.014650 1.581800 0.004500 
#    z 0.012610 0.004500 1.585830 
# 
# From -- ./inp_files/138196.got.cif
#   From: 2010.05.17/outbox.cif.g08.bks.cpg/sg2_70_cif.got.tgz:138196.got - 2010.06.03 11:33:40.
