data_PCOD9081063
_publ_section_title
;
Structure prediction by ZEFSAII (Michael W. Deem and Ramdas Pophale) SiO2 
 PCOD9081063
Probable space group: P -1
;
_chemical_formula_sum "Si O2"
_cell_formula_units_Z 16
_cell_length_a 17.970534
_cell_length_b 8.704274
_cell_length_c 14.225882
_cell_angle_alpha 108.201423
_cell_angle_beta 22.303187
_cell_angle_gamma 97.746705
_cell_volume 725.152158
_symmetry_space_group_name_H-M "P -1"
_symmetry_group_IT_number 2
_symmetry_cell_setting 'triclinic'
loop_
_space_group_symop_operation_xyz
x,y,z
-x,-y,-z
loop_
_atom_site_type_symbol
_atom_site_label
_atom_site_fract_x
_atom_site_fract_y
_atom_site_fract_z
Si Si1 0.810237 0.561973 0.603654
Si Si2 0.894693 0.553406 0.234245
Si Si3 0.296300 0.652681 0.457106
Si Si4 0.218591 0.820885 0.229902
Si Si5 0.865796 0.080460 0.454328
Si Si6 0.711052 0.707652 0.956934
Si Si7 0.064615 0.701729 0.222205
Si Si8 0.480193 0.065542 0.211630
O O1 0.057399 0.403549 0.286278
O O2 0.850002 0.717335 0.532425
O O3 0.661077 0.499021 0.702717
O O4 0.738562 0.622863 0.804024
O O5 0.804366 0.416082 0.354524
O O6 0.693024 0.750638 0.505123
O O7 0.067093 0.569669 0.110844
O O8 0.000000 0.500000 0.000000
O O9 0.125715 0.829549 0.636237
O O10 0.503596 0.691943 0.242191
O O11 0.186593 0.787620 0.369529
O O12 0.226019 0.676654 0.115951
O O13 0.404264 0.878615 0.995418
O O14 0.000000 0.000000 0.500000
O O15 0.655513 0.039406 0.685337
O O16 0.045989 0.883322 0.229702
O O17 0.654567 0.917198 0.048112
#
# Coordination Sequence:
#
# PCOD9081063 Si02
#       8
#     2   2   2   2   2   2   2   2
#     4  10  21  33  55  86 137 161 188 230 293 368
#     4  10  23  46  65  78 108 157 213 274 309 332
#     4  10  22  37  58  88 118 158 207 248 296 359
#     4  10  19  30  57  88 128 158 181 220 291 372
#     4   9  19  34  56  88 126 157 191 226 290 376
#     4  10  21  35  55  92 128 163 190 234 294 372
#     4   9  20  36  56  89 116 161 199 234 295 366
#     4  10  21  37  57  85 120 164 206 235 287 369
#
# _framework density 22.064336999999998
#
# number of rings (size 3 to 8) (size 9 to 14) (size 15 to 20)
#    0.000    2.250    0.000    2.250    8.750    5.000 
#    0.000    6.250    0.000    3.000    0.000    0.000 
#    0.000    0.000    0.000    0.000    0.000    0.000 
#
# Total GULP energy -89286.249333 kJ/mol
# GULP energy per Si atom -5580.390583 kJ/mol
# Density = 2.201412 g / cm^3
# Si number density = 22.064337 Si / 1000 Ang^3
#
#
#
# Elastic Constant Matrix: (Units=GPa)
#
#
# Indices 1 2 3 4 5 6 
#
# 1 79.9368 32.9105 43.0752 -16.1061 14.6830 -2.9493
# 2 32.9105 124.9087 35.1406 -16.4764 -4.4132 -17.1963
# 3 43.0752 35.1406 77.1147 -9.2650 13.2630 -13.1567
# 4 -16.1061 -16.4764 -9.2650 36.6188 -6.6697 -14.9760
# 5 14.6830 -4.4132 13.2630 -6.6697 32.7340 -2.7684
# 6 -2.9493 -17.1963 -13.1567 -14.9760 -2.7684 39.5654
#
#
#
# Elastic Compliance Matrix: (Units=1/GPa)
#
#
# Indices 1 2 3 4 5 6 
#
# 1 0.020061 -0.002667 -0.008920 0.003805 -0.005099 -0.001547
# 2 -0.002667 0.011656 -0.002738 0.007407 0.005993 0.007180
# 3 -0.008920 -0.002738 0.021037 0.001666 -0.004088 0.005485
# 4 0.003805 0.007407 0.001666 0.042976 0.009146 0.020964
# 5 -0.005099 0.005993 -0.004088 0.009146 0.037754 0.006969
# 6 -0.001547 0.007180 0.005485 0.020964 0.006969 0.038527
#
#
# Mechanical properties :
#
#
# Convention : Reuss Voigt Hill
#
# Bulk Modulus (GPa) = 41.48650 56.02362 48.75506
# Shear Modulus (GPa) = 23.95847 33.17257 28.56552
#
# Velocity S-wave (km/s) = 3.29879 3.88164 3.60202
# Velocity P-wave (km/s) = 5.77518 6.74801 6.28046
#
# Compressibility (1/GPa) = 0.02410423
#
# Stress axis : x y z
#
# Youngs Moduli (GPa) = 49.84801 85.79270 47.53540
#
# Poissons Ratio (x) = 0.22883 0.42401
# Poissons Ratio (y) = 0.13296 0.13013
# Poissons Ratio (z) = 0.44464 0.23487
#
# Static dielectric constant tensor:
#      x y z
#    x 1.891200 -0.029820 -0.108950 
#    y -0.029820 1.944060 0.055130 
#    z -0.108950 0.055130 1.808540 
# 
# From -- ./inp_files/540495.got.cif
#   From: 2010.05.17/outbox.cif.g08.bks.cpg/sg2_271_cif.got.tgz:540495.got - 2010.06.03 11:33:40.
