data_PCOD9081640
_publ_section_title
;
Structure prediction by ZEFSAII (Michael W. Deem and Ramdas Pophale) SiO2 
 PCOD9081640
Probable space group: P -1
;
_chemical_formula_sum "Si O2"
_cell_formula_units_Z 16
_cell_length_a 15.675948
_cell_length_b 13.358137
_cell_length_c 12.259090
_cell_angle_alpha 109.328984
_cell_angle_beta 131.930111
_cell_angle_gamma 28.411007
_cell_volume 625.521058
_symmetry_space_group_name_H-M "P -1"
_symmetry_group_IT_number 2
_symmetry_cell_setting 'triclinic'
loop_
_space_group_symop_operation_xyz
x,y,z
-x,-y,-z
loop_
_atom_site_type_symbol
_atom_site_label
_atom_site_fract_x
_atom_site_fract_y
_atom_site_fract_z
Si Si1 0.457592 0.417776 0.474052
Si Si2 0.771713 0.485462 0.143192
Si Si3 0.780307 0.253088 0.052188
Si Si4 0.388062 0.919106 0.629177
Si Si5 0.570067 0.965926 0.719030
Si Si6 0.986016 0.281869 0.624546
Si Si7 0.369808 0.852511 0.153032
Si Si8 0.006130 0.495807 0.733508
O O1 0.500000 0.500000 0.500000
O O2 0.401764 0.364200 0.329624
O O3 0.142574 0.685819 0.381989
O O4 0.834847 0.070327 0.707511
O O5 0.713345 0.427589 0.004857
O O6 0.519396 0.716312 0.110277
O O7 0.766625 0.597654 0.111688
O O8 0.119645 0.173850 0.394490
O O9 0.500000 0.500000 0.000000
O O10 0.775575 0.140126 0.955086
O O11 0.552143 0.893692 0.773458
O O12 0.193758 0.056056 0.621212
O O13 0.742927 0.748668 0.693674
O O14 0.757121 0.916026 0.868763
O O15 0.200373 0.319352 0.490851
O O16 0.637698 0.617688 0.393410
O O17 0.133115 0.267679 0.779688
#
# Coordination Sequence:
#
# PCOD9081640 Si02
#       8
#     2   2   2   2   2   2   2   2
#     4  11  23  38  56  78 107 143 184 223 259 312
#     4   8  15  27  46  71 107 140 169 208 264 320
#     4   9  19  36  54  77 112 147 173 215 268 320
#     4   9  17  32  50  74 105 136 175 221 265 308
#     4   9  15  24  45  74 107 135 168 216 267 318
#     4  10  19  32  53  79 106 140 178 222 268 316
#     4   9  17  28  47  78 105 138 171 212 268 322
#     4   9  15  25  44  76 106 136 169 215 270 312
#
# _framework density 25.578672999999998
#
# number of rings (size 3 to 8) (size 9 to 14) (size 15 to 20)
#    0.000    2.750    1.250    1.500    5.250    4.000 
#    0.000    0.000    0.000    0.750    0.000    4.375 
#    0.000    0.000    0.000    0.000    0.000    0.000 
#
# Total GULP energy -89126.221301 kJ/mol
# GULP energy per Si atom -5570.388831 kJ/mol
# Density = 2.552045 g / cm^3
# Si number density = 25.578673 Si / 1000 Ang^3
#
#
#
# Elastic Constant Matrix: (Units=GPa)
#
#
# Indices 1 2 3 4 5 6 
#
# 1 167.5175 43.5020 13.9329 7.8799 30.6630 25.4844
# 2 43.5020 81.2278 17.1051 23.5702 -4.7535 20.2785
# 3 13.9329 17.1051 74.5719 5.2487 9.0693 21.4739
# 4 7.8799 23.5702 5.2487 25.7694 17.6635 19.5261
# 5 30.6630 -4.7535 9.0693 17.6635 12.7623 5.5517
# 6 25.4844 20.2785 21.4739 19.5261 5.5517 23.0864
#
#
#
# Elastic Compliance Matrix: (Units=1/GPa)
#
#
# Indices 1 2 3 4 5 6 
#
# 1 0.003713 0.001499 -0.003155 -0.013443 0.009625 0.006576
# 2 0.001499 0.012520 0.004616 0.013714 -0.009807 -0.026187
# 3 -0.003155 0.004616 0.014822 -0.008425 0.015161 -0.010879
# 4 -0.013443 0.013714 -0.008425 -0.010587 0.055314 0.006282
# 5 0.009625 -0.009807 0.015161 0.055314 -0.009373 -0.060642
# 6 0.006576 -0.026187 -0.010879 0.006282 -0.060642 0.078447
#
#
# Mechanical properties :
#
#
# Convention : Reuss Voigt Hill
#
# Bulk Modulus (GPa) = 27.04543 52.48857 39.76700
# Shear Modulus (GPa) = 52.11143 28.90876 40.51010
#
# Velocity S-wave (km/s) = 4.51854 3.36548 3.98395
# Velocity P-wave (km/s) = 6.14974 5.97218 6.06161
#
# Compressibility (1/GPa) = 0.03697482
#
# Stress axis : x y z
#
# Youngs Moduli (GPa) = 269.32159 79.86966 67.46562
#
# Poissons Ratio (x) = -0.11969 0.21288
# Poissons Ratio (y) = -0.40358 -0.31145
# Poissons Ratio (z) = 0.84981 -0.36871
#
# Static dielectric constant tensor:
#      x y z
#    x 2.100720 0.022650 0.000950 
#    y 0.022650 2.049030 0.041860 
#    z 0.000950 0.041860 2.210710 
# 
# From -- ./inp_files/338478.got.cif
#   From: 2010.05.17/outbox.cif.g08.bks.cpg/sg2_170_cif.got.tgz:338478.got - 2010.06.03 11:33:40.
