data_PCOD9081757
_publ_section_title
;
Structure prediction by ZEFSAII (Michael W. Deem and Ramdas Pophale) SiO2 
 PCOD9081757
Probable space group: P -1
;
_chemical_formula_sum "Si O2"
_cell_formula_units_Z 16
_cell_length_a 9.417881
_cell_length_b 15.628035
_cell_length_c 9.267382
_cell_angle_alpha 127.748421
_cell_angle_beta 122.429972
_cell_angle_gamma 81.240953
_cell_volume 878.093355
_symmetry_space_group_name_H-M "P -1"
_symmetry_group_IT_number 2
_symmetry_cell_setting 'triclinic'
loop_
_space_group_symop_operation_xyz
x,y,z
-x,-y,-z
loop_
_atom_site_type_symbol
_atom_site_label
_atom_site_fract_x
_atom_site_fract_y
_atom_site_fract_z
Si Si1 0.570849 0.955157 0.347573
Si Si2 0.299478 0.233980 0.397920
Si Si3 0.370061 0.378598 0.303660
Si Si4 0.331652 0.807829 0.489629
Si Si5 0.038488 0.259410 0.861011
Si Si6 0.856233 0.931929 0.091740
Si Si7 0.865338 0.835220 0.477597
Si Si8 0.519593 0.174775 0.103749
O O1 0.708888 0.887711 0.397140
O O2 0.500000 0.000000 0.500000
O O3 0.662854 0.067495 0.428045
O O4 0.439901 0.875697 0.078393
O O5 0.323276 0.330498 0.390306
O O6 0.493575 0.218386 0.502775
O O7 0.206032 0.242540 0.504760
O O8 0.181485 0.120751 0.141930
O O9 0.500000 0.500000 0.500000
O O10 0.461456 0.290818 0.183871
O O11 0.185444 0.363963 0.109870
O O12 0.346292 0.806876 0.670980
O O13 0.157107 0.730537 0.245750
O O14 0.056205 0.152004 0.856227
O O15 0.085998 0.231502 0.697327
O O16 0.660485 0.911720 0.027262
O O17 0.973207 0.057465 0.290487
#
# Coordination Sequence:
#
# PCOD9081757 Si02
#       8
#     2   2   2   2   2   2   2   2
#     4  12  20  29  49  78 116 151 165 196 266 313
#     4   9  21  34  49  80 110 134 178 217 256 310
#     4   9  19  40  61  72  95 139 182 225 268 303
#     4  10  19  33  50  77 110 143 171 207 253 322
#     4  10  19  32  55  76 102 138 182 210 252 314
#     4   9  17  31  50  68 108 149 170 199 246 309
#     4  12  18  31  49  79 113 140 173 212 248 311
#     4   9  20  36  49  77 108 139 184 210 248 317
#
# _framework density 18.221295000000001
#
# number of rings (size 3 to 8) (size 9 to 14) (size 15 to 20)
#    0.000    2.500    5.000    1.875    0.000    1.000 
#    2.250    3.125    0.000    0.000    0.000    7.000 
#    0.000    0.000    0.000    0.000    0.000    0.000 
#
# Total GULP energy -89172.406036 kJ/mol
# GULP energy per Si atom -5573.275377 kJ/mol
# Density = 1.817982 g / cm^3
# Si number density = 18.221295 Si / 1000 Ang^3
#
#
#
# Elastic Constant Matrix: (Units=GPa)
#
#
# Indices 1 2 3 4 5 6 
#
# 1 45.4052 12.9395 34.7211 -7.4362 0.4350 7.7334
# 2 12.9395 34.5646 39.6983 4.3186 10.3334 11.9138
# 3 34.7211 39.6983 111.5466 1.0002 30.6602 8.7306
# 4 -7.4362 4.3186 1.0002 28.8053 -1.5886 7.6879
# 5 0.4350 10.3334 30.6602 -1.5886 29.5672 -2.5968
# 6 7.7334 11.9138 8.7306 7.6879 -2.5968 10.6277
#
#
#
# Elastic Compliance Matrix: (Units=1/GPa)
#
#
# Indices 1 2 3 4 5 6 
#
# 1 0.043275 0.015266 -0.018037 0.022837 0.009750 -0.047923
# 2 0.015266 0.093116 -0.024783 0.020314 -0.015965 -0.113729
# 3 -0.018037 -0.024783 0.026575 -0.008404 -0.017243 0.020942
# 4 0.022837 0.020314 -0.008404 0.057687 -0.002187 -0.074750
# 5 0.009750 -0.015965 -0.017243 -0.002187 0.060654 0.041369
# 6 -0.047923 -0.113729 0.020942 -0.074750 0.041369 0.303433
#
#
# Mechanical properties :
#
#
# Convention : Reuss Voigt Hill
#
# Bulk Modulus (GPa) = 9.27155 40.69270 24.98212
# Shear Modulus (GPa) = 7.39861 20.74388 14.07125
#
# Velocity S-wave (km/s) = 2.01723 3.37774 2.78194
# Velocity P-wave (km/s) = 3.24422 6.13133 4.90501
#
# Compressibility (1/GPa) = 0.10785689
#
# Stress axis : x y z
#
# Youngs Moduli (GPa) = 23.10787 10.73929 37.62912
#
# Poissons Ratio (x) = -0.16394 0.67872
# Poissons Ratio (y) = -0.35276 0.93258
# Poissons Ratio (z) = 0.41680 0.26616
#
# Static dielectric constant tensor:
#      x y z
#    x 1.655280 0.000800 0.004950 
#    y 0.000800 1.637350 -0.041920 
#    z 0.004950 -0.041920 1.660620 
# 
# From -- ./inp_files/208817.got.cif
#   From: 2010.05.17/outbox.cif.g08.bks.cpg/sg2_105_cif.got.tgz:208817.got - 2010.06.03 11:33:40.
