data_PCOD9081609
_publ_section_title
;
Structure prediction by ZEFSAII (Michael W. Deem and Ramdas Pophale) SiO2 
 PCOD9081609
Probable space group: P -1
;
_chemical_formula_sum "Si O2"
_cell_formula_units_Z 14
_cell_length_a 7.126226
_cell_length_b 7.634110
_cell_length_c 18.094107
_cell_angle_alpha 119.696977
_cell_angle_beta 100.731064
_cell_angle_gamma 118.045412
_cell_volume 631.906088
_symmetry_space_group_name_H-M "P -1"
_symmetry_group_IT_number 2
_symmetry_cell_setting 'triclinic'
loop_
_space_group_symop_operation_xyz
x,y,z
-x,-y,-z
loop_
_atom_site_type_symbol
_atom_site_label
_atom_site_fract_x
_atom_site_fract_y
_atom_site_fract_z
Si Si1 0.121329 0.222658 0.247544
Si Si2 0.346018 0.203693 0.395986
Si Si3 0.730175 0.444450 0.799680
Si Si4 0.965405 0.494229 0.370806
Si Si5 0.421793 0.354586 0.886156
Si Si6 0.288501 0.907075 0.594184
Si Si7 0.886465 0.628933 0.248049
O O1 0.304341 0.206621 0.305385
O O2 0.166399 0.285490 0.177481
O O3 0.152392 0.466312 0.337918
O O4 0.830164 0.955099 0.183922
O O5 0.500000 0.500000 0.500000
O O6 0.510043 0.128251 0.416124
O O7 0.060620 0.947567 0.346191
O O8 0.652604 0.405717 0.871262
O O9 0.926195 0.399771 0.786528
O O10 0.459986 0.214235 0.691198
O O11 0.840745 0.270478 0.378276
O O12 0.806945 0.472985 0.286745
O O13 0.096045 0.766169 0.482732
O O14 0.330238 0.460050 0.842948
O O15 0.500000 0.500000 0.000000
#
# Coordination Sequence:
#
# PCOD9081609 Si02
#       7
#     2   2   2   2   2   2   2
#     4  10  21  38  59  88 122 149 206 243 281 372
#     4  10  19  32  52  86 120 160 191 234 286 345
#     4  10  22  40  63  88 121 159 194 243 306 347
#     4  10  19  35  55  87 125 153 203 228 280 368
#     4  11  24  45  64  85 117 154 201 264 306 337
#     4  10  20  33  57  86 123 170 183 232 296 347
#     4   9  23  38  58  91 120 152 206 242 284 369
#
# _framework density 22.155190999999999
#
# number of rings (size 3 to 8) (size 9 to 14) (size 15 to 20)
#    0.000    2.000    2.857    0.000    4.000    2.857 
#    0.000    4.286    0.000    0.000    0.000    0.000 
#    0.000    0.000    0.000    0.000    0.000    0.000 
#
# Total GULP energy -78075.294431 kJ/mol
# GULP energy per Si atom -5576.806745 kJ/mol
# Density = 2.210476 g / cm^3
# Si number density = 22.155191 Si / 1000 Ang^3
#
#
#
# Elastic Constant Matrix: (Units=GPa)
#
#
# Indices 1 2 3 4 5 6 
#
# 1 37.8757 10.6434 20.4842 -4.3748 3.5857 5.9488
# 2 10.6434 78.7631 24.1731 -22.6844 -6.7852 3.4979
# 3 20.4842 24.1731 110.4258 -20.8618 -8.3540 -0.6911
# 4 -4.3748 -22.6844 -20.8618 19.3405 -4.7166 1.7226
# 5 3.5857 -6.7852 -8.3540 -4.7166 21.5863 -10.2994
# 6 5.9488 3.4979 -0.6911 1.7226 -10.2994 29.7206
#
#
#
# Elastic Compliance Matrix: (Units=1/GPa)
#
#
# Indices 1 2 3 4 5 6 
#
# 1 0.036141 -0.007623 -0.009663 -0.015327 -0.021799 -0.013227
# 2 -0.007623 0.024439 0.004526 0.036476 0.020448 0.003726
# 3 -0.009663 0.004526 0.015686 0.023698 0.017329 0.006398
# 4 -0.015327 0.036476 0.023698 0.129450 0.056989 0.011572
# 5 -0.021799 0.020448 0.017329 0.056989 0.089956 0.030230
# 6 -0.013227 0.003726 0.006398 0.011572 0.030230 0.045810
#
#
# Mechanical properties :
#
#
# Convention : Reuss Voigt Hill
#
# Bulk Modulus (GPa) = 19.70651 37.51844 28.61247
# Shear Modulus (GPa) = 13.02362 25.58038 19.30200
#
# Velocity S-wave (km/s) = 2.42716 3.40163 2.95484
# Velocity P-wave (km/s) = 4.09498 5.69203 4.95823
#
# Compressibility (1/GPa) = 0.05074466
#
# Stress axis : x y z
#
# Youngs Moduli (GPa) = 27.66919 40.91836 63.75209
#
# Poissons Ratio (x) = 0.31192 0.61605
# Poissons Ratio (y) = 0.21092 -0.28852
# Poissons Ratio (z) = 0.26737 -0.18518
#
# Static dielectric constant tensor:
#      x y z
#    x 1.910720 0.040630 -0.029150 
#    y 0.040630 1.891500 -0.002760 
#    z -0.029150 -0.002760 1.806920 
# 
# From -- ./inp_files/169155.got.cif
#   From: 2010.05.17/outbox.cif.g08.bks.cpg/sg2_85_cif.got.tgz:169155.got - 2010.06.03 11:33:40.
