data_PCOD9081931
_publ_section_title
;
Structure prediction by ZEFSAII (Michael W. Deem and Ramdas Pophale) SiO2 
 PCOD9081931
Probable space group: P -1
;
_chemical_formula_sum "Si O2"
_cell_formula_units_Z 12
_cell_length_a 15.311471
_cell_length_b 13.601557
_cell_length_c 15.146519
_cell_angle_alpha 37.283083
_cell_angle_beta 160.605695
_cell_angle_gamma 143.373103
_cell_volume 612.915997
_symmetry_space_group_name_H-M "P -1"
_symmetry_group_IT_number 2
_symmetry_cell_setting 'triclinic'
loop_
_space_group_symop_operation_xyz
x,y,z
-x,-y,-z
loop_
_atom_site_type_symbol
_atom_site_label
_atom_site_fract_x
_atom_site_fract_y
_atom_site_fract_z
Si Si1 0.614883 0.107307 0.892188
Si Si2 0.524340 0.518600 0.904817
Si Si3 0.030967 0.676235 0.575589
Si Si4 0.722616 0.900897 0.759912
Si Si5 0.153975 0.055453 0.358347
Si Si6 0.159205 0.853384 0.741693
O O1 0.388387 0.151875 0.581624
O O2 0.437794 0.938616 0.893034
O O3 0.757795 0.211186 0.039632
O O4 0.861366 0.081322 0.086894
O O5 0.626772 0.713101 0.839102
O O6 0.237097 0.435196 0.645536
O O7 0.500000 0.500000 0.000000
O O8 0.735939 0.419358 0.142918
O O9 0.122816 0.856796 0.485365
O O10 0.989460 0.718207 0.608511
O O11 0.500000 0.000000 0.500000
O O12 0.766621 0.897115 0.699605
O O13 0.000000 0.000000 0.000000
O O14 0.000000 0.000000 0.500000
#
# Coordination Sequence:
#
# PCOD9081931 Si02
#       6
#     2   2   2   2   2   2
#     4  10  19  32  57  92 126 157 202 260 287 359
#     4  12  25  42  62  92 127 155 206 264 315 364
#     4  11  22  37  64  93 123 161 199 262 314 351
#     4  12  25  44  66  87 121 168 213 257 310 382
#     4  11  21  37  61  92 123 163 210 247 312 368
#     4  10  19  34  60  97 131 157 212 252 305 361
#
# _framework density 19.578538999999999
#
# number of rings (size 3 to 8) (size 9 to 14) (size 15 to 20)
#    0.000    1.000    3.333    6.500    2.333    0.000 
#    0.000    0.000    0.000    6.000    0.000    0.000 
#    0.000    0.000    0.000    0.000    0.000    0.000 
#
# Total GULP energy -67029.037762 kJ/mol
# GULP energy per Si atom -5585.753147 kJ/mol
# Density = 1.953398 g / cm^3
# Si number density = 19.578539 Si / 1000 Ang^3
#
#
#
# Elastic Constant Matrix: (Units=GPa)
#
#
# Indices 1 2 3 4 5 6 
#
# 1 213.8132 281.7413 362.2884 134.4130 4.3558 -97.0757
# 2 281.7413 1031.6521 1293.7995 484.5859 38.5307 -365.3718
# 3 362.2884 1293.7995 1822.5723 663.6786 84.5131 -493.0340
# 4 134.4130 484.5859 663.6786 270.6364 9.6719 -191.9615
# 5 4.3558 38.5307 84.5131 9.6719 48.8703 -19.9236
# 6 -97.0757 -365.3718 -493.0340 -191.9615 -19.9236 171.6954
#
#
#
# Elastic Compliance Matrix: (Units=1/GPa)
#
#
# Indices 1 2 3 4 5 6 
#
# 1 0.007462 -0.001460 -0.001142 0.001279 0.002002 -0.000505
# 2 -0.001460 0.010509 -0.006367 0.000181 0.004439 0.003971
# 3 -0.001142 -0.006367 0.012914 -0.019816 -0.013635 -0.000849
# 4 0.001279 0.000181 -0.019816 0.063311 0.028963 0.018350
# 5 0.002002 0.004439 -0.013635 0.028963 0.037980 0.008212
# 6 -0.000505 0.003971 -0.000849 0.018350 0.008212 0.033021
#
#
# Mechanical properties :
#
#
# Convention : Reuss Voigt Hill
#
# Bulk Modulus (GPa) = 77.24378 771.52177 424.38277
# Shear Modulus (GPa) = 26.67356 173.58767 100.13062
#
# Velocity S-wave (km/s) = 3.69506 9.42628 7.15920
# Velocity P-wave (km/s) = 7.59892 22.65819 16.89877
#
# Compressibility (1/GPa) = 0.01294603
#
# Stress axis : x y z
#
# Youngs Moduli (GPa) = 134.01712 95.15776 77.43335
#
# Poissons Ratio (x) = 0.13893 0.08845
# Poissons Ratio (y) = 0.19566 0.49303
# Poissons Ratio (z) = 0.15309 0.60589
#
# Static dielectric constant tensor:
#      x y z
#    x 1.693620 -0.029160 -0.020190 
#    y -0.029160 1.684610 0.030140 
#    z -0.020190 0.030140 1.700450 
# 
# From -- ./inp_files/88621.got.cif
#   From: 2010.05.17/outbox.cif.g08.bks.cpg/sg2_45_cif.got.tgz:88621.got - 2010.06.03 11:33:40.
