data_PCOD9081020
_publ_section_title
;
Structure prediction by ZEFSAII (Michael W. Deem and Ramdas Pophale) SiO2 
 PCOD9081020
Probable space group: P -1
;
_chemical_formula_sum "Si O2"
_cell_formula_units_Z 16
_cell_length_a 8.748992
_cell_length_b 10.166873
_cell_length_c 8.778744
_cell_angle_alpha 75.882688
_cell_angle_beta 110.746892
_cell_angle_gamma 68.729411
_cell_volume 615.218099
_symmetry_space_group_name_H-M "P -1"
_symmetry_group_IT_number 2
_symmetry_cell_setting 'triclinic'
loop_
_space_group_symop_operation_xyz
x,y,z
-x,-y,-z
loop_
_atom_site_type_symbol
_atom_site_label
_atom_site_fract_x
_atom_site_fract_y
_atom_site_fract_z
Si Si1 0.811394 0.747711 0.269964
Si Si2 0.998834 0.654445 0.891228
Si Si3 0.471480 0.732130 0.045909
Si Si4 0.706989 0.146242 0.740466
Si Si5 0.187289 0.605382 0.265070
Si Si6 0.703133 0.371139 0.242144
Si Si7 0.018898 0.906400 0.381917
Si Si8 0.329341 0.261981 0.444037
O O1 0.648265 0.762535 0.096043
O O2 0.765017 0.705307 0.430725
O O3 0.013841 0.629500 0.304120
O O4 0.835866 0.897294 0.271441
O O5 0.153012 0.614080 0.827184
O O6 0.798379 0.766375 0.712542
O O7 0.071981 0.704762 0.048204
O O8 0.000000 0.500000 0.000000
O O9 0.338520 0.849285 0.098125
O O10 0.555898 0.549796 0.181207
O O11 0.383786 0.720165 0.857786
O O12 0.691785 0.315692 0.669828
O O13 0.901752 0.044204 0.748570
O O14 0.544212 0.140413 0.587576
O O15 0.313438 0.422825 0.334616
O O16 0.826593 0.265151 0.452821
O O17 0.000000 0.000000 0.500000
#
# Coordination Sequence:
#
# PCOD9081020 Si02
#       8
#     2   2   2   2   2   2   2   2
#     4  10  21  36  60  85 122 159 203 247 299 369
#     4  10  19  32  51  86 127 157 184 231 308 372
#     4  10  22  37  62 101 121 152 192 256 332 352
#     4  10  22  35  58  87 120 150 201 252 294 364
#     4  10  19  30  52  82 127 147 188 227 308 373
#     4  11  22  38  63  91 136 157 191 250 310 376
#     4  11  26  44  62  83 120 173 213 244 292 358
#     4  10  19  30  54  87 115 152 190 237 305 354
#
# _framework density 26.007038999999999
#
# number of rings (size 3 to 8) (size 9 to 14) (size 15 to 20)
#    0.000    1.750    2.500    2.250    8.750    2.000 
#    0.000    3.750    0.000    0.000    0.000    0.000 
#    0.000    0.000    0.000    0.000    0.000    0.000 
#
# Total GULP energy -89374.783526 kJ/mol
# GULP energy per Si atom -5585.923970 kJ/mol
# Density = 2.594785 g / cm^3
# Si number density = 26.007039 Si / 1000 Ang^3
#
#
#
# Elastic Constant Matrix: (Units=GPa)
#
#
# Indices 1 2 3 4 5 6 
#
# 1 107.0289 15.0421 63.7192 14.3348 20.0763 1.2352
# 2 15.0421 53.1472 32.4507 14.3691 -1.4255 4.0470
# 3 63.7192 32.4507 137.0192 10.6364 26.3744 10.2101
# 4 14.3348 14.3691 10.6364 38.9057 11.5738 -0.9020
# 5 20.0763 -1.4255 26.3744 11.5738 45.3513 16.2764
# 6 1.2352 4.0470 10.2101 -0.9020 16.2764 21.7393
#
#
#
# Elastic Compliance Matrix: (Units=1/GPa)
#
#
# Indices 1 2 3 4 5 6 
#
# 1 0.013796 -0.000277 -0.005787 -0.002109 -0.003957 0.004861
# 2 -0.000277 0.027646 -0.006983 -0.012125 0.012296 -0.011561
# 3 -0.005787 -0.006983 0.012505 0.003014 -0.005772 0.000202
# 4 -0.002109 -0.012125 0.003014 0.034916 -0.015009 0.013648
# 5 -0.003957 0.012296 -0.005772 -0.015009 0.042892 -0.032090
# 6 0.004861 -0.011561 0.000202 0.013648 -0.032090 0.072373
#
#
# Mechanical properties :
#
#
# Convention : Reuss Voigt Hill
#
# Bulk Modulus (GPa) = 35.90244 57.73550 46.81897
# Shear Modulus (GPa) = 20.87628 33.59814 27.23721
#
# Velocity S-wave (km/s) = 2.83630 3.59818 3.23971
# Velocity P-wave (km/s) = 4.95590 6.28575 5.66002
#
# Compressibility (1/GPa) = 0.02785326
#
# Stress axis : x y z
#
# Youngs Moduli (GPa) = 72.48476 36.17173 79.96789
#
# Poissons Ratio (x) = 0.01004 0.46276
# Poissons Ratio (y) = 0.02011 0.55838
# Poissons Ratio (z) = 0.41946 0.25257
#
# Static dielectric constant tensor:
#      x y z
#    x 2.052850 -0.031620 0.008240 
#    y -0.031620 2.140840 0.024020 
#    z 0.008240 0.024020 2.038740 
# 
# From -- ./inp_files/179343.got.cif
#   From: 2010.05.17/outbox.cif.g08.bks.cpg/sg2_90_cif.got.tgz:179343.got - 2010.06.03 11:33:40.
