data_PCOD9081533
_publ_section_title
;
Structure prediction by ZEFSAII (Michael W. Deem and Ramdas Pophale) SiO2 
 PCOD9081533
Probable space group: P -1
;
_chemical_formula_sum "Si O2"
_cell_formula_units_Z 16
_cell_length_a 8.027960
_cell_length_b 22.683774
_cell_length_c 17.035300
_cell_angle_alpha 158.388759
_cell_angle_beta 135.782047
_cell_angle_gamma 34.790574
_cell_volume 635.535295
_symmetry_space_group_name_H-M "P -1"
_symmetry_group_IT_number 2
_symmetry_cell_setting 'triclinic'
loop_
_space_group_symop_operation_xyz
x,y,z
-x,-y,-z
loop_
_atom_site_type_symbol
_atom_site_label
_atom_site_fract_x
_atom_site_fract_y
_atom_site_fract_z
Si Si1 0.732083 0.671475 0.384636
Si Si2 0.826214 0.238663 0.745952
Si Si3 0.196627 0.707357 0.625754
Si Si4 0.038385 0.754008 0.375495
Si Si5 0.933550 0.143783 0.066440
Si Si6 0.322334 0.543355 0.762045
Si Si7 0.396525 0.128544 0.841166
Si Si8 0.493948 0.806785 0.218459
O O1 0.521825 0.664892 0.241926
O O2 0.796930 0.537130 0.316352
O O3 0.028460 0.652994 0.442964
O O4 0.520057 0.905626 0.630104
O O5 0.841586 0.299685 0.738954
O O6 0.040858 0.262556 0.901570
O O7 0.000000 0.000000 0.500000
O O8 0.500000 0.500000 0.500000
O O9 0.016345 0.802310 0.764846
O O10 0.164514 0.904893 0.828746
O O11 0.802721 0.703543 0.242862
O O12 0.348149 0.641663 0.388492
O O13 0.803074 0.993721 0.599836
O O14 0.897582 0.300448 0.185616
O O15 0.607734 0.184794 0.012610
O O16 0.401932 0.669237 0.993805
O O17 0.444938 0.126424 0.760798
#
# Coordination Sequence:
#
# PCOD9081533 Si02
#       8
#     2   2   2   2   2   2   2   2
#     4   9  18  32  52  77 106 137 170 213 263 308
#     4   8  14  28  51  76 105 141 170 203 258 308
#     4  10  21  40  59  75 100 136 178 221 260 311
#     4   9  17  29  50  75 106 148 178 210 255 302
#     4   9  20  36  57  80 100 135 179 214 258 314
#     4  10  19  32  51  78 107 133 170 221 266 306
#     4   8  15  31  54  76 106 142 173 210 253 309
#     4   9  17  30  49  76 109 143 183 210 243 309
#
# _framework density 25.175629000000001
#
# number of rings (size 3 to 8) (size 9 to 14) (size 15 to 20)
#    0.000    3.000    0.000    0.375    0.000    4.500 
#    0.000    9.375    0.000   21.000    0.000    0.000 
#    0.000    0.000    0.000    0.000    0.000    0.000 
#
# Total GULP energy -89186.795088 kJ/mol
# GULP energy per Si atom -5574.174693 kJ/mol
# Density = 2.511833 g / cm^3
# Si number density = 25.175629 Si / 1000 Ang^3
#
#
#
# Elastic Constant Matrix: (Units=GPa)
#
#
# Indices 1 2 3 4 5 6 
#
# 1 83.3625 0.4536 18.6612 14.7211 14.4283 17.9222
# 2 0.4536 111.0295 9.5717 14.0460 -4.3616 -6.7184
# 3 18.6612 9.5717 63.6040 21.1144 11.6340 2.7845
# 4 14.7211 14.0460 21.1144 53.9141 1.9080 6.0203
# 5 14.4283 -4.3616 11.6340 1.9080 31.3527 16.8832
# 6 17.9222 -6.7184 2.7845 6.0203 16.8832 33.5696
#
#
#
# Elastic Compliance Matrix: (Units=1/GPa)
#
#
# Indices 1 2 3 4 5 6 
#
# 1 0.014731 0.000002 -0.002938 -0.002111 -0.002277 -0.006097
# 2 0.000002 0.009536 -0.000850 -0.002407 0.000672 0.002072
# 3 -0.002938 -0.000850 0.020525 -0.007312 -0.008887 0.005477
# 4 -0.002111 -0.002407 -0.007312 0.023036 0.004798 -0.005293
# 5 -0.002277 0.000672 -0.008887 0.004798 0.048523 -0.023177
# 6 -0.006097 0.002072 0.005477 -0.005293 -0.023177 0.045610
#
#
# Mechanical properties :
#
#
# Convention : Reuss Voigt Hill
#
# Bulk Modulus (GPa) = 26.86787 35.04099 30.95443
# Shear Modulus (GPa) = 27.48150 39.05456 33.26803
#
# Velocity S-wave (km/s) = 3.30751 3.94291 3.63910
# Velocity P-wave (km/s) = 5.02807 5.88876 5.47535
#
# Compressibility (1/GPa) = 0.03721918
#
# Stress axis : x y z
#
# Youngs Moduli (GPa) = 67.88330 104.86383 48.72065
#
# Poissons Ratio (x) = -0.00019 0.14315
# Poissons Ratio (y) = -0.00012 0.04142
# Poissons Ratio (z) = 0.19946 0.08915
#
# Static dielectric constant tensor:
#      x y z
#    x 2.018040 -0.006310 0.022410 
#    y -0.006310 2.128000 0.044840 
#    z 0.022410 0.044840 2.089520 
# 
# From -- ./inp_files/592129.got.cif
#   From: 2010.05.17/outbox.cif.g08.bks.cpg/sg2_297_cif.got.tgz:592129.got - 2010.06.03 11:33:40.
