data_PCOD9081604
_publ_section_title
;
Structure prediction by ZEFSAII (Michael W. Deem and Ramdas Pophale) SiO2 
 PCOD9081604
Probable space group: P -1
;
_chemical_formula_sum "Si O2"
_cell_formula_units_Z 16
_cell_length_a 8.216992
_cell_length_b 18.359808
_cell_length_c 12.204948
_cell_angle_alpha 152.804718
_cell_angle_beta 113.946111
_cell_angle_gamma 50.989963
_cell_volume 589.202297
_symmetry_space_group_name_H-M "P -1"
_symmetry_group_IT_number 2
_symmetry_cell_setting 'triclinic'
loop_
_space_group_symop_operation_xyz
x,y,z
-x,-y,-z
loop_
_atom_site_type_symbol
_atom_site_label
_atom_site_fract_x
_atom_site_fract_y
_atom_site_fract_z
Si Si1 0.263699 0.310204 0.079721
Si Si2 0.963118 0.222393 0.587673
Si Si3 0.076394 0.002380 0.903682
Si Si4 0.716617 0.818026 0.744274
Si Si5 0.390989 0.401396 0.463397
Si Si6 0.882265 0.292100 0.901329
Si Si7 0.795001 0.694731 0.376847
Si Si8 0.468939 0.648926 0.944268
O O1 0.344707 0.342090 0.257156
O O2 0.449301 0.230986 0.926548
O O3 0.124736 0.221950 0.925526
O O4 0.051448 0.550364 0.308403
O O5 0.026778 0.041245 0.280929
O O6 0.707143 0.436475 0.774765
O O7 0.153880 0.251204 0.652050
O O8 0.951629 0.179141 0.652422
O O9 0.344315 0.794402 0.696364
O O10 0.078609 0.192382 0.164963
O O11 0.000000 0.000000 0.000000
O O12 0.757303 0.609552 0.501140
O O13 0.656743 0.867888 0.665600
O O14 0.500000 0.000000 0.000000
O O15 0.386987 0.590713 0.738281
O O16 0.742985 0.536821 0.154621
O O17 0.720349 0.280019 0.918557
#
# Coordination Sequence:
#
# PCOD9081604 Si02
#       8
#     2   2   2   2   2   2   2   2
#     4   9  21  34  53  83 112 144 175 221 284 331
#     4  10  19  34  54  78 113 142 180 231 264 323
#     4  10  20  34  55  81 103 142 184 221 269 313
#     4  10  19  33  52  79 109 140 183 222 265 319
#     4  10  19  36  53  77 115 135 180 231 268 329
#     4  10  20  34  53  81 114 143 178 219 283 327
#     4   9  18  32  53  79 109 140 176 218 278 324
#     4  10  19  32  52  84 111 139 176 221 278 326
#
# _framework density 27.155360000000002
#
# number of rings (size 3 to 8) (size 9 to 14) (size 15 to 20)
#    0.750    1.500    2.500    1.125    0.000    2.000 
#    2.250    0.000    0.000    1.500    0.000    0.000 
#    0.000    0.000    0.000    0.000    0.000    0.000 
#
# Total GULP energy -89358.927449 kJ/mol
# GULP energy per Si atom -5584.932966 kJ/mol
# Density = 2.709355 g / cm^3
# Si number density = 27.155360 Si / 1000 Ang^3
#
#
#
# Elastic Constant Matrix: (Units=GPa)
#
#
# Indices 1 2 3 4 5 6 
#
# 1 164.9148 27.1903 41.2138 -12.7698 -30.9647 35.1493
# 2 27.1903 67.0869 16.3430 -19.9423 -9.7921 8.5923
# 3 41.2138 16.3430 130.0558 -23.9341 -17.4434 10.4208
# 4 -12.7698 -19.9423 -23.9341 45.1711 5.9237 -7.1296
# 5 -30.9647 -9.7921 -17.4434 5.9237 28.4847 -11.5665
# 6 35.1493 8.5923 10.4208 -7.1296 -11.5665 41.6358
#
#
#
# Elastic Compliance Matrix: (Units=1/GPa)
#
#
# Indices 1 2 3 4 5 6 
#
# 1 0.008972 -0.001918 -0.001486 -0.000735 0.006224 -0.005203
# 2 -0.001918 0.018207 -0.000004 0.007121 0.002613 -0.000192
# 3 -0.001486 -0.000004 0.009347 0.004168 0.003483 0.000597
# 4 -0.000735 0.007121 0.004168 0.027775 -0.000464 0.002735
# 5 0.006224 0.002613 0.003483 -0.000464 0.047634 0.006488
# 6 -0.005203 -0.000192 0.000597 0.002735 0.006488 0.030572
#
#
# Mechanical properties :
#
#
# Convention : Reuss Voigt Hill
#
# Bulk Modulus (GPa) = 33.65809 59.06130 46.35969
# Shear Modulus (GPa) = 31.40199 41.54569 36.47384
#
# Velocity S-wave (km/s) = 3.40425 3.91567 3.66888
# Velocity P-wave (km/s) = 5.27953 6.49922 5.92087
#
# Compressibility (1/GPa) = 0.02971054
#
# Stress axis : x y z
#
# Youngs Moduli (GPa) = 111.45783 54.92368 106.99002
#
# Poissons Ratio (x) = 0.10535 0.15896
# Poissons Ratio (y) = 0.21378 0.00041
# Poissons Ratio (z) = 0.16560 0.00021
#
# Static dielectric constant tensor:
#      x y z
#    x 2.032790 0.073550 0.038400 
#    y 0.073550 2.161680 0.044700 
#    z 0.038400 0.044700 2.171780 
# 
# From -- ./inp_files/284134.got.cif
#   From: 2010.05.17/outbox.cif.g08.bks.cpg/sg2_143_cif.got.tgz:284134.got - 2010.06.03 11:33:40.
