data_PCOD9081783
_publ_section_title
;
Structure prediction by ZEFSAII (Michael W. Deem and Ramdas Pophale) SiO2 
 PCOD9081783
Probable space group: P -1
;
_chemical_formula_sum "Si O2"
_cell_formula_units_Z 12
_cell_length_a 6.882005
_cell_length_b 11.444536
_cell_length_c 7.349345
_cell_angle_alpha 82.249139
_cell_angle_beta 122.755550
_cell_angle_gamma 73.813433
_cell_volume 437.277034
_symmetry_space_group_name_H-M "P -1"
_symmetry_group_IT_number 2
_symmetry_cell_setting 'triclinic'
loop_
_space_group_symop_operation_xyz
x,y,z
-x,-y,-z
loop_
_atom_site_type_symbol
_atom_site_label
_atom_site_fract_x
_atom_site_fract_y
_atom_site_fract_z
Si Si1 0.640119 0.755003 0.500965
Si Si2 0.242352 0.351324 0.007527
Si Si3 0.243703 0.677309 0.354264
Si Si4 0.145461 0.573245 0.664042
Si Si5 0.173413 0.952075 0.357484
Si Si6 0.360486 0.913075 0.874254
O O1 0.481776 0.676346 0.362795
O O2 0.430411 0.904315 0.375141
O O3 0.915426 0.713036 0.567018
O O4 0.687704 0.702200 0.742862
O O5 0.246679 0.484502 0.911073
O O6 0.955751 0.363938 0.833341
O O7 0.433102 0.235256 0.000845
O O8 0.318685 0.599893 0.598837
O O9 0.108925 0.827937 0.316858
O O10 0.000000 0.500000 0.500000
O O11 0.261150 0.953246 0.608501
O O12 0.901085 0.070071 0.157850
O O13 0.500000 0.000000 0.000000
#
# Coordination Sequence:
#
# PCOD9081783 Si02
#       6
#     2   2   2   2   2   2
#     4   9  19  37  54  80 111 140 183 216 269 326
#     4  10  19  32  55  85 105 147 181 214 272 322
#     4   9  19  36  54  82 108 142 175 222 272 311
#     4  10  21  35  56  83 112 140 178 224 271 322
#     4   8  18  30  54  82  99 145 179 211 275 312
#     4  10  15  30  55  79 105 137 186 218 254 324
#
# _framework density 27.442557000000001
#
# number of rings (size 3 to 8) (size 9 to 14) (size 15 to 20)
#    1.000    1.667    1.667    0.500    0.000    3.333 
#    0.000    3.333    0.000   13.000    0.000    0.000 
#    0.000    0.000    0.000    0.000    0.000    0.000 
#
# Total GULP energy -67039.574022 kJ/mol
# GULP energy per Si atom -5586.631168 kJ/mol
# Density = 2.738010 g / cm^3
# Si number density = 27.442557 Si / 1000 Ang^3
#
#
#
# Elastic Constant Matrix: (Units=GPa)
#
#
# Indices 1 2 3 4 5 6 
#
# 1 73.9800 29.7565 24.2553 -8.2430 1.1528 9.3751
# 2 29.7565 91.2315 -1.6875 -17.4959 13.5068 -34.9849
# 3 24.2553 -1.6875 120.9038 -12.8742 3.6769 -4.5430
# 4 -8.2430 -17.4959 -12.8742 27.4864 -8.2580 13.0649
# 5 1.1528 13.5068 3.6769 -8.2580 31.4350 -7.5863
# 6 9.3751 -34.9849 -4.5430 13.0649 -7.5863 33.6724
#
#
#
# Elastic Compliance Matrix: (Units=1/GPa)
#
#
# Indices 1 2 3 4 5 6 
#
# 1 0.030081 -0.022084 -0.006752 0.009484 0.003173 -0.035195
# 2 -0.022084 0.035147 0.006335 -0.003708 -0.005453 0.043730
# 3 -0.006752 0.006335 0.010328 0.002425 -0.000945 0.008701
# 4 0.009484 -0.003708 0.002425 0.052272 0.008789 -0.024467
# 5 0.003173 -0.005453 -0.000945 0.008789 0.035980 -0.001981
# 6 -0.035195 0.043730 0.008701 -0.024467 -0.001981 0.095152
#
#
# Mechanical properties :
#
#
# Convention : Reuss Voigt Hill
#
# Bulk Modulus (GPa) = 32.72851 43.41822 38.07337
# Shear Modulus (GPa) = 15.91619 34.10483 25.01051
#
# Velocity S-wave (km/s) = 2.41089 3.52912 3.02218
# Velocity P-wave (km/s) = 4.43869 5.69755 5.10706
#
# Compressibility (1/GPa) = 0.03055440
#
# Stress axis : x y z
#
# Youngs Moduli (GPa) = 33.24369 28.45212 96.82452
#
# Poissons Ratio (x) = 0.62833 0.65376
# Poissons Ratio (y) = 0.73414 -0.61339
# Poissons Ratio (z) = 0.22446 -0.18025
#
# Static dielectric constant tensor:
#      x y z
#    x 2.113490 -0.078770 0.002480 
#    y -0.078770 2.177740 -0.010860 
#    z 0.002480 -0.010860 2.144240 
# 
# From -- ./inp_files/193500.got.cif
#   From: 2010.05.17/outbox.cif.g08.bks.cpg/sg2_97_cif.got.tgz:193500.got - 2010.06.03 11:33:40.
