data_PCOD9081822
_publ_section_title
;
Structure prediction by ZEFSAII (Michael W. Deem and Ramdas Pophale) SiO2 
 PCOD9081822
Probable space group: P -1
;
_chemical_formula_sum "Si O2"
_cell_formula_units_Z 16
_cell_length_a 8.139740
_cell_length_b 7.694158
_cell_length_c 17.512766
_cell_angle_alpha 76.504722
_cell_angle_beta 143.584026
_cell_angle_gamma 109.029791
_cell_volume 614.699094
_symmetry_space_group_name_H-M "P -1"
_symmetry_group_IT_number 2
_symmetry_cell_setting 'triclinic'
loop_
_space_group_symop_operation_xyz
x,y,z
-x,-y,-z
loop_
_atom_site_type_symbol
_atom_site_label
_atom_site_fract_x
_atom_site_fract_y
_atom_site_fract_z
Si Si1 0.321247 0.706720 0.665937
Si Si2 0.648336 0.595892 0.397862
Si Si3 0.728684 0.069403 0.245801
Si Si4 0.110061 0.822022 0.032507
Si Si5 0.296056 0.680200 0.426428
Si Si6 0.756227 0.037231 0.505639
Si Si7 0.153745 0.938503 0.878176
Si Si8 0.893125 0.278059 0.799586
O O1 0.418649 0.532455 0.688514
O O2 0.369572 0.764746 0.765343
O O3 0.430585 0.881201 0.633600
O O4 0.985467 0.667548 0.524016
O O5 0.596188 0.465146 0.466815
O O6 0.444286 0.733312 0.311104
O O7 0.453020 0.902485 0.150872
O O8 0.894641 0.118413 0.222638
O O9 0.948721 0.016843 0.393255
O O10 0.004650 0.682359 0.078033
O O11 0.042620 0.792126 0.920090
O O12 0.000000 0.000000 0.000000
O O13 0.140136 0.792582 0.414144
O O14 0.090375 0.605781 0.285384
O O15 0.555489 0.851786 0.483326
O O16 0.026397 0.111856 0.836914
O O17 0.500000 0.000000 0.000000
#
# Coordination Sequence:
#
# PCOD9081822 Si02
#       8
#     2   2   2   2   2   2   2   2
#     4  10  21  36  55  88 128 166 201 234 289 372
#     4  10  22  37  54  88 135 169 194 224 292 396
#     4  11  18  34  59  84 117 153 195 256 315 334
#     4   9  20  35  59  87 110 144 207 272 300 343
#     4  10  20  33  54  91 127 154 195 236 293 372
#     4  10  19  32  55  90 121 152 198 252 284 353
#     4   9  20  36  56  89 111 143 207 275 306 339
#     4  11  18  35  59  82 116 160 194 240 311 356
#
# _framework density 26.028995999999999
#
# number of rings (size 3 to 8) (size 9 to 14) (size 15 to 20)
#    0.000    2.000    1.250    3.000    0.000    0.000 
#    0.000    0.000    0.000    7.500    0.000    0.000 
#    0.000    0.000    0.000    0.000    0.000    0.000 
#
# Total GULP energy -89122.695359 kJ/mol
# GULP energy per Si atom -5570.168460 kJ/mol
# Density = 2.596975 g / cm^3
# Si number density = 26.028996 Si / 1000 Ang^3
#
#
#
# Elastic Constant Matrix: (Units=GPa)
#
#
# Indices 1 2 3 4 5 6 
#
# 1 130.4073 27.4224 42.8764 -3.5545 -31.9783 -18.6648
# 2 27.4224 54.9368 21.0266 -6.4866 -0.4043 0.5045
# 3 42.8764 21.0266 89.2464 -11.9157 -16.9726 -6.9735
# 4 -3.5545 -6.4866 -11.9157 23.5135 2.6469 -1.0273
# 5 -31.9783 -0.4043 -16.9726 2.6469 80.3603 -0.2366
# 6 -18.6648 0.5045 -6.9735 -1.0273 -0.2366 34.3912
#
#
#
# Elastic Compliance Matrix: (Units=1/GPa)
#
#
# Indices 1 2 3 4 5 6 
#
# 1 0.011483 -0.004607 -0.003455 -0.001479 0.003882 0.005582
# 2 -0.004607 0.022221 -0.003246 0.003927 -0.002547 -0.003385
# 3 -0.003455 -0.003246 0.014830 0.005983 0.001548 0.001369
# 4 -0.001479 0.003927 0.005983 0.046590 -0.000835 0.001739
# 5 0.003882 -0.002547 0.001548 -0.000835 0.014338 0.002532
# 6 0.005582 -0.003385 0.001369 0.001739 0.002532 0.032503
#
#
# Mechanical properties :
#
#
# Convention : Reuss Voigt Hill
#
# Bulk Modulus (GPa) = 38.58320 50.80462 44.69391
# Shear Modulus (GPa) = 28.86483 39.87067 34.36775
#
# Velocity S-wave (km/s) = 3.33370 3.91804 3.63762
# Velocity P-wave (km/s) = 5.44733 6.32684 5.90349
#
# Compressibility (1/GPa) = 0.02591802
#
# Stress axis : x y z
#
# Youngs Moduli (GPa) = 87.08159 45.00234 67.43269
#
# Poissons Ratio (x) = 0.20734 0.23295
# Poissons Ratio (y) = 0.40121 0.21891
# Poissons Ratio (z) = 0.30082 0.14609
#
# Static dielectric constant tensor:
#      x y z
#    x 2.234440 0.047760 -0.114670 
#    y 0.047760 2.088550 -0.011920 
#    z -0.114670 -0.011920 2.173850 
# 
# From -- ./inp_files/351816.got.cif
#   From: 2010.05.17/outbox.cif.g08.bks.cpg/sg2_176_cif.got.tgz:351816.got - 2010.06.03 11:33:40.
