data_PCOD9081414
_publ_section_title
;
Structure prediction by ZEFSAII (Michael W. Deem and Ramdas Pophale) SiO2 
 PCOD9081414
Probable space group: P -1
;
_chemical_formula_sum "Si O2"
_cell_formula_units_Z 16
_cell_length_a 14.828742
_cell_length_b 19.250605
_cell_length_c 9.527422
_cell_angle_alpha 49.608713
_cell_angle_beta 65.864259
_cell_angle_gamma 25.589954
_cell_volume 756.688918
_symmetry_space_group_name_H-M "P -1"
_symmetry_group_IT_number 2
_symmetry_cell_setting 'triclinic'
loop_
_space_group_symop_operation_xyz
x,y,z
-x,-y,-z
loop_
_atom_site_type_symbol
_atom_site_label
_atom_site_fract_x
_atom_site_fract_y
_atom_site_fract_z
Si Si1 0.965269 0.135626 0.074855
Si Si2 0.438575 0.699160 0.535120
Si Si3 0.295375 0.266544 0.617637
Si Si4 0.418225 0.966942 0.963558
Si Si5 0.679538 0.117771 0.054064
Si Si6 0.828252 0.046373 0.339401
Si Si7 0.597098 0.459318 0.345264
Si Si8 0.836013 0.436960 0.762273
O O1 0.229791 0.901668 0.292269
O O2 0.061534 0.076240 0.934481
O O3 0.842082 0.141339 0.159409
O O4 0.826292 0.341989 0.957845
O O5 0.474195 0.560550 0.691069
O O6 0.701082 0.526726 0.581608
O O7 0.327121 0.823895 0.590712
O O8 0.432754 0.055571 0.769093
O O9 0.301396 0.350417 0.402283
O O10 0.000000 0.500000 0.500000
O O11 0.408021 0.188048 0.806383
O O12 0.128745 0.205986 0.881309
O O13 0.439943 0.866569 0.970354
O O14 0.515490 0.346734 0.850120
O O15 0.728281 0.066810 0.254058
O O16 0.110080 0.782319 0.533036
O O17 0.500000 0.500000 0.500000
#
# Coordination Sequence:
#
# PCOD9081414 Si02
#       8
#     2   2   2   2   2   2   2   2
#     4  10  20  34  54  81 115 151 201 241 269 328
#     4  11  23  38  53  82 120 160 195 236 280 333
#     4   9  18  35  57  87 115 142 178 240 298 339
#     4   9  20  34  55  88 118 138 185 245 286 343
#     4  11  21  34  57  85 112 150 194 237 288 332
#     4  11  24  37  53  81 123 156 197 240 279 329
#     4  11  22  34  57  80 115 160 199 233 279 323
#     4  10  19  31  59  80 111 149 191 229 287 337
#
# _framework density 21.144753999999999
#
# number of rings (size 3 to 8) (size 9 to 14) (size 15 to 20)
#    0.000    1.750    2.500    4.125    3.500    4.000 
#    0.000    0.000    0.000    0.750    0.000    9.625 
#    0.000    0.000    0.000    0.000    0.000    0.000 
#
# Total GULP energy -89071.538858 kJ/mol
# GULP energy per Si atom -5566.971179 kJ/mol
# Density = 2.109663 g / cm^3
# Si number density = 21.144754 Si / 1000 Ang^3
#
#
#
# Elastic Constant Matrix: (Units=GPa)
#
#
# Indices 1 2 3 4 5 6 
#
# 1 119.0754 18.3547 30.9464 -6.3737 1.1869 12.2212
# 2 18.3547 74.1170 21.2268 -1.1520 4.5520 7.2793
# 3 30.9464 21.2268 73.0600 -26.3924 -0.3076 0.2181
# 4 -6.3737 -1.1520 -26.3924 31.7882 12.3990 7.5117
# 5 1.1869 4.5520 -0.3076 12.3990 51.2940 -8.1247
# 6 12.2212 7.2793 0.2181 7.5117 -8.1247 18.5281
#
#
#
# Elastic Compliance Matrix: (Units=1/GPa)
#
#
# Indices 1 2 3 4 5 6 
#
# 1 0.010363 -0.000605 -0.003559 0.001767 -0.001920 -0.008114
# 2 -0.000605 0.015712 -0.004742 -0.001227 -0.002084 -0.006135
# 3 -0.003559 -0.004742 0.025785 0.025506 -0.007014 -0.009509
# 4 0.001767 -0.001227 0.025506 0.071631 -0.023480 -0.040321
# 5 -0.001920 -0.002084 -0.007014 -0.023480 0.029241 0.024509
# 6 -0.008114 -0.006135 -0.009509 -0.040321 0.024509 0.088940
#
#
# Mechanical properties :
#
#
# Convention : Reuss Voigt Hill
#
# Bulk Modulus (GPa) = 29.37099 45.25645 37.31372
# Shear Modulus (GPa) = 18.46155 33.37037 25.91596
#
# Velocity S-wave (km/s) = 2.95804 3.97695 3.50472
# Velocity P-wave (km/s) = 5.05838 6.52210 5.83631
#
# Compressibility (1/GPa) = 0.03404720
#
# Stress axis : x y z
#
# Youngs Moduli (GPa) = 96.49942 63.64757 38.78157
#
# Poissons Ratio (x) = 0.03848 0.13804
# Poissons Ratio (y) = 0.05835 0.18391
# Poissons Ratio (z) = 0.34347 0.30184
#
# Static dielectric constant tensor:
#      x y z
#    x 1.862030 -0.015230 -0.000290 
#    y -0.015230 1.764260 -0.028170 
#    z -0.000290 -0.028170 1.855620 
# 
# From -- ./inp_files/318027.got.cif
#   From: 2010.05.17/outbox.cif.g08.bks.cpg/sg2_160_cif.got.tgz:318027.got - 2010.06.03 11:33:40.
