data_PCOD9081666
_publ_section_title
;
Structure prediction by ZEFSAII (Michael W. Deem and Ramdas Pophale) SiO2 
 PCOD9081666
Probable space group: P -1
;
_chemical_formula_sum "Si O2"
_cell_formula_units_Z 16
_cell_length_a 22.559213
_cell_length_b 13.821338
_cell_length_c 9.618392
_cell_angle_alpha 38.460667
_cell_angle_beta 145.610286
_cell_angle_gamma 152.267456
_cell_volume 772.289880
_symmetry_space_group_name_H-M "P -1"
_symmetry_group_IT_number 2
_symmetry_cell_setting 'triclinic'
loop_
_space_group_symop_operation_xyz
x,y,z
-x,-y,-z
loop_
_atom_site_type_symbol
_atom_site_label
_atom_site_fract_x
_atom_site_fract_y
_atom_site_fract_z
Si Si1 0.209031 0.319280 0.597292
Si Si2 0.589060 0.357704 0.842481
Si Si3 0.567709 0.182098 0.276878
Si Si4 0.722896 0.829385 0.575185
Si Si5 0.286509 0.927805 0.170320
Si Si6 0.316378 0.197857 0.156885
Si Si7 0.107039 0.939939 0.622975
Si Si8 0.592687 0.277381 0.646619
O O1 0.277342 0.530317 0.409215
O O2 0.059962 0.213265 0.499480
O O3 0.179392 0.153761 0.611786
O O4 0.306494 0.342416 0.881800
O O5 0.663714 0.597523 0.690335
O O6 0.416618 0.203430 0.684219
O O7 0.627554 0.290094 0.861910
O O8 0.629930 0.342265 0.091480
O O9 0.686834 0.219475 0.559344
O O10 0.443448 0.136923 0.178423
O O11 0.482790 0.951536 0.300887
O O12 0.759138 0.869686 0.763610
O O13 0.845148 0.995816 0.515799
O O14 0.251765 0.998557 0.157162
O O15 0.172997 0.850601 0.919067
O O16 0.476947 0.302281 0.384218
#
# Coordination Sequence:
#
# PCOD9081666 Si02
#       8
#     2   2   2   2   2   2   2   2
#     4  10  20  34  55  80 105 145 173 217 266 313
#     4  10  19  32  53  83 110 134 172 221 272 309
#     4  10  19  32  55  78 108 141 175 216 265 306
#     4  10  19  32  55  82 108 138 166 223 273 312
#     4   9  19  35  53  80 105 140 177 216 258 315
#     4   9  20  32  54  83 110 130 173 227 268 305
#     4  10  19  36  56  76 111 139 176 216 265 318
#     4  10  19  33  52  83 108 137 179 218 257 313
#
# _framework density 20.717611000000002
#
# number of rings (size 3 to 8) (size 9 to 14) (size 15 to 20)
#    0.000    2.250    2.500    0.750    0.000    3.500 
#    0.000    0.625    0.000    0.750    0.000    0.000 
#    0.000    0.000    0.000    0.000    0.000    0.000 
#
# Total GULP energy -89336.775243 kJ/mol
# GULP energy per Si atom -5583.548453 kJ/mol
# Density = 2.067046 g / cm^3
# Si number density = 20.717611 Si / 1000 Ang^3
#
#
#
# Elastic Constant Matrix: (Units=GPa)
#
#
# Indices 1 2 3 4 5 6 
#
# 1 120.4593 21.8515 19.1529 -4.4382 -31.8722 10.5176
# 2 21.8515 35.3691 4.2631 -7.7893 -3.9129 10.2216
# 3 19.1529 4.2631 64.9556 -7.0952 -14.5098 11.0476
# 4 -4.4382 -7.7893 -7.0952 11.1924 5.7961 -8.2867
# 5 -31.8722 -3.9129 -14.5098 5.7961 34.9462 -4.2334
# 6 10.5176 10.2216 11.0476 -8.2867 -4.2334 26.3408
#
#
#
# Elastic Compliance Matrix: (Units=1/GPa)
#
#
# Indices 1 2 3 4 5 6 
#
# 1 0.012841 -0.007738 -0.001250 -0.008939 0.011498 -0.002564
# 2 -0.007738 0.039266 0.001956 0.024175 -0.006637 -0.006429
# 3 -0.001250 0.001956 0.018309 0.005968 0.005055 -0.005249
# 4 -0.008939 0.024175 0.005968 0.142453 -0.022613 0.032865
# 5 0.011498 -0.006637 0.005055 -0.022613 0.043696 -0.004227
# 6 -0.002564 -0.006429 -0.005249 0.032865 -0.004227 0.053344
#
#
# Mechanical properties :
#
#
# Convention : Reuss Voigt Hill
#
# Bulk Modulus (GPa) = 17.74565 34.59102 26.16833
# Shear Modulus (GPa) = 14.58759 26.19696 20.39228
#
# Velocity S-wave (km/s) = 2.65640 3.55981 3.14075
# Velocity P-wave (km/s) = 4.24178 5.79905 5.08044
#
# Compressibility (1/GPa) = 0.05635184
#
# Stress axis : x y z
#
# Youngs Moduli (GPa) = 77.87729 25.46729 54.61712
#
# Poissons Ratio (x) = 0.19706 0.06829
# Poissons Ratio (y) = 0.60261 -0.10684
# Poissons Ratio (z) = 0.09737 -0.04982
#
# Static dielectric constant tensor:
#      x y z
#    x 1.780020 -0.032410 0.004990 
#    y -0.032410 1.710010 0.003750 
#    z 0.004990 0.003750 1.774730 
# 
# From -- ./inp_files/199702.got.cif
#   From: 2010.05.17/outbox.cif.g08.bks.cpg/sg2_100_cif.got.tgz:199702.got - 2010.06.03 11:33:40.
