data_PCOD9081127
_publ_section_title
;
Structure prediction by ZEFSAII (Michael W. Deem and Ramdas Pophale) SiO2 
 PCOD9081127
Probable space group: P -1
;
_chemical_formula_sum "Si O2"
_cell_formula_units_Z 14
_cell_length_a 4.197037
_cell_length_b 25.708850
_cell_length_c 5.610060
_cell_angle_alpha 123.061568
_cell_angle_beta 90.000200
_cell_angle_gamma 67.999719
_cell_volume 453.818314
_symmetry_space_group_name_H-M "P -1"
_symmetry_group_IT_number 2
_symmetry_cell_setting 'triclinic'
loop_
_space_group_symop_operation_xyz
x,y,z
-x,-y,-z
loop_
_atom_site_type_symbol
_atom_site_label
_atom_site_fract_x
_atom_site_fract_y
_atom_site_fract_z
Si Si1 0.252548 0.790623 0.976558
Si Si2 0.016308 0.655929 0.139822
Si Si3 0.374747 0.931663 0.829160
Si Si4 0.369753 0.929151 0.322880
Si Si5 0.733536 0.206118 0.515295
Si Si6 0.706545 0.494436 0.236090
Si Si7 0.440353 0.643897 0.609741
O O1 0.072895 0.794473 0.731963
O O2 0.534935 0.709050 0.772626
O O3 0.072894 0.794474 0.240403
O O4 0.645408 0.725759 0.314397
O O5 0.228238 0.651791 0.377908
O O6 0.981273 0.583846 0.959614
O O7 0.228238 0.651791 0.881047
O O8 0.553067 0.931005 0.575569
O O9 0.312722 0.863608 0.659021
O O10 0.553067 0.931005 0.079457
O O11 0.000000 0.000000 0.000000
O O12 0.339507 0.856415 0.141038
O O13 0.000000 0.000000 0.500000
O O14 0.500000 0.500000 0.500000
O O15 0.751013 0.565081 0.412703
O O16 0.500000 0.500000 0.000000
#
# Coordination Sequence:
#
# PCOD9081127 Si02
#       7
#     2   2   2   2   2   2   2
#     4  10  19  31  48  74  99 122 159 202 240 283
#     4  10  19  33  51  71  96 129 163 198 238 286
#     4   8  14  25  42  65  87 115 151 189 224 272
#     4   8  14  25  42  65  87 115 151 189 224 272
#     4  10  19  31  48  74  99 122 159 202 240 283
#     4   8  16  30  48  66  90 128 166 188 226 294
#     4  10  19  33  51  71  96 129 163 198 238 286
#
# _framework density 30.849350000000001
#
# number of rings (size 3 to 8) (size 9 to 14) (size 15 to 20)
#    0.000    2.857    0.000    1.714    0.000    0.000 
#    0.000    1.429    0.000    0.000    0.000   96.000 
#    0.000    0.000    0.000    0.000    0.000    0.000 
#
# Total GULP energy -78280.636232 kJ/mol
# GULP energy per Si atom -5591.474017 kJ/mol
# Density = 3.077914 g / cm^3
# Si number density = 30.849350 Si / 1000 Ang^3
#
#
#
# Elastic Constant Matrix: (Units=GPa)
#
#
# Indices 1 2 3 4 5 6 
#
# 1 74.4251 87.5403 69.0288 6.3243 -16.0671 -12.8549
# 2 87.5403 276.4375 123.6894 76.5564 -1.3982 7.7624
# 3 69.0288 123.6894 278.6788 -72.3667 -20.2022 12.9069
# 4 6.3243 76.5564 -72.3667 166.3575 30.8131 -3.7619
# 5 -16.0671 -1.3982 -20.2022 30.8131 37.2592 10.4212
# 6 -12.8549 7.7624 12.9069 -3.7619 10.4212 55.4638
#
#
#
# Elastic Compliance Matrix: (Units=1/GPa)
#
#
# Indices 1 2 3 4 5 6 
#
# 1 0.028684 -0.007323 -0.003746 -0.000833 0.008843 0.006827
# 2 -0.007323 0.009188 -0.003567 -0.005693 0.000708 -0.002672
# 3 -0.003746 -0.003567 0.007416 0.005295 -0.001712 -0.001414
# 4 -0.000833 -0.005693 0.005295 0.012610 -0.008648 0.001852
# 5 0.008843 0.000708 -0.001712 -0.008648 0.038429 -0.005458
# 6 0.006827 -0.002672 -0.001414 0.001852 -0.005458 0.021466
#
#
# Mechanical properties :
#
#
# Convention : Reuss Voigt Hill
#
# Bulk Modulus (GPa) = 62.44463 132.22870 97.33667
# Shear Modulus (GPa) = 32.80725 75.10162 53.95444
#
# Velocity S-wave (km/s) = 3.26462 4.93938 4.18660
# Velocity P-wave (km/s) = 5.87334 8.68825 7.41559
#
# Compressibility (1/GPa) = 0.01601419
#
# Stress axis : x y z
#
# Youngs Moduli (GPa) = 34.86302 108.83659 134.84243
#
# Poissons Ratio (x) = 0.79705 0.50513
# Poissons Ratio (y) = 0.25531 0.48103
# Poissons Ratio (z) = 0.13060 0.38826
#
# Static dielectric constant tensor:
#      x y z
#    x 2.313730 0.019010 0.002540 
#    y 0.019010 2.355760 -0.000380 
#    z 0.002540 -0.000380 2.362390 
# 
# From -- ./inp_files/14913.got.cif
#   From: 2010.05.17/outbox.cif.g08.bks.cpg/sg2_8_cif.got.tgz:14913.got - 2010.06.03 11:33:40.
