data_PCOD9081096
_publ_section_title
;
Structure prediction by ZEFSAII (Michael W. Deem and Ramdas Pophale) SiO2 
 PCOD9081096
Probable space group: P -1
;
_chemical_formula_sum "Si O2"
_cell_formula_units_Z 16
_cell_length_a 13.783290
_cell_length_b 15.397433
_cell_length_c 11.238505
_cell_angle_alpha 125.043018
_cell_angle_beta 21.902750
_cell_angle_gamma 124.690642
_cell_volume 723.245205
_symmetry_space_group_name_H-M "P -1"
_symmetry_group_IT_number 2
_symmetry_cell_setting 'triclinic'
loop_
_space_group_symop_operation_xyz
x,y,z
-x,-y,-z
loop_
_atom_site_type_symbol
_atom_site_label
_atom_site_fract_x
_atom_site_fract_y
_atom_site_fract_z
Si Si1 0.823797 0.873520 0.790599
Si Si2 0.246307 0.356054 0.306426
Si Si3 0.532968 0.905298 0.796111
Si Si4 0.813866 0.481326 0.815752
Si Si5 0.258532 0.290695 0.962507
Si Si6 0.726629 0.059295 0.488324
Si Si7 0.759090 0.161106 0.303425
Si Si8 0.942915 0.117266 0.795564
O O1 0.848925 0.758711 0.617859
O O2 0.008884 0.889744 0.709259
O O3 0.906924 0.986653 0.719058
O O4 0.514801 0.871725 0.164231
O O5 0.018892 0.434171 0.634548
O O6 0.542318 0.404384 0.041892
O O7 0.257033 0.323849 0.128871
O O8 0.759252 0.841589 0.532864
O O9 0.634746 0.955718 0.591928
O O10 0.259683 0.840358 0.028828
O O11 0.500000 0.000000 0.000000
O O12 0.000000 0.500000 0.500000
O O13 0.714976 0.595442 0.046121
O O14 0.496793 0.217833 0.626536
O O15 0.983867 0.234481 0.178529
O O16 0.737725 0.055903 0.330649
O O17 0.863745 0.136439 0.035820
#
# Coordination Sequence:
#
# PCOD9081096 Si02
#       8
#     2   2   2   2   2   2   2   2
#     4  10  19  31  46  69  99 131 175 207 254 282
#     4  11  17  31  45  64  94 137 182 211 241 294
#     4  10  21  38  55  71  98 136 180 217 255 293
#     4  10  20  29  45  63  90 136 193 201 244 295
#     4  11  20  31  45  68  99 142 177 207 247 293
#     4  10  19  32  49  72 100 135 169 206 256 288
#     4  12  20  33  50  73 111 138 175 204 245 308
#     4  10  23  35  53  79 102 141 174 207 252 301
#
# _framework density 22.122510999999999
#
# number of rings (size 3 to 8) (size 9 to 14) (size 15 to 20)
#    0.000    1.500    2.500    5.625    0.000    4.000 
#    0.000    0.000    0.000    0.000    0.000    0.000 
#    0.000    0.000    0.000  315.000   35.000    5.000 
#
# Total GULP energy -89214.376991 kJ/mol
# GULP energy per Si atom -5575.898562 kJ/mol
# Density = 2.207216 g / cm^3
# Si number density = 22.122511 Si / 1000 Ang^3
#
#
#
# Elastic Constant Matrix: (Units=GPa)
#
#
# Indices 1 2 3 4 5 6 
#
# 1 100.6388 14.2064 62.2003 -4.7950 -30.1544 11.3245
# 2 14.2064 65.8571 15.3538 -3.0638 -13.5527 -1.9834
# 3 62.2003 15.3538 123.2132 7.4958 -42.2353 -2.1979
# 4 -4.7950 -3.0638 7.4958 24.3672 2.7300 -17.1767
# 5 -30.1544 -13.5527 -42.2353 2.7300 56.3386 -2.9499
# 6 11.3245 -1.9834 -2.1979 -17.1767 -2.9499 24.8387
#
#
#
# Elastic Compliance Matrix: (Units=1/GPa)
#
#
# Indices 1 2 3 4 5 6 
#
# 1 0.016338 -0.001635 -0.007269 -0.001213 0.002502 -0.008764
# 2 -0.001635 0.016749 -0.000589 0.006475 0.002757 0.006836
# 3 -0.007269 -0.000589 0.014783 -0.005925 0.007408 0.001358
# 4 -0.001213 0.006475 -0.005925 0.085753 -0.004583 0.059302
# 5 0.002502 0.002757 0.007408 -0.004583 0.025507 -0.000405
# 6 -0.008764 0.006836 0.001358 0.059302 -0.000405 0.085882
#
#
# Mechanical properties :
#
#
# Convention : Reuss Voigt Hill
#
# Bulk Modulus (GPa) = 34.62094 52.58113 43.60103
# Shear Modulus (GPa) = 18.27318 34.30546 26.28932
#
# Velocity S-wave (km/s) = 2.87714 3.94217 3.45099
# Velocity P-wave (km/s) = 5.16922 6.67388 5.96915
#
# Compressibility (1/GPa) = 0.02888425
#
# Stress axis : x y z
#
# Youngs Moduli (GPa) = 61.20694 59.70583 67.64556
#
# Poissons Ratio (x) = 0.09763 0.49171
# Poissons Ratio (y) = 0.10009 0.03982
# Poissons Ratio (z) = 0.44491 0.03514
#
# Static dielectric constant tensor:
#      x y z
#    x 1.900610 -0.048100 -0.022730 
#    y -0.048100 1.872180 -0.028220 
#    z -0.022730 -0.028220 1.906860 
# 
# From -- ./inp_files/370850.got.cif
#   From: 2010.05.17/outbox.cif.g08.bks.cpg/sg2_186_cif.got.tgz:370850.got - 2010.06.03 11:33:40.
