data_PCOD9081966
_publ_section_title
;
Structure prediction by ZEFSAII (Michael W. Deem and Ramdas Pophale) SiO2 
 PCOD9081966
Probable space group: P -1
;
_chemical_formula_sum "Si O2"
_cell_formula_units_Z 15
_cell_length_a 8.298789
_cell_length_b 7.443685
_cell_length_c 15.874236
_cell_angle_alpha 138.034530
_cell_angle_beta 108.579398
_cell_angle_gamma 84.154633
_cell_volume 607.266426
_symmetry_space_group_name_H-M "P -1"
_symmetry_group_IT_number 2
_symmetry_cell_setting 'triclinic'
loop_
_space_group_symop_operation_xyz
x,y,z
-x,-y,-z
loop_
_atom_site_type_symbol
_atom_site_label
_atom_site_fract_x
_atom_site_fract_y
_atom_site_fract_z
Si Si1 0.000000 0.500000 0.500000
Si Si2 0.390140 0.534283 0.125992
Si Si3 0.714253 0.416630 0.063070
Si Si4 0.091192 0.396528 0.162321
Si Si5 0.534730 0.884513 0.579151
Si Si6 0.833346 0.023090 0.354944
Si Si7 0.824521 0.976177 0.535706
Si Si8 0.224256 0.365899 0.345309
O O1 0.209539 0.718005 0.608759
O O2 0.050432 0.386665 0.372451
O O3 0.538288 0.359480 0.070593
O O4 0.218570 0.403413 0.105910
O O5 0.479378 0.812876 0.287799
O O6 0.334652 0.628843 0.058398
O O7 0.885092 0.306989 0.079831
O O8 0.776318 0.749748 0.198624
O O9 0.167069 0.258327 0.205357
O O10 0.113968 0.713920 0.310766
O O11 0.636171 0.875678 0.506448
O O12 0.355808 0.665156 0.463659
O O13 0.661726 0.804080 0.642745
O O14 0.045233 0.181952 0.446345
O O15 0.832497 0.944383 0.426156
#
# Coordination Sequence:
#
# PCOD9081966 Si02
#       8
#     1   2   2   2   2   2   2   2
#     4  12  20  36  54  90 130 158 190 246 316 380
#     4  10  22  41  67  86 121 162 211 257 301 364
#     4  10  22  40  65  92 116 164 212 254 303 362
#     4  10  21  38  61  92 120 156 207 254 307 364
#     4  10  22  40  59  91 126 162 198 257 309 374
#     4  10  19  32  58  89 121 154 195 251 302 364
#     4   9  18  33  57  87 119 150 202 248 304 354
#     4  11  23  37  59  93 130 162 196 251 331 359
#
# _framework density 24.700856999999999
#
# number of rings (size 3 to 8) (size 9 to 14) (size 15 to 20)
#    0.000    1.867    2.667    1.200    1.867    1.067 
#    2.400    0.667    0.000    1.600    0.000    0.000 
#    0.000    0.000    0.000    0.000    0.000    0.000 
#
# Total GULP energy -83565.318226 kJ/mol
# GULP energy per Si atom -5571.021215 kJ/mol
# Density = 2.464464 g / cm^3
# Si number density = 24.700857 Si / 1000 Ang^3
#
#
#
# Elastic Constant Matrix: (Units=GPa)
#
#
# Indices 1 2 3 4 5 6 
#
# 1 172.4524 29.5651 47.4861 -36.2885 5.5719 16.8511
# 2 29.5651 76.1479 40.4698 -17.9464 -6.9516 15.7163
# 3 47.4861 40.4698 116.4980 -22.4976 -9.3543 10.6137
# 4 -36.2885 -17.9464 -22.4976 39.8678 -2.3166 -5.9027
# 5 5.5719 -6.9516 -9.3543 -2.3166 36.0522 -20.3775
# 6 16.8511 15.7163 10.6137 -5.9027 -20.3775 44.2661
#
#
#
# Elastic Compliance Matrix: (Units=1/GPa)
#
#
# Indices 1 2 3 4 5 6 
#
# 1 0.007960 -0.000396 -0.002071 0.005226 -0.003334 -0.003231
# 2 -0.000396 0.017746 -0.004772 0.004281 0.000018 -0.004427
# 3 -0.002071 -0.004772 0.011820 0.003107 0.003653 0.001744
# 4 0.005226 0.004281 0.003107 0.034107 0.004300 0.002273
# 5 -0.003334 0.000018 0.003653 0.004300 0.040583 0.019643
# 6 -0.003231 -0.004427 0.001744 0.002273 0.019643 0.034320
#
#
# Mechanical properties :
#
#
# Convention : Reuss Voigt Hill
#
# Bulk Modulus (GPa) = 43.38607 66.68227 55.03417
# Shear Modulus (GPa) = 29.63890 40.54237 35.09064
#
# Velocity S-wave (km/s) = 3.46774 4.05573 3.77321
# Velocity P-wave (km/s) = 5.79968 6.99904 6.42740
#
# Compressibility (1/GPa) = 0.02304887
#
# Stress axis : x y z
#
# Youngs Moduli (GPa) = 125.62652 56.34956 84.60009
#
# Poissons Ratio (x) = 0.02229 0.17523
# Poissons Ratio (y) = 0.04969 0.40372
# Poissons Ratio (z) = 0.26021 0.26891
#
# Static dielectric constant tensor:
#      x y z
#    x 2.317050 -0.043080 -0.043040 
#    y -0.043080 2.083730 0.039070 
#    z -0.043040 0.039070 1.951710 
# 
# From -- ./inp_files/493901.got.cif
#   From: 2010.05.17/outbox.cif.g08.bks.cpg/sg2_247_cif.got.tgz:493901.got - 2010.06.03 11:33:40.
