data_PCOD9081782
_publ_section_title
;
Structure prediction by ZEFSAII (Michael W. Deem and Ramdas Pophale) SiO2 
 PCOD9081782
Probable space group: P -1
;
_chemical_formula_sum "Si O2"
_cell_formula_units_Z 16
_cell_length_a 8.656827
_cell_length_b 16.865483
_cell_length_c 13.823994
_cell_angle_alpha 150.742919
_cell_angle_beta 60.658409
_cell_angle_gamma 99.823194
_cell_volume 685.952377
_symmetry_space_group_name_H-M "P -1"
_symmetry_group_IT_number 2
_symmetry_cell_setting 'triclinic'
loop_
_space_group_symop_operation_xyz
x,y,z
-x,-y,-z
loop_
_atom_site_type_symbol
_atom_site_label
_atom_site_fract_x
_atom_site_fract_y
_atom_site_fract_z
Si Si1 0.907510 0.632094 0.371885
Si Si2 0.246220 0.297175 0.192135
Si Si3 0.477236 0.713471 0.064902
Si Si4 0.624479 0.281839 0.181100
Si Si5 0.737062 0.420195 0.123642
Si Si6 0.731155 0.938444 0.908390
Si Si7 0.621793 0.770162 0.256322
Si Si8 0.161670 0.167513 0.589178
O O1 0.716785 0.603988 0.378802
O O2 0.902727 0.724534 0.573151
O O3 0.875617 0.783943 0.460168
O O4 0.131201 0.408380 0.047336
O O5 0.431662 0.288041 0.190706
O O6 0.255429 0.110193 0.034447
O O7 0.000000 0.500000 0.500000
O O8 0.331344 0.285471 0.045599
O O9 0.490088 0.704655 0.167796
O O10 0.261154 0.938645 0.341935
O O11 0.465136 0.546474 0.839100
O O12 0.500000 0.500000 0.500000
O O13 0.782156 0.269459 0.036819
O O14 0.746873 0.107959 0.039507
O O15 0.932454 0.318457 0.876782
O O16 0.500000 0.000000 0.000000
O O17 0.670227 0.786991 0.370946
O O18 0.500000 0.000000 0.500000
#
# Coordination Sequence:
#
# PCOD9081782 Si02
#       8
#     2   2   2   2   2   2   2   2
#     4  11  20  36  59  82 110 150 194 234 279 346
#     4  10  20  36  58  83 113 154 190 228 287 349
#     4  10  20  34  54  81 112 145 186 234 285 335
#     4  10  21  37  58  85 113 147 194 243 285 331
#     4  10  19  32  55  82 110 144 185 237 284 326
#     4  10  20  35  57  84 111 148 192 234 281 343
#     4   9  19  34  53  78 110 147 185 223 275 341
#     4  10  20  36  56  81 110 149 193 231 279 345
#
# _framework density 23.325234999999999
#
# number of rings (size 3 to 8) (size 9 to 14) (size 15 to 20)
#    0.000    2.000    0.000    6.375    0.000    1.000 
#    0.000    3.125    0.000   31.500    0.000    0.000 
#    0.000    0.000    0.000    0.000    0.000    0.000 
#
# Total GULP energy -89163.822387 kJ/mol
# GULP energy per Si atom -5572.738899 kJ/mol
# Density = 2.327215 g / cm^3
# Si number density = 23.325235 Si / 1000 Ang^3
#
#
#
# Elastic Constant Matrix: (Units=GPa)
#
#
# Indices 1 2 3 4 5 6 
#
# 1 40.2618 21.8701 -2.0777 11.3755 15.0294 -9.3787
# 2 21.8701 83.6286 -3.4021 5.1131 -5.6771 -2.4851
# 3 -2.0777 -3.4021 72.5197 4.4582 0.8472 0.0786
# 4 11.3755 5.1131 4.4582 26.3038 -0.1800 1.1094
# 5 15.0294 -5.6771 0.8472 -0.1800 36.1774 2.6911
# 6 -9.3787 -2.4851 0.0786 1.1094 2.6911 26.2994
#
#
#
# Elastic Compliance Matrix: (Units=1/GPa)
#
#
# Indices 1 2 3 4 5 6 
#
# 1 0.053173 -0.013599 0.002509 -0.021851 -0.025972 0.021249
# 2 -0.013599 0.015776 0.000069 0.003044 0.008463 -0.004354
# 3 0.002509 0.000069 0.014098 -0.003547 -0.001466 0.001159
# 4 -0.021851 0.003044 -0.003547 0.047997 0.010667 -0.010610
# 5 -0.025972 0.008463 -0.001466 0.010667 0.040820 -0.013085
# 6 0.021249 -0.004354 0.001159 -0.010610 -0.013085 0.046973
#
#
# Mechanical properties :
#
#
# Convention : Reuss Voigt Hill
#
# Bulk Modulus (GPa) = 16.39202 25.46564 20.92883
# Shear Modulus (GPa) = 19.14144 29.75745 24.44945
#
# Velocity S-wave (km/s) = 2.86778 3.57566 3.24110
# Velocity P-wave (km/s) = 4.24363 5.29041 4.79566
#
# Compressibility (1/GPa) = 0.06100531
#
# Stress axis : x y z
#
# Youngs Moduli (GPa) = 18.80670 63.38836 70.93001
#
# Poissons Ratio (x) = 0.86202 -0.17797
# Poissons Ratio (y) = 0.25575 -0.00491
# Poissons Ratio (z) = -0.04719 -0.00438
#
# Static dielectric constant tensor:
#      x y z
#    x 2.018330 0.008100 0.015390 
#    y 0.008100 1.934420 -0.015460 
#    z 0.015390 -0.015460 1.933650 
# 
# From -- ./inp_files/507332.got.cif
#   From: 2010.05.17/outbox.cif.g08.bks.cpg/sg2_254_cif.got.tgz:507332.got - 2010.06.03 11:33:40.
