data_PCOD9081993
_publ_section_title
;
Structure prediction by ZEFSAII (Michael W. Deem and Ramdas Pophale) SiO2 
 PCOD9081993
Probable space group: P -1
;
_chemical_formula_sum "Si O2"
_cell_formula_units_Z 16
_cell_length_a 10.875324
_cell_length_b 23.197207
_cell_length_c 11.863331
_cell_angle_alpha 38.274458
_cell_angle_beta 150.525580
_cell_angle_gamma 150.240671
_cell_volume 725.653599
_symmetry_space_group_name_H-M "P -1"
_symmetry_group_IT_number 2
_symmetry_cell_setting 'triclinic'
loop_
_space_group_symop_operation_xyz
x,y,z
-x,-y,-z
loop_
_atom_site_type_symbol
_atom_site_label
_atom_site_fract_x
_atom_site_fract_y
_atom_site_fract_z
Si Si1 0.230255 0.724932 0.688214
Si Si2 0.005689 0.724807 0.851387
Si Si3 0.276577 0.284536 0.565852
Si Si4 0.216532 0.869300 0.020103
Si Si5 0.002674 0.518961 0.107523
Si Si6 0.348793 0.128782 0.999216
Si Si7 0.248498 0.077545 0.479567
Si Si8 0.404855 0.945603 0.382925
O O1 0.530841 0.805315 0.885945
O O2 0.243066 0.808932 0.477245
O O3 0.939507 0.684520 0.600252
O O4 0.179061 0.608648 0.787229
O O5 0.778055 0.738651 0.575103
O O6 0.336761 0.808205 0.922399
O O7 0.081915 0.772137 0.964759
O O8 0.879389 0.591811 0.936005
O O9 0.632674 0.392977 0.704139
O O10 0.177151 0.171307 0.731073
O O11 0.404799 0.850761 0.292728
O O12 0.916587 0.871836 0.794320
O O13 0.500000 0.000000 0.000000
O O14 0.000000 0.500000 0.000000
O O15 0.225008 0.995766 0.114757
O O16 0.302450 0.010103 0.532829
O O17 0.000000 0.000000 0.500000
O O18 0.500000 0.000000 0.500000
#
# Coordination Sequence:
#
# PCOD9081993 Si02
#       8
#     2   2   2   2   2   2   2   2
#     4  10  20  35  54  86 128 174 209 266 334 405
#     4  10  21  34  61  94 122 166 223 281 327 389
#     4  10  19  32  59  87 126 172 218 273 338 391
#     4  10  22  41  65  94 129 172 228 280 332 396
#     4  11  19  35  57  89 132 169 222 277 334 398
#     4   9  18  34  53  86 128 164 211 257 336 398
#     4  10  22  44  68  93 133 180 226 273 331 406
#     4  10  22  43  61  97 137 172 217 274 347 408
#
# _framework density 22.049088000000001
#
# number of rings (size 3 to 8) (size 9 to 14) (size 15 to 20)
#    0.000    2.000    3.750    1.875    3.500    0.500 
#   22.500    0.000    0.000    1.500    0.000    0.000 
#    0.000    0.000    0.000    0.000    0.000    0.000 
#
# Total GULP energy -89173.515234 kJ/mol
# GULP energy per Si atom -5573.344702 kJ/mol
# Density = 2.199890 g / cm^3
# Si number density = 22.049088 Si / 1000 Ang^3
#
#
#
# Elastic Constant Matrix: (Units=GPa)
#
#
# Indices 1 2 3 4 5 6 
#
# 1 81.5337 23.3026 35.0587 4.5013 -0.7907 -21.4866
# 2 23.3026 140.0070 66.1425 -30.3498 -7.6701 -16.6016
# 3 35.0587 66.1425 158.5223 0.8898 1.5734 -19.9346
# 4 4.5013 -30.3498 0.8898 53.3865 -4.1724 0.6393
# 5 -0.7907 -7.6701 1.5734 -4.1724 30.5010 2.9077
# 6 -21.4866 -16.6016 -19.9346 0.6393 2.9077 29.8513
#
#
#
# Elastic Compliance Matrix: (Units=1/GPa)
#
#
# Indices 1 2 3 4 5 6 
#
# 1 0.016090 -0.001193 -0.001797 -0.002204 -0.001032 0.009865
# 2 -0.001193 0.011295 -0.004266 0.006863 0.003772 0.002060
# 3 -0.001797 -0.004266 0.008837 -0.002621 -0.002172 0.002503
# 4 -0.002204 0.006863 -0.002621 0.023262 0.005034 -0.000508
# 5 -0.001032 0.003772 -0.002172 0.005034 0.034851 -0.003598
# 6 0.009865 0.002060 0.002503 -0.000508 -0.003598 0.043778
#
#
# Mechanical properties :
#
#
# Convention : Reuss Voigt Hill
#
# Bulk Modulus (GPa) = 46.06447 69.89673 57.98060
# Shear Modulus (GPa) = 31.27681 39.78504 35.53092
#
# Velocity S-wave (km/s) = 3.77039 4.25241 4.01864
# Velocity P-wave (km/s) = 6.31598 7.47529 6.91996
#
# Compressibility (1/GPa) = 0.02170870
#
# Stress axis : x y z
#
# Youngs Moduli (GPa) = 62.14934 88.53523 113.16545
#
# Poissons Ratio (x) = 0.10566 0.20340
# Poissons Ratio (y) = 0.07417 0.48274
# Poissons Ratio (z) = 0.11170 0.37767
#
# Static dielectric constant tensor:
#      x y z
#    x 1.857900 0.015680 0.026080 
#    y 0.015680 1.834340 -0.016000 
#    z 0.026080 -0.016000 1.987400 
# 
# From -- ./inp_files/439123.got.cif
#   From: 2010.05.17/outbox.cif.g08.bks.cpg/sg2_220_cif.got.tgz:439123.got - 2010.06.03 11:33:40.
