data_PCOD9081809
_publ_section_title
;
Structure prediction by ZEFSAII (Michael W. Deem and Ramdas Pophale) SiO2 
 PCOD9081809
Probable space group: P -1
;
_chemical_formula_sum "Si O2"
_cell_formula_units_Z 16
_cell_length_a 25.652836
_cell_length_b 16.603874
_cell_length_c 13.366138
_cell_angle_alpha 150.700288
_cell_angle_beta 162.550729
_cell_angle_gamma 23.616916
_cell_volume 683.821103
_symmetry_space_group_name_H-M "P -1"
_symmetry_group_IT_number 2
_symmetry_cell_setting 'triclinic'
loop_
_space_group_symop_operation_xyz
x,y,z
-x,-y,-z
loop_
_atom_site_type_symbol
_atom_site_label
_atom_site_fract_x
_atom_site_fract_y
_atom_site_fract_z
Si Si1 0.558340 0.182390 0.790180
Si Si2 0.732757 0.575992 0.654284
Si Si3 0.335947 0.156224 0.522863
Si Si4 0.864781 0.091434 0.609392
Si Si5 0.473798 0.818912 0.754759
Si Si6 0.683156 0.140960 0.705406
Si Si7 0.875459 0.471503 0.012509
Si Si8 0.056293 0.827219 0.493629
O O1 0.352741 0.293556 0.462611
O O2 0.504862 0.182668 0.808385
O O3 0.693343 0.959209 0.747785
O O4 0.703125 0.262114 0.128405
O O5 0.826724 0.589213 0.945932
O O6 0.915632 0.357126 0.711375
O O7 0.499465 0.645955 0.347591
O O8 0.385005 0.007112 0.542291
O O9 0.118373 0.367321 0.374204
O O10 0.654920 0.169882 0.372813
O O11 0.853519 0.285046 0.757857
O O12 0.902812 0.938885 0.426311
O O13 0.079290 0.964336 0.932787
O O14 0.706205 0.616982 0.942953
O O15 0.339365 0.838928 0.432226
O O16 0.500000 0.000000 0.000000
O O17 0.000000 0.000000 0.500000
#
# Coordination Sequence:
#
# PCOD9081809 Si02
#       8
#     2   2   2   2   2   2   2   2
#     4  10  19  32  55  86 126 154 191 239 289 364
#     4  10  19  34  58  90 120 158 198 239 293 362
#     4   9  18  36  58  83 117 160 191 234 306 354
#     4  11  21  41  64  87 120 171 200 243 308 365
#     4  11  25  41  63  90 119 150 213 270 301 346
#     4   9  20  41  64  84 120 162 204 243 303 376
#     4  10  20  41  61  84 120 163 205 241 304 371
#     4  12  21  35  59  90 126 152 203 242 291 365
#
# _framework density 23.397932999999998
#
# number of rings (size 3 to 8) (size 9 to 14) (size 15 to 20)
#    0.000    1.750    5.000    1.125    0.000    2.500 
#    0.000    5.000    0.000    0.000    0.000    0.000 
#    0.000    0.000    0.000    0.000    0.000    0.000 
#
# Total GULP energy -89259.690551 kJ/mol
# GULP energy per Si atom -5578.730659 kJ/mol
# Density = 2.334468 g / cm^3
# Si number density = 23.397933 Si / 1000 Ang^3
#
#
#
# Elastic Constant Matrix: (Units=GPa)
#
#
# Indices 1 2 3 4 5 6 
#
# 1 117.4240 32.9473 19.4578 -15.8242 23.8432 -22.5152
# 2 32.9473 109.3245 24.7812 -29.3332 9.6770 -24.7655
# 3 19.4578 24.7812 51.2173 -15.0405 8.0711 -10.8419
# 4 -15.8242 -29.3332 -15.0405 33.7929 1.1854 5.7556
# 5 23.8432 9.6770 8.0711 1.1854 32.4070 -13.3590
# 6 -22.5152 -24.7655 -10.8419 5.7556 -13.3590 38.7334
#
#
#
# Elastic Compliance Matrix: (Units=1/GPa)
#
#
# Indices 1 2 3 4 5 6 
#
# 1 0.011392 -0.000925 -0.001095 0.003805 -0.006814 0.002809
# 2 -0.000925 0.013969 -0.002135 0.009737 -0.000814 0.006069
# 3 -0.001095 -0.002135 0.024525 0.008311 -0.004049 0.002232
# 4 0.003805 0.009737 0.008311 0.043628 -0.008869 0.001222
# 5 -0.006814 -0.000814 -0.004049 -0.008869 0.041588 0.010047
# 6 0.002809 0.006069 0.002232 0.001222 0.010047 0.035239
#
#
# Mechanical properties :
#
#
# Convention : Reuss Voigt Hill
#
# Bulk Modulus (GPa) = 24.05182 48.03760 36.04471
# Shear Modulus (GPa) = 25.97273 34.37198 30.17235
#
# Velocity S-wave (km/s) = 3.33535 3.83693 3.59490
# Velocity P-wave (km/s) = 5.01343 6.34072 5.71573
#
# Compressibility (1/GPa) = 0.04157690
#
# Stress axis : x y z
#
# Youngs Moduli (GPa) = 87.78102 71.58601 40.77496
#
# Poissons Ratio (x) = 0.06619 0.04463
# Poissons Ratio (y) = 0.08116 0.08707
# Poissons Ratio (z) = 0.09609 0.15286
#
# Static dielectric constant tensor:
#      x y z
#    x 1.879930 0.031630 0.016460 
#    y 0.031630 1.944600 0.019310 
#    z 0.016460 0.019310 1.967430 
# 
# From -- ./inp_files/221669.got.cif
#   From: 2010.05.17/outbox.cif.g08.bks.cpg/sg2_111_cif.got.tgz:221669.got - 2010.06.03 11:33:40.
