data_PCOD9081515
_publ_section_title
;
Structure prediction by ZEFSAII (Michael W. Deem and Ramdas Pophale) SiO2 
 PCOD9081515
Probable space group: P -1
;
_chemical_formula_sum "Si O2"
_cell_formula_units_Z 16
_cell_length_a 13.176198
_cell_length_b 15.446933
_cell_length_c 18.069575
_cell_angle_alpha 47.169347
_cell_angle_beta 132.615478
_cell_angle_gamma 161.299054
_cell_volume 856.147676
_symmetry_space_group_name_H-M "P -1"
_symmetry_group_IT_number 2
_symmetry_cell_setting 'triclinic'
loop_
_space_group_symop_operation_xyz
x,y,z
-x,-y,-z
loop_
_atom_site_type_symbol
_atom_site_label
_atom_site_fract_x
_atom_site_fract_y
_atom_site_fract_z
Si Si1 0.037508 0.024883 0.233200
Si Si2 0.529893 0.829480 0.707327
Si Si3 0.233056 0.352438 0.008908
Si Si4 0.501801 0.263071 0.548684
Si Si5 0.391874 0.411962 0.314495
Si Si6 0.148856 0.675755 0.399197
Si Si7 0.261010 0.094853 0.071625
Si Si8 0.776933 0.626941 0.593417
O O1 0.273334 0.095480 0.298432
O O2 0.120048 0.175707 0.118660
O O3 0.122525 0.158601 0.272677
O O4 0.681147 0.698660 0.247952
O O5 0.639003 0.867923 0.819480
O O6 0.157754 0.522870 0.685518
O O7 0.635376 0.046939 0.631519
O O8 0.500000 0.500000 0.000000
O O9 0.425474 0.612411 0.983328
O O10 0.928379 0.148221 0.927283
O O11 0.522716 0.394530 0.429806
O O12 0.649833 0.265008 0.580420
O O13 0.695660 0.445694 0.613183
O O14 0.127506 0.948405 0.561706
O O15 0.265323 0.400149 0.323456
O O16 0.000000 0.500000 0.500000
O O17 0.000000 0.000000 0.000000
O O18 0.500000 0.500000 0.500000
#
# Coordination Sequence:
#
# PCOD9081515 Si02
#       8
#     2   2   2   2   2   2   2   2
#     4  12  21  32  53  82 120 149 174 230 289 338
#     4  12  23  36  56  78 115 165 192 225 269 334
#     4  10  19  32  51  74 112 152 174 215 295 342
#     4  11  21  40  57  74 115 154 188 240 279 316
#     4  11  22  34  54  86 107 141 197 230 294 343
#     4  12  26  39  53  82 119 159 205 220 259 336
#     4  10  19  34  54  75 107 148 191 231 281 327
#     4  10  20  37  61  79 102 144 193 247 294 333
#
# _framework density 18.688365000000001
#
# number of rings (size 3 to 8) (size 9 to 14) (size 15 to 20)
#    0.000    1.000    2.500    8.625    3.500    0.000 
#    0.000    0.000    0.000    0.000    0.000    0.000 
#    0.000   70.000    0.000    0.000    0.000    0.000 
#
# Total GULP energy -89292.785426 kJ/mol
# GULP energy per Si atom -5580.799089 kJ/mol
# Density = 1.864583 g / cm^3
# Si number density = 18.688365 Si / 1000 Ang^3
#
#
#
# Elastic Constant Matrix: (Units=GPa)
#
#
# Indices 1 2 3 4 5 6 
#
# 1 80.8414 19.4413 12.9530 -5.7687 -9.5988 -5.6511
# 2 19.4413 113.1466 7.3036 -13.4957 -0.9621 -14.6911
# 3 12.9530 7.3036 50.2243 -4.8655 -9.9559 2.7329
# 4 -5.7687 -13.4957 -4.8655 33.0398 -7.1042 -7.0284
# 5 -9.5988 -0.9621 -9.9559 -7.1042 14.8980 0.9469
# 6 -5.6511 -14.6911 2.7329 -7.0284 0.9469 33.4269
#
#
#
# Elastic Compliance Matrix: (Units=1/GPa)
#
#
# Indices 1 2 3 4 5 6 
#
# 1 0.014684 -0.001467 -0.001158 0.004636 0.010638 0.002606
# 2 -0.001467 0.010512 -0.000608 0.005464 0.001582 0.005526
# 3 -0.001158 -0.000608 0.024890 0.007032 0.019301 -0.001566
# 4 0.004636 0.005464 0.007032 0.042584 0.027660 0.010780
# 5 0.010638 0.001582 0.019301 0.027660 0.099919 0.003901
# 6 0.002606 0.005526 -0.001566 0.010780 0.003901 0.035069
#
#
# Mechanical properties :
#
#
# Convention : Reuss Voigt Hill
#
# Bulk Modulus (GPa) = 22.92478 35.95644 29.44061
# Shear Modulus (GPa) = 20.10744 29.90724 25.00734
#
# Velocity S-wave (km/s) = 3.28370 4.00473 3.66201
# Velocity P-wave (km/s) = 5.16434 6.37696 5.80242
#
# Compressibility (1/GPa) = 0.04362092
#
# Stress axis : x y z
#
# Youngs Moduli (GPa) = 68.10062 95.12972 40.17658
#
# Poissons Ratio (x) = 0.13951 0.04652
# Poissons Ratio (y) = 0.09987 0.02444
# Poissons Ratio (z) = 0.07885 0.05786
#
# Static dielectric constant tensor:
#      x y z
#    x 1.783180 -0.100110 0.014810 
#    y -0.100110 1.700790 -0.016090 
#    z 0.014810 -0.016090 1.682140 
# 
# From -- ./inp_files/569950.got.cif
#   From: 2010.05.17/outbox.cif.g08.bks.cpg/sg2_285_cif.got.tgz:569950.got - 2010.06.03 11:33:40.
