data_PCOD9081161
_publ_section_title
;
Structure prediction by ZEFSAII (Michael W. Deem and Ramdas Pophale) SiO2 
 PCOD9081161
Probable space group: P -1
;
_chemical_formula_sum "Si O2"
_cell_formula_units_Z 14
_cell_length_a 11.674741
_cell_length_b 14.729685
_cell_length_c 6.742532
_cell_angle_alpha 56.856249
_cell_angle_beta 85.343220
_cell_angle_gamma 130.805043
_cell_volume 530.610290
_symmetry_space_group_name_H-M "P -1"
_symmetry_group_IT_number 2
_symmetry_cell_setting 'triclinic'
loop_
_space_group_symop_operation_xyz
x,y,z
-x,-y,-z
loop_
_atom_site_type_symbol
_atom_site_label
_atom_site_fract_x
_atom_site_fract_y
_atom_site_fract_z
Si Si1 0.326237 0.093670 0.074601
Si Si2 0.406669 0.213766 0.458714
Si Si3 0.711770 0.120239 0.237235
Si Si4 0.188710 0.751591 0.380842
Si Si5 0.760687 0.513334 0.630973
Si Si6 0.169745 0.496915 0.813212
Si Si7 0.098808 0.148251 0.629658
O O1 0.301289 0.945625 0.223158
O O2 0.372496 0.174884 0.749447
O O3 0.524093 0.284387 0.948232
O O4 0.103271 0.966973 0.322752
O O5 0.659643 0.421110 0.163189
O O6 0.269636 0.209171 0.423803
O O7 0.315762 0.029961 0.608577
O O8 0.500000 0.000000 0.500000
O O9 0.751597 0.202369 0.916071
O O10 0.922045 0.306003 0.113853
O O11 0.242577 0.678298 0.551280
O O12 0.939068 0.577492 0.624347
O O13 0.816045 0.552555 0.340957
O O14 0.793564 0.661444 0.518893
O O15 0.000000 0.000000 0.000000
#
# Coordination Sequence:
#
# PCOD9081161 Si02
#       7
#     2   2   2   2   2   2   2
#     4   8  16  27  44  69  98 125 154 198 245 285
#     4   9  19  30  45  69 100 130 158 195 243 286
#     4  10  20  33  48  69  99 132 166 199 234 284
#     4   9  18  32  48  74 103 126 158 199 242 289
#     4   9  16  26  45  70  98 129 156 193 248 291
#     4  10  19  31  50  73 101 130 157 196 245 291
#     4   9  16  27  41  66 101 126 156 197 241 291
#
# _framework density 26.384710999999999
#
# number of rings (size 3 to 8) (size 9 to 14) (size 15 to 20)
#    0.000    2.857    0.000    4.286    0.000   13.143 
#    0.000    0.000    0.000    0.000    0.000    9.000 
#    0.000  116.571    0.000    7.286    0.000    0.000 
#
# Total GULP energy -78553.854525 kJ/mol
# GULP energy per Si atom -5610.989609 kJ/mol
# Density = 2.632466 g / cm^3
# Si number density = 26.384711 Si / 1000 Ang^3
#
#
#
# Elastic Constant Matrix: (Units=GPa)
#
#
# Indices 1 2 3 4 5 6 
#
# 1 164.0376 91.5777 63.6103 -25.8173 -47.4876 -16.2233
# 2 91.5777 156.3742 48.7483 -46.4987 -19.9713 1.8265
# 3 63.6103 48.7483 133.7128 -23.5461 -41.0638 6.5945
# 4 -25.8173 -46.4987 -23.5461 52.5017 13.9425 -5.6264
# 5 -47.4876 -19.9713 -41.0638 13.9425 61.2744 -1.8665
# 6 -16.2233 1.8265 6.5945 -5.6264 -1.8665 43.7580
#
#
#
# Elastic Compliance Matrix: (Units=1/GPa)
#
#
# Indices 1 2 3 4 5 6 
#
# 1 0.012873 -0.006544 -0.002176 -0.001699 0.006939 0.005451
# 2 -0.006544 0.012544 -0.001029 0.008181 -0.003592 -0.001896
# 3 -0.002176 -0.001029 0.010689 0.001329 0.004778 -0.002000
# 4 -0.001699 0.008181 0.001329 0.027325 -0.003911 0.002175
# 5 0.006939 -0.003592 0.004778 -0.003911 0.024697 0.002553
# 6 0.005451 -0.001896 -0.002000 0.002175 0.002553 0.025643
#
#
# Mechanical properties :
#
#
# Convention : Reuss Voigt Hill
#
# Bulk Modulus (GPa) = 60.20640 95.77748 77.99194
# Shear Modulus (GPa) = 36.02184 48.18604 42.10394
#
# Velocity S-wave (km/s) = 3.69894 4.27814 3.99904
# Velocity P-wave (km/s) = 6.41179 7.79631 7.13770
#
# Compressibility (1/GPa) = 0.01660953
#
# Stress axis : x y z
#
# Youngs Moduli (GPa) = 77.67995 79.71954 93.55270
#
# Poissons Ratio (x) = 0.52165 0.20354
# Poissons Ratio (y) = 0.50830 0.09629
# Poissons Ratio (z) = 0.16901 0.08205
#
# Static dielectric constant tensor:
#      x y z
#    x 2.001790 0.047150 -0.049810 
#    y 0.047150 2.057900 0.082410 
#    z -0.049810 0.082410 2.143140 
# 
# From -- ./inp_files/272135.got.cif
#   From: 2010.05.17/outbox.cif.g08.bks.cpg/sg2_137_cif.got.tgz:272135.got - 2010.06.03 11:33:40.
