data_PCOD9081480
_publ_section_title
;
Structure prediction by ZEFSAII (Michael W. Deem and Ramdas Pophale) SiO2 
 PCOD9081480
Probable space group: P -1
;
_chemical_formula_sum "Si O2"
_cell_formula_units_Z 16
_cell_length_a 14.607169
_cell_length_b 12.428281
_cell_length_c 6.932017
_cell_angle_alpha 143.581374
_cell_angle_beta 122.594004
_cell_angle_gamma 56.361660
_cell_volume 610.923739
_symmetry_space_group_name_H-M "P -1"
_symmetry_group_IT_number 2
_symmetry_cell_setting 'triclinic'
loop_
_space_group_symop_operation_xyz
x,y,z
-x,-y,-z
loop_
_atom_site_type_symbol
_atom_site_label
_atom_site_fract_x
_atom_site_fract_y
_atom_site_fract_z
Si Si1 0.147618 0.721643 0.740158
Si Si2 0.047620 0.280015 0.750725
Si Si3 0.504828 0.449434 0.661985
Si Si4 0.711753 0.672173 0.604616
Si Si5 0.382891 0.832062 0.136787
Si Si6 0.392438 0.933804 0.854103
Si Si7 0.763509 0.803418 0.460532
Si Si8 0.021412 0.272910 0.153259
O O1 0.959087 0.773581 0.113496
O O2 0.187192 0.495767 0.458592
O O3 0.262594 0.780041 0.923047
O O4 0.089551 0.776897 0.960467
O O5 0.952481 0.206900 0.419775
O O6 0.165052 0.250736 0.728819
O O7 0.000000 0.500000 0.000000
O O8 0.500000 0.500000 0.500000
O O9 0.396023 0.378725 0.497156
O O10 0.479623 0.649427 0.032487
O O11 0.607657 0.264787 0.535109
O O12 0.716647 0.676033 0.379562
O O13 0.706379 0.880431 0.975267
O O14 0.409852 0.883517 0.026314
O O15 0.344491 0.032593 0.484482
O O16 0.500000 0.000000 0.000000
O O17 0.867884 0.829947 0.751786
O O18 0.000000 0.500000 0.500000
#
# Coordination Sequence:
#
# PCOD9081480 Si02
#       8
#     2   2   2   2   2   2   2   2
#     4  10  19  32  50  74 108 145 172 215 262 294
#     4  11  19  32  52  74 102 140 185 213 257 308
#     4   8  14  25  43  72 106 137 171 207 258 319
#     4   9  14  26  46  70 107 138 171 221 247 296
#     4   9  18  30  46  72 115 141 167 222 258 304
#     4   8  14  25  47  76 106 138 177 210 253 320
#     4  10  19  32  50  74 104 142 177 216 256 299
#     4  11  19  34  52  72 102 140 172 220 259 299
#
# _framework density 26.189845999999999
#
# number of rings (size 3 to 8) (size 9 to 14) (size 15 to 20)
#    0.000    2.500    3.750    0.000    0.000    2.000 
#    0.000    2.500    0.000    0.000    0.000    0.000 
#    0.000 1050.000    0.000    0.000    0.000   31.500 
#
# Total GULP energy -89229.021813 kJ/mol
# GULP energy per Si atom -5576.813863 kJ/mol
# Density = 2.613024 g / cm^3
# Si number density = 26.189846 Si / 1000 Ang^3
#
#
#
# Elastic Constant Matrix: (Units=GPa)
#
#
# Indices 1 2 3 4 5 6 
#
# 1 195.2871 56.6409 42.8729 -16.5019 -27.6998 32.4436
# 2 56.6409 132.6416 65.4709 6.2248 -23.2287 6.1847
# 3 42.8729 65.4709 88.3793 10.8540 -45.3208 2.9102
# 4 -16.5019 6.2248 10.8540 46.2408 3.5426 -20.3567
# 5 -27.6998 -23.2287 -45.3208 3.5426 50.8059 -2.6910
# 6 32.4436 6.1847 2.9102 -20.3567 -2.6910 43.6745
#
#
#
# Elastic Compliance Matrix: (Units=1/GPa)
#
#
# Indices 1 2 3 4 5 6 
#
# 1 0.006956 -0.002041 -0.000973 0.000984 0.001698 -0.004250
# 2 -0.002041 0.013179 -0.011803 0.000931 -0.005654 0.000522
# 3 -0.000973 -0.011803 0.035335 -0.010479 0.026153 -0.003234
# 4 0.000984 0.000931 -0.010479 0.031109 -0.009828 0.013729
# 5 0.001698 -0.005654 0.026153 -0.009828 0.041815 -0.004208
# 6 -0.004250 0.000522 -0.003234 0.013729 -0.004208 0.032335
#
#
# Mechanical properties :
#
#
# Convention : Reuss Voigt Hill
#
# Bulk Modulus (GPa) = 38.70575 82.91973 60.81274
# Shear Modulus (GPa) = 25.12872 44.89911 35.01392
#
# Velocity S-wave (km/s) = 3.10091 4.14499 3.66037
# Velocity P-wave (km/s) = 5.25660 7.39173 6.41364
#
# Compressibility (1/GPa) = 0.02583595
#
# Stress axis : x y z
#
# Youngs Moduli (GPa) = 143.75398 75.88109 28.30047
#
# Poissons Ratio (x) = 0.15487 0.02753
# Poissons Ratio (y) = 0.29340 0.33404
# Poissons Ratio (z) = 0.13984 0.89564
#
# Static dielectric constant tensor:
#      x y z
#    x 3.474880 -0.349810 0.901120 
#    y -0.349810 2.188440 -0.201290 
#    z 0.901120 -0.201290 2.768670 
# 
# From -- ./inp_files/312222.got.cif
#   From: 2010.05.17/outbox.cif.g08.bks.cpg/sg2_157_cif.got.tgz:312222.got - 2010.06.03 11:33:40.
