data_PCOD9081300
_publ_section_title
;
Structure prediction by ZEFSAII (Michael W. Deem and Ramdas Pophale) SiO2 
 PCOD9081300
Probable space group: P -1
;
_chemical_formula_sum "Si O2"
_cell_formula_units_Z 12
_cell_length_a 11.931848
_cell_length_b 14.635289
_cell_length_c 5.515817
_cell_angle_alpha 110.205335
_cell_angle_beta 56.996614
_cell_angle_gamma 136.352882
_cell_volume 555.561254
_symmetry_space_group_name_H-M "P -1"
_symmetry_group_IT_number 2
_symmetry_cell_setting 'triclinic'
loop_
_space_group_symop_operation_xyz
x,y,z
-x,-y,-z
loop_
_atom_site_type_symbol
_atom_site_label
_atom_site_fract_x
_atom_site_fract_y
_atom_site_fract_z
Si Si1 0.805801 0.289199 0.667929
Si Si2 0.165158 0.539339 0.586473
Si Si3 0.405465 0.990101 0.352956
Si Si4 0.313865 0.343145 0.549344
Si Si5 0.494271 0.759055 0.727942
Si Si6 0.280423 0.401641 0.141873
O O1 0.850850 0.363960 0.431765
O O2 0.964391 0.402415 0.767271
O O3 0.783987 0.163091 0.563453
O O4 0.612549 0.239516 0.929362
O O5 0.329856 0.624616 0.656122
O O6 0.227789 0.488621 0.270194
O O7 0.415674 0.111594 0.424622
O O8 0.500000 0.000000 0.500000
O O9 0.500000 0.000000 0.000000
O O10 0.500000 0.500000 0.500000
O O11 0.368894 0.258013 0.376113
O O12 0.212431 0.328906 0.415257
O O13 0.219751 0.315828 0.893781
O O14 0.500000 0.500000 0.000000
#
# Coordination Sequence:
#
# PCOD9081300 Si02
#       6
#     2   2   2   2   2   2
#     4  10  22  35  51  86 112 145 175 226 282 325
#     4  11  20  33  57  80 116 139 180 229 278 321
#     4  10  21  37  55  76 112 146 184 215 265 330
#     4  10  19  31  54  77 105 132 187 223 262 304
#     4  11  20  34  58  79 109 146 183 226 267 330
#     4  10  19  33  50  81 104 140 176 227 263 314
#
# _framework density 21.599777
#
# number of rings (size 3 to 8) (size 9 to 14) (size 15 to 20)
#    0.000    1.667    5.000    2.500    0.000    0.000 
#    0.000    0.000    0.000    2.000    0.000    0.000 
#    0.000    0.000    0.000    0.000    0.000    0.000 
#
# Total GULP energy -66890.214318 kJ/mol
# GULP energy per Si atom -5574.184526 kJ/mol
# Density = 2.155062 g / cm^3
# Si number density = 21.599777 Si / 1000 Ang^3
#
#
#
# Elastic Constant Matrix: (Units=GPa)
#
#
# Indices 1 2 3 4 5 6 
#
# 1 85.3130 33.4830 27.0963 -5.4084 14.1118 -22.3389
# 2 33.4830 111.3170 6.9640 -4.8188 8.1163 -23.2558
# 3 27.0963 6.9640 83.8241 9.9353 18.8713 -3.3727
# 4 -5.4084 -4.8188 9.9353 18.6749 -1.4554 5.8825
# 5 14.1118 8.1163 18.8713 -1.4554 42.4070 7.6366
# 6 -22.3389 -23.2558 -3.3727 5.8825 7.6366 32.4839
#
#
#
# Elastic Compliance Matrix: (Units=1/GPa)
#
#
# Indices 1 2 3 4 5 6 
#
# 1 0.017976 -0.002305 -0.004289 0.002992 -0.005514 0.011021
# 2 -0.002305 0.011402 0.000932 -0.000863 -0.003226 0.007589
# 3 -0.004289 0.000932 0.016236 -0.011136 -0.006906 0.003044
# 4 0.002992 -0.000863 -0.011136 0.065077 0.008803 -0.013571
# 5 -0.005514 -0.003226 -0.006906 0.008803 0.032291 -0.016004
# 6 0.011021 0.007589 0.003044 -0.013571 -0.016004 0.050333
#
#
# Mechanical properties :
#
#
# Convention : Reuss Voigt Hill
#
# Bulk Modulus (GPa) = 29.16334 46.17119 37.66727
# Shear Modulus (GPa) = 23.14086 32.90720 28.02403
#
# Velocity S-wave (km/s) = 3.27669 3.90743 3.60588
# Velocity P-wave (km/s) = 5.27699 6.46371 5.90026
#
# Compressibility (1/GPa) = 0.03428962
#
# Stress axis : x y z
#
# Youngs Moduli (GPa) = 55.63004 87.70667 61.59127
#
# Poissons Ratio (x) = 0.20213 0.26417
# Poissons Ratio (y) = 0.12821 -0.05738
# Poissons Ratio (z) = 0.23860 -0.08172
#
# Static dielectric constant tensor:
#      x y z
#    x 1.410740 0.026920 -0.372050 
#    y 0.026920 1.837050 0.022510 
#    z -0.372050 0.022510 1.489510 
# 
# From -- ./inp_files/23212.got.cif
#   From: 2010.05.17/outbox.cif.g08.bks.cpg/sg2_12_cif.got.tgz:23212.got - 2010.06.03 11:33:40.
