data_PCOD9081653
_publ_section_title
;
Structure prediction by ZEFSAII (Michael W. Deem and Ramdas Pophale) SiO2 
 PCOD9081653
Probable space group: P -1
;
_chemical_formula_sum "Si O2"
_cell_formula_units_Z 16
_cell_length_a 11.698902
_cell_length_b 9.232074
_cell_length_c 8.923648
_cell_angle_alpha 99.947168
_cell_angle_beta 91.274787
_cell_angle_gamma 65.567627
_cell_volume 862.998818
_symmetry_space_group_name_H-M "P -1"
_symmetry_group_IT_number 2
_symmetry_cell_setting 'triclinic'
loop_
_space_group_symop_operation_xyz
x,y,z
-x,-y,-z
loop_
_atom_site_type_symbol
_atom_site_label
_atom_site_fract_x
_atom_site_fract_y
_atom_site_fract_z
Si Si1 0.959792 0.240494 0.447195
Si Si2 0.375519 0.005758 0.575051
Si Si3 0.807413 0.106327 0.628075
Si Si4 0.606519 0.041784 0.082359
Si Si5 0.874822 0.715742 0.308266
Si Si6 0.252620 0.783722 0.015576
Si Si7 0.116930 0.120069 0.943028
Si Si8 0.114788 0.610172 0.848006
O O1 0.862597 0.201089 0.537939
O O2 0.894633 0.336531 0.315259
O O3 0.023507 0.332476 0.566643
O O4 0.077763 0.071203 0.378717
O O5 0.404022 0.941922 0.735517
O O6 0.265797 0.187551 0.617609
O O7 0.500000 0.000000 0.500000
O O8 0.307750 0.914869 0.460582
O O9 0.766337 0.187389 0.803301
O O10 0.742404 0.893671 0.026182
O O11 0.500000 0.000000 0.000000
O O12 0.625584 0.192585 0.035280
O O13 0.903282 0.843452 0.227582
O O14 0.882527 0.566573 0.182730
O O15 0.231466 0.629996 0.933196
O O16 0.140343 0.939127 0.958914
O O17 0.009489 0.261641 0.051750
#
# Coordination Sequence:
#
# PCOD9081653 Si02
#       8
#     2   2   2   2   2   2   2   2
#     4  10  20  31  51  76 112 140 175 215 263 314
#     4  10  20  35  57  77 104 138 182 221 263 309
#     4  10  19  32  53  81 103 139 183 221 251 307
#     4   9  18  33  54  81 103 131 184 224 251 302
#     4  10  22  36  51  80 111 142 171 216 273 320
#     4  10  20  32  55  79 105 137 184 214 260 305
#     4   9  20  33  53  79 106 140 179 209 261 313
#     4  12  20  33  54  80 115 139 170 219 270 319
#
# _framework density 18.540001
#
# number of rings (size 3 to 8) (size 9 to 14) (size 15 to 20)
#    0.750    1.250    1.250    3.375    3.500    0.000 
#    0.000    0.000    0.000   11.250    0.000    0.000 
#    0.000    0.000    0.000    0.000    0.000    0.000 
#
# Total GULP energy -89182.299308 kJ/mol
# GULP energy per Si atom -5573.893707 kJ/mol
# Density = 1.849780 g / cm^3
# Si number density = 18.540001 Si / 1000 Ang^3
#
#
#
# Elastic Constant Matrix: (Units=GPa)
#
#
# Indices 1 2 3 4 5 6 
#
# 1 111.6646 9.4491 48.0381 5.7597 3.3652 22.9955
# 2 9.4491 28.6637 15.9710 7.0544 2.0895 11.9426
# 3 48.0381 15.9710 102.7281 -4.5635 9.8841 20.1462
# 4 5.7597 7.0544 -4.5635 29.4615 5.7389 3.9402
# 5 3.3652 2.0895 9.8841 5.7389 35.2360 2.9446
# 6 22.9955 11.9426 20.1462 3.9402 2.9446 17.4834
#
#
#
# Elastic Compliance Matrix: (Units=1/GPa)
#
#
# Indices 1 2 3 4 5 6 
#
# 1 0.013859 0.005267 -0.004325 -0.002710 0.001395 -0.016467
# 2 0.005267 0.052930 -0.004213 -0.009920 0.002194 -0.036363
# 3 -0.004325 -0.004213 0.014871 0.006131 -0.003728 -0.009324
# 4 -0.002710 -0.009920 0.006131 0.039759 -0.006971 -0.004510
# 5 0.001395 0.002194 -0.003728 -0.006971 0.030516 -0.002606
# 6 -0.016467 -0.036363 -0.009324 -0.004510 -0.002606 0.115894
#
#
# Mechanical properties :
#
#
# Convention : Reuss Voigt Hill
#
# Bulk Modulus (GPa) = 13.31199 43.33029 28.32114
# Shear Modulus (GPa) = 16.69950 27.74274 22.22112
#
# Velocity S-wave (km/s) = 3.00447 3.87249 3.46576
# Velocity P-wave (km/s) = 4.38537 6.58915 5.59680
#
# Compressibility (1/GPa) = 0.07512023
#
# Stress axis : x y z
#
# Youngs Moduli (GPa) = 72.15464 18.89279 67.24286
#
# Poissons Ratio (x) = -0.09951 0.29082
# Poissons Ratio (y) = -0.38006 0.28327
# Poissons Ratio (z) = 0.31206 0.07959
#
# Static dielectric constant tensor:
#      x y z
#    x 1.645400 0.012180 0.003760 
#    y 0.012180 1.653420 -0.016740 
#    z 0.003760 -0.016740 1.655040 
# 
# From -- ./inp_files/200963.got.cif
#   From: 2010.05.17/outbox.cif.g08.bks.cpg/sg2_101_cif.got.tgz:200963.got - 2010.06.03 11:33:40.
