data_PCOD9081825
_publ_section_title
;
Structure prediction by ZEFSAII (Michael W. Deem and Ramdas Pophale) SiO2 
 PCOD9081825
Probable space group: P -1
;
_chemical_formula_sum "Si O2"
_cell_formula_units_Z 16
_cell_length_a 15.262774
_cell_length_b 14.276066
_cell_length_c 11.495338
_cell_angle_alpha 65.468568
_cell_angle_beta 47.613762
_cell_angle_gamma 28.237806
_cell_volume 752.212439
_symmetry_space_group_name_H-M "P -1"
_symmetry_group_IT_number 2
_symmetry_cell_setting 'triclinic'
loop_
_space_group_symop_operation_xyz
x,y,z
-x,-y,-z
loop_
_atom_site_type_symbol
_atom_site_label
_atom_site_fract_x
_atom_site_fract_y
_atom_site_fract_z
Si Si1 0.459206 0.633328 0.763254
Si Si2 0.021660 0.620945 0.993375
Si Si3 0.004868 0.162090 0.930809
Si Si4 0.100403 0.671187 0.320412
Si Si5 0.768291 0.534127 0.374209
Si Si6 0.695071 0.708404 0.671905
Si Si7 0.710304 0.755843 0.891027
Si Si8 0.524207 0.048142 0.636119
O O1 0.693224 0.413455 0.756340
O O2 0.635269 0.539232 0.547584
O O3 0.264538 0.690943 0.877398
O O4 0.244333 0.892134 0.853963
O O5 0.958128 0.775349 0.040618
O O6 0.209791 0.403115 0.018024
O O7 0.749386 0.765932 0.145459
O O8 0.153535 0.540148 0.792449
O O9 0.959154 0.248965 0.799447
O O10 0.288079 0.424876 0.294405
O O11 0.805785 0.868682 0.530137
O O12 0.560485 0.788089 0.445149
O O13 0.024568 0.381665 0.286207
O O14 0.611534 0.791412 0.837201
O O15 0.000000 0.500000 0.500000
O O16 0.573645 0.898241 0.611451
O O17 0.500000 0.000000 0.000000
#
# Coordination Sequence:
#
# PCOD9081825 Si02
#       8
#     2   2   2   2   2   2   2   2
#     4  11  25  42  70  88 121 176 214 258 312 355
#     4  11  23  38  62  92 131 165 200 258 319 371
#     4  11  24  46  64  93 125 164 219 265 301 367
#     4  11  21  41  66  95 127 159 213 263 311 373
#     4  11  22  39  60  92 127 169 206 252 312 377
#     4  10  19  32  55  92 121 155 199 248 309 370
#     4  11  21  36  58  89 129 164 201 248 318 384
#     4  10  20  36  63  94 127 163 197 254 318 381
#
# _framework density 21.270585000000001
#
# number of rings (size 3 to 8) (size 9 to 14) (size 15 to 20)
#    0.000    1.250    2.500    5.625    0.000    2.000 
#    0.000    0.000    0.000    1.500    0.000    0.000 
#    0.000    0.000    0.000    0.000    0.000    0.000 
#
# Total GULP energy -89105.077398 kJ/mol
# GULP energy per Si atom -5569.067337 kJ/mol
# Density = 2.122217 g / cm^3
# Si number density = 21.270585 Si / 1000 Ang^3
#
#
#
# Elastic Constant Matrix: (Units=GPa)
#
#
# Indices 1 2 3 4 5 6 
#
# 1 78.5392 11.4092 35.0538 1.4669 -11.6918 -12.2985
# 2 11.4092 80.7904 8.3169 8.7151 -4.9003 -11.0039
# 3 35.0538 8.3169 99.0111 -1.7754 -17.2448 -16.1226
# 4 1.4669 8.7151 -1.7754 37.1773 -8.9750 0.5440
# 5 -11.6918 -4.9003 -17.2448 -8.9750 38.8195 4.1277
# 6 -12.2985 -11.0039 -16.1226 0.5440 4.1277 34.7889
#
#
#
# Elastic Compliance Matrix: (Units=1/GPa)
#
#
# Indices 1 2 3 4 5 6 
#
# 1 0.015744 -0.001228 -0.004635 -0.000059 0.002220 0.002767
# 2 -0.001228 0.013425 -0.000104 -0.003122 0.000153 0.003794
# 3 -0.004635 -0.000104 0.013194 0.001859 0.004469 0.003884
# 4 -0.000059 -0.003122 0.001859 0.029529 0.007399 -0.001486
# 5 0.002220 0.000153 0.004469 0.007399 0.030229 -0.000798
# 6 0.002767 0.003794 0.003884 -0.001486 -0.000798 0.032841
#
#
# Mechanical properties :
#
#
# Convention : Reuss Voigt Hill
#
# Bulk Modulus (GPa) = 32.86440 40.87781 36.87110
# Shear Modulus (GPa) = 31.83913 35.72785 33.78349
#
# Velocity S-wave (km/s) = 3.87313 4.10284 3.98964
# Velocity P-wave (km/s) = 5.95698 6.45787 6.21248
#
# Compressibility (1/GPa) = 0.03042807
#
# Stress axis : x y z
#
# Youngs Moduli (GPa) = 63.51450 74.48901 75.79418
#
# Poissons Ratio (x) = 0.09150 0.35129
# Poissons Ratio (y) = 0.07802 0.00790
# Poissons Ratio (z) = 0.29438 0.00776
#
# Static dielectric constant tensor:
#      x y z
#    x 1.833270 -0.002350 0.029480 
#    y -0.002350 1.814630 0.051330 
#    z 0.029480 0.051330 1.746700 
# 
# From -- ./inp_files/454736.got.cif
#   From: 2010.05.17/outbox.cif.g08.bks.cpg/sg2_228_cif.got.tgz:454736.got - 2010.06.03 11:33:40.
