data_PCOD9081545
_publ_section_title
;
Structure prediction by ZEFSAII (Michael W. Deem and Ramdas Pophale) SiO2 
 PCOD9081545
Probable space group: P -1
;
_chemical_formula_sum "Si O2"
_cell_formula_units_Z 16
_cell_length_a 8.883206
_cell_length_b 10.997904
_cell_length_c 12.065103
_cell_angle_alpha 50.112155
_cell_angle_beta 78.443300
_cell_angle_gamma 69.704994
_cell_volume 847.885496
_symmetry_space_group_name_H-M "P -1"
_symmetry_group_IT_number 2
_symmetry_cell_setting 'triclinic'
loop_
_space_group_symop_operation_xyz
x,y,z
-x,-y,-z
loop_
_atom_site_type_symbol
_atom_site_label
_atom_site_fract_x
_atom_site_fract_y
_atom_site_fract_z
Si Si1 0.363768 0.708533 0.445085
Si Si2 0.865631 0.966692 0.620071
Si Si3 0.176103 0.672122 0.163836
Si Si4 0.950209 0.263313 0.092147
Si Si5 0.494006 0.373120 0.746379
Si Si6 0.037853 0.674576 0.406069
Si Si7 0.884181 0.677929 0.640783
Si Si8 0.824290 0.517704 0.141108
O O1 0.460928 0.561529 0.595801
O O2 0.474890 0.728822 0.313868
O O3 0.214890 0.657096 0.439976
O O4 0.279656 0.872866 0.428514
O O5 0.808629 0.820572 0.656474
O O6 0.957820 0.900165 0.759624
O O7 0.000000 0.000000 0.500000
O O8 0.346196 0.684846 0.171268
O O9 0.047365 0.740050 0.242166
O O10 0.190482 0.474772 0.267409
O O11 0.123042 0.754092 0.005565
O O12 0.821867 0.385359 0.122592
O O13 0.082336 0.359806 0.992569
O O14 0.340643 0.381604 0.838146
O O15 0.000000 0.500000 0.500000
O O16 0.910894 0.755616 0.473330
O O17 0.061096 0.589352 0.717759
#
# Coordination Sequence:
#
# PCOD9081545 Si02
#       8
#     2   2   2   2   2   2   2   2
#     4  10  19  32  51  83 105 136 180 213 253 317
#     4  11  19  33  58  77 104 138 175 222 261 305
#     4   9  19  31  51  83 110 132 171 221 260 303
#     4   9  19  33  52  81 102 132 180 220 257 307
#     4  10  19  33  54  78 107 140 171 217 261 309
#     4   9  15  28  50  77 104 128 169 217 255 288
#     4   9  16  31  54  80 103 134 182 218 250 298
#     4   9  16  32  55  76 100 139 180 218 251 298
#
# _framework density 18.870473
#
# number of rings (size 3 to 8) (size 9 to 14) (size 15 to 20)
#    0.000    2.500    2.500    1.500    0.000    0.500 
#    0.000    3.750    0.000    1.500    0.000    0.000 
#    0.000    0.000    0.000    0.000    0.000    0.000 
#
# Total GULP energy -89123.002952 kJ/mol
# GULP energy per Si atom -5570.187685 kJ/mol
# Density = 1.882752 g / cm^3
# Si number density = 18.870473 Si / 1000 Ang^3
#
#
#
# Elastic Constant Matrix: (Units=GPa)
#
#
# Indices 1 2 3 4 5 6 
#
# 1 17.3383 7.4733 -2.4750 10.0960 -3.1820 -5.2997
# 2 7.4733 86.8401 17.4958 13.3066 -2.8165 -17.2924
# 3 -2.4750 17.4958 70.5378 19.3846 7.6930 -5.0556
# 4 10.0960 13.3066 19.3846 27.3578 -1.1238 -3.7429
# 5 -3.1820 -2.8165 7.6930 -1.1238 20.9444 8.2489
# 6 -5.2997 -17.2924 -5.0556 -3.7429 8.2489 26.1126
#
#
#
# Elastic Compliance Matrix: (Units=1/GPa)
#
#
# Indices 1 2 3 4 5 6 
#
# 1 0.089129 -0.001721 0.016015 -0.041472 -0.000404 0.014233
# 2 -0.001721 0.014298 -0.001763 -0.003944 -0.001299 0.008623
# 3 0.016015 -0.001763 0.022289 -0.020349 -0.009655 0.006531
# 4 -0.041472 -0.003944 -0.020349 0.067453 0.007252 -0.007590
# 5 -0.000404 -0.001299 -0.009655 0.007252 0.059552 -0.020584
# 6 0.014233 0.008623 0.006531 -0.007590 -0.020584 0.053574
#
#
# Mechanical properties :
#
#
# Convention : Reuss Voigt Hill
#
# Bulk Modulus (GPa) = 6.63227 24.41158 15.52193
# Shear Modulus (GPa) = 15.08331 25.03111 20.05721
#
# Velocity S-wave (km/s) = 2.83027 3.64602 3.26373
# Velocity P-wave (km/s) = 3.76866 5.53978 4.73772
#
# Compressibility (1/GPa) = 0.15077790
#
# Stress axis : x y z
#
# Youngs Moduli (GPa) = 11.21970 69.93986 44.86460
#
# Poissons Ratio (x) = 0.12036 -0.71851
# Poissons Ratio (y) = 0.01931 0.07911
# Poissons Ratio (z) = -0.17969 0.12333
#
# Static dielectric constant tensor:
#      x y z
#    x 1.649790 0.023890 -0.021430 
#    y 0.023890 1.704630 0.039620 
#    z -0.021430 0.039620 1.684340 
# 
# From -- ./inp_files/251899.got.cif
#   From: 2010.05.17/outbox.cif.g08.bks.cpg/sg2_126_cif.got.tgz:251899.got - 2010.06.03 11:33:40.
