data_PCOD9081014
_publ_section_title
;
Structure prediction by ZEFSAII (Michael W. Deem and Ramdas Pophale) SiO2 
 PCOD9081014
Probable space group: P -1
;
_chemical_formula_sum "Si O2"
_cell_formula_units_Z 16
_cell_length_a 5.589017
_cell_length_b 16.536219
_cell_length_c 13.786344
_cell_angle_alpha 136.271316
_cell_angle_beta 102.813456
_cell_angle_gamma 103.174409
_cell_volume 702.096879
_symmetry_space_group_name_H-M "P -1"
_symmetry_group_IT_number 2
_symmetry_cell_setting 'triclinic'
loop_
_space_group_symop_operation_xyz
x,y,z
-x,-y,-z
loop_
_atom_site_type_symbol
_atom_site_label
_atom_site_fract_x
_atom_site_fract_y
_atom_site_fract_z
Si Si1 0.775937 0.066389 0.470545
Si Si2 0.643280 0.622849 0.980238
Si Si3 0.005049 0.148613 0.301860
Si Si4 0.726885 0.216097 0.769761
Si Si5 0.414437 0.323372 0.750959
Si Si6 0.463587 0.848098 0.644663
Si Si7 0.404242 0.186673 0.007644
Si Si8 0.897977 0.139282 0.056151
O O1 0.784831 0.117464 0.624982
O O2 0.576033 0.097190 0.413393
O O3 0.119770 0.171342 0.560402
O O4 0.596646 0.896445 0.309331
O O5 0.619797 0.645460 0.112526
O O6 0.997366 0.695778 0.057513
O O7 0.466586 0.453278 0.806174
O O8 0.548573 0.705139 0.977908
O O9 0.861386 0.226283 0.400596
O O10 0.930561 0.127188 0.162540
O O11 0.357429 0.222578 0.411749
O O12 0.818868 0.985019 0.187153
O O13 0.698178 0.315216 0.778349
O O14 0.679864 0.983147 0.851773
O O15 0.716202 0.210198 0.085133
O O16 0.218044 0.204939 0.090241
#
# Coordination Sequence:
#
# PCOD9081014 Si02
#       8
#     2   2   2   2   2   2   2   2
#     4  10  22  34  52  86 110 153 193 234 293 340
#     4  10  22  36  55  85 105 158 199 234 283 335
#     4  10  19  32  54  83 118 143 180 241 302 342
#     4  10  20  37  56  76 115 149 196 244 284 335
#     4  10  22  38  55  75 120 152 194 239 284 338
#     4  10  19  30  52  80 113 147 181 226 284 360
#     4  10  19  31  54  81 112 142 187 233 283 350
#     4  10  19  34  52  86 115 144 179 245 301 339
#
# _framework density 22.788875999999998
#
# number of rings (size 3 to 8) (size 9 to 14) (size 15 to 20)
#    0.000    2.000    0.000    6.000    7.000    0.000 
#    0.000    0.000    0.000    0.000    0.000    9.625 
#    0.000    0.000    0.000    0.000    0.000    0.000 
#
# Total GULP energy -89309.042110 kJ/mol
# GULP energy per Si atom -5581.815132 kJ/mol
# Density = 2.273701 g / cm^3
# Si number density = 22.788876 Si / 1000 Ang^3
#
#
#
# Elastic Constant Matrix: (Units=GPa)
#
#
# Indices 1 2 3 4 5 6 
#
# 1 161.0148 44.8253 22.6565 2.4962 8.2133 -19.7988
# 2 44.8253 118.5738 33.5271 2.5282 4.9004 -20.6399
# 3 22.6565 33.5271 41.0814 2.0066 3.8760 -2.1340
# 4 2.4962 2.5282 2.0066 25.6367 -3.7308 -1.3108
# 5 8.2133 4.9004 3.8760 -3.7308 16.7745 -14.4834
# 6 -19.7988 -20.6399 -2.1340 -1.3108 -14.4834 41.6579
#
#
#
# Elastic Compliance Matrix: (Units=1/GPa)
#
#
# Indices 1 2 3 4 5 6 
#
# 1 0.007341 -0.001620 -0.002534 -0.000322 -0.000584 0.002344
# 2 -0.001620 0.012771 -0.009729 0.000826 0.005551 0.007015
# 3 -0.002534 -0.009729 0.034560 -0.003706 -0.012148 -0.008594
# 4 -0.000322 0.000826 -0.003706 0.041954 0.016148 0.007001
# 5 -0.000584 0.005551 -0.012148 0.016148 0.095331 0.035503
# 6 0.002344 0.007015 -0.008594 0.007001 0.035503 0.040718
#
#
# Mechanical properties :
#
#
# Convention : Reuss Voigt Hill
#
# Bulk Modulus (GPa) = 37.16587 58.07640 47.62114
# Shear Modulus (GPa) = 18.55908 31.45791 25.00849
#
# Velocity S-wave (km/s) = 2.85685 3.71941 3.31630
# Velocity P-wave (km/s) = 5.21788 6.63214 5.96706
#
# Compressibility (1/GPa) = 0.02690640
#
# Stress axis : x y z
#
# Youngs Moduli (GPa) = 136.22023 78.30333 28.93509
#
# Poissons Ratio (x) = 0.12683 0.07333
# Poissons Ratio (y) = 0.22064 0.28151
# Poissons Ratio (z) = 0.34521 0.76180
#
# Static dielectric constant tensor:
#      x y z
#    x 2.000030 0.042680 -0.000680 
#    y 0.042680 1.875670 -0.009680 
#    z -0.000680 -0.009680 1.820350 
# 
# From -- ./inp_files/39821.got.cif
#   From: 2010.05.17/outbox.cif.g08.bks.cpg/sg2_20_cif.got.tgz:39821.got - 2010.06.03 11:33:40.
