data_PCOD9081322
_publ_section_title
;
Structure prediction by ZEFSAII (Michael W. Deem and Ramdas Pophale) SiO2 
 PCOD9081322
Probable space group: P -1
;
_chemical_formula_sum "Si O2"
_cell_formula_units_Z 16
_cell_length_a 9.794709
_cell_length_b 11.468402
_cell_length_c 12.106908
_cell_angle_alpha 54.235787
_cell_angle_beta 35.461585
_cell_angle_gamma 65.818826
_cell_volume 633.808557
_symmetry_space_group_name_H-M "P -1"
_symmetry_group_IT_number 2
_symmetry_cell_setting 'triclinic'
loop_
_space_group_symop_operation_xyz
x,y,z
-x,-y,-z
loop_
_atom_site_type_symbol
_atom_site_label
_atom_site_fract_x
_atom_site_fract_y
_atom_site_fract_z
Si Si1 0.295703 0.666680 0.273097
Si Si2 0.514804 0.109622 0.825240
Si Si3 0.182349 0.621927 0.022271
Si Si4 0.442647 0.124430 0.267940
Si Si5 0.987658 0.799720 0.867377
Si Si6 0.808852 0.719808 0.797375
Si Si7 0.207176 0.032667 0.747842
Si Si8 0.154842 0.342728 0.584270
O O1 0.288206 0.756047 0.342086
O O2 0.305269 0.496401 0.376812
O O3 0.067190 0.678864 0.342062
O O4 0.539391 0.726656 0.017669
O O5 0.536058 0.001357 0.770666
O O6 0.284288 0.193298 0.919573
O O7 0.500000 0.000000 0.000000
O O8 0.186233 0.450811 0.125710
O O9 0.956038 0.651171 0.225808
O O10 0.401422 0.716206 0.889903
O O11 0.123689 0.682766 0.906442
O O12 0.198305 0.179773 0.361089
O O13 0.570606 0.039935 0.322511
O O14 0.979868 0.778034 0.753350
O O15 0.101745 0.956443 0.748324
O O16 0.276748 0.200792 0.584079
O O17 0.000000 0.000000 0.000000
#
# Coordination Sequence:
#
# PCOD9081322 Si02
#       8
#     2   2   2   2   2   2   2   2
#     4  10  22  33  55  87 111 138 179 230 282 316
#     4  11  16  31  54  81 107 132 182 229 259 309
#     4  11  20  35  55  81 114 145 180 219 271 330
#     4  11  19  30  56  82 103 140 190 224 258 313
#     4  10  19  31  54  84 107 140 186 226 264 309
#     4  11  21  35  54  85 110 145 182 223 266 327
#     4  11  17  32  56  82 107 139 185 229 264 314
#     4  11  20  36  55  84 111 143 176 229 283 319
#
# _framework density 25.244215000000001
#
# number of rings (size 3 to 8) (size 9 to 14) (size 15 to 20)
#    0.000    1.250    7.500    1.500    0.000    0.000 
#    0.000    5.625    0.000    5.250    3.250    0.000 
#    0.000    0.000    0.000    0.000    0.000    0.000 
#
# Total GULP energy -89311.233489 kJ/mol
# GULP energy per Si atom -5581.952093 kJ/mol
# Density = 2.518676 g / cm^3
# Si number density = 25.244215 Si / 1000 Ang^3
#
#
#
# Elastic Constant Matrix: (Units=GPa)
#
#
# Indices 1 2 3 4 5 6 
#
# 1 188.0001 70.3343 32.7660 -30.8165 8.2445 5.1960
# 2 70.3343 172.6578 28.8716 -48.9166 4.9941 -7.4616
# 3 32.7660 28.8716 47.2645 -11.0136 -4.5897 9.8719
# 4 -30.8165 -48.9166 -11.0136 49.7174 -7.0535 -2.1666
# 5 8.2445 4.9941 -4.5897 -7.0535 25.6817 -9.6628
# 6 5.1960 -7.4616 9.8719 -2.1666 -9.6628 47.3658
#
#
#
# Elastic Compliance Matrix: (Units=1/GPa)
#
#
# Indices 1 2 3 4 5 6 
#
# 1 0.006958 -0.001831 -0.003461 0.001371 -0.002405 -0.000758
# 2 -0.001831 0.009320 -0.003114 0.007680 0.001443 0.002964
# 3 -0.003461 -0.003114 0.027257 0.001364 0.005207 -0.004667
# 4 0.001371 0.007680 0.001364 0.030123 0.008008 0.003787
# 5 -0.002405 0.001443 0.005207 0.008008 0.046005 0.009158
# 6 -0.000758 0.002964 -0.004667 0.003787 0.009158 0.024676
#
#
# Mechanical properties :
#
#
# Convention : Reuss Voigt Hill
#
# Bulk Modulus (GPa) = 37.41830 74.65179 56.03505
# Shear Modulus (GPa) = 29.40134 42.94969 36.17551
#
# Velocity S-wave (km/s) = 3.41644 4.12924 3.78963
# Velocity P-wave (km/s) = 5.51520 7.23672 6.43380
#
# Compressibility (1/GPa) = 0.02672489
#
# Stress axis : x y z
#
# Youngs Moduli (GPa) = 143.71038 107.29316 36.68716
#
# Poissons Ratio (x) = 0.19641 0.12699
# Poissons Ratio (y) = 0.26307 0.11423
# Poissons Ratio (z) = 0.49745 0.33407
#
# Static dielectric constant tensor:
#      x y z
#    x 1.992880 0.052230 0.093600 
#    y 0.052230 1.946500 -0.052350 
#    z 0.093600 -0.052350 1.743130 
# 
# From -- ./inp_files/189296.got.cif
#   From: 2010.05.17/outbox.cif.g08.bks.cpg/sg2_95_cif.got.tgz:189296.got - 2010.06.03 11:33:40.
