data_PCOD9081996
_publ_section_title
;
Structure prediction by ZEFSAII (Michael W. Deem and Ramdas Pophale) SiO2 
 PCOD9081996
Probable space group: P -1
;
_chemical_formula_sum "Si O2"
_cell_formula_units_Z 16
_cell_length_a 11.763366
_cell_length_b 10.808028
_cell_length_c 9.344261
_cell_angle_alpha 121.404223
_cell_angle_beta 126.316223
_cell_angle_gamma 51.318277
_cell_volume 725.434078
_symmetry_space_group_name_H-M "P -1"
_symmetry_group_IT_number 2
_symmetry_cell_setting 'triclinic'
loop_
_space_group_symop_operation_xyz
x,y,z
-x,-y,-z
loop_
_atom_site_type_symbol
_atom_site_label
_atom_site_fract_x
_atom_site_fract_y
_atom_site_fract_z
Si Si1 0.838510 0.046979 0.703116
Si Si2 0.746112 0.285232 0.536343
Si Si3 0.509686 0.166560 0.631392
Si Si4 0.992757 0.723243 0.767294
Si Si5 0.584162 0.674318 0.653521
Si Si6 0.796814 0.621214 0.345182
Si Si7 0.890739 0.691441 0.985696
Si Si8 0.077881 0.192796 0.628848
O O1 0.975209 0.893285 0.794486
O O2 0.818443 0.950837 0.489386
O O3 0.817842 0.205313 0.696468
O O4 0.694494 0.113803 0.747966
O O5 0.675940 0.478782 0.610848
O O6 0.590798 0.262760 0.369819
O O7 0.897828 0.217840 0.504215
O O8 0.451661 0.271214 0.505549
O O9 0.390732 0.268325 0.729000
O O10 0.500000 0.000000 0.500000
O O11 0.860803 0.679631 0.566844
O O12 0.960749 0.724585 0.911591
O O13 0.152915 0.568671 0.741937
O O14 0.710167 0.725914 0.842808
O O15 0.894634 0.657443 0.316709
O O16 0.881960 0.813117 0.179223
O O17 0.000000 0.500000 0.000000
#
# Coordination Sequence:
#
# PCOD9081996 Si02
#       8
#     2   2   2   2   2   2   2   2
#     4  10  22  37  61  85 119 160 204 240 284 355
#     4  10  21  38  56  86 121 157 201 238 287 355
#     4  11  18  34  59  86 121 144 197 255 293 328
#     4  10  19  33  55  90 112 153 198 244 291 347
#     4  10  21  36  59  88 118 160 194 241 299 354
#     4  10  19  32  59  88 116 145 205 249 289 342
#     4  12  20  35  60  90 126 148 192 253 307 342
#     4  11  21  35  60  92 115 153 193 248 294 350
#
# _framework density 22.055762000000001
#
# number of rings (size 3 to 8) (size 9 to 14) (size 15 to 20)
#    0.000    1.500    6.250    0.375    3.500    0.000 
#    0.000    3.125    0.000    0.000    6.500    7.875 
#    0.000    0.000    0.000    0.000    0.000    0.000 
#
# Total GULP energy -89158.313380 kJ/mol
# GULP energy per Si atom -5572.394586 kJ/mol
# Density = 2.200556 g / cm^3
# Si number density = 22.055762 Si / 1000 Ang^3
#
#
#
# Elastic Constant Matrix: (Units=GPa)
#
#
# Indices 1 2 3 4 5 6 
#
# 1 97.1916 29.5599 10.3567 -11.8145 -2.0456 -18.7424
# 2 29.5599 127.6578 1.5675 -18.6610 -9.9544 9.4408
# 3 10.3567 1.5675 79.6498 3.4204 -9.0634 -4.3019
# 4 -11.8145 -18.6610 3.4204 18.2195 1.0169 -10.7578
# 5 -2.0456 -9.9544 -9.0634 1.0169 35.0969 -13.1706
# 6 -18.7424 9.4408 -4.3019 -10.7578 -13.1706 40.7870
#
#
#
# Elastic Compliance Matrix: (Units=1/GPa)
#
#
# Indices 1 2 3 4 5 6 
#
# 1 0.015561 -0.001881 -0.001459 0.015901 0.004436 0.013058
# 2 -0.001881 0.009709 -0.000053 0.008539 0.002342 -0.000108
# 3 -0.001459 -0.000053 0.013385 -0.003011 0.003901 0.001219
# 4 0.015901 0.008539 -0.003011 0.093761 0.012535 0.033790
# 5 0.004436 0.002342 0.003901 0.012535 0.036431 0.016978
# 6 0.013058 -0.000108 0.001219 0.033790 0.016978 0.045067
#
#
# Mechanical properties :
#
#
# Convention : Reuss Voigt Hill
#
# Bulk Modulus (GPa) = 31.37787 43.05195 37.21491
# Shear Modulus (GPa) = 21.61505 36.35503 28.98504
#
# Velocity S-wave (km/s) = 3.13392 4.06436 3.62908
# Velocity P-wave (km/s) = 5.22999 6.44882 5.87112
#
# Compressibility (1/GPa) = 0.03186960
#
# Stress axis : x y z
#
# Youngs Moduli (GPa) = 64.26368 103.00229 74.71180
#
# Poissons Ratio (x) = 0.19372 0.10901
# Poissons Ratio (y) = 0.12086 0.00393
# Poissons Ratio (z) = 0.09376 0.00541
#
# Static dielectric constant tensor:
#      x y z
#    x 1.885210 0.029760 0.013540 
#    y 0.029760 1.873890 -0.018630 
#    z 0.013540 -0.018630 1.835810 
# 
# From -- ./inp_files/262819.got.cif
#   From: 2010.05.17/outbox.cif.g08.bks.cpg/sg2_132_cif.got.tgz:262819.got - 2010.06.03 11:33:40.
