data_PCOD9081817
_publ_section_title
;
Structure prediction by ZEFSAII (Michael W. Deem and Ramdas Pophale) SiO2 
 PCOD9081817
Probable space group: P -1
;
_chemical_formula_sum "Si O2"
_cell_formula_units_Z 16
_cell_length_a 12.915504
_cell_length_b 5.242209
_cell_length_c 15.096712
_cell_angle_alpha 111.751573
_cell_angle_beta 139.649103
_cell_angle_gamma 83.951441
_cell_volume 587.435213
_symmetry_space_group_name_H-M "P -1"
_symmetry_group_IT_number 2
_symmetry_cell_setting 'triclinic'
loop_
_space_group_symop_operation_xyz
x,y,z
-x,-y,-z
loop_
_atom_site_type_symbol
_atom_site_label
_atom_site_fract_x
_atom_site_fract_y
_atom_site_fract_z
Si Si1 0.005287 0.279313 0.200850
Si Si2 0.304048 0.193648 0.738085
Si Si3 0.120489 0.404215 0.993677
Si Si4 0.487618 0.246164 0.236947
Si Si5 0.737859 0.209904 0.614743
Si Si6 0.602260 0.779370 0.016176
Si Si7 0.170841 0.256617 0.481719
Si Si8 0.359728 0.940317 0.280235
O O1 0.040120 0.328653 0.336539
O O2 0.900691 0.453317 0.098292
O O3 0.187190 0.450549 0.299935
O O4 0.941232 0.941212 0.094889
O O5 0.468197 0.466780 0.887492
O O6 0.172423 0.255076 0.590146
O O7 0.383995 0.952079 0.721837
O O8 0.257071 0.158388 0.807503
O O9 0.304220 0.609503 0.168892
O O10 0.000000 0.500000 0.000000
O O11 0.369854 0.183389 0.064818
O O12 0.636702 0.544199 0.386487
O O13 0.359929 0.128729 0.218651
O O14 0.835953 0.061763 0.593726
O O15 0.548324 0.094830 0.449633
O O16 0.739849 0.086336 0.697520
O O17 0.500000 0.000000 0.000000
#
# Coordination Sequence:
#
# PCOD9081817 Si02
#       8
#     2   2   2   2   2   2   2   2
#     4  12  23  43  61  84 118 166 210 256 299 371
#     4   9  16  31  51  84 123 152 193 248 315 360
#     4  12  26  43  61  82 122 167 215 256 309 363
#     4  10  19  32  55  88 122 155 200 255 312 360
#     4  11  23  40  60  88 120 161 213 257 304 361
#     4   8  16  29  51  81 121 155 187 243 315 372
#     4  11  19  35  60  87 123 158 208 254 304 359
#     4  11  23  40  58  90 121 166 206 262 309 354
#
# _framework density 27.237047
#
# number of rings (size 3 to 8) (size 9 to 14) (size 15 to 20)
#    0.000    1.500    5.000    0.375    0.000    1.500 
#    2.250    0.000    0.000    0.000    0.000    1.750 
#    0.000    0.125    0.000    0.000    0.000    0.000 
#
# Total GULP energy -89218.806984 kJ/mol
# GULP energy per Si atom -5576.175437 kJ/mol
# Density = 2.717505 g / cm^3
# Si number density = 27.237047 Si / 1000 Ang^3
#
#
#
# Elastic Constant Matrix: (Units=GPa)
#
#
# Indices 1 2 3 4 5 6 
#
# 1 50.7413 18.7516 30.5380 3.0919 -10.8939 23.8003
# 2 18.7516 175.4359 69.3449 17.8813 -3.2500 38.9486
# 3 30.5380 69.3449 162.9343 -6.1269 -6.2169 30.7657
# 4 3.0919 17.8813 -6.1269 66.2571 29.3686 -12.3812
# 5 -10.8939 -3.2500 -6.2169 29.3686 56.4168 -12.4967
# 6 23.8003 38.9486 30.7657 -12.3812 -12.4967 24.4957
#
#
#
# Elastic Compliance Matrix: (Units=1/GPa)
#
#
# Indices 1 2 3 4 5 6 
#
# 1 0.070022 0.022378 -0.001988 -0.033979 0.006851 -0.114798
# 2 0.022378 0.018488 -0.001956 -0.017591 0.001776 -0.056667
# 3 -0.001988 -0.001956 0.008408 0.000910 -0.001312 -0.005728
# 4 -0.033979 -0.017591 0.000910 0.040823 -0.012288 0.074207
# 5 0.006851 0.001776 -0.001312 -0.012288 0.025132 -0.001221
# 6 -0.114798 -0.056667 -0.005728 0.074207 -0.001221 0.286543
#
#
# Mechanical properties :
#
#
# Convention : Reuss Voigt Hill
#
# Bulk Modulus (GPa) = 7.47462 69.59784 38.53623
# Shear Modulus (GPa) = 10.93746 47.46574 29.20160
#
# Velocity S-wave (km/s) = 2.00608 4.17908 3.27789
# Velocity P-wave (km/s) = 2.84887 6.99245 5.33903
#
# Compressibility (1/GPa) = 0.13378604
#
# Stress axis : x y z
#
# Youngs Moduli (GPa) = 14.28125 54.08905 118.92829
#
# Poissons Ratio (x) = -1.21041 0.23640
# Poissons Ratio (y) = -0.31959 0.23267
# Poissons Ratio (z) = 0.02839 0.10582
#
# Static dielectric constant tensor:
#      x y z
#    x 2.205980 -0.013340 -0.044730 
#    y -0.013340 2.288630 -0.157500 
#    z -0.044730 -0.157500 2.084550 
# 
# From -- ./inp_files/536416.got.cif
#   From: 2010.05.17/outbox.cif.g08.bks.cpg/sg2_269_cif.got.tgz:536416.got - 2010.06.03 11:33:40.
