data_PCOD9081598
_publ_section_title
;
Structure prediction by ZEFSAII (Michael W. Deem and Ramdas Pophale) SiO2 
 PCOD9081598
Probable space group: P -1
;
_chemical_formula_sum "Si O2"
_cell_formula_units_Z 16
_cell_length_a 14.211739
_cell_length_b 5.340973
_cell_length_c 9.838100
_cell_angle_alpha 91.112975
_cell_angle_beta 87.579637
_cell_angle_gamma 70.315355
_cell_volume 702.039601
_symmetry_space_group_name_H-M "P -1"
_symmetry_group_IT_number 2
_symmetry_cell_setting 'triclinic'
loop_
_space_group_symop_operation_xyz
x,y,z
-x,-y,-z
loop_
_atom_site_type_symbol
_atom_site_label
_atom_site_fract_x
_atom_site_fract_y
_atom_site_fract_z
Si Si1 0.673015 0.148136 0.047769
Si Si2 0.372760 0.382089 0.514498
Si Si3 0.837385 0.630425 0.471058
Si Si4 0.956482 0.203407 0.881561
Si Si5 0.982204 0.830953 0.624993
Si Si6 0.257677 0.414949 0.015264
Si Si7 0.563110 0.173631 0.331440
Si Si8 0.164581 0.200618 0.799114
O O1 0.688284 0.892299 0.948942
O O2 0.781238 0.063036 0.118456
O O3 0.668623 0.417197 0.978344
O O4 0.593064 0.170074 0.171599
O O5 0.259483 0.429260 0.479384
O O6 0.446975 0.303971 0.380778
O O7 0.387000 0.634326 0.591277
O O8 0.403266 0.124448 0.610734
O O9 0.902477 0.691821 0.586263
O O10 0.910009 0.393674 0.372547
O O11 0.813883 0.859924 0.360766
O O12 0.227394 0.374972 0.859605
O O13 0.047676 0.308690 0.841849
O O14 0.850269 0.432096 0.911427
O O15 0.000000 0.000000 0.000000
O O16 0.947817 0.020233 0.755577
O O17 0.000000 0.000000 0.500000
#
# Coordination Sequence:
#
# PCOD9081598 Si02
#       8
#     2   2   2   2   2   2   2   2
#     4  10  19  32  52  82 114 143 183 236 299 349
#     4  10  21  32  58  81 121 154 196 242 298 362
#     4  11  22  39  56  83 116 172 195 240 301 360
#     4  12  21  37  57  82 113 152 204 253 290 338
#     4  11  26  40  56  82 122 161 210 236 292 370
#     4  10  21  32  51  82 106 149 186 237 287 344
#     4  10  19  34  52  93 116 149 194 247 303 358
#     4  10  20  31  56  79 112 153 186 239 292 343
#
# _framework density 22.790738999999999
#
# number of rings (size 3 to 8) (size 9 to 14) (size 15 to 20)
#    0.750    0.750    3.750    2.625    3.500    1.000 
#    0.000    0.000    0.000    0.000    0.000    1.750 
#    0.000    0.000    0.000    0.000    0.000    0.000 
#
# Total GULP energy -89305.900077 kJ/mol
# GULP energy per Si atom -5581.618755 kJ/mol
# Density = 2.273887 g / cm^3
# Si number density = 22.790739 Si / 1000 Ang^3
#
#
#
# Elastic Constant Matrix: (Units=GPa)
#
#
# Indices 1 2 3 4 5 6 
#
# 1 102.8338 20.2009 31.0036 9.3801 -35.5983 18.0381
# 2 20.2009 96.0425 16.4949 20.3032 -8.6647 28.3359
# 3 31.0036 16.4949 79.2812 22.3367 -21.0008 -1.1802
# 4 9.3801 20.3032 22.3367 31.3959 0.7582 -4.0070
# 5 -35.5983 -8.6647 -21.0008 0.7582 37.0098 -0.3348
# 6 18.0381 28.3359 -1.1802 -4.0070 -0.3348 26.2382
#
#
#
# Elastic Compliance Matrix: (Units=1/GPa)
#
#
# Indices 1 2 3 4 5 6 
#
# 1 0.022602 0.009074 -0.000126 -0.016628 0.023884 -0.027578
# 2 0.009074 0.026850 0.002290 -0.027087 0.016515 -0.039057
# 3 -0.000126 0.002290 0.019939 -0.016410 0.012031 -0.003842
# 4 -0.016628 -0.027087 -0.016410 0.073274 -0.032689 0.050719
# 5 0.023884 0.016515 0.012031 -0.032689 0.061013 -0.037928
# 6 -0.027578 -0.039057 -0.003842 0.050719 -0.037928 0.106340
#
#
# Mechanical properties :
#
#
# Convention : Reuss Voigt Hill
#
# Bulk Modulus (GPa) = 10.88525 45.95071 28.41798
# Shear Modulus (GPa) = 15.71520 32.95932 24.33726
#
# Velocity S-wave (km/s) = 2.62876 3.80698 3.27135
# Velocity P-wave (km/s) = 3.74171 6.28728 5.17351
#
# Compressibility (1/GPa) = 0.09186747
#
# Stress axis : x y z
#
# Youngs Moduli (GPa) = 44.24353 37.24457 50.15296
#
# Poissons Ratio (x) = -0.33796 0.00631
# Poissons Ratio (y) = -0.40147 -0.11485
# Poissons Ratio (z) = 0.00556 -0.08529
#
# Static dielectric constant tensor:
#      x y z
#    x 1.846470 -0.036140 0.002740 
#    y -0.036140 2.041010 -0.035150 
#    z 0.002740 -0.035150 1.837980 
# 
# From -- ./inp_files/510477.got.cif
#   From: 2010.05.17/outbox.cif.g08.bks.cpg/sg2_256_cif.got.tgz:510477.got - 2010.06.03 11:33:40.
