data_PCOD9081160
_publ_section_title
;
Structure prediction by ZEFSAII (Michael W. Deem and Ramdas Pophale) SiO2 
 PCOD9081160
Probable space group: P -1
;
_chemical_formula_sum "Si O2"
_cell_formula_units_Z 16
_cell_length_a 18.571815
_cell_length_b 16.014020
_cell_length_c 6.887834
_cell_angle_alpha 38.380329
_cell_angle_beta 62.122682
_cell_angle_gamma 33.398146
_cell_volume 586.174908
_symmetry_space_group_name_H-M "P -1"
_symmetry_group_IT_number 2
_symmetry_cell_setting 'triclinic'
loop_
_space_group_symop_operation_xyz
x,y,z
-x,-y,-z
loop_
_atom_site_type_symbol
_atom_site_label
_atom_site_fract_x
_atom_site_fract_y
_atom_site_fract_z
Si Si1 0.858547 0.548066 0.611555
Si Si2 0.525059 0.966139 0.262622
Si Si3 0.876726 0.903652 0.483614
Si Si4 0.190093 0.423249 0.824516
Si Si5 0.456579 0.708612 0.749059
Si Si6 0.170343 0.100691 0.898981
Si Si7 0.500700 0.691444 0.177726
Si Si8 0.262409 0.624417 0.250975
O O1 0.837783 0.602390 0.303854
O O2 0.849285 0.709872 0.415191
O O3 0.033191 0.239534 0.959030
O O4 0.703848 0.677545 0.616741
O O5 0.357139 0.139935 0.214430
O O6 0.511903 0.134436 0.062660
O O7 0.500000 0.000000 0.000000
O O8 0.859358 0.907795 0.264658
O O9 0.053821 0.601830 0.829395
O O10 0.730989 0.023582 0.530794
O O11 0.847335 0.104304 0.191545
O O12 0.192048 0.580430 0.479074
O O13 0.500000 0.500000 0.000000
O O14 0.491294 0.682180 0.979209
O O15 0.414369 0.387473 0.353984
O O16 0.352615 0.824458 0.216636
O O17 0.660795 0.422570 0.565035
#
# Coordination Sequence:
#
# PCOD9081160 Si02
#       8
#     2   2   2   2   2   2   2   2
#     4   8  13  24  42  70  94 117 160 200 234 284
#     4   8  14  25  46  72  93 122 162 197 237 291
#     4   9  17  29  46  69  97 129 159 194 241 284
#     4   9  16  27  47  71  95 126 160 196 241 286
#     4   9  19  32  48  70  97 131 165 199 237 283
#     4   8  14  24  43  68  93 122 158 196 236 284
#     4   9  17  30  49  72  97 128 163 197 239 287
#     4  10  19  31  50  72  99 129 160 198 240 287
#
# _framework density 27.295605999999999
#
# number of rings (size 3 to 8) (size 9 to 14) (size 15 to 20)
#    0.000    3.250    0.000    0.375    0.000    4.500 
#    0.000    0.000    0.000   46.500    0.000  181.125 
#    0.000    0.000    0.000    0.000    0.000    0.000 
#
# Total GULP energy -89430.157586 kJ/mol
# GULP energy per Si atom -5589.384849 kJ/mol
# Density = 2.723348 g / cm^3
# Si number density = 27.295606 Si / 1000 Ang^3
#
#
#
# Elastic Constant Matrix: (Units=GPa)
#
#
# Indices 1 2 3 4 5 6 
#
# 1 125.6098 40.5539 38.5127 -5.2251 -2.2194 3.4878
# 2 40.5539 158.2775 26.0696 -11.6373 4.9491 5.3937
# 3 38.5127 26.0696 100.3503 -12.9420 -7.2711 -11.7815
# 4 -5.2251 -11.6373 -12.9420 42.3122 -8.3831 18.9511
# 5 -2.2194 4.9491 -7.2711 -8.3831 38.1751 -9.4916
# 6 3.4878 5.3937 -11.7815 18.9511 -9.4916 40.9741
#
#
#
# Elastic Compliance Matrix: (Units=1/GPa)
#
#
# Indices 1 2 3 4 5 6 
#
# 1 0.009655 -0.001814 -0.003407 0.000418 -0.000209 -0.001805
# 2 -0.001814 0.007296 -0.001315 0.002238 -0.001445 -0.002554
# 3 -0.003407 -0.001315 0.012628 0.002028 0.003828 0.004043
# 4 0.000418 0.002238 0.002028 0.031732 0.003716 -0.013563
# 5 -0.000209 -0.001445 0.003828 0.003716 0.029513 0.006427
# 6 -0.001805 -0.002554 0.004043 -0.013563 0.006427 0.033820
#
#
# Mechanical properties :
#
#
# Convention : Reuss Voigt Hill
#
# Bulk Modulus (GPa) = 60.58282 66.05666 63.31974
# Shear Modulus (GPa) = 34.91121 42.89904 38.90513
#
# Velocity S-wave (km/s) = 3.58020 3.96870 3.77944
# Velocity P-wave (km/s) = 6.27166 6.72709 6.50336
#
# Compressibility (1/GPa) = 0.01650633
#
# Stress axis : x y z
#
# Youngs Moduli (GPa) = 103.56967 137.05777 79.18858
#
# Poissons Ratio (x) = 0.24860 0.26983
# Poissons Ratio (y) = 0.18786 0.10416
# Poissons Ratio (z) = 0.35291 0.18027
#
# Static dielectric constant tensor:
#      x y z
#    x 2.144390 -0.046530 0.051670 
#    y -0.046530 2.234460 -0.055580 
#    z 0.051670 -0.055580 2.168400 
# 
# From -- ./inp_files/336961.got.cif
#   From: 2010.05.17/outbox.cif.g08.bks.cpg/sg2_169_cif.got.tgz:336961.got - 2010.06.03 11:33:40.
