data_PCOD9081623
_publ_section_title
;
Structure prediction by ZEFSAII (Michael W. Deem and Ramdas Pophale) SiO2 
 PCOD9081623
Probable space group: P -1
;
_chemical_formula_sum "Si O2"
_cell_formula_units_Z 16
_cell_length_a 7.912027
_cell_length_b 9.213411
_cell_length_c 17.310436
_cell_angle_alpha 110.295363
_cell_angle_beta 47.404267
_cell_angle_gamma 131.401035
_cell_volume 685.092549
_symmetry_space_group_name_H-M "P -1"
_symmetry_group_IT_number 2
_symmetry_cell_setting 'triclinic'
loop_
_space_group_symop_operation_xyz
x,y,z
-x,-y,-z
loop_
_atom_site_type_symbol
_atom_site_label
_atom_site_fract_x
_atom_site_fract_y
_atom_site_fract_z
Si Si1 0.420186 0.256184 0.824299
Si Si2 0.194789 0.568231 0.771453
Si Si3 0.667298 0.410994 0.103048
Si Si4 0.400825 0.127452 0.650672
Si Si5 0.905990 0.411983 0.350478
Si Si6 0.597788 0.495112 0.578290
Si Si7 0.480085 0.677392 0.028948
Si Si8 0.897567 0.142636 0.432014
O O1 0.348733 0.408323 0.860463
O O2 0.284983 0.100548 0.767723
O O3 0.355457 0.188492 0.921571
O O4 0.771061 0.387632 0.729002
O O5 0.385751 0.669837 0.808401
O O6 0.212034 0.689756 0.715666
O O7 0.291300 0.447591 0.680481
O O8 0.859638 0.422646 0.873421
O O9 0.464436 0.266945 0.068629
O O10 0.000000 0.500000 0.000000
O O11 0.607968 0.360933 0.612740
O O12 0.614537 0.072282 0.556950
O O13 0.174862 0.034349 0.631365
O O14 0.694632 0.450171 0.462391
O O15 0.935491 0.285174 0.378164
O O16 0.831655 0.724546 0.570731
O O17 0.500000 0.500000 0.000000
#
# Coordination Sequence:
#
# PCOD9081623 Si02
#       8
#     2   2   2   2   2   2   2   2
#     4  10  15  30  51  74  99 134 174 208 252 304
#     4  10  18  27  51  73 105 137 162 205 267 304
#     4   9  16  28  44  77 102 123 170 220 257 299
#     4  10  18  30  53  75 102 139 180 205 242 302
#     4  10  18  30  48  75 103 140 172 202 247 309
#     4  11  18  33  50  76 108 137 168 211 251 300
#     4   8  17  28  47  77 104 122 174 223 248 303
#     4  10  19  31  51  73 106 143 174 206 244 289
#
# _framework density 23.354507999999999
#
# number of rings (size 3 to 8) (size 9 to 14) (size 15 to 20)
#    0.000    2.250    3.750    1.125    0.000    0.000 
#    0.000    0.000    5.500    3.000    0.000   57.750 
#    0.000    0.000    0.000    0.000    0.000    0.000 
#
# Total GULP energy -89089.148823 kJ/mol
# GULP energy per Si atom -5568.071801 kJ/mol
# Density = 2.330135 g / cm^3
# Si number density = 23.354508 Si / 1000 Ang^3
#
#
#
# Elastic Constant Matrix: (Units=GPa)
#
#
# Indices 1 2 3 4 5 6 
#
# 1 69.9951 4.2097 52.8593 11.4893 18.6013 15.3934
# 2 4.2097 55.0602 19.6627 12.7574 3.0613 14.5988
# 3 52.8593 19.6627 125.6760 34.1042 21.1629 15.0149
# 4 11.4893 12.7574 34.1042 28.3985 15.0949 6.3512
# 5 18.6013 3.0613 21.1629 15.0949 68.4129 10.6235
# 6 15.3934 14.5988 15.0149 6.3512 10.6235 14.3618
#
#
#
# Elastic Compliance Matrix: (Units=1/GPa)
#
#
# Indices 1 2 3 4 5 6 
#
# 1 0.027417 0.007921 -0.010596 0.004952 -0.001345 -0.027555
# 2 0.007921 0.029533 -0.002193 -0.008240 0.004609 -0.035983
# 3 -0.010596 -0.002193 0.016548 -0.015656 0.000922 0.002527
# 4 0.004952 -0.008240 -0.015656 0.060861 -0.009492 -0.000456
# 5 -0.001345 0.004609 0.000922 -0.009492 0.018740 -0.013872
# 6 -0.027555 -0.035983 0.002527 -0.000456 -0.013872 0.143560
#
#
# Mechanical properties :
#
#
# Convention : Reuss Voigt Hill
#
# Bulk Modulus (GPa) = 15.68327 44.91051 30.29689
# Shear Modulus (GPa) = 15.26023 33.83464 24.54744
#
# Velocity S-wave (km/s) = 2.55898 3.81036 3.24555
# Velocity P-wave (km/s) = 3.93205 6.21531 5.20054
#
# Compressibility (1/GPa) = 0.06376219
#
# Stress axis : x y z
#
# Youngs Moduli (GPa) = 36.47396 33.86017 60.42992
#
# Poissons Ratio (x) = -0.26822 0.64031
# Poissons Ratio (y) = -0.28892 0.13254
# Poissons Ratio (z) = 0.38648 0.07426
#
# Static dielectric constant tensor:
#      x y z
#    x 1.994700 0.058770 0.054880 
#    y 0.058770 1.920970 0.044360 
#    z 0.054880 0.044360 1.933540 
# 
# From -- ./inp_files/210480.got.cif
#   From: 2010.05.17/outbox.cif.g08.bks.cpg/sg2_106_cif.got.tgz:210480.got - 2010.06.03 11:33:40.
