data_PCOD9081860
_publ_section_title
;
Structure prediction by ZEFSAII (Michael W. Deem and Ramdas Pophale) SiO2 
 PCOD9081860
Probable space group: P -1
;
_chemical_formula_sum "Si O2"
_cell_formula_units_Z 14
_cell_length_a 7.931365
_cell_length_b 8.207972
_cell_length_c 14.534650
_cell_angle_alpha 91.904043
_cell_angle_beta 138.557313
_cell_angle_gamma 93.796057
_cell_volume 619.958430
_symmetry_space_group_name_H-M "P -1"
_symmetry_group_IT_number 2
_symmetry_cell_setting 'triclinic'
loop_
_space_group_symop_operation_xyz
x,y,z
-x,-y,-z
loop_
_atom_site_type_symbol
_atom_site_label
_atom_site_fract_x
_atom_site_fract_y
_atom_site_fract_z
Si Si1 0.431239 0.672900 0.792178
Si Si2 0.848257 0.536116 0.845137
Si Si3 0.806380 0.149892 0.039887
Si Si4 0.243218 0.902523 0.590937
Si Si5 0.604648 0.197817 0.763135
Si Si6 0.263501 0.184776 0.910344
Si Si7 0.878299 0.666348 0.326960
O O1 0.605757 0.622074 0.779560
O O2 0.326728 0.839782 0.723234
O O3 0.621279 0.698364 0.957190
O O4 0.197183 0.529092 0.708490
O O5 0.746108 0.351619 0.766938
O O6 0.026401 0.675544 0.864160
O O7 0.000000 0.500000 0.000000
O O8 0.522649 0.150898 0.963746
O O9 0.781472 0.148607 0.918755
O O10 0.884973 0.983109 0.110891
O O11 0.137137 0.742495 0.485657
O O12 0.478696 0.034712 0.656441
O O13 0.000000 0.000000 0.500000
O O14 0.365033 0.269856 0.717964
O O15 0.116081 0.266121 0.772473
#
# Coordination Sequence:
#
# PCOD9081860 Si02
#       7
#     2   2   2   2   2   2   2
#     4  11  20  34  57  86 107 139 187 228 261 325
#     4   9  19  34  54  82 112 142 178 227 271 315
#     4   9  17  32  53  81 111 139 171 226 280 312
#     4  10  19  33  54  82 108 143 184 226 265 314
#     4   8  15  32  50  76 105 140 182 219 257 320
#     4  10  19  32  56  85 111 133 181 229 273 325
#     4   9  19  31  51  81 110 139 173 227 272 314
#
# _framework density 22.582160999999999
#
# number of rings (size 3 to 8) (size 9 to 14) (size 15 to 20)
#    0.000    2.571    1.429    1.714    2.000    0.571 
#    0.000    0.000    0.000    1.714    0.000    0.000 
#    0.000    0.000    0.000    0.000    0.000    0.000 
#
# Total GULP energy -78125.249213 kJ/mol
# GULP energy per Si atom -5580.374944 kJ/mol
# Density = 2.253076 g / cm^3
# Si number density = 22.582161 Si / 1000 Ang^3
#
#
#
# Elastic Constant Matrix: (Units=GPa)
#
#
# Indices 1 2 3 4 5 6 
#
# 1 61.2935 19.8335 10.5355 -3.1650 3.9247 8.5710
# 2 19.8335 163.1764 37.1625 38.4136 7.2074 41.5978
# 3 10.5355 37.1625 78.0629 20.5486 1.0805 13.5683
# 4 -3.1650 38.4136 20.5486 41.2005 -2.0473 15.7897
# 5 3.9247 7.2074 1.0805 -2.0473 16.5151 3.4142
# 6 8.5710 41.5978 13.5683 15.7897 3.4142 23.9384
#
#
#
# Elastic Compliance Matrix: (Units=1/GPa)
#
#
# Indices 1 2 3 4 5 6 
#
# 1 0.018572 -0.001430 -0.002311 0.006506 -0.001396 -0.006947
# 2 -0.001430 0.011854 -0.001480 -0.004350 -0.001947 -0.016100
# 3 -0.002311 -0.001480 0.015681 -0.006083 -0.000288 -0.001436
# 4 0.006506 -0.004350 -0.006083 0.039519 0.009525 -0.018747
# 5 -0.001396 -0.001947 -0.000288 0.009525 0.065320 -0.011552
# 6 -0.006947 -0.016100 -0.001436 -0.018747 -0.011552 0.087066
#
#
# Mechanical properties :
#
#
# Convention : Reuss Voigt Hill
#
# Bulk Modulus (GPa) = 28.03893 48.62178 38.33035
# Shear Modulus (GPa) = 19.20555 31.99756 25.60155
#
# Velocity S-wave (km/s) = 2.91945 3.76831 3.37071
# Velocity P-wave (km/s) = 4.87931 6.36485 5.67093
#
# Compressibility (1/GPa) = 0.03566470
#
# Stress axis : x y z
#
# Youngs Moduli (GPa) = 53.84567 84.36309 63.77010
#
# Poissons Ratio (x) = 0.12063 0.14740
# Poissons Ratio (y) = 0.07699 0.09435
# Poissons Ratio (z) = 0.12446 0.12482
#
# Static dielectric constant tensor:
#      x y z
#    x 1.869900 -0.030230 0.016050 
#    y -0.030230 1.924420 0.034790 
#    z 0.016050 0.034790 1.828850 
# 
# From -- ./inp_files/186038.got.cif
#   From: 2010.05.17/outbox.cif.g08.bks.cpg/sg2_94_cif.got.tgz:186038.got - 2010.06.03 11:33:40.
