data_PCOD9081608
_publ_section_title
;
Structure prediction by ZEFSAII (Michael W. Deem and Ramdas Pophale) SiO2 
 PCOD9081608
Probable space group: P -1
;
_chemical_formula_sum "Si O2"
_cell_formula_units_Z 14
_cell_length_a 23.176190
_cell_length_b 13.494489
_cell_length_c 5.248391
_cell_angle_alpha 53.208454
_cell_angle_beta 59.563938
_cell_angle_gamma 34.972794
_cell_volume 753.005309
_symmetry_space_group_name_H-M "P -1"
_symmetry_group_IT_number 2
_symmetry_cell_setting 'triclinic'
loop_
_space_group_symop_operation_xyz
x,y,z
-x,-y,-z
loop_
_atom_site_type_symbol
_atom_site_label
_atom_site_fract_x
_atom_site_fract_y
_atom_site_fract_z
Si Si1 0.611710 0.666329 0.197886
Si Si2 0.502123 0.382720 0.986254
Si Si3 0.443393 0.950214 0.770342
Si Si4 0.897591 0.246154 0.580677
Si Si5 0.123169 0.892679 0.657110
Si Si6 0.708867 0.654194 0.493581
Si Si7 0.657630 0.339235 0.469010
O O1 0.496900 0.840545 0.086727
O O2 0.676471 0.628659 0.867457
O O3 0.647883 0.687565 0.332585
O O4 0.632201 0.492994 0.466575
O O5 0.593067 0.306323 0.717023
O O6 0.392358 0.539276 0.863153
O O7 0.500000 0.500000 0.000000
O O8 0.531372 0.199705 0.239120
O O9 0.500000 0.000000 0.500000
O O10 0.327904 0.152831 0.706403
O O11 0.871096 0.214658 0.422237
O O12 0.823832 0.461917 0.470546
O O13 0.880358 0.173877 0.963102
O O14 0.016816 0.108439 0.525032
O O15 0.223172 0.837498 0.520200
#
# Coordination Sequence:
#
# PCOD9081608 Si02
#       7
#     2   2   2   2   2   2   2
#     4  10  20  31  55  79 107 147 177 221 275 324
#     4  10  23  37  55  81 113 148 191 226 275 342
#     4   9  21  35  53  82 109 147 188 225 278 332
#     4  10  19  32  52  86 111 140 188 229 282 323
#     4  10  20  32  54  81 113 144 181 236 278 326
#     4  11  18  34  52  80 112 140 179 227 274 325
#     4  10  20  35  53  78 112 149 185 227 284 326
#
# _framework density 18.592165999999999
#
# number of rings (size 3 to 8) (size 9 to 14) (size 15 to 20)
#    0.000    2.000    2.857    0.429    8.000    0.000 
#    7.714    0.000    0.000    0.857    0.000    1.000 
#    0.000    0.000    0.000    0.000    0.000    0.000 
#
# Total GULP energy -77940.034023 kJ/mol
# GULP energy per Si atom -5567.145287 kJ/mol
# Density = 1.854985 g / cm^3
# Si number density = 18.592166 Si / 1000 Ang^3
#
#
#
# Elastic Constant Matrix: (Units=GPa)
#
#
# Indices 1 2 3 4 5 6 
#
# 1 79.6466 42.4557 22.5460 -0.3050 3.6561 -2.9514
# 2 42.4557 132.9002 29.9943 -27.1612 0.9532 -13.4412
# 3 22.5460 29.9943 65.9389 4.3126 0.5399 4.8763
# 4 -0.3050 -27.1612 4.3126 28.4485 12.2175 5.0779
# 5 3.6561 0.9532 0.5399 12.2175 19.3404 1.7181
# 6 -2.9514 -13.4412 4.8763 5.0779 1.7181 48.2447
#
#
#
# Elastic Compliance Matrix: (Units=1/GPa)
#
#
# Indices 1 2 3 4 5 6 
#
# 1 0.016268 -0.005568 -0.002727 -0.004926 0.000367 0.000225
# 2 -0.005568 0.015369 -0.006542 0.020578 -0.012778 0.002892
# 3 -0.002727 -0.006542 0.020037 -0.012365 0.008357 -0.003011
# 4 -0.004926 0.020578 -0.012365 0.077494 -0.048714 0.000260
# 5 0.000367 -0.012778 0.008357 -0.048714 0.083002 -0.002211
# 6 0.000225 0.002892 -0.003011 0.000260 -0.002211 0.021903
#
#
# Mechanical properties :
#
#
# Convention : Reuss Voigt Hill
#
# Bulk Modulus (GPa) = 45.45614 52.05308 48.75461
# Shear Modulus (GPa) = 18.44464 31.43938 24.94201
#
# Velocity S-wave (km/s) = 3.15312 4.11664 3.66667
# Velocity P-wave (km/s) = 6.14479 7.11714 6.64876
#
# Compressibility (1/GPa) = 0.02199923
#
# Stress axis : x y z
#
# Youngs Moduli (GPa) = 61.46988 65.06447 49.90778
#
# Poissons Ratio (x) = 0.36229 0.13610
# Poissons Ratio (y) = 0.34227 0.32652
# Poissons Ratio (z) = 0.16763 0.42568
#
# Static dielectric constant tensor:
#      x y z
#    x 1.677440 0.029980 0.020200 
#    y 0.029980 1.795530 0.036820 
#    z 0.020200 0.036820 1.711240 
# 
# From -- ./inp_files/74878.got.cif
#   From: 2010.05.17/outbox.cif.g08.bks.cpg/sg2_38_cif.got.tgz:74878.got - 2010.06.03 11:33:40.
