data_PCOD9081132
_publ_section_title
;
Structure prediction by ZEFSAII (Michael W. Deem and Ramdas Pophale) SiO2 
 PCOD9081132
Probable space group: P -1
;
_chemical_formula_sum "Si O2"
_cell_formula_units_Z 16
_cell_length_a 11.339504
_cell_length_b 12.028684
_cell_length_c 6.311435
_cell_angle_alpha 100.570802
_cell_angle_beta 103.009078
_cell_angle_gamma 90.261740
_cell_volume 823.599673
_symmetry_space_group_name_H-M "P -1"
_symmetry_group_IT_number 2
_symmetry_cell_setting 'triclinic'
loop_
_space_group_symop_operation_xyz
x,y,z
-x,-y,-z
loop_
_atom_site_type_symbol
_atom_site_label
_atom_site_fract_x
_atom_site_fract_y
_atom_site_fract_z
Si Si1 0.252018 0.490480 0.385436
Si Si2 0.199660 0.716389 0.205789
Si Si3 0.358326 0.895313 0.587648
Si Si4 0.449569 0.421476 0.143053
Si Si5 0.586053 0.847848 0.394083
Si Si6 0.053769 0.374942 0.982277
Si Si7 0.613218 0.242492 0.058084
Si Si8 0.249476 0.342956 0.719773
O O1 0.210617 0.613345 0.341650
O O2 0.383330 0.480499 0.327545
O O3 0.155345 0.396261 0.212229
O O4 0.257907 0.454939 0.618126
O O5 0.258018 0.828012 0.380379
O O6 0.061675 0.711287 0.067951
O O7 0.285232 0.699458 0.031506
O O8 0.494006 0.860901 0.558457
O O9 0.357215 0.028805 0.597416
O O10 0.340198 0.854352 0.806234
O O11 0.500000 0.500000 0.000000
O O12 0.552722 0.336701 0.210492
O O13 0.339119 0.353836 0.958712
O O14 0.491660 0.808319 0.157085
O O15 0.691627 0.758515 0.423303
O O16 0.118964 0.339652 0.778018
O O17 0.000000 0.500000 0.000000
#
# Coordination Sequence:
#
# PCOD9081132 Si02
#       8
#     2   2   2   2   2   2   2   2
#     4  10  20  34  54  78 106 143 171 210 269 320
#     4  10  21  33  50  80 105 132 182 217 253 312
#     4  10  20  34  58  77 105 141 174 217 261 310
#     4  10  19  31  48  79 114 133 164 216 258 319
#     4   9  20  38  52  81 107 133 180 216 256 316
#     4   9  21  38  52  74 109 139 178 222 255 314
#     4  10  19  33  53  78 107 142 167 212 268 314
#     4  10  21  35  56  76 104 145 175 214 266 311
#
# _framework density 19.426912000000002
#
# number of rings (size 3 to 8) (size 9 to 14) (size 15 to 20)
#    0.000    2.250    1.250    1.125    1.750    3.500 
#    0.000    0.625    0.000    1.500    0.000    0.000 
#    0.000    0.000    0.000    0.000    0.000    0.000 
#
# Total GULP energy -89147.949690 kJ/mol
# GULP energy per Si atom -5571.746856 kJ/mol
# Density = 1.938270 g / cm^3
# Si number density = 19.426912 Si / 1000 Ang^3
#
#
#
# Elastic Constant Matrix: (Units=GPa)
#
#
# Indices 1 2 3 4 5 6 
#
# 1 98.4601 31.5282 18.2428 11.8037 1.9610 15.8356
# 2 31.5282 81.6109 6.1453 0.9952 1.6816 9.1539
# 3 18.2428 6.1453 32.8728 -5.1167 0.5230 0.8703
# 4 11.8037 0.9952 -5.1167 21.4095 -4.0750 1.2082
# 5 1.9610 1.6816 0.5230 -4.0750 17.4935 3.8327
# 6 15.8356 9.1539 0.8703 1.2082 3.8327 22.3928
#
#
#
# Elastic Compliance Matrix: (Units=1/GPa)
#
#
# Indices 1 2 3 4 5 6 
#
# 1 0.015953 -0.004358 -0.009461 -0.010727 -0.001778 -0.008249
# 2 -0.004358 0.014221 0.000141 0.001977 0.000209 -0.002879
# 3 -0.009461 0.000141 0.037753 0.014469 0.002419 0.003971
# 4 -0.010727 0.001977 0.014469 0.058636 0.014099 0.000638
# 5 -0.001778 0.000209 0.002419 0.014099 0.062842 -0.010439
# 6 -0.008249 -0.002879 0.003971 0.000638 -0.010439 0.053266
#
#
# Mechanical properties :
#
#
# Convention : Reuss Voigt Hill
#
# Bulk Modulus (GPa) = 24.64899 36.08626 30.36762
# Shear Modulus (GPa) = 17.63348 22.72766 20.18057
#
# Velocity S-wave (km/s) = 3.01605 3.42410 3.22653
# Velocity P-wave (km/s) = 4.98441 5.85221 5.43565
#
# Compressibility (1/GPa) = 0.04056961
#
# Stress axis : x y z
#
# Youngs Moduli (GPa) = 62.68412 70.31975 26.48784
#
# Poissons Ratio (x) = 0.30644 0.25061
# Poissons Ratio (y) = 0.27317 -0.00372
# Poissons Ratio (z) = 0.59308 -0.00989
#
# Static dielectric constant tensor:
#      x y z
#    x 1.714070 0.003480 -0.004540 
#    y 0.003480 1.673210 0.041590 
#    z -0.004540 0.041590 1.733560 
# 
# From -- ./inp_files/67247.got.cif
#   From: 2010.05.17/outbox.cif.g08.bks.cpg/sg2_34_cif.got.tgz:67247.got - 2010.06.03 11:33:40.
