data_PCOD9081885
_publ_section_title
;
Structure prediction by ZEFSAII (Michael W. Deem and Ramdas Pophale) SiO2 
 PCOD9081885
Probable space group: P -1
;
_chemical_formula_sum "Si O2"
_cell_formula_units_Z 12
_cell_length_a 11.840360
_cell_length_b 5.029403
_cell_length_c 13.125480
_cell_angle_alpha 73.066629
_cell_angle_beta 144.455186
_cell_angle_gamma 102.616414
_cell_volume 434.444916
_symmetry_space_group_name_H-M "P -1"
_symmetry_group_IT_number 2
_symmetry_cell_setting 'triclinic'
loop_
_space_group_symop_operation_xyz
x,y,z
-x,-y,-z
loop_
_atom_site_type_symbol
_atom_site_label
_atom_site_fract_x
_atom_site_fract_y
_atom_site_fract_z
Si Si1 0.821189 0.214310 0.836290
Si Si2 0.778810 0.631380 0.585738
Si Si3 0.735897 0.440598 0.187091
Si Si4 0.527515 0.154263 0.386372
Si Si5 0.663270 0.401455 0.918236
Si Si6 0.755048 0.829673 0.332698
O O1 0.866197 0.467610 0.765111
O O2 0.643706 0.037457 0.679658
O O3 0.766856 0.317019 0.898385
O O4 0.000000 0.000000 0.000000
O O5 0.589626 0.438082 0.453196
O O6 0.710086 0.946676 0.524885
O O7 0.847176 0.662595 0.515140
O O8 0.810361 0.693378 0.280338
O O9 0.783300 0.155721 0.313584
O O10 0.500000 0.500000 0.000000
O O11 0.791177 0.398989 0.114042
O O12 0.428199 0.287379 0.197330
O O13 0.477289 0.212694 0.821001
#
# Coordination Sequence:
#
# PCOD9081885 Si02
#       6
#     2   2   2   2   2   2
#     4  12  27  42  62  93 130 169 204 253 313 371
#     4  11  23  41  66  92 125 160 211 256 307 365
#     4  10  19  32  56  92 122 149 194 260 307 356
#     4  11  22  41  65  91 119 168 204 258 305 357
#     4  10  22  36  61  89 130 156 204 250 317 355
#     4  10  19  32  60  90 117 153 201 253 307 350
#
# _framework density 27.621452000000001
#
# number of rings (size 3 to 8) (size 9 to 14) (size 15 to 20)
#    0.000    1.333    3.333    6.000    4.667    0.667 
#    0.000    0.000    0.000    2.000    0.000    0.000 
#    0.000    0.000    0.000    0.000    0.000    0.000 
#
# Total GULP energy -67207.561893 kJ/mol
# GULP energy per Si atom -5600.630158 kJ/mol
# Density = 2.755858 g / cm^3
# Si number density = 27.621452 Si / 1000 Ang^3
#
#
#
# Elastic Constant Matrix: (Units=GPa)
#
#
# Indices 1 2 3 4 5 6 
#
# 1 149.2328 35.1842 44.5530 3.0870 -38.1852 -11.7083
# 2 35.1842 149.0517 34.5723 -16.4145 -15.0579 -11.3295
# 3 44.5530 34.5723 133.2171 -10.5241 -32.7127 -11.4609
# 4 3.0870 -16.4145 -10.5241 59.8622 7.8315 -6.0558
# 5 -38.1852 -15.0579 -32.7127 7.8315 49.9721 8.1271
# 6 -11.7083 -11.3295 -11.4609 -6.0558 8.1271 55.2006
#
#
#
# Elastic Compliance Matrix: (Units=1/GPa)
#
#
# Indices 1 2 3 4 5 6 
#
# 1 0.008973 -0.001401 -0.001331 -0.001811 0.005800 0.000287
# 2 -0.001401 0.007648 -0.001276 0.002090 -0.000133 0.001256
# 3 -0.001331 -0.001276 0.009549 0.000887 0.004570 0.000863
# 4 -0.001811 0.002090 0.000887 0.018260 -0.003481 0.002745
# 5 0.005800 -0.000133 0.004570 -0.003481 0.028331 -0.002401
# 6 0.000287 0.001256 0.000863 0.002745 -0.002401 0.019268
#
#
# Mechanical properties :
#
#
# Convention : Reuss Voigt Hill
#
# Bulk Modulus (GPa) = 55.08472 73.34674 64.21573
# Shear Modulus (GPa) = 47.12679 54.15312 50.63995
#
# Velocity S-wave (km/s) = 4.13506 4.43261 4.28642
# Velocity P-wave (km/s) = 6.54097 7.26700 6.91352
#
# Compressibility (1/GPa) = 0.01815385
#
# Stress axis : x y z
#
# Youngs Moduli (GPa) = 111.44928 130.75548 104.71806
#
# Poissons Ratio (x) = 0.18318 0.13943
# Poissons Ratio (y) = 0.15613 0.13359
# Poissons Ratio (z) = 0.14839 0.16681
#
# Static dielectric constant tensor:
#      x y z
#    x 2.270290 0.001130 -0.007380 
#    y 0.001130 2.017440 0.002500 
#    z -0.007380 0.002500 2.303000 
# 
# From -- ./inp_files/408559.got.cif
#   From: 2010.05.17/outbox.cif.g08.bks.cpg/sg2_205_cif.got.tgz:408559.got - 2010.06.03 11:33:40.
