data_PCOD9081761
_publ_section_title
;
Structure prediction by ZEFSAII (Michael W. Deem and Ramdas Pophale) SiO2 
 PCOD9081761
Probable space group: P -1
;
_chemical_formula_sum "Si O2"
_cell_formula_units_Z 14
_cell_length_a 8.352397
_cell_length_b 9.388478
_cell_length_c 12.331202
_cell_angle_alpha 124.263422
_cell_angle_beta 94.043133
_cell_angle_gamma 109.556988
_cell_volume 710.198965
_symmetry_space_group_name_H-M "P -1"
_symmetry_group_IT_number 2
_symmetry_cell_setting 'triclinic'
loop_
_space_group_symop_operation_xyz
x,y,z
-x,-y,-z
loop_
_atom_site_type_symbol
_atom_site_label
_atom_site_fract_x
_atom_site_fract_y
_atom_site_fract_z
Si Si1 0.065715 0.784301 0.332239
Si Si2 0.272735 0.628216 0.849971
Si Si3 0.508035 0.439631 0.849648
Si Si4 0.157803 0.893279 0.836359
Si Si5 0.799660 0.975525 0.349966
Si Si6 0.857788 0.276258 0.913676
Si Si7 0.136217 0.250459 0.069716
O O1 0.189201 0.811937 0.244945
O O2 0.925163 0.558414 0.244651
O O3 0.940192 0.886364 0.337195
O O4 0.169117 0.879580 0.487414
O O5 0.409537 0.537378 0.813773
O O6 0.272930 0.784206 0.832303
O O7 0.289745 0.724179 0.011043
O O8 0.394698 0.210481 0.737694
O O9 0.712265 0.537421 0.861049
O O10 0.500000 0.500000 0.000000
O O11 0.958365 0.774202 0.829384
O O12 0.163603 0.923486 0.721746
O O13 0.218155 0.101977 0.985933
O O14 0.000000 0.500000 0.000000
O O15 0.973107 0.192866 0.951123
#
# Coordination Sequence:
#
# PCOD9081761 Si02
#       7
#     2   2   2   2   2   2   2
#     4   9  17  32  52  79 103 139 181 214 248 320
#     4   9  20  31  55  79 107 135 177 216 265 305
#     4  11  19  35  54  81 107 138 172 224 264 307
#     4  10  19  34  52  82 103 142 176 212 260 318
#     4  10  19  32  55  78 105 139 179 213 262 309
#     4   9  15  31  54  80  98 134 180 216 248 306
#     4  10  19  32  55  79 109 134 176 216 266 309
#
# _framework density 19.712783999999999
#
# number of rings (size 3 to 8) (size 9 to 14) (size 15 to 20)
#    0.000    2.286    2.857    1.714    0.000    1.143 
#    0.000    0.000    0.000   21.429    0.000    2.000 
#    0.000    0.000    0.000    0.000    0.000    0.000 
#
# Total GULP energy -78082.051690 kJ/mol
# GULP energy per Si atom -5577.289406 kJ/mol
# Density = 1.966792 g / cm^3
# Si number density = 19.712784 Si / 1000 Ang^3
#
#
#
# Elastic Constant Matrix: (Units=GPa)
#
#
# Indices 1 2 3 4 5 6 
#
# 1 47.0700 31.5642 23.6577 -6.2834 4.4417 -1.1567
# 2 31.5642 118.0631 49.9154 -25.3763 -0.5990 -5.2849
# 3 23.6577 49.9154 121.0700 -14.6547 -6.3942 15.9741
# 4 -6.2834 -25.3763 -14.6547 25.7778 2.5558 -1.7855
# 5 4.4417 -0.5990 -6.3942 2.5558 17.1850 1.8109
# 6 -1.1567 -5.2849 15.9741 -1.7855 1.8109 43.7570
#
#
#
# Elastic Compliance Matrix: (Units=1/GPa)
#
#
# Indices 1 2 3 4 5 6 
#
# 1 0.027952 -0.005867 -0.003763 -0.000086 -0.009003 0.001773
# 2 -0.005867 0.014131 -0.003926 0.010629 -0.001399 0.003476
# 3 -0.003763 -0.003926 0.011688 0.000962 0.005572 -0.005032
# 4 -0.000086 0.010629 0.000962 0.050718 -0.007140 0.003295
# 5 -0.009003 -0.001399 0.005572 -0.007140 0.064171 -0.005388
# 6 0.001773 0.003476 -0.005032 0.003295 -0.005388 0.025515
#
#
# Mechanical properties :
#
#
# Convention : Reuss Voigt Hill
#
# Bulk Modulus (GPa) = 37.50876 55.16418 46.33647
# Shear Modulus (GPa) = 21.72269 29.41503 25.56886
#
# Velocity S-wave (km/s) = 3.32318 3.86707 3.60539
# Velocity P-wave (km/s) = 5.81323 6.92702 6.39442
#
# Compressibility (1/GPa) = 0.02666044
#
# Stress axis : x y z
#
# Youngs Moduli (GPa) = 35.77542 70.76453 85.55671
#
# Poissons Ratio (x) = 0.41516 0.32195
# Poissons Ratio (y) = 0.20989 0.33588
# Poissons Ratio (z) = 0.13462 0.27780
#
# Static dielectric constant tensor:
#      x y z
#    x 1.751940 -0.022080 -0.002360 
#    y -0.022080 1.720190 0.007270 
#    z -0.002360 0.007270 1.679150 
# 
# From -- ./inp_files/240185.got.cif
#   From: 2010.05.17/outbox.cif.g08.bks.cpg/sg2_121_cif.got.tgz:240185.got - 2010.06.03 11:33:40.
