data_PCOD9081893
_publ_section_title
;
Structure prediction by ZEFSAII (Michael W. Deem and Ramdas Pophale) SiO2 
 PCOD9081893
Probable space group: P -1
;
_chemical_formula_sum "Si O2"
_cell_formula_units_Z 16
_cell_length_a 8.066875
_cell_length_b 5.630747
_cell_length_c 19.952892
_cell_angle_alpha 98.454771
_cell_angle_beta 120.437773
_cell_angle_gamma 58.705636
_cell_volume 659.371043
_symmetry_space_group_name_H-M "P -1"
_symmetry_group_IT_number 2
_symmetry_cell_setting 'triclinic'
loop_
_space_group_symop_operation_xyz
x,y,z
-x,-y,-z
loop_
_atom_site_type_symbol
_atom_site_label
_atom_site_fract_x
_atom_site_fract_y
_atom_site_fract_z
Si Si1 0.986270 0.525353 0.077301
Si Si2 0.802271 0.591831 0.411325
Si Si3 0.323011 0.753373 0.703044
Si Si4 0.560991 0.381141 0.133931
Si Si5 0.047805 0.340687 0.702818
Si Si6 0.936591 0.992298 0.841538
Si Si7 0.592414 0.831561 0.109128
Si Si8 0.623302 0.891397 0.689063
O O1 0.092906 0.715105 0.127840
O O2 0.733883 0.713785 0.065143
O O3 0.076088 0.220077 0.116963
O O4 0.000000 0.500000 0.000000
O O5 0.713782 0.379984 0.375504
O O6 0.582753 0.897044 0.391452
O O7 0.000000 0.500000 0.500000
O O8 0.889493 0.588199 0.353333
O O9 0.408962 0.572348 0.780166
O O10 0.499790 0.844273 0.724117
O O11 0.087999 0.032636 0.686561
O O12 0.452888 0.677976 0.086078
O O13 0.473633 0.165559 0.104607
O O14 0.810356 0.188872 0.144306
O O15 0.217690 0.287764 0.797226
O O16 0.805234 0.592106 0.684211
O O17 0.759088 0.033567 0.749699
#
# Coordination Sequence:
#
# PCOD9081893 Si02
#       8
#     2   2   2   2   2   2   2   2
#     4  10  19  32  56  96 136 166 210 270 324 388
#     4  11  25  42  61  92 129 169 218 274 339 393
#     4  10  22  37  63  89 123 165 216 272 330 386
#     4   9  16  32  56  82 118 156 213 261 300 377
#     4  10  20  41  60  88 127 165 219 268 323 395
#     4  10  20  35  59  92 130 171 220 264 322 394
#     4   9  16  30  57  83 115 164 206 256 304 379
#     4  11  23  38  65  94 125 169 224 275 320 389
#
# _framework density 24.265550000000001
#
# number of rings (size 3 to 8) (size 9 to 14) (size 15 to 20)
#    0.000    2.000    3.750    0.375    1.750    3.500 
#    0.000    1.250    0.000    0.000    0.000   49.000 
#    0.000    0.000    0.000    0.000    0.000    0.000 
#
# Total GULP energy -89492.571308 kJ/mol
# GULP energy per Si atom -5593.285707 kJ/mol
# Density = 2.421032 g / cm^3
# Si number density = 24.265550 Si / 1000 Ang^3
#
#
#
# Elastic Constant Matrix: (Units=GPa)
#
#
# Indices 1 2 3 4 5 6 
#
# 1 85.1834 57.9595 29.2122 -7.4031 1.8479 1.4580
# 2 57.9595 145.3960 24.2636 5.4197 13.5515 5.8444
# 3 29.2122 24.2636 90.3597 -12.0191 1.3011 -8.6784
# 4 -7.4031 5.4197 -12.0191 24.0355 -8.7219 1.8039
# 5 1.8479 13.5515 1.3011 -8.7219 23.9548 -1.3698
# 6 1.4580 5.8444 -8.6784 1.8039 -1.3698 53.5977
#
#
#
# Elastic Compliance Matrix: (Units=1/GPa)
#
#
# Indices 1 2 3 4 5 6 
#
# 1 0.018660 -0.007819 -0.002943 0.008288 0.006147 -0.000253
# 2 -0.007819 0.011545 -0.001779 -0.009158 -0.009238 -0.001262
# 3 -0.002943 -0.001779 0.013648 0.007342 0.003298 0.002321
# 4 0.008288 -0.009158 0.007342 0.059183 0.025727 0.000628
# 5 0.006147 -0.009238 0.003298 0.025727 0.055796 0.001934
# 6 -0.000253 -0.001262 0.002321 0.000628 0.001934 0.019206
#
#
# Mechanical properties :
#
#
# Convention : Reuss Voigt Hill
#
# Bulk Modulus (GPa) = 53.27425 60.42328 56.84877
# Shear Modulus (GPa) = 23.88034 34.28452 29.08243
#
# Velocity S-wave (km/s) = 3.14048 3.76292 3.46570
# Velocity P-wave (km/s) = 5.92895 6.62075 6.28438
#
# Compressibility (1/GPa) = 0.01877079
#
# Stress axis : x y z
#
# Youngs Moduli (GPa) = 53.58983 86.62037 73.27073
#
# Poissons Ratio (x) = 0.67729 0.21567
# Poissons Ratio (y) = 0.41902 0.13032
# Poissons Ratio (z) = 0.15774 0.15406
#
# Static dielectric constant tensor:
#      x y z
#    x 1.998560 0.057190 0.017790 
#    y 0.057190 2.039750 -0.003320 
#    z 0.017790 -0.003320 1.882210 
# 
# From -- ./inp_files/585741.got.cif
#   From: 2010.05.17/outbox.cif.g08.bks.cpg/sg2_293_cif.got.tgz:585741.got - 2010.06.03 11:33:40.
