data_PCOD9081275
_publ_section_title
;
Structure prediction by ZEFSAII (Michael W. Deem and Ramdas Pophale) SiO2 
 PCOD9081275
Probable space group: P -1
;
_chemical_formula_sum "Si O2"
_cell_formula_units_Z 14
_cell_length_a 9.908956
_cell_length_b 14.381847
_cell_length_c 9.705819
_cell_angle_alpha 154.000785
_cell_angle_beta 116.420300
_cell_angle_gamma 67.144310
_cell_volume 542.762166
_symmetry_space_group_name_H-M "P -1"
_symmetry_group_IT_number 2
_symmetry_cell_setting 'triclinic'
loop_
_space_group_symop_operation_xyz
x,y,z
-x,-y,-z
loop_
_atom_site_type_symbol
_atom_site_label
_atom_site_fract_x
_atom_site_fract_y
_atom_site_fract_z
Si Si1 0.593416 0.655778 0.860591
Si Si2 0.370471 0.535622 0.823804
Si Si3 0.722796 0.087981 0.191643
Si Si4 0.855515 0.159747 0.764864
Si Si5 0.496554 0.104349 0.352783
Si Si6 0.993477 0.247860 0.650768
Si Si7 0.169340 0.362739 0.259476
O O1 0.500000 0.500000 0.500000
O O2 0.522762 0.602008 0.903310
O O3 0.760029 0.599988 0.810744
O O4 0.589827 0.913485 0.205438
O O5 0.410554 0.320354 0.636886
O O6 0.244092 0.508319 0.606920
O O7 0.300395 0.719547 0.128311
O O8 0.596600 0.169315 0.348480
O O9 0.884619 0.199605 0.408294
O O10 0.643885 0.053791 0.965989
O O11 0.755656 0.854808 0.950110
O O12 0.897441 0.165119 0.629750
O O13 0.873297 0.922001 0.517077
O O14 0.992704 0.307344 0.090459
O O15 0.000000 0.500000 0.000000
#
# Coordination Sequence:
#
# PCOD9081275 Si02
#       7
#     2   2   2   2   2   2   2
#     4   9  17  29  51  81 106 135 170 206 258 319
#     4  10  19  31  53  83 109 133 169 222 274 311
#     4   8  15  32  54  77 101 135 179 214 255 310
#     4  10  21  37  53  75 107 140 177 220 263 310
#     4   9  17  31  54  80 107 130 164 225 273 304
#     4  10  22  37  55  73 101 147 187 212 252 319
#     4   8  16  32  54  78 106 139 173 213 262 316
#
# _framework density 25.793987999999999
#
# number of rings (size 3 to 8) (size 9 to 14) (size 15 to 20)
#    0.000    2.857    0.000    3.000    0.000    4.571 
#    0.000    0.714    0.000   27.429    0.000    0.000 
#    0.000    0.000    0.000    0.000    0.000    0.000 
#
# Total GULP energy -77989.207308 kJ/mol
# GULP energy per Si atom -5570.657665 kJ/mol
# Density = 2.573528 g / cm^3
# Si number density = 25.793988 Si / 1000 Ang^3
#
#
#
# Elastic Constant Matrix: (Units=GPa)
#
#
# Indices 1 2 3 4 5 6 
#
# 1 79.8571 29.5186 37.1217 29.3935 -22.9886 -17.2421
# 2 29.5186 76.5702 28.9566 28.5763 -9.0769 -25.0700
# 3 37.1217 28.9566 131.7811 41.5750 -17.4957 -8.5064
# 4 29.3935 28.5763 41.5750 46.6748 -15.7803 -6.9994
# 5 -22.9886 -9.0769 -17.4957 -15.7803 41.1850 0.9105
# 6 -17.2421 -25.0700 -8.5064 -6.9994 0.9105 30.4026
#
#
#
# Elastic Compliance Matrix: (Units=1/GPa)
#
#
# Indices 1 2 3 4 5 6 
#
# 1 0.020155 -0.000953 -0.001818 -0.006692 0.007518 0.008370
# 2 -0.000953 0.022611 -0.000357 -0.010631 -0.000118 0.015560
# 3 -0.001818 -0.000357 0.010786 -0.008148 0.000371 -0.000195
# 4 -0.006692 -0.010631 -0.008148 0.040637 0.006156 -0.005671
# 5 0.007518 -0.000118 0.000371 0.006156 0.030862 0.004763
# 6 0.008370 0.015560 -0.000195 -0.005671 0.004763 0.048967
#
#
# Mechanical properties :
#
#
# Convention : Reuss Voigt Hill
#
# Bulk Modulus (GPa) = 21.14399 53.26692 37.20545
# Shear Modulus (GPa) = 25.50519 36.49325 30.99922
#
# Velocity S-wave (km/s) = 3.14794 3.76546 3.47046
# Velocity P-wave (km/s) = 4.62901 6.29290 5.52396
#
# Compressibility (1/GPa) = 0.04729476
#
# Stress axis : x y z
#
# Youngs Moduli (GPa) = 49.61671 44.22690 92.71129
#
# Poissons Ratio (x) = 0.04215 0.16857
# Poissons Ratio (y) = 0.04729 0.03310
# Poissons Ratio (z) = 0.09022 0.01579
#
# Static dielectric constant tensor:
#      x y z
#    x 2.029130 -0.066140 0.083940 
#    y -0.066140 2.164870 -0.151460 
#    z 0.083940 -0.151460 2.237260 
# 
# From -- ./inp_files/210365.got.cif
#   From: 2010.05.17/outbox.cif.g08.bks.cpg/sg2_106_cif.got.tgz:210365.got - 2010.06.03 11:33:40.
