data_PCOD9081498
_publ_section_title
;
Structure prediction by ZEFSAII (Michael W. Deem and Ramdas Pophale) SiO2 
 PCOD9081498
Probable space group: P -1
;
_chemical_formula_sum "Si O2"
_cell_formula_units_Z 14
_cell_length_a 16.749147
_cell_length_b 10.597965
_cell_length_c 24.702815
_cell_angle_alpha 151.817480
_cell_angle_beta 160.608496
_cell_angle_gamma 32.032468
_cell_volume 683.862531
_symmetry_space_group_name_H-M "P -1"
_symmetry_group_IT_number 2
_symmetry_cell_setting 'triclinic'
loop_
_space_group_symop_operation_xyz
x,y,z
-x,-y,-z
loop_
_atom_site_type_symbol
_atom_site_label
_atom_site_fract_x
_atom_site_fract_y
_atom_site_fract_z
Si Si1 0.428193 0.704391 0.823949
Si Si2 0.850271 0.345418 0.688715
Si Si3 0.003019 0.137225 0.466764
Si Si4 0.324053 0.188499 0.785719
Si Si5 0.910776 0.509302 0.007003
Si Si6 0.322090 0.577280 0.026211
Si Si7 0.280008 0.124903 0.151595
O O1 0.474650 0.517005 0.835410
O O2 0.170060 0.722499 0.636738
O O3 0.628617 0.583112 0.863080
O O4 0.500000 0.000000 0.000000
O O5 0.961995 0.274595 0.793123
O O6 0.658986 0.597091 0.676682
O O7 0.816920 0.086522 0.534223
O O8 0.073794 0.471680 0.849160
O O9 0.157544 0.287097 0.665055
O O10 0.826888 0.986015 0.336264
O O11 0.542461 0.991576 0.826284
O O12 0.386378 0.429306 0.954633
O O13 0.019172 0.227472 0.997235
O O14 0.000000 0.500000 0.000000
O O15 0.276519 0.890676 0.104109
#
# Coordination Sequence:
#
# PCOD9081498 Si02
#       7
#     2   2   2   2   2   2   2
#     4  11  17  32  54  74 100 131 177 204 246 299
#     4   8  18  30  51  76  99 129 165 212 253 286
#     4  10  19  35  51  78 102 135 169 209 250 306
#     4  10  20  32  53  76 105 134 168 208 256 290
#     4   9  18  28  50  77  99 126 164 218 249 279
#     4  10  19  33  53  78  99 140 166 208 250 301
#     4  10  19  32  50  80 103 127 176 208 249 305
#
# _framework density 20.471951000000001
#
# number of rings (size 3 to 8) (size 9 to 14) (size 15 to 20)
#    0.857    1.429    4.286    1.714    0.000    0.571 
#    0.000    0.714    0.000    0.857    0.000    0.000 
#    0.000    0.000    0.000    0.000    0.000    0.000 
#
# Total GULP energy -77951.252951 kJ/mol
# GULP energy per Si atom -5567.946639 kJ/mol
# Density = 2.042536 g / cm^3
# Si number density = 20.471951 Si / 1000 Ang^3
#
#
#
# Elastic Constant Matrix: (Units=GPa)
#
#
# Indices 1 2 3 4 5 6 
#
# 1 120.5775 44.8362 18.8132 -1.8224 -27.7175 -18.7900
# 2 44.8362 116.4413 22.8013 -29.3921 -13.2950 -6.6926
# 3 18.8132 22.8013 41.5733 -9.9174 -14.9371 -0.4316
# 4 -1.8224 -29.3921 -9.9174 25.8610 -0.1873 0.2003
# 5 -27.7175 -13.2950 -14.9371 -0.1873 25.8878 -6.2802
# 6 -18.7900 -6.6926 -0.4316 0.2003 -6.2802 47.8179
#
#
#
# Elastic Compliance Matrix: (Units=1/GPa)
#
#
# Indices 1 2 3 4 5 6 
#
# 1 0.014379 -0.004479 0.000528 -0.003821 0.015076 0.007024
# 2 -0.004479 0.014973 -0.001515 0.016132 0.002270 0.000552
# 3 0.000528 -0.001515 0.034969 0.011853 0.020775 0.002990
# 4 -0.003821 0.016132 0.011853 0.061349 0.012007 0.002184
# 5 0.015076 0.002270 0.020775 0.012007 0.071846 0.015815
# 6 0.007024 0.000552 0.002990 0.002184 0.015815 0.025845
#
#
# Mechanical properties :
#
#
# Convention : Reuss Voigt Hill
#
# Bulk Modulus (GPa) = 18.73106 50.16595 34.44850
# Shear Modulus (GPa) = 19.83425 32.72277 26.27851
#
# Velocity S-wave (km/s) = 3.11601 4.00236 3.58667
# Velocity P-wave (km/s) = 4.70271 6.77617 5.83232
#
# Compressibility (1/GPa) = 0.05338727
#
# Stress axis : x y z
#
# Youngs Moduli (GPa) = 69.54558 66.78892 28.59698
#
# Poissons Ratio (x) = 0.29918 -0.01510
# Poissons Ratio (y) = 0.31153 0.04333
# Poissons Ratio (z) = -0.03672 0.10119
#
# Static dielectric constant tensor:
#      x y z
#    x 1.750320 -0.001010 -0.007800 
#    y -0.001010 1.761070 -0.017190 
#    z -0.007800 -0.017190 1.819990 
# 
# From -- ./inp_files/620306.got.cif
#   From: 2010.05.17/outbox.cif.g08.bks.cpg/sg2_311_cif.got.tgz:620306.got - 2010.06.03 11:33:40.
