data_PCOD9081240
_publ_section_title
;
Structure prediction by ZEFSAII (Michael W. Deem and Ramdas Pophale) SiO2 
 PCOD9081240
Probable space group: P -1
;
_chemical_formula_sum "Si O2"
_cell_formula_units_Z 16
_cell_length_a 22.128509
_cell_length_b 21.459599
_cell_length_c 9.182143
_cell_angle_alpha 149.186488
_cell_angle_beta 31.614346
_cell_angle_gamma 162.296413
_cell_volume 663.381629
_symmetry_space_group_name_H-M "P -1"
_symmetry_group_IT_number 2
_symmetry_cell_setting 'triclinic'
loop_
_space_group_symop_operation_xyz
x,y,z
-x,-y,-z
loop_
_atom_site_type_symbol
_atom_site_label
_atom_site_fract_x
_atom_site_fract_y
_atom_site_fract_z
Si Si1 0.555120 0.658044 0.006870
Si Si2 0.660224 0.782548 0.357142
Si Si3 0.642715 0.010864 0.970737
Si Si4 0.001211 0.673405 0.369913
Si Si5 0.151161 0.339098 0.071654
Si Si6 0.788235 0.349976 0.932226
Si Si7 0.992468 0.949481 0.621756
Si Si8 0.977535 0.294528 0.062360
O O1 0.445927 0.437168 0.832758
O O2 0.766771 0.805356 0.796986
O O3 0.611726 0.773923 0.273533
O O4 0.388737 0.577343 0.084259
O O5 0.579530 0.813768 0.697780
O O6 0.898909 0.978130 0.299427
O O7 0.436288 0.898558 0.127875
O O8 0.812662 0.162785 0.798638
O O9 0.754740 0.139070 0.148417
O O10 0.945914 0.733585 0.713557
O O11 0.807808 0.471209 0.260698
O O12 0.059216 0.616424 0.247703
O O13 0.032552 0.324332 0.176259
O O14 0.125551 0.177593 0.744522
O O15 0.869752 0.480678 0.879596
O O16 0.997996 0.821337 0.283673
#
# Coordination Sequence:
#
# PCOD9081240 Si02
#       8
#     2   2   2   2   2   2   2   2
#     4  10  19  31  52  80 112 149 184 225 276 325
#     4   9  18  30  51  82 110 138 183 234 275 323
#     4  10  19  37  60  81 108 146 186 229 280 329
#     4  10  22  38  60  86 111 141 186 239 278 324
#     4  11  23  37  54  85 119 148 184 226 278 332
#     4  10  21  40  62  83 108 145 190 232 279 329
#     4  10  20  35  54  78 113 150 186 226 270 327
#     4  10  23  38  56  83 116 150 185 227 274 333
#
# _framework density 24.118848
#
# number of rings (size 3 to 8) (size 9 to 14) (size 15 to 20)
#    0.000    2.000    0.000    3.375    0.000    9.000 
#    0.000    0.625    0.000    0.000    0.000    0.000 
#    0.000    0.000    0.000    0.000    0.000    0.000 
#
# Total GULP energy -89326.479847 kJ/mol
# GULP energy per Si atom -5582.904990 kJ/mol
# Density = 2.406395 g / cm^3
# Si number density = 24.118848 Si / 1000 Ang^3
#
#
#
# Elastic Constant Matrix: (Units=GPa)
#
#
# Indices 1 2 3 4 5 6 
#
# 1 118.5836 46.1371 -0.9710 5.5091 18.2613 17.8741
# 2 46.1371 104.2281 4.6012 -3.9088 12.2372 46.3549
# 3 -0.9710 4.6012 23.2417 8.4246 5.4388 3.3428
# 4 5.5091 -3.9088 8.4246 13.6898 -0.5025 -4.1023
# 5 18.2613 12.2372 5.4388 -0.5025 20.9004 11.2293
# 6 17.8741 46.3549 3.3428 -4.1023 11.2293 35.3976
#
#
#
# Elastic Compliance Matrix: (Units=1/GPa)
#
#
# Indices 1 2 3 4 5 6 
#
# 1 0.012974 -0.007113 0.008261 -0.011439 -0.011993 0.004463
# 2 -0.007113 0.027166 -0.004266 0.003315 0.009957 -0.034355
# 3 0.008261 -0.004266 0.067013 -0.047664 -0.021333 -0.003670
# 4 -0.011439 0.003315 -0.047664 0.112710 0.015622 0.014042
# 5 -0.011993 0.009957 -0.021333 0.015622 0.072471 -0.026149
# 6 0.004463 -0.034355 -0.003670 0.014042 -0.026149 0.081255
#
#
# Mechanical properties :
#
#
# Convention : Reuss Voigt Hill
#
# Bulk Modulus (GPa) = 9.90926 38.39869 24.15397
# Shear Modulus (GPa) = 12.09298 27.08331 19.58814
#
# Velocity S-wave (km/s) = 2.24161 3.35462 2.85292
# Velocity P-wave (km/s) = 3.28895 5.56415 4.57039
#
# Compressibility (1/GPa) = 0.10091573
#
# Stress axis : x y z
#
# Youngs Moduli (GPa) = 77.07905 36.81097 14.92253
#
# Poissons Ratio (x) = 0.26185 -0.12328
# Poissons Ratio (y) = 0.54829 0.06366
# Poissons Ratio (z) = -0.63676 0.15704
#
# Static dielectric constant tensor:
#      x y z
#    x 1.962800 0.015070 -0.022050 
#    y 0.015070 1.955450 0.022630 
#    z -0.022050 0.022630 1.972530 
# 
# From -- ./inp_files/349568.got.cif
#   From: 2010.05.17/outbox.cif.g08.bks.cpg/sg2_175_cif.got.tgz:349568.got - 2010.06.03 11:33:40.
