data_PCOD9081486
_publ_section_title
;
Structure prediction by ZEFSAII (Michael W. Deem and Ramdas Pophale) SiO2 
 PCOD9081486
Probable space group: P -1
;
_chemical_formula_sum "Si O2"
_cell_formula_units_Z 14
_cell_length_a 22.993657
_cell_length_b 10.597612
_cell_length_c 7.036659
_cell_angle_alpha 132.757895
_cell_angle_beta 145.587879
_cell_angle_gamma 35.302568
_cell_volume 559.917385
_symmetry_space_group_name_H-M "P -1"
_symmetry_group_IT_number 2
_symmetry_cell_setting 'triclinic'
loop_
_space_group_symop_operation_xyz
x,y,z
-x,-y,-z
loop_
_atom_site_type_symbol
_atom_site_label
_atom_site_fract_x
_atom_site_fract_y
_atom_site_fract_z
Si Si1 0.156115 0.810623 0.185798
Si Si2 0.571761 0.876416 0.264163
Si Si3 0.324006 0.960738 0.749564
Si Si4 0.003957 0.296532 0.753805
Si Si5 0.766017 0.367466 0.217964
Si Si6 0.125334 0.480139 0.757050
Si Si7 0.693731 0.096685 0.799590
O O1 0.242031 0.891050 0.558216
O O2 0.203282 0.742186 0.021643
O O3 0.182828 0.593332 0.125065
O O4 0.000000 0.000000 0.000000
O O5 0.689385 0.626208 0.273728
O O6 0.626187 0.001874 0.617667
O O7 0.500000 0.000000 0.000000
O O8 0.467963 0.876848 0.109069
O O9 0.235661 0.223319 0.775411
O O10 0.341327 0.888361 0.501722
O O11 0.908977 0.268041 0.585172
O O12 0.937491 0.371052 0.446925
O O13 0.000000 0.500000 0.000000
O O14 0.151199 0.087427 0.947833
O O15 0.677313 0.314130 0.025164
O O16 0.000000 0.500000 0.500000
#
# Coordination Sequence:
#
# PCOD9081486 Si02
#       7
#     2   2   2   2   2   2   2
#     4  10  19  32  50  76 109 140 179 217 265 321
#     4  10  19  33  52  79 115 145 176 223 276 330
#     4  10  20  33  54  80 110 142 180 222 270 328
#     4  11  18  34  56  80 111 142 181 231 276 321
#     4  10  21  32  53  84 112 142 180 226 281 321
#     4  11  21  35  55  81 110 143 180 224 279 324
#     4  10  19  33  52  80 113 138 178 224 275 322
#
# _framework density 25.003689000000001
#
# number of rings (size 3 to 8) (size 9 to 14) (size 15 to 20)
#    0.000    1.714    4.286    3.000    0.000    6.286 
#    0.000    0.000    0.000    0.857    0.000    2.000 
#    0.000    0.000    0.000    0.000    0.000    0.000 
#
# Total GULP energy -78013.939003 kJ/mol
# GULP energy per Si atom -5572.424214 kJ/mol
# Density = 2.494678 g / cm^3
# Si number density = 25.003689 Si / 1000 Ang^3
#
#
#
# Elastic Constant Matrix: (Units=GPa)
#
#
# Indices 1 2 3 4 5 6 
#
# 1 95.4291 -23.1828 57.9218 15.7686 26.5192 7.4288
# 2 -23.1828 -196.5394 40.5525 18.6717 7.3483 81.0217
# 3 57.9218 40.5525 157.4730 28.8735 82.1559 12.6463
# 4 15.7686 18.6717 28.8735 51.2547 16.6431 21.1414
# 5 26.5192 7.3483 82.1559 16.6431 63.4543 8.9063
# 6 7.4288 81.0217 12.6463 21.1414 8.9063 9.1872
#
#
#
# Elastic Compliance Matrix: (Units=1/GPa)
#
#
# Indices 1 2 3 4 5 6 
#
# 1 0.013517 -0.000210 -0.005634 -0.004404 0.001838 0.007027
# 2 -0.000210 -0.000055 0.000605 -0.005319 -0.001144 0.013174
# 3 -0.005634 0.000605 0.021846 0.001061 -0.025008 -0.009054
# 4 -0.004404 -0.005319 0.001061 0.032637 -0.004416 -0.021814
# 5 0.001838 -0.001144 -0.025008 -0.004416 0.047683 0.006961
# 6 0.007027 0.013174 -0.009054 -0.021814 0.006961 0.042896
#
#
# Mechanical properties :
#
#
# Convention : Reuss Voigt Hill
#
# Bulk Modulus (GPa) = 40.27045 22.99396 31.63220
# Shear Modulus (GPa) = 28.20453 23.51734 25.86094
#
# Velocity S-wave (km/s) = 3.36224 3.07017 3.21952
# Velocity P-wave (km/s) = 5.58691 4.66735 5.14771
#
# Compressibility (1/GPa) = 0.02483210
#
# Stress axis : x y z
#
# Youngs Moduli (GPa) = 73.97911 -18025.11318 45.77507
#
# Poissons Ratio (x) = -3.78125 0.25788
# Poissons Ratio (y) = 0.01552 -0.02772
# Poissons Ratio (z) = 0.41676 10.91375
#
# Static dielectric constant tensor:
#      x y z
#    x 2.113290 -0.012210 0.122040 
#    y -0.012210 1.969540 0.152740 
#    z 0.122040 0.152740 2.264530 
# 
# From -- ./inp_files/357000.got.cif
#   From: 2010.05.17/outbox.cif.g08.bks.cpg/sg2_179_cif.got.tgz:357000.got - 2010.06.03 11:33:40.
