data_PCOD9081529
_publ_section_title
;
Structure prediction by ZEFSAII (Michael W. Deem and Ramdas Pophale) SiO2 
 PCOD9081529
Probable space group: P -1
;
_chemical_formula_sum "Si O2"
_cell_formula_units_Z 16
_cell_length_a 7.733885
_cell_length_b 10.889942
_cell_length_c 11.393433
_cell_angle_alpha 96.816982
_cell_angle_beta 54.646700
_cell_angle_gamma 64.655920
_cell_volume 613.740974
_symmetry_space_group_name_H-M "P -1"
_symmetry_group_IT_number 2
_symmetry_cell_setting 'triclinic'
loop_
_space_group_symop_operation_xyz
x,y,z
-x,-y,-z
loop_
_atom_site_type_symbol
_atom_site_label
_atom_site_fract_x
_atom_site_fract_y
_atom_site_fract_z
Si Si1 0.965069 0.110302 0.871537
Si Si2 0.626164 0.393219 0.818881
Si Si3 0.807716 0.352366 0.396921
Si Si4 0.493203 0.836312 0.202780
Si Si5 0.053984 0.432668 0.659850
Si Si6 0.215351 0.071349 0.024074
Si Si7 0.072986 0.604246 0.057300
Si Si8 0.361436 0.842801 0.506017
O O1 0.066306 0.101872 0.962148
O O2 0.939977 0.258819 0.854198
O O3 0.182560 0.970597 0.687792
O O4 0.737554 0.087121 0.971332
O O5 0.654117 0.234376 0.793419
O O6 0.860066 0.397030 0.679961
O O7 0.500000 0.500000 0.000000
O O8 0.347528 0.508318 0.865471
O O9 0.500000 0.500000 0.500000
O O10 0.936201 0.438069 0.390814
O O11 0.761645 0.248727 0.484694
O O12 0.006732 0.222627 0.204278
O O13 0.525220 0.940436 0.114635
O O14 0.374179 0.910870 0.386115
O O15 0.800404 0.691939 0.101827
O O16 0.351477 0.278478 0.557383
O O17 0.936722 0.491628 0.844734
#
# Coordination Sequence:
#
# PCOD9081529 Si02
#       8
#     2   2   2   2   2   2   2   2
#     4   9  18  32  52  80 105 134 175 217 255 300
#     4  10  19  32  51  77 107 134 171 217 263 310
#     4   9  17  32  52  77 105 134 169 212 261 303
#     4  10  19  32  55  80 101 137 178 218 257 301
#     4   9  18  32  53  75 103 139 167 210 264 308
#     4   9  17  30  52  78 104 131 171 217 257 303
#     4   9  18  30  52  79 105 131 171 216 254 306
#     4   9  19  34  55  79 106 134 174 220 255 303
#
# _framework density 26.06963
#
# number of rings (size 3 to 8) (size 9 to 14) (size 15 to 20)
#    0.000    2.750    0.000    1.875    0.000    9.500 
#    0.000    0.625    0.000   25.500    0.000    0.000 
#    0.000    0.000    0.000    0.000    0.000    0.000 
#
# Total GULP energy -89250.832468 kJ/mol
# GULP energy per Si atom -5578.177029 kJ/mol
# Density = 2.601029 g / cm^3
# Si number density = 26.069630 Si / 1000 Ang^3
#
#
#
# Elastic Constant Matrix: (Units=GPa)
#
#
# Indices 1 2 3 4 5 6 
#
# 1 95.7306 41.7662 24.3754 -12.2735 -21.3983 45.8402
# 2 41.7662 123.1734 47.5372 -32.8000 -14.2288 45.6921
# 3 24.3754 47.5372 93.1061 -22.6427 -7.1977 11.5110
# 4 -12.2735 -32.8000 -22.6427 41.7055 7.5369 -7.0935
# 5 -21.3983 -14.2288 -7.1977 7.5369 34.0170 -14.2655
# 6 45.8402 45.6921 11.5110 -7.0935 -14.2655 49.2711
#
#
#
# Elastic Compliance Matrix: (Units=1/GPa)
#
#
# Indices 1 2 3 4 5 6 
#
# 1 0.020735 0.002500 -0.003467 0.002055 0.004896 -0.019087
# 2 0.002500 0.017913 -0.005604 0.009155 -0.001125 -0.016637
# 3 -0.003467 -0.005604 0.014677 0.003457 0.000134 0.005530
# 4 0.002055 0.009155 0.003457 0.033194 -0.004778 -0.007814
# 5 0.004896 -0.001125 0.000134 -0.004778 0.035647 0.006090
# 6 -0.019087 -0.016637 0.005530 -0.007814 0.006090 0.052828
#
#
# Mechanical properties :
#
#
# Convention : Reuss Voigt Hill
#
# Bulk Modulus (GPa) = 24.88610 59.92975 42.40793
# Shear Modulus (GPa) = 24.81009 38.22079 31.51544
#
# Velocity S-wave (km/s) = 3.08829 3.83313 3.48069
# Velocity P-wave (km/s) = 4.72053 6.52907 5.69702
#
# Compressibility (1/GPa) = 0.04018307
#
# Stress axis : x y z
#
# Youngs Moduli (GPa) = 48.22648 55.82522 68.13488
#
# Poissons Ratio (x) = -0.13958 0.23623
# Poissons Ratio (y) = -0.12058 0.38184
# Poissons Ratio (z) = 0.16721 0.31286
#
# Static dielectric constant tensor:
#      x y z
#    x 2.335250 -0.045270 -0.062300 
#    y -0.045270 2.135430 -0.046690 
#    z -0.062300 -0.046690 2.022190 
# 
# From -- ./inp_files/282609.got.cif
#   From: 2010.05.17/outbox.cif.g08.bks.cpg/sg2_142_cif.got.tgz:282609.got - 2010.06.03 11:33:40.
