data_PCOD9081022
_publ_section_title
;
Structure prediction by ZEFSAII (Michael W. Deem and Ramdas Pophale) SiO2 
 PCOD9081022
Probable space group: P -1
;
_chemical_formula_sum "Si O2"
_cell_formula_units_Z 16
_cell_length_a 19.527064
_cell_length_b 14.346440
_cell_length_c 5.212868
_cell_angle_alpha 75.509529
_cell_angle_beta 84.512305
_cell_angle_gamma 27.831954
_cell_volume 634.108604
_symmetry_space_group_name_H-M "P -1"
_symmetry_group_IT_number 2
_symmetry_cell_setting 'triclinic'
loop_
_space_group_symop_operation_xyz
x,y,z
-x,-y,-z
loop_
_atom_site_type_symbol
_atom_site_label
_atom_site_fract_x
_atom_site_fract_y
_atom_site_fract_z
Si Si1 0.383800 0.752436 0.206968
Si Si2 0.853784 0.677883 0.151698
Si Si3 0.789023 0.106497 0.314755
Si Si4 0.936919 0.737254 0.429753
Si Si5 0.302961 0.452226 0.370310
Si Si6 0.607549 0.863348 0.311665
Si Si7 0.663888 0.011576 0.628384
Si Si8 0.732258 0.382737 0.239144
O O1 0.317072 0.787103 0.469795
O O2 0.561022 0.550492 0.217002
O O3 0.329562 0.929005 0.161035
O O4 0.311224 0.783576 0.981003
O O5 0.945277 0.657449 0.232658
O O6 0.715059 0.821572 0.289945
O O7 0.962378 0.449240 0.279094
O O8 0.764117 0.797759 0.835479
O O9 0.832325 0.164079 0.291669
O O10 0.937108 0.852178 0.380989
O O11 0.760282 0.946220 0.430740
O O12 0.282062 0.367000 0.521279
O O13 0.241146 0.598807 0.512948
O O14 0.488879 0.223006 0.476295
O O15 0.261591 0.545818 0.041407
O O16 0.500000 0.000000 0.500000
O O17 0.500000 0.000000 0.000000
#
# Coordination Sequence:
#
# PCOD9081022 Si02
#       8
#     2   2   2   2   2   2   2   2
#     4  10  19  30  52  83 117 155 190 240 295 364
#     4  11  22  39  61  87 123 161 197 252 305 366
#     4  11  20  35  54  83 120 156 199 240 294 361
#     4  10  22  37  59  91 122 160 200 241 308 372
#     4  11  23  37  60  87 121 156 205 245 300 351
#     4  12  25  42  65  91 121 162 204 253 305 354
#     4  10  19  34  57  83 124 154 189 244 302 366
#     4  11  21  35  56  83 118 160 197 250 295 348
#
# _framework density 25.23227
#
# number of rings (size 3 to 8) (size 9 to 14) (size 15 to 20)
#    0.000    1.250    2.500    5.625    3.500    0.000 
#    0.000    0.000    0.000    1.500    0.000    0.000 
#    0.000    0.000    0.000    0.000    0.000    0.000 
#
# Total GULP energy -89240.706120 kJ/mol
# GULP energy per Si atom -5577.544133 kJ/mol
# Density = 2.517484 g / cm^3
# Si number density = 25.232270 Si / 1000 Ang^3
#
#
#
# Elastic Constant Matrix: (Units=GPa)
#
#
# Indices 1 2 3 4 5 6 
#
# 1 44.8082 31.1116 6.0550 -2.4824 -5.6206 15.5875
# 2 31.1116 87.6472 31.3746 8.1912 -1.1335 33.0043
# 3 6.0550 31.3746 126.5596 27.9048 -6.1141 3.6748
# 4 -2.4824 8.1912 27.9048 41.1656 13.6284 -10.0844
# 5 -5.6206 -1.1335 -6.1141 13.6284 28.3486 -3.4802
# 6 15.5875 33.0043 3.6748 -10.0844 -3.4802 38.2657
#
#
#
# Elastic Compliance Matrix: (Units=1/GPa)
#
#
# Indices 1 2 3 4 5 6 
#
# 1 0.031108 -0.010193 0.001319 0.000370 0.005448 -0.003414
# 2 -0.010193 0.023596 -0.003247 -0.007338 -0.000443 -0.017862
# 3 0.001319 -0.003247 0.011004 -0.009136 0.006826 -0.000581
# 4 0.000370 -0.007338 -0.009136 0.042882 -0.020784 0.016466
# 5 0.005448 -0.000443 0.006826 -0.020784 0.047352 -0.003664
# 6 -0.003414 -0.017862 -0.000581 0.016466 -0.003664 0.046992
#
#
# Mechanical properties :
#
#
# Convention : Reuss Voigt Hill
#
# Bulk Modulus (GPa) = 24.11552 44.01080 34.06316
# Shear Modulus (GPa) = 20.74725 34.25423 27.50074
#
# Velocity S-wave (km/s) = 2.87060 3.68850 3.30495
# Velocity P-wave (km/s) = 4.53490 5.96826 5.30026
#
# Compressibility (1/GPa) = 0.04146706
#
# Stress axis : x y z
#
# Youngs Moduli (GPa) = 32.14630 42.38064 90.87533
#
# Poissons Ratio (x) = 0.43198 -0.11989
# Poissons Ratio (y) = 0.32767 0.29504
# Poissons Ratio (z) = -0.04241 0.13759
#
# Static dielectric constant tensor:
#      x y z
#    x 2.152540 0.069920 -0.073440 
#    y 0.069920 2.089270 -0.029020 
#    z -0.073440 -0.029020 1.996450 
# 
# From -- ./inp_files/119238.got.cif
#   From: 2010.05.17/outbox.cif.g08.bks.cpg/sg2_60_cif.got.tgz:119238.got - 2010.06.03 11:33:40.
