data_PCOD9081398
_publ_section_title
;
Structure prediction by ZEFSAII (Michael W. Deem and Ramdas Pophale) SiO2 
 PCOD9081398
Probable space group: P -1
;
_chemical_formula_sum "Si O2"
_cell_formula_units_Z 16
_cell_length_a 9.950470
_cell_length_b 12.279633
_cell_length_c 13.113443
_cell_angle_alpha 45.609777
_cell_angle_beta 134.156048
_cell_angle_gamma 114.757439
_cell_volume 814.099059
_symmetry_space_group_name_H-M "P -1"
_symmetry_group_IT_number 2
_symmetry_cell_setting 'triclinic'
loop_
_space_group_symop_operation_xyz
x,y,z
-x,-y,-z
loop_
_atom_site_type_symbol
_atom_site_label
_atom_site_fract_x
_atom_site_fract_y
_atom_site_fract_z
Si Si1 0.015265 0.292387 0.072008
Si Si2 0.053843 0.344416 0.695753
Si Si3 0.472187 0.826980 0.403507
Si Si4 0.407319 0.480446 0.853833
Si Si5 0.137403 0.051139 0.454139
Si Si6 0.682049 0.532624 0.804246
Si Si7 0.204066 0.816911 0.457710
Si Si8 0.898065 0.153120 0.901132
O O1 0.029455 0.203754 0.244496
O O2 0.209782 0.365726 0.126214
O O3 0.841187 0.426977 0.895358
O O4 0.987462 0.178536 0.040480
O O5 0.256012 0.360678 0.841069
O O6 0.000000 0.500000 0.500000
O O7 0.999299 0.212357 0.677024
O O8 0.927014 0.304837 0.750305
O O9 0.654421 0.912625 0.428099
O O10 0.554479 0.649950 0.586550
O O11 0.341648 0.872153 0.406311
O O12 0.325357 0.851782 0.217169
O O13 0.559949 0.437851 0.873497
O O14 0.304444 0.650018 0.656983
O O15 0.500000 0.500000 0.000000
O O16 0.175908 0.927441 0.465679
O O17 0.000000 0.000000 0.500000
O O18 0.000000 0.000000 0.000000
#
# Coordination Sequence:
#
# PCOD9081398 Si02
#       8
#     2   2   2   2   2   2   2   2
#     4  10  21  39  59  84 123 158 200 248 296 366
#     4   9  19  37  56  88 116 146 193 245 297 343
#     4   9  20  40  61  85 115 157 208 239 300 370
#     4  10  19  31  57  88 112 145 197 249 292 341
#     4  11  23  39  58  87 122 162 200 250 309 359
#     4   9  20  38  58  84 118 156 200 243 297 360
#     4   9  19  37  59  79 115 157 195 241 296 364
#     4  11  22  39  65  90 120 161 205 246 300 368
#
# _framework density 19.653628000000001
#
# number of rings (size 3 to 8) (size 9 to 14) (size 15 to 20)
#    0.000    2.250    0.000    3.375    1.750    3.500 
#    9.000    0.625    0.000    0.000    0.000    0.000 
#    0.000    0.000    0.000    0.000    0.000    0.000 
#
# Total GULP energy -89142.271612 kJ/mol
# GULP energy per Si atom -5571.391976 kJ/mol
# Density = 1.960890 g / cm^3
# Si number density = 19.653628 Si / 1000 Ang^3
#
#
#
# Elastic Constant Matrix: (Units=GPa)
#
#
# Indices 1 2 3 4 5 6 
#
# 1 73.2490 30.4333 17.7626 4.3823 -0.4493 28.7880
# 2 30.4333 78.1023 25.8244 20.9277 7.6847 22.7917
# 3 17.7626 25.8244 69.7963 18.2803 13.7827 9.2966
# 4 4.3823 20.9277 18.2803 31.5275 1.9613 9.1490
# 5 -0.4493 7.6847 13.7827 1.9613 27.6882 -3.3689
# 6 28.7880 22.7917 9.2966 9.1490 -3.3689 30.7769
#
#
#
# Elastic Compliance Matrix: (Units=1/GPa)
#
#
# Indices 1 2 3 4 5 6 
#
# 1 0.023825 -0.004167 -0.003905 0.007553 0.000493 -0.020211
# 2 -0.004167 0.020530 -0.001994 -0.009084 -0.005172 -0.008570
# 3 -0.003905 -0.001994 0.020168 -0.009548 -0.008761 0.000917
# 4 0.007553 -0.009084 -0.009548 0.045113 0.002918 -0.010545
# 5 0.000493 -0.005172 -0.008761 0.002918 0.042912 0.009846
# 6 -0.020211 -0.008570 0.000917 -0.010545 0.009846 0.061679
#
#
# Mechanical properties :
#
#
# Convention : Reuss Voigt Hill
#
# Bulk Modulus (GPa) = 22.52651 41.02092 31.77371
# Shear Modulus (GPa) = 20.06785 27.80701 23.93743
#
# Velocity S-wave (km/s) = 3.19890 3.76553 3.49372
# Velocity P-wave (km/s) = 5.01304 6.31054 5.69884
#
# Compressibility (1/GPa) = 0.04439214
#
# Stress axis : x y z
#
# Youngs Moduli (GPa) = 41.97356 48.70832 49.58432
#
# Poissons Ratio (x) = 0.20295 0.19362
# Poissons Ratio (y) = 0.17489 0.09886
# Poissons Ratio (z) = 0.16390 0.09711
#
# Static dielectric constant tensor:
#      x y z
#    x 1.682360 0.025190 -0.005600 
#    y 0.025190 1.716800 0.001110 
#    z -0.005600 0.001110 1.750070 
# 
# From -- ./inp_files/223808.got.cif
#   From: 2010.05.17/outbox.cif.g08.bks.cpg/sg2_112_cif.got.tgz:223808.got - 2010.06.03 11:33:40.
