data_PCOD9081994
_publ_section_title
;
Structure prediction by ZEFSAII (Michael W. Deem and Ramdas Pophale) SiO2 
 PCOD9081994
Probable space group: P -1
;
_chemical_formula_sum "Si O2"
_cell_formula_units_Z 16
_cell_length_a 21.633401
_cell_length_b 11.563035
_cell_length_c 17.874465
_cell_angle_alpha 141.692620
_cell_angle_beta 162.930343
_cell_angle_gamma 32.422339
_cell_volume 696.626579
_symmetry_space_group_name_H-M "P -1"
_symmetry_group_IT_number 2
_symmetry_cell_setting 'triclinic'
loop_
_space_group_symop_operation_xyz
x,y,z
-x,-y,-z
loop_
_atom_site_type_symbol
_atom_site_label
_atom_site_fract_x
_atom_site_fract_y
_atom_site_fract_z
Si Si1 0.116859 0.238014 0.006890
Si Si2 0.413088 0.618811 0.540420
Si Si3 0.030274 0.784026 0.648428
Si Si4 0.763764 0.176687 0.236270
Si Si5 0.524852 0.664214 0.250427
Si Si6 0.326487 0.349056 0.427309
Si Si7 0.205583 0.237369 0.943256
Si Si8 0.722827 0.706495 0.357350
O O1 0.253625 0.159150 0.046664
O O2 0.880658 0.212555 0.723788
O O3 0.277953 0.184074 0.239568
O O4 0.000000 0.500000 0.000000
O O5 0.500000 0.500000 0.500000
O O6 0.426217 0.456866 0.538452
O O7 0.584262 0.712754 0.809318
O O8 0.083080 0.550411 0.558542
O O9 0.813988 0.844206 0.487754
O O10 0.024896 0.892028 0.616948
O O11 0.264958 0.742762 0.948619
O O12 0.514441 0.265571 0.944781
O O13 0.688526 0.397254 0.305226
O O14 0.802695 0.956808 0.207981
O O15 0.505589 0.737871 0.350261
O O16 0.665919 0.740680 0.396610
O O17 0.057791 0.540277 0.243820
#
# Coordination Sequence:
#
# PCOD9081994 Si02
#       8
#     2   2   2   2   2   2   2   2
#     4   8  16  29  46  66  84 115 163 198 217 259
#     4  10  15  31  49  64  87 122 167 194 219 262
#     4   8  15  31  50  66  88 123 165 194 217 264
#     4   9  18  30  48  70  99 123 152 189 230 280
#     4   9  18  31  45  73  99 123 150 187 236 277
#     4  10  19  29  47  71  98 120 155 193 229 278
#     4  10  18  30  47  71  95 124 155 192 230 269
#     4   8  15  30  51  66  86 125 165 192 218 269
#
# _framework density 22.967829999999999
#
# number of rings (size 3 to 8) (size 9 to 14) (size 15 to 20)
#    0.000    3.250    3.750    1.500    0.000    3.500 
#    0.000    0.625    0.000    3.000    0.000    5.250 
#    0.000    0.000    0.000    0.000    0.000    0.000 
#
# Total GULP energy -89180.082453 kJ/mol
# GULP energy per Si atom -5573.755153 kJ/mol
# Density = 2.291555 g / cm^3
# Si number density = 22.967830 Si / 1000 Ang^3
#
#
#
# Elastic Constant Matrix: (Units=GPa)
#
#
# Indices 1 2 3 4 5 6 
#
# 1 114.8165 -0.7971 61.6015 1.2015 7.1600 7.4716
# 2 -0.7971 64.2897 4.7377 0.0931 4.7296 3.8159
# 3 61.6015 4.7377 91.6313 16.2941 19.6830 9.0776
# 4 1.2015 0.0931 16.2941 23.0780 5.9779 5.5227
# 5 7.1600 4.7296 19.6830 5.9779 47.5996 4.2223
# 6 7.4716 3.8159 9.0776 5.5227 4.2223 29.5901
#
#
#
# Elastic Compliance Matrix: (Units=1/GPa)
#
#
# Indices 1 2 3 4 5 6 
#
# 1 0.014834 0.001014 -0.011502 0.007382 0.001671 -0.001964
# 2 0.001014 0.015872 -0.001332 0.001620 -0.001203 -0.002025
# 3 -0.011502 -0.001332 0.022397 -0.013640 -0.005647 -0.000443
# 4 0.007382 0.001620 -0.013640 0.054931 -0.001830 -0.007879
# 5 0.001671 -0.001203 -0.005647 -0.001830 0.023580 -0.001558
# 6 -0.001964 -0.002025 -0.000443 -0.007879 -0.001558 0.036381
#
#
# Mechanical properties :
#
#
# Convention : Reuss Voigt Hill
#
# Bulk Modulus (GPa) = 33.93932 44.64684 39.29308
# Shear Modulus (GPa) = 24.81950 33.73322 29.27636
#
# Velocity S-wave (km/s) = 3.29085 3.83654 3.57412
# Velocity P-wave (km/s) = 5.40819 6.25352 5.84615
#
# Compressibility (1/GPa) = 0.02946435
#
# Stress axis : x y z
#
# Youngs Moduli (GPa) = 67.41245 63.00544 44.64854
#
# Poissons Ratio (x) = -0.06392 0.51355
# Poissons Ratio (y) = -0.06839 0.05946
# Poissons Ratio (z) = 0.77538 0.08390
#
# Static dielectric constant tensor:
#      x y z
#    x 1.874640 -0.007080 -0.009450 
#    y -0.007080 2.051840 0.018970 
#    z -0.009450 0.018970 1.905620 
# 
# From -- ./inp_files/472285.got.cif
#   From: 2010.05.17/outbox.cif.g08.bks.cpg/sg2_237_cif.got.tgz:472285.got - 2010.06.03 11:33:40.
