data_PCOD9081890
_publ_section_title
;
Structure prediction by ZEFSAII (Michael W. Deem and Ramdas Pophale) SiO2 
 PCOD9081890
Probable space group: P -1
;
_chemical_formula_sum "Si O2"
_cell_formula_units_Z 14
_cell_length_a 12.680257
_cell_length_b 12.328750
_cell_length_c 10.753533
_cell_angle_alpha 84.473401
_cell_angle_beta 35.611786
_cell_angle_gamma 112.003972
_cell_volume 607.853039
_symmetry_space_group_name_H-M "P -1"
_symmetry_group_IT_number 2
_symmetry_cell_setting 'triclinic'
loop_
_space_group_symop_operation_xyz
x,y,z
-x,-y,-z
loop_
_atom_site_type_symbol
_atom_site_label
_atom_site_fract_x
_atom_site_fract_y
_atom_site_fract_z
Si Si1 0.584661 0.516797 0.775557
Si Si2 0.838856 0.670414 0.124465
Si Si3 0.517528 0.188834 0.187086
Si Si4 0.703518 0.330218 0.728878
Si Si5 0.838017 0.134212 0.946573
Si Si6 0.054440 0.045194 0.089196
Si Si7 0.086454 0.433563 0.151228
O O1 0.585915 0.386523 0.775168
O O2 0.903757 0.711896 0.413642
O O3 0.500000 0.500000 0.000000
O O4 0.347163 0.474581 0.934287
O O5 0.500000 0.500000 0.500000
O O6 0.021669 0.774061 0.063238
O O7 0.852749 0.786480 0.015799
O O8 0.966113 0.627221 0.932350
O O9 0.235447 0.099033 0.536064
O O10 0.506179 0.197866 0.047575
O O11 0.780692 0.383885 0.972834
O O12 0.576321 0.091920 0.175307
O O13 0.000000 0.500000 0.500000
O O14 0.817729 0.301084 0.518341
O O15 0.760814 0.970361 0.038800
O O16 0.000000 0.000000 0.000000
#
# Coordination Sequence:
#
# PCOD9081890 Si02
#       7
#     2   2   2   2   2   2   2
#     4  12  17  32  61  89 113 153 195 240 281 336
#     4  11  23  40  59  85 120 155 194 244 297 352
#     4  11  20  38  62  90 116 148 201 244 284 347
#     4  10  19  32  56  94 114 147 195 244 283 334
#     4  11  21  37  61  89 115 156 196 235 296 344
#     4  10  22  40  59  82 117 157 198 239 288 350
#     4  11  20  35  58  89 122 148 194 245 286 343
#
# _framework density 23.031883000000001
#
# number of rings (size 3 to 8) (size 9 to 14) (size 15 to 20)
#    0.000    1.143    8.571    0.857    0.000    2.857 
#    0.000    3.571    0.000    6.000    0.000    0.000 
#    0.000    0.000    0.000    0.000    0.000    0.000 
#
# Total GULP energy -78229.984305 kJ/mol
# GULP energy per Si atom -5587.856022 kJ/mol
# Density = 2.297946 g / cm^3
# Si number density = 23.031883 Si / 1000 Ang^3
#
#
#
# Elastic Constant Matrix: (Units=GPa)
#
#
# Indices 1 2 3 4 5 6 
#
# 1 40.2708 6.2572 17.6799 -1.7055 -5.0852 -23.6337
# 2 6.2572 98.9707 24.5721 11.3219 9.0180 -18.0464
# 3 17.6799 24.5721 90.7332 30.7734 25.4794 15.9038
# 4 -1.7055 11.3219 30.7734 37.0756 -4.5580 2.0755
# 5 -5.0852 9.0180 25.4794 -4.5580 34.4322 10.4608
# 6 -23.6337 -18.0464 15.9038 2.0755 10.4608 46.9603
#
#
#
# Elastic Compliance Matrix: (Units=1/GPa)
#
#
# Indices 1 2 3 4 5 6 
#
# 1 0.099016 0.010504 -0.068104 0.060651 0.051204 0.062846
# 2 0.010504 0.013726 -0.010003 0.004073 0.001839 0.013359
# 3 -0.068104 -0.010003 0.072866 -0.064714 -0.055470 -0.047579
# 4 0.060651 0.004073 -0.064714 0.086984 0.055832 0.037724
# 5 0.051204 0.001839 -0.055470 0.055832 0.076754 0.025697
# 6 0.062846 0.013359 -0.047579 0.037724 0.025697 0.066779
#
#
# Mechanical properties :
#
#
# Convention : Reuss Voigt Hill
#
# Bulk Modulus (GPa) = 19.84090 36.33257 28.08673
# Shear Modulus (GPa) = 8.80079 35.79131 22.29605
#
# Velocity S-wave (km/s) = 1.95689 3.94634 3.11473
# Velocity P-wave (km/s) = 3.70664 6.04764 5.01563
#
# Compressibility (1/GPa) = 0.05040094
#
# Stress axis : x y z
#
# Youngs Moduli (GPa) = 10.09941 72.85501 13.72383
#
# Poissons Ratio (x) = -0.76526 0.93464
# Poissons Ratio (y) = -0.10608 0.13729
# Poissons Ratio (z) = 0.68781 0.72880
#
# Static dielectric constant tensor:
#      x y z
#    x 1.903210 0.018050 -0.016050 
#    y 0.018050 1.894120 0.001780 
#    z -0.016050 0.001780 1.980700 
# 
# From -- ./inp_files/429756.got.cif
#   From: 2010.05.17/outbox.cif.g08.bks.cpg/sg2_215_cif.got.tgz:429756.got - 2010.06.03 11:33:40.
