data_PCOD9081204
_publ_section_title
;
Structure prediction by ZEFSAII (Michael W. Deem and Ramdas Pophale) SiO2 
 PCOD9081204
Probable space group: P -1
;
_chemical_formula_sum "Si O2"
_cell_formula_units_Z 16
_cell_length_a 11.734814
_cell_length_b 10.337413
_cell_length_c 17.141735
_cell_angle_alpha 53.881795
_cell_angle_beta 30.949094
_cell_angle_gamma 69.085382
_cell_volume 806.744272
_symmetry_space_group_name_H-M "P -1"
_symmetry_group_IT_number 2
_symmetry_cell_setting 'triclinic'
loop_
_space_group_symop_operation_xyz
x,y,z
-x,-y,-z
loop_
_atom_site_type_symbol
_atom_site_label
_atom_site_fract_x
_atom_site_fract_y
_atom_site_fract_z
Si Si1 0.324625 0.148410 0.616565
Si Si2 0.828986 0.123992 0.330719
Si Si3 0.229347 0.491071 0.939104
Si Si4 0.950607 0.665615 0.222600
Si Si5 0.689051 0.945055 0.159288
Si Si6 0.234493 0.011203 0.407070
Si Si7 0.408472 0.601122 0.956537
Si Si8 0.820170 0.631480 0.145951
O O1 0.599786 0.177861 0.433299
O O2 0.293402 0.080652 0.748846
O O3 0.222441 0.302308 0.623864
O O4 0.188950 0.013144 0.677892
O O5 0.050807 0.298436 0.129680
O O6 0.823018 0.041733 0.449379
O O7 0.083016 0.622000 0.979619
O O8 0.400758 0.539583 0.894020
O O9 0.323232 0.479431 0.802107
O O10 0.789469 0.578088 0.273482
O O11 0.139565 0.573246 0.152134
O O12 0.136384 0.860625 0.027718
O O13 0.779967 0.811034 0.108880
O O14 0.413282 0.911582 0.313009
O O15 0.415153 0.204305 0.220786
O O16 0.000000 0.000000 0.500000
O O17 0.500000 0.500000 0.000000
#
# Coordination Sequence:
#
# PCOD9081204 Si02
#       8
#     2   2   2   2   2   2   2   2
#     4   9  17  29  50  78 105 130 163 202 244 290
#     4  10  19  31  51  78 107 134 162 202 251 300
#     4  10  19  31  51  78 107 134 162 202 251 300
#     4   9  16  30  52  75 100 132 169 205 240 289
#     4   9  16  30  52  75 100 132 169 205 240 289
#     4  10  21  37  55  72  95 131 173 212 250 295
#     4  10  21  37  55  72  95 131 173 212 250 295
#     4   9  17  29  50  78 105 130 163 202 244 290
#
# _framework density 19.832803999999999
#
# number of rings (size 3 to 8) (size 9 to 14) (size 15 to 20)
#    0.000    2.500    0.000    3.750    0.000    7.000 
#    0.000   12.500    0.000    6.000    0.000    0.000 
#    0.000    0.000    0.000    0.000    0.000    0.000 
#
# Total GULP energy -89109.361387 kJ/mol
# GULP energy per Si atom -5569.335087 kJ/mol
# Density = 1.978766 g / cm^3
# Si number density = 19.832804 Si / 1000 Ang^3
#
#
#
# Elastic Constant Matrix: (Units=GPa)
#
#
# Indices 1 2 3 4 5 6 
#
# 1 138.2335 72.6759 38.5168 12.3355 -14.3827 -2.6802
# 2 72.6759 117.5571 26.5277 24.8642 3.8088 16.1852
# 3 38.5168 26.5277 77.8656 11.4537 -3.0751 1.0099
# 4 12.3355 24.8642 11.4537 24.3539 -3.6138 5.0611
# 5 -14.3827 3.8088 -3.0751 -3.6138 30.7365 -1.1361
# 6 -2.6802 16.1852 1.0099 5.0611 -1.1361 33.5619
#
#
#
# Elastic Compliance Matrix: (Units=1/GPa)
#
#
# Indices 1 2 3 4 5 6 
#
# 1 0.014060 -0.009834 -0.004074 0.004899 0.008170 0.005526
# 2 -0.009834 0.018909 0.000248 -0.014076 -0.008874 -0.008089
# 3 -0.004074 0.000248 0.015564 -0.005644 -0.001047 -0.000097
# 4 0.004899 -0.014076 -0.005644 0.057312 0.010175 -0.000949
# 5 0.008170 -0.008874 -0.001047 0.010175 0.038724 0.004740
# 6 0.005526 -0.008089 -0.000097 -0.000949 0.004740 0.034445
#
#
# Mechanical properties :
#
#
# Convention : Reuss Voigt Hill
#
# Bulk Modulus (GPa) = 47.14569 67.67745 57.41157
# Shear Modulus (GPa) = 23.42963 30.79283 27.11123
#
# Velocity S-wave (km/s) = 3.44082 3.94461 3.70129
# Velocity P-wave (km/s) = 6.29355 7.41246 6.87581
#
# Compressibility (1/GPa) = 0.02121085
#
# Stress axis : x y z
#
# Youngs Moduli (GPa) = 71.12530 52.88542 64.25243
#
# Poissons Ratio (x) = 0.52009 0.26176
# Poissons Ratio (y) = 0.69947 -0.01591
# Poissons Ratio (z) = 0.28976 -0.01310
#
# Static dielectric constant tensor:
#      x y z
#    x 1.714380 -0.007220 0.001070 
#    y -0.007220 1.758030 -0.000390 
#    z 0.001070 -0.000390 1.816470 
# 
# From -- ./inp_files/217273.got.cif
#   From: 2010.05.17/outbox.cif.g08.bks.cpg/sg2_109_cif.got.tgz:217273.got - 2010.06.03 11:33:40.
