data_PCOD9081054
_publ_section_title
;
Structure prediction by ZEFSAII (Michael W. Deem and Ramdas Pophale) SiO2 
 PCOD9081054
Probable space group: P -1
;
_chemical_formula_sum "Si O2"
_cell_formula_units_Z 16
_cell_length_a 9.607217
_cell_length_b 14.019733
_cell_length_c 11.819976
_cell_angle_alpha 38.242838
_cell_angle_beta 129.500783
_cell_angle_gamma 112.236803
_cell_volume 735.535173
_symmetry_space_group_name_H-M "P -1"
_symmetry_group_IT_number 2
_symmetry_cell_setting 'triclinic'
loop_
_space_group_symop_operation_xyz
x,y,z
-x,-y,-z
loop_
_atom_site_type_symbol
_atom_site_label
_atom_site_fract_x
_atom_site_fract_y
_atom_site_fract_z
Si Si1 0.399010 0.574406 0.264359
Si Si2 0.792853 0.884701 0.427219
Si Si3 0.633187 0.557571 0.864299
Si Si4 0.683992 0.257915 0.326047
Si Si5 0.993498 0.624082 0.099331
Si Si6 0.452864 0.111737 0.984071
Si Si7 0.920607 0.689986 0.462088
Si Si8 0.080362 0.068878 0.314124
O O1 0.500000 0.500000 0.500000
O O2 0.422118 0.455735 0.281041
O O3 0.467218 0.732424 0.126253
O O4 0.180682 0.618175 0.134089
O O5 0.828938 0.737439 0.496516
O O6 0.893673 0.844686 0.635664
O O7 0.899613 0.000778 0.307191
O O8 0.582137 0.982790 0.253302
O O9 0.485070 0.701813 0.712211
O O10 0.624685 0.390551 0.073915
O O11 0.837740 0.570927 0.993718
O O12 0.874692 0.280918 0.460537
O O13 0.748103 0.084059 0.469536
O O14 0.046540 0.501191 0.345864
O O15 0.923169 0.813833 0.902068
O O16 0.231634 0.191815 0.804834
O O17 0.500000 0.000000 0.000000
#
# Coordination Sequence:
#
# PCOD9081054 Si02
#       8
#     2   2   2   2   2   2   2   2
#     4  12  23  37  59  91 122 148 190 243 299 350
#     4   9  18  30  50  85 115 146 189 239 292 331
#     4  10  23  39  62  82 119 160 194 241 285 350
#     4   9  20  41  58  81 116 157 205 232 282 344
#     4  11  22  34  59  91 119 149 192 244 299 342
#     4  10  19  34  54  83 118 148 187 236 296 343
#     4   9  19  33  55  82 114 153 190 236 288 352
#     4  10  19  30  56  83 114 146 190 246 282 339
#
# _framework density 21.752869
#
# number of rings (size 3 to 8) (size 9 to 14) (size 15 to 20)
#    0.000    2.000    2.500    1.125    7.000    0.500 
#    0.000    0.625    2.750    0.750    0.000    0.000 
#    0.000    0.000    0.000    0.000    0.000    0.000 
#
# Total GULP energy -89166.546450 kJ/mol
# GULP energy per Si atom -5572.909153 kJ/mol
# Density = 2.170336 g / cm^3
# Si number density = 21.752869 Si / 1000 Ang^3
#
#
#
# Elastic Constant Matrix: (Units=GPa)
#
#
# Indices 1 2 3 4 5 6 
#
# 1 31.4243 15.9861 16.1201 16.3126 21.9764 1.4091
# 2 15.9861 24.6908 4.8082 8.4955 10.8178 2.9906
# 3 16.1201 4.8082 97.2385 3.3074 24.3509 1.6832
# 4 16.3126 8.4955 3.3074 33.8988 9.5544 4.8814
# 5 21.9764 10.8178 24.3509 9.5544 27.8958 -2.5784
# 6 1.4091 2.9906 1.6832 4.8814 -2.5784 14.5404
#
#
#
# Elastic Compliance Matrix: (Units=1/GPa)
#
#
# Indices 1 2 3 4 5 6 
#
# 1 0.103632 -0.030598 0.001140 -0.023385 -0.063435 -0.007280
# 2 -0.030598 0.062552 0.003303 0.001739 -0.004712 -0.011702
# 3 0.001140 0.003303 0.013893 0.002579 -0.015750 -0.006057
# 4 -0.023385 0.001739 0.002579 0.041853 0.000012 -0.012438
# 5 -0.063435 -0.004712 -0.015750 0.000012 0.103923 0.027364
# 6 -0.007280 -0.011702 -0.006057 -0.012438 0.027364 0.081615
#
#
# Mechanical properties :
#
#
# Convention : Reuss Voigt Hill
#
# Bulk Modulus (GPa) = 7.82674 25.24247 16.53460
# Shear Modulus (GPa) = 9.95290 23.02963 16.49126
#
# Velocity S-wave (km/s) = 2.14135 3.25729 2.75638
# Velocity P-wave (km/s) = 3.11764 5.07700 4.21282
#
# Compressibility (1/GPa) = 0.12776719
#
# Stress axis : x y z
#
# Youngs Moduli (GPa) = 9.64955 15.98668 71.97912
#
# Poissons Ratio (x) = 0.48916 -0.08206
# Poissons Ratio (y) = 0.29526 -0.23775
# Poissons Ratio (z) = -0.01100 -0.05280
#
# Static dielectric constant tensor:
#      x y z
#    x 1.797080 0.029970 0.002120 
#    y 0.029970 1.811990 -0.019480 
#    z 0.002120 -0.019480 1.875690 
# 
# From -- ./inp_files/398451.got.cif
#   From: 2010.05.17/outbox.cif.g08.bks.cpg/sg2_200_cif.got.tgz:398451.got - 2010.06.03 11:33:40.
