data_PCOD9081887
_publ_section_title
;
Structure prediction by ZEFSAII (Michael W. Deem and Ramdas Pophale) SiO2 
 PCOD9081887
Probable space group: P -1
;
_chemical_formula_sum "Si O2"
_cell_formula_units_Z 13
_cell_length_a 9.487399
_cell_length_b 10.868783
_cell_length_c 12.076933
_cell_angle_alpha 80.320692
_cell_angle_beta 49.681843
_cell_angle_gamma 39.932483
_cell_volume 452.338184
_symmetry_space_group_name_H-M "P -1"
_symmetry_group_IT_number 2
_symmetry_cell_setting 'triclinic'
loop_
_space_group_symop_operation_xyz
x,y,z
-x,-y,-z
loop_
_atom_site_type_symbol
_atom_site_label
_atom_site_fract_x
_atom_site_fract_y
_atom_site_fract_z
Si Si1 0.213269 0.411258 0.738949
Si Si2 0.395958 0.659323 0.269958
Si Si3 0.318923 0.955349 0.152397
Si Si4 0.801674 0.118822 0.967852
Si Si5 0.459230 0.890093 0.593609
Si Si6 0.722650 0.883402 0.649012
Si Si7 0.500000 0.500000 0.000000
O O1 0.378928 0.428970 0.722803
O O2 0.345812 0.323315 0.556061
O O3 0.399936 0.176071 0.734684
O O4 0.768673 0.673579 0.951295
O O5 0.188200 0.911714 0.297512
O O6 0.606424 0.489708 0.078137
O O7 0.109655 0.717163 0.435118
O O8 0.139706 0.036690 0.111149
O O9 0.250907 0.120030 0.231366
O O10 0.391084 0.421633 0.121848
O O11 0.005384 0.118861 0.798316
O O12 0.000000 0.000000 0.000000
O O13 0.618488 0.817732 0.647947
O O14 0.500000 0.000000 0.500000
#
# Coordination Sequence:
#
# PCOD9081887 Si02
#       7
#     2   2   2   2   2   2   1
#     4  10  19  32  57  92 128 162 217 267 319 382
#     4  10  19  32  58  90 126 165 216 262 320 384
#     4  10  20  34  58  86 127 169 211 265 325 380
#     4  11  25  43  66  95 134 173 214 268 329 387
#     4  10  21  36  64  93 130 169 215 267 323 381
#     4  10  19  32  56  92 126 167 216 263 322 383
#     4  10  22  36  70  92 126 164 228 252 322 376
#
# _framework density 28.739556
#
# number of rings (size 3 to 8) (size 9 to 14) (size 15 to 20)
#    0.000    1.846    0.000    8.308   15.077    0.000 
#    0.000    1.538    0.000    1.846    0.000    0.000 
#    0.000    0.000    0.000    0.000    0.000    0.000 
#
# Total GULP energy -72659.440200 kJ/mol
# GULP energy per Si atom -5589.187708 kJ/mol
# Density = 2.867414 g / cm^3
# Si number density = 28.739556 Si / 1000 Ang^3
#
#
#
# Elastic Constant Matrix: (Units=GPa)
#
#
# Indices 1 2 3 4 5 6 
#
# 1 265.8316 54.2847 92.8913 -7.2195 50.9447 -65.4031
# 2 54.2847 92.9305 20.3750 -3.0367 22.8364 -7.8981
# 3 92.8913 20.3750 138.1743 14.4751 20.6472 -22.1696
# 4 -7.2195 -3.0367 14.4751 25.3588 -3.8186 11.1077
# 5 50.9447 22.8364 20.6472 -3.8186 81.3488 -16.8576
# 6 -65.4031 -7.8981 -22.1696 11.1077 -16.8576 64.8679
#
#
#
# Elastic Compliance Matrix: (Units=1/GPa)
#
#
# Indices 1 2 3 4 5 6 
#
# 1 0.007072 -0.002475 -0.003457 0.001245 -0.001767 0.004975
# 2 -0.002475 0.012723 -0.000338 0.001507 -0.002260 -0.001908
# 3 -0.003457 -0.000338 0.010727 -0.007815 -0.000553 0.001333
# 4 0.001245 0.001507 -0.007815 0.048662 0.001144 -0.009267
# 5 -0.001767 -0.002260 -0.000553 0.001144 0.014503 0.001327
# 6 0.004975 -0.001908 0.001333 -0.009267 0.001327 0.022587
#
#
# Mechanical properties :
#
#
# Convention : Reuss Voigt Hill
#
# Bulk Modulus (GPa) = 55.61783 92.44870 74.03326
# Shear Modulus (GPa) = 37.08961 56.27412 46.68186
#
# Velocity S-wave (km/s) = 3.59631 4.42981 4.03464
# Velocity P-wave (km/s) = 6.05301 7.64211 6.89351
#
# Compressibility (1/GPa) = 0.01797985
#
# Stress axis : x y z
#
# Youngs Moduli (GPa) = 141.40738 78.59560 93.22470
#
# Poissons Ratio (x) = 0.19454 0.32232
# Poissons Ratio (y) = 0.35001 0.03155
# Poissons Ratio (z) = 0.48891 0.02660
#
# Static dielectric constant tensor:
#      x y z
#    x 2.329500 0.079110 0.114010 
#    y 0.079110 2.640430 0.143550 
#    z 0.114010 0.143550 2.459610 
# 
# From -- ./inp_files/395993.got.cif
#   From: 2010.05.17/outbox.cif.g08.bks.cpg/sg2_198_cif.got.tgz:395993.got - 2010.06.03 11:33:40.
