data_PCOD9081176
_publ_section_title
;
Structure prediction by ZEFSAII (Michael W. Deem and Ramdas Pophale) SiO2 
 PCOD9081176
Probable space group: P -1
;
_chemical_formula_sum "Si O2"
_cell_formula_units_Z 16
_cell_length_a 25.435181
_cell_length_b 13.249061
_cell_length_c 5.152917
_cell_angle_alpha 95.023915
_cell_angle_beta 96.614052
_cell_angle_gamma 29.640663
_cell_volume 852.804493
_symmetry_space_group_name_H-M "P -1"
_symmetry_group_IT_number 2
_symmetry_cell_setting 'triclinic'
loop_
_space_group_symop_operation_xyz
x,y,z
-x,-y,-z
loop_
_atom_site_type_symbol
_atom_site_label
_atom_site_fract_x
_atom_site_fract_y
_atom_site_fract_z
Si Si1 0.041172 0.853031 0.773011
Si Si2 0.070534 0.613807 0.092202
Si Si3 0.912326 0.786356 0.405922
Si Si4 0.750356 0.375515 0.096667
Si Si5 0.825987 0.141676 0.562102
Si Si6 0.259914 0.318288 0.449399
Si Si7 0.625984 0.776337 0.008450
Si Si8 0.855596 0.655967 0.321815
O O1 0.159773 0.695579 0.763100
O O2 0.052464 0.726734 0.892037
O O3 0.944544 0.995053 0.548975
O O4 0.000000 0.000000 0.000000
O O5 0.139707 0.550578 0.345970
O O6 0.959931 0.752686 0.159075
O O7 0.143180 0.403433 0.966759
O O8 0.849141 0.787191 0.334723
O O9 0.023691 0.571610 0.563436
O O10 0.846753 0.986907 0.539425
O O11 0.745279 0.309007 0.325499
O O12 0.657074 0.605287 0.998584
O O13 0.788714 0.248100 0.840065
O O14 0.317733 0.270706 0.716836
O O15 0.231291 0.252156 0.520714
O O16 0.327840 0.241481 0.221276
O O17 0.500000 0.000000 0.000000
#
# Coordination Sequence:
#
# PCOD9081176 Si02
#       8
#     2   2   2   2   2   2   2   2
#     4  10  19  31  50  77 116 162 189 220 266 343
#     4  11  19  35  55  81 127 160 200 239 275 337
#     4  10  21  32  54  86 119 167 206 233 276 329
#     4  11  23  37  56  80 117 154 195 237 293 349
#     4  11  22  36  52  84 119 161 198 227 276 353
#     4  11  22  40  61  88 116 150 191 244 302 352
#     4  12  25  43  66  90 114 146 195 255 310 354
#     4  10  20  36  56  83 122 164 197 248 276 334
#
# _framework density 18.761628000000002
#
# number of rings (size 3 to 8) (size 9 to 14) (size 15 to 20)
#    0.000    1.250    3.750    3.375    3.500    0.000 
#    0.000    0.000    0.000    0.000    0.000    5.250 
#    0.000    0.000    0.000    0.000    0.000    0.000 
#
# Total GULP energy -89178.767001 kJ/mol
# GULP energy per Si atom -5573.672938 kJ/mol
# Density = 1.871893 g / cm^3
# Si number density = 18.761628 Si / 1000 Ang^3
#
#
#
# Elastic Constant Matrix: (Units=GPa)
#
#
# Indices 1 2 3 4 5 6 
#
# 1 96.6224 61.6034 50.1914 7.7448 0.8414 23.8074
# 2 61.6034 102.7056 37.1975 0.1766 5.0337 19.4282
# 3 50.1914 37.1975 126.2465 1.4687 -4.8476 8.7763
# 4 7.7448 0.1766 1.4687 15.6561 3.4126 3.7265
# 5 0.8414 5.0337 -4.8476 3.4126 19.8645 6.4091
# 6 23.8074 19.4282 8.7763 3.7265 6.4091 28.3754
#
#
#
# Elastic Compliance Matrix: (Units=1/GPa)
#
#
# Indices 1 2 3 4 5 6 
#
# 1 0.022631 -0.010009 -0.004999 -0.009263 0.005364 -0.010584
# 2 -0.010009 0.016819 -0.001033 0.006438 -0.004336 -0.002665
# 3 -0.004999 -0.001033 0.010225 0.000724 0.002496 0.001080
# 4 -0.009263 0.006438 0.000724 0.071827 -0.012265 -0.003522
# 5 0.005364 -0.004336 0.002496 -0.012265 0.058409 -0.013885
# 6 -0.010584 -0.002665 0.001080 -0.003522 -0.013885 0.049212
#
#
# Mechanical properties :
#
#
# Convention : Reuss Voigt Hill
#
# Bulk Modulus (GPa) = 56.83415 69.28435 63.05925
# Shear Modulus (GPa) = 18.72179 24.55135 21.63657
#
# Velocity S-wave (km/s) = 3.16235 3.62137 3.39962
# Velocity P-wave (km/s) = 6.61002 7.38205 7.00668
#
# Compressibility (1/GPa) = 0.01759505
#
# Stress axis : x y z
#
# Youngs Moduli (GPa) = 44.18689 59.45492 97.79917
#
# Poissons Ratio (x) = 0.59506 0.48889
# Poissons Ratio (y) = 0.44225 0.10100
# Poissons Ratio (z) = 0.22089 0.06140
#
# Static dielectric constant tensor:
#      x y z
#    x 1.668540 0.030270 -0.006430 
#    y 0.030270 1.670570 0.017240 
#    z -0.006430 0.017240 1.769300 
# 
# From -- ./inp_files/82465.got.cif
#   From: 2010.05.17/outbox.cif.g08.bks.cpg/sg2_42_cif.got.tgz:82465.got - 2010.06.03 11:33:40.
