data_PCOD9081418
_publ_section_title
;
Structure prediction by ZEFSAII (Michael W. Deem and Ramdas Pophale) SiO2 
 PCOD9081418
Probable space group: P -1
;
_chemical_formula_sum "Si O2"
_cell_formula_units_Z 16
_cell_length_a 15.716985
_cell_length_b 19.841048
_cell_length_c 5.313095
_cell_angle_alpha 73.870138
_cell_angle_beta 81.824992
_cell_angle_gamma 27.900984
_cell_volume 724.849549
_symmetry_space_group_name_H-M "P -1"
_symmetry_group_IT_number 2
_symmetry_cell_setting 'triclinic'
loop_
_space_group_symop_operation_xyz
x,y,z
-x,-y,-z
loop_
_atom_site_type_symbol
_atom_site_label
_atom_site_fract_x
_atom_site_fract_y
_atom_site_fract_z
Si Si1 0.757665 0.912431 0.919816
Si Si2 0.519199 0.298196 0.229087
Si Si3 0.846984 0.392318 0.772110
Si Si4 0.945006 0.469372 0.408408
Si Si5 0.700882 0.312525 0.118171
Si Si6 0.476050 0.240187 0.819317
Si Si7 0.712311 0.863076 0.493658
Si Si8 0.277456 0.643146 0.438311
O O1 0.602485 0.082276 0.864675
O O2 0.759225 0.888505 0.653161
O O3 0.717049 0.881697 0.178954
O O4 0.968822 0.779871 0.034907
O O5 0.316824 0.482069 0.087690
O O6 0.662318 0.258484 0.221146
O O7 0.501695 0.272270 0.532261
O O8 0.543513 0.228497 0.058592
O O9 0.761928 0.408801 0.561205
O O10 0.904855 0.429477 0.637696
O O11 0.130951 0.310425 0.345916
O O12 0.000000 0.500000 0.500000
O O13 0.743155 0.622658 0.200268
O O14 0.802982 0.271130 0.357209
O O15 0.500000 0.500000 0.000000
O O16 0.795368 0.260374 0.868766
O O17 0.500000 0.000000 0.500000
O O18 0.500000 0.500000 0.500000
#
# Coordination Sequence:
#
# PCOD9081418 Si02
#       8
#     2   2   2   2   2   2   2   2
#     4  11  24  43  62  93 124 177 210 257 324 378
#     4  11  21  38  63  96 120 164 210 265 313 369
#     4  10  22  39  65  93 128 164 217 264 306 386
#     4  10  23  41  64  98 128 166 212 263 317 369
#     4  10  19  31  59  92 123 150 209 260 313 369
#     4  11  24  40  63  88 134 166 209 260 319 372
#     4  11  23  43  68  90 126 166 221 263 313 380
#     4  10  19  33  58  96 119 157 208 262 310 361
#
# _framework density 22.073549
#
# number of rings (size 3 to 8) (size 9 to 14) (size 15 to 20)
#    0.000    1.500    2.500    3.375    5.250    4.000 
#    0.000    5.625    0.000    4.500    0.000    0.000 
#    0.000    0.000    0.000    0.000    0.000    0.000 
#
# Total GULP energy -89273.233377 kJ/mol
# GULP energy per Si atom -5579.577086 kJ/mol
# Density = 2.202331 g / cm^3
# Si number density = 22.073549 Si / 1000 Ang^3
#
#
#
# Elastic Constant Matrix: (Units=GPa)
#
#
# Indices 1 2 3 4 5 6 
#
# 1 123.1608 12.6692 19.9007 2.3770 22.1606 12.0015
# 2 12.6692 99.4381 -1.0586 -7.7523 10.8073 21.8437
# 3 19.9007 -1.0586 79.3192 19.8597 10.0223 3.3108
# 4 2.3770 -7.7523 19.8597 33.5128 5.9129 3.1393
# 5 22.1606 10.8073 10.0223 5.9129 30.3351 16.6520
# 6 12.0015 21.8437 3.3108 3.1393 16.6520 23.8951
#
#
#
# Elastic Compliance Matrix: (Units=1/GPa)
#
#
# Indices 1 2 3 4 5 6 
#
# 1 0.009630 -0.000475 -0.001972 0.001526 -0.006696 0.000337
# 2 -0.000475 0.013295 -0.000532 0.004269 0.002854 -0.014392
# 3 -0.001972 -0.000532 0.015633 -0.008922 -0.003338 0.002809
# 4 0.001526 0.004269 -0.008922 0.037212 -0.003844 -0.005643
# 5 -0.006696 0.002854 -0.003338 -0.003844 0.061133 -0.040881
# 6 0.000337 -0.014392 0.002809 -0.005643 -0.040881 0.083678
#
#
# Mechanical properties :
#
#
# Convention : Reuss Voigt Hill
#
# Bulk Modulus (GPa) = 30.67591 40.54895 35.61243
# Shear Modulus (GPa) = 21.06086 35.57571 28.31829
#
# Velocity S-wave (km/s) = 3.09224 4.01894 3.58565
# Velocity P-wave (km/s) = 5.16493 6.32026 5.77158
#
# Compressibility (1/GPa) = 0.03259887
#
# Stress axis : x y z
#
# Youngs Moduli (GPa) = 103.84635 75.21378 63.96598
#
# Poissons Ratio (x) = 0.03575 0.12616
# Poissons Ratio (y) = 0.04935 0.03404
# Poissons Ratio (z) = 0.20482 0.04002
#
# Static dielectric constant tensor:
#      x y z
#    x 1.839110 0.001170 -0.006310 
#    y 0.001170 1.803380 -0.023340 
#    z -0.006310 -0.023340 1.975220 
# 
# From -- ./inp_files/99764.got.cif
#   From: 2010.05.17/outbox.cif.g08.bks.cpg/sg2_50_cif.got.tgz:99764.got - 2010.06.03 11:33:40.
