data_PCOD9081659
_publ_section_title
;
Structure prediction by ZEFSAII (Michael W. Deem and Ramdas Pophale) SiO2 
 PCOD9081659
Probable space group: P -1
;
_chemical_formula_sum "Si O2"
_cell_formula_units_Z 14
_cell_length_a 11.298160
_cell_length_b 17.914023
_cell_length_c 9.581211
_cell_angle_alpha 49.019644
_cell_angle_beta 84.932715
_cell_angle_gamma 44.134206
_cell_volume 699.619766
_symmetry_space_group_name_H-M "P -1"
_symmetry_group_IT_number 2
_symmetry_cell_setting 'triclinic'
loop_
_space_group_symop_operation_xyz
x,y,z
-x,-y,-z
loop_
_atom_site_type_symbol
_atom_site_label
_atom_site_fract_x
_atom_site_fract_y
_atom_site_fract_z
Si Si1 0.256713 0.316356 0.611578
Si Si2 0.630886 0.973039 0.197842
Si Si3 0.699915 0.331030 0.066038
Si Si4 0.272854 0.900066 0.598592
Si Si5 0.653798 0.774175 0.825116
Si Si6 0.346156 0.428597 0.256627
Si Si7 0.000488 0.650615 0.751907
O O1 0.302839 0.178538 0.696784
O O2 0.257408 0.406910 0.393396
O O3 0.000000 0.500000 0.500000
O O4 0.503495 0.141708 0.897741
O O5 0.878759 0.816048 0.453728
O O6 0.414127 0.121475 0.154198
O O7 0.661999 0.243877 0.136793
O O8 0.500000 0.500000 0.000000
O O9 0.670017 0.449497 0.827378
O O10 0.980807 0.126035 0.344172
O O11 0.413613 0.894463 0.641195
O O12 0.385506 0.792838 0.565230
O O13 0.778254 0.753397 0.724168
O O14 0.844561 0.544895 0.108706
O O15 0.173072 0.556317 0.978402
#
# Coordination Sequence:
#
# PCOD9081659 Si02
#       7
#     2   2   2   2   2   2   2
#     4  11  24  37  49  75 115 153 188 222 267 327
#     4  11  21  33  50  72 106 149 183 217 264 320
#     4   9  18  33  54  81 111 140 177 228 279 320
#     4   9  18  33  56  86 109 136 181 230 275 322
#     4  10  19  32  53  81 111 139 178 229 275 326
#     4  10  20  35  56  82 113 146 180 224 271 322
#     4  10  19  32  53  82 112 142 179 222 272 329
#
# _framework density 20.010869
#
# number of rings (size 3 to 8) (size 9 to 14) (size 15 to 20)
#    0.000    2.000    0.000    5.571    0.000    4.571 
#    0.000    0.000    0.000    0.857    0.000   42.000 
#    0.000    0.000    0.000    0.000    0.000    0.000 
#
# Total GULP energy -77992.179846 kJ/mol
# GULP energy per Si atom -5570.869989 kJ/mol
# Density = 1.996532 g / cm^3
# Si number density = 20.010869 Si / 1000 Ang^3
#
#
#
# Elastic Constant Matrix: (Units=GPa)
#
#
# Indices 1 2 3 4 5 6 
#
# 1 80.8182 26.6034 21.8319 -13.4978 -10.7907 -15.5620
# 2 26.6034 106.0328 30.7828 -25.3095 -9.2405 -0.7901
# 3 21.8319 30.7828 118.3839 -3.3244 -2.1240 -8.4085
# 4 -13.4978 -25.3095 -3.3244 25.5495 3.0496 -1.8854
# 5 -10.7907 -9.2405 -2.1240 3.0496 37.1494 -8.9084
# 6 -15.5620 -0.7901 -8.4085 -1.8854 -8.9084 22.1713
#
#
#
# Elastic Compliance Matrix: (Units=1/GPa)
#
#
# Indices 1 2 3 4 5 6 
#
# 1 0.019095 -0.001386 -0.001563 0.008750 0.008446 0.016898
# 2 -0.001386 0.013721 -0.002919 0.012270 0.001887 0.000210
# 3 -0.001563 -0.002919 0.009593 -0.002313 0.000106 0.002283
# 4 0.008750 0.012270 -0.002313 0.056054 0.003730 0.011967
# 5 0.008446 0.001887 0.000106 0.003730 0.034376 0.020165
# 6 0.016898 0.000210 0.002283 0.011967 0.020165 0.066957
#
#
# Mechanical properties :
#
#
# Convention : Reuss Voigt Hill
#
# Bulk Modulus (GPa) = 32.60282 51.51900 42.06091
# Shear Modulus (GPa) = 22.54699 32.04182 27.29441
#
# Velocity S-wave (km/s) = 3.36033 4.00587 3.69722
# Velocity P-wave (km/s) = 5.60212 6.87003 6.26822
#
# Compressibility (1/GPa) = 0.03067220
#
# Stress axis : x y z
#
# Youngs Moduli (GPa) = 52.36952 72.88037 104.23783
#
# Poissons Ratio (x) = 0.10105 0.16297
# Poissons Ratio (y) = 0.07261 0.30425
# Poissons Ratio (z) = 0.08188 0.21272
#
# Static dielectric constant tensor:
#      x y z
#    x 1.779380 0.035200 0.007380 
#    y 0.035200 1.731470 -0.019570 
#    z 0.007380 -0.019570 1.808650 
# 
# From -- ./inp_files/277436.got.cif
#   From: 2010.05.17/outbox.cif.g08.bks.cpg/sg2_139_cif.got.tgz:277436.got - 2010.06.03 11:33:40.
