data_PCOD9081719
_publ_section_title
;
Structure prediction by ZEFSAII (Michael W. Deem and Ramdas Pophale) SiO2 
 PCOD9081719
Probable space group: P -1
;
_chemical_formula_sum "Si O2"
_cell_formula_units_Z 16
_cell_length_a 9.709775
_cell_length_b 6.802386
_cell_length_c 21.700274
_cell_angle_alpha 70.294374
_cell_angle_beta 42.402770
_cell_angle_gamma 53.355839
_cell_volume 761.168555
_symmetry_space_group_name_H-M "P -1"
_symmetry_group_IT_number 2
_symmetry_cell_setting 'triclinic'
loop_
_space_group_symop_operation_xyz
x,y,z
-x,-y,-z
loop_
_atom_site_type_symbol
_atom_site_label
_atom_site_fract_x
_atom_site_fract_y
_atom_site_fract_z
Si Si1 0.228522 0.339968 0.242336
Si Si2 0.920494 0.381192 0.614695
Si Si3 0.881738 0.354106 0.869303
Si Si4 0.748447 0.561984 0.105852
Si Si5 0.180743 0.087658 0.452876
Si Si6 0.508834 0.235367 0.953388
Si Si7 0.209502 0.916778 0.887997
Si Si8 0.398888 0.829157 0.294891
O O1 0.112654 0.563992 0.307289
O O2 0.115197 0.463828 0.201277
O O3 0.541279 0.723620 0.106689
O O4 0.218879 0.105817 0.294121
O O5 0.890932 0.638784 0.575141
O O6 0.710606 0.340695 0.663424
O O7 0.155807 0.140292 0.529204
O O8 0.744426 0.233612 0.895875
O O9 0.122439 0.130546 0.844025
O O10 0.712538 0.527091 0.963099
O O11 0.523470 0.209900 0.156430
O O12 0.647901 0.701014 0.188074
O O13 0.778150 0.302207 0.130394
O O14 0.000000 0.500000 0.000000
O O15 0.411330 0.887987 0.356469
O O16 0.000000 0.000000 0.500000
O O17 0.500000 0.000000 0.000000
O O18 0.000000 0.000000 0.000000
#
# Coordination Sequence:
#
# PCOD9081719 Si02
#       8
#     2   2   2   2   2   2   2   2
#     4  11  21  36  55  80 117 148 191 244 288 348
#     4   9  16  33  55  85 119 145 188 238 293 350
#     4  11  22  37  55  78 109 153 198 245 296 339
#     4  12  22  35  54  81 118 158 200 243 289 341
#     4   8  16  29  55  89 117 145 185 239 291 352
#     4  11  21  37  53  75 108 148 200 248 290 339
#     4  12  21  37  54  76 114 156 199 245 287 338
#     4  10  19  32  54  82 115 152 195 240 290 343
#
# _framework density 21.020311
#
# number of rings (size 3 to 8) (size 9 to 14) (size 15 to 20)
#    0.000    1.500    3.750    3.000    0.000    0.000 
#    0.000    0.000    0.000    0.000    0.000   14.875 
#    0.000    1.750    0.000    0.000    0.000    0.000 
#
# Total GULP energy -89117.438710 kJ/mol
# GULP energy per Si atom -5569.839919 kJ/mol
# Density = 2.097247 g / cm^3
# Si number density = 21.020311 Si / 1000 Ang^3
#
#
#
# Elastic Constant Matrix: (Units=GPa)
#
#
# Indices 1 2 3 4 5 6 
#
# 1 54.2848 43.4825 22.0905 -3.0876 1.7071 5.0933
# 2 43.4825 124.9724 27.6948 -6.5916 -0.1687 18.2848
# 3 22.0905 27.6948 112.2205 28.2472 8.1557 3.3578
# 4 -3.0876 -6.5916 28.2472 48.5827 12.2031 4.9025
# 5 1.7071 -0.1687 8.1557 12.2031 17.0432 -6.1897
# 6 5.0933 18.2848 3.3578 4.9025 -6.1897 35.9909
#
#
#
# Elastic Compliance Matrix: (Units=1/GPa)
#
#
# Indices 1 2 3 4 5 6 
#
# 1 0.027044 -0.008258 -0.003980 0.003930 -0.003868 -0.000461
# 2 -0.008258 0.012355 -0.001944 0.003590 -0.002834 -0.005903
# 3 -0.003980 -0.001944 0.012053 -0.007912 0.000878 0.001655
# 4 0.003930 0.003590 -0.007912 0.032953 -0.023885 -0.010238
# 5 -0.003868 -0.002834 0.000878 -0.023885 0.082758 0.019391
# 6 -0.000461 -0.005903 0.001655 -0.010238 0.019391 0.035424
#
#
# Mechanical properties :
#
#
# Convention : Reuss Voigt Hill
#
# Bulk Modulus (GPa) = 43.31506 53.11258 48.21382
# Shear Modulus (GPa) = 20.95134 33.53737 27.24435
#
# Velocity S-wave (km/s) = 3.16051 3.99867 3.60404
# Velocity P-wave (km/s) = 5.82833 6.82944 6.34865
#
# Compressibility (1/GPa) = 0.02308666
#
# Stress axis : x y z
#
# Youngs Moduli (GPa) = 36.97644 80.93753 82.96979
#
# Poissons Ratio (x) = 0.66839 0.33023
# Poissons Ratio (y) = 0.30536 0.16133
# Poissons Ratio (z) = 0.14717 0.15738
#
# Static dielectric constant tensor:
#      x y z
#    x 1.728100 0.010380 -0.020110 
#    y 0.010380 1.776580 0.022420 
#    z -0.020110 0.022420 1.903610 
# 
# From -- ./inp_files/119504.got.cif
#   From: 2010.05.17/outbox.cif.g08.bks.cpg/sg2_60_cif.got.tgz:119504.got - 2010.06.03 11:33:40.
