data_PCOD9081121
_publ_section_title
;
Structure prediction by ZEFSAII (Michael W. Deem and Ramdas Pophale) SiO2 
 PCOD9081121
Probable space group: P -1
;
_chemical_formula_sum "Si O2"
_cell_formula_units_Z 16
_cell_length_a 26.359143
_cell_length_b 5.702297
_cell_length_c 9.530129
_cell_angle_alpha 52.948918
_cell_angle_beta 30.629213
_cell_angle_gamma 49.684322
_cell_volume 552.590211
_symmetry_space_group_name_H-M "P -1"
_symmetry_group_IT_number 2
_symmetry_cell_setting 'triclinic'
loop_
_space_group_symop_operation_xyz
x,y,z
-x,-y,-z
loop_
_atom_site_type_symbol
_atom_site_label
_atom_site_fract_x
_atom_site_fract_y
_atom_site_fract_z
Si Si1 0.511736 0.260369 0.689871
Si Si2 0.269546 0.178841 0.219961
Si Si3 0.747291 0.362450 0.347394
Si Si4 0.761167 0.194085 0.814343
Si Si5 0.997479 0.066056 0.204946
Si Si6 0.485053 0.238886 0.321181
Si Si7 0.234754 0.045628 0.802393
Si Si8 0.974644 0.564735 0.273907
O O1 0.500000 0.500000 0.500000
O O2 0.478385 0.468828 0.832399
O O3 0.637616 0.094876 0.468188
O O4 0.470630 0.979884 0.838755
O O5 0.272834 0.903353 0.415657
O O6 0.296933 0.001298 0.069774
O O7 0.303234 0.453255 0.114630
O O8 0.145751 0.375131 0.421354
O O9 0.638871 0.601789 0.465475
O O10 0.801682 0.155445 0.157178
O O11 0.792227 0.580204 0.262995
O O12 0.868938 0.177969 0.484639
O O13 0.787825 0.030970 0.958651
O O14 0.025377 0.216365 0.225838
O O15 0.022867 0.707377 0.233643
O O16 0.026091 0.231698 0.939053
O O17 0.500000 0.000000 0.500000
#
# Coordination Sequence:
#
# PCOD9081121 Si02
#       8
#     2   2   2   2   2   2   2   2
#     4   8  14  25  42  65  84 108 148 190 216 253
#     4  10  19  31  48  71  97 123 153 194 240 277
#     4  10  19  31  48  71  95 123 156 192 230 277
#     4  10  19  31  48  71  97 123 153 194 240 277
#     4   8  14  25  42  63  86 116 155 190 219 265
#     4   8  14  25  42  65  84 108 148 190 216 253
#     4  10  19  31  48  71  95 123 156 192 230 277
#     4   8  14  25  42  63  86 116 155 190 219 265
#
# _framework density 28.954550999999999
#
# number of rings (size 3 to 8) (size 9 to 14) (size 15 to 20)
#    0.000    3.000    0.000    1.500    0.000    0.000 
#    0.000    0.000    0.000    1.500    0.000   84.000 
#    0.000    0.000    0.000    0.000    0.000    0.000 
#
# Total GULP energy -89523.976804 kJ/mol
# GULP energy per Si atom -5595.248550 kJ/mol
# Density = 2.888865 g / cm^3
# Si number density = 28.954551 Si / 1000 Ang^3
#
#
#
# Elastic Constant Matrix: (Units=GPa)
#
#
# Indices 1 2 3 4 5 6 
#
# 1 171.9217 76.8862 17.8519 -16.7227 0.4337 72.9005
# 2 76.8862 261.7848 31.7259 32.0142 12.4955 70.5653
# 3 17.8519 31.7259 84.9638 -1.3172 10.8767 9.8956
# 4 -16.7227 32.0142 -1.3172 50.5386 5.8659 5.1698
# 5 0.4337 12.4955 10.8767 5.8659 37.4912 -12.0100
# 6 72.9005 70.5653 9.8956 5.1698 -12.0100 88.9169
#
#
#
# Elastic Compliance Matrix: (Units=1/GPa)
#
#
# Indices 1 2 3 4 5 6 
#
# 1 0.010485 -0.001358 -0.000256 0.005524 -0.003095 -0.008230
# 2 -0.001358 0.005846 -0.001280 -0.003587 -0.002108 -0.003460
# 3 -0.000256 -0.001280 0.012912 0.001591 -0.003828 -0.000821
# 4 0.005524 -0.003587 0.001591 0.024847 -0.004469 -0.003908
# 5 -0.003095 -0.002108 -0.003828 -0.004469 0.032182 0.009243
# 6 -0.008230 -0.003460 -0.000821 -0.003908 0.009243 0.022306
#
#
# Mechanical properties :
#
#
# Convention : Reuss Voigt Hill
#
# Bulk Modulus (GPa) = 42.63486 85.73312 64.18399
# Shear Modulus (GPa) = 40.92163 61.53643 51.22903
#
# Velocity S-wave (km/s) = 3.76347 4.61507 4.21086
# Velocity P-wave (km/s) = 5.80015 7.62052 6.77178
#
# Compressibility (1/GPa) = 0.02345498
#
# Stress axis : x y z
#
# Youngs Moduli (GPa) = 95.37219 171.06271 77.44825
#
# Poissons Ratio (x) = 0.23231 0.01980
# Poissons Ratio (y) = 0.12952 0.09916
# Poissons Ratio (z) = 0.02438 0.21901
#
# Static dielectric constant tensor:
#      x y z
#    x 2.525950 0.031070 -0.239770 
#    y 0.031070 2.236620 0.081160 
#    z -0.239770 0.081160 2.215900 
# 
# From -- ./inp_files/14302.got.cif
#   From: 2010.05.17/outbox.cif.g08.bks.cpg/sg2_8_cif.got.tgz:14302.got - 2010.06.03 11:33:40.
