data_PCOD9081824
_publ_section_title
;
Structure prediction by ZEFSAII (Michael W. Deem and Ramdas Pophale) SiO2 
 PCOD9081824
Probable space group: P -1
;
_chemical_formula_sum "Si O2"
_cell_formula_units_Z 12
_cell_length_a 11.118037
_cell_length_b 7.618447
_cell_length_c 11.559196
_cell_angle_alpha 106.916619
_cell_angle_beta 46.721815
_cell_angle_gamma 72.190030
_cell_volume 469.337844
_symmetry_space_group_name_H-M "P -1"
_symmetry_group_IT_number 2
_symmetry_cell_setting 'triclinic'
loop_
_space_group_symop_operation_xyz
x,y,z
-x,-y,-z
loop_
_atom_site_type_symbol
_atom_site_label
_atom_site_fract_x
_atom_site_fract_y
_atom_site_fract_z
Si Si1 0.521592 0.674780 0.586355
Si Si2 0.917098 0.851794 0.541975
Si Si3 0.381699 0.410617 0.003211
Si Si4 0.974959 0.725127 0.742849
Si Si5 0.175415 0.776545 0.994543
Si Si6 0.866088 0.761624 0.066589
O O1 0.500000 0.500000 0.500000
O O2 0.771826 0.553749 0.436121
O O3 0.398924 0.715548 0.795242
O O4 0.374562 0.952394 0.671649
O O5 0.138460 0.571230 0.273202
O O6 0.919859 0.763967 0.652398
O O7 0.000000 0.000000 0.500000
O O8 0.625810 0.093613 0.757948
O O9 0.500000 0.500000 0.000000
O O10 0.266453 0.559265 0.985399
O O11 0.819195 0.774085 0.963274
O O12 0.996890 0.931217 0.782514
O O13 0.054700 0.775405 0.965311
O O14 0.000000 0.500000 0.000000
#
# Coordination Sequence:
#
# PCOD9081824 Si02
#       6
#     2   2   2   2   2   2
#     4  11  19  35  61  87 113 151 205 258 300 359
#     4  10  19  32  55  92 121 148 195 261 312 355
#     4  10  19  32  55  91 123 147 196 258 315 353
#     4  11  20  36  60  87 117 155 199 256 304 359
#     4  11  20  35  59  88 119 154 197 259 302 359
#     4  11  25  39  54  87 127 162 199 244 313 374
#
# _framework density 25.567937000000001
#
# number of rings (size 3 to 8) (size 9 to 14) (size 15 to 20)
#    0.000    1.333    6.667    3.000    2.333    0.667 
#    0.000    0.000    0.000    2.000    0.000    0.000 
#    0.000    0.000    0.000    0.000    0.000    0.000 
#
# Total GULP energy -66816.439590 kJ/mol
# GULP energy per Si atom -5568.036632 kJ/mol
# Density = 2.550974 g / cm^3
# Si number density = 25.567937 Si / 1000 Ang^3
#
#
#
# Elastic Constant Matrix: (Units=GPa)
#
#
# Indices 1 2 3 4 5 6 
#
# 1 55.8513 25.3145 28.8843 6.2177 -4.1739 -14.6347
# 2 25.3145 196.9350 62.1625 19.2420 7.4992 -19.5740
# 3 28.8843 62.1625 135.0443 22.3796 -17.6840 -9.1237
# 4 6.2177 19.2420 22.3796 44.1131 -3.9082 -2.5060
# 5 -4.1739 7.4992 -17.6840 -3.9082 49.6809 2.5843
# 6 -14.6347 -19.5740 -9.1237 -2.5060 2.5843 40.9284
#
#
#
# Elastic Compliance Matrix: (Units=1/GPa)
#
#
# Indices 1 2 3 4 5 6 
#
# 1 0.022054 -0.000985 -0.003716 -0.000395 0.000307 0.006543
# 2 -0.000985 0.006497 -0.002692 -0.001403 -0.002247 0.002211
# 3 -0.003716 -0.002692 0.010406 -0.003306 0.003576 -0.000725
# 4 -0.000395 -0.001403 -0.003306 0.025096 0.000980 -0.000074
# 5 0.000307 -0.002247 0.003576 0.000980 0.021921 -0.001492
# 6 0.006543 0.002211 -0.000725 -0.000074 -0.001492 0.027758
#
#
# Mechanical properties :
#
#
# Convention : Reuss Voigt Hill
#
# Bulk Modulus (GPa) = 41.37233 68.95037 55.16135
# Shear Modulus (GPa) = 36.60994 45.04245 40.82620
#
# Velocity S-wave (km/s) = 3.78811 4.20179 4.00030
# Velocity P-wave (km/s) = 5.94554 7.11098 6.55422
#
# Compressibility (1/GPa) = 0.02417075
#
# Stress axis : x y z
#
# Youngs Moduli (GPa) = 45.34277 153.92784 96.09670
#
# Poissons Ratio (x) = 0.15158 0.35711
# Poissons Ratio (y) = 0.04465 0.25872
# Poissons Ratio (z) = 0.16850 0.41441
#
# Static dielectric constant tensor:
#      x y z
#    x 2.087560 0.088310 0.052890 
#    y 0.088310 2.018930 0.147520 
#    z 0.052890 0.147520 3.110510 
# 
# From -- ./inp_files/29219.got.cif
#   From: 2010.05.17/outbox.cif.g08.bks.cpg/sg2_15_cif.got.tgz:29219.got - 2010.06.03 11:33:40.
