data_PCOD9081363
_publ_section_title
;
Structure prediction by ZEFSAII (Michael W. Deem and Ramdas Pophale) SiO2 
 PCOD9081363
Probable space group: P -1
;
_chemical_formula_sum "Si O2"
_cell_formula_units_Z 12
_cell_length_a 9.710458
_cell_length_b 9.110436
_cell_length_c 7.469644
_cell_angle_alpha 132.468361
_cell_angle_beta 65.413072
_cell_angle_gamma 121.963803
_cell_volume 411.723748
_symmetry_space_group_name_H-M "P -1"
_symmetry_group_IT_number 2
_symmetry_cell_setting 'triclinic'
loop_
_space_group_symop_operation_xyz
x,y,z
-x,-y,-z
loop_
_atom_site_type_symbol
_atom_site_label
_atom_site_fract_x
_atom_site_fract_y
_atom_site_fract_z
Si Si1 0.397935 0.650960 0.804186
Si Si2 0.468342 0.313900 0.642719
Si Si3 0.190753 0.871718 0.028096
Si Si4 0.215572 0.692663 0.474287
Si Si5 0.076002 0.206643 0.260541
Si Si6 0.122408 0.226946 0.695526
O O1 0.486109 0.565015 0.839798
O O2 0.487323 0.694834 0.600611
O O3 0.226309 0.442428 0.709132
O O4 0.331048 0.836043 0.040019
O O5 0.596201 0.245583 0.627086
O O6 0.276521 0.192877 0.681244
O O7 0.009361 0.727511 0.071516
O O8 0.198944 0.115039 0.217861
O O9 0.217564 0.794200 0.753671
O O10 0.160034 0.435695 0.312497
O O11 0.070180 0.752037 0.517261
O O12 0.000000 0.000000 0.000000
O O13 0.000000 0.000000 0.500000
#
# Coordination Sequence:
#
# PCOD9081363 Si02
#       6
#     2   2   2   2   2   2
#     4   8  17  34  51  73 113 142 175 212 256 317
#     4   8  17  33  55  73 110 147 171 215 266 307
#     4  10  19  31  56  80 107 139 182 211 269 311
#     4   9  18  37  57  74 110 137 179 227 260 312
#     4   9  19  34  58  83  96 137 188 222 264 316
#     4  10  20  32  52  83 114 142 176 212 262 318
#
# _framework density 29.145755000000001
#
# number of rings (size 3 to 8) (size 9 to 14) (size 15 to 20)
#    1.000    2.000    0.000    0.500    4.667    0.000 
#    0.000   10.000    0.000    9.000    0.000    0.000 
#    0.000    0.000    0.000    0.000    0.000    0.000 
#
# Total GULP energy -66900.985715 kJ/mol
# GULP energy per Si atom -5575.082143 kJ/mol
# Density = 2.907942 g / cm^3
# Si number density = 29.145755 Si / 1000 Ang^3
#
#
#
# Elastic Constant Matrix: (Units=GPa)
#
#
# Indices 1 2 3 4 5 6 
#
# 1 106.6254 15.1731 62.7335 3.8859 -56.1849 22.4158
# 2 15.1731 137.7666 54.1786 9.4953 -6.2742 20.8763
# 3 62.7335 54.1786 190.3598 7.1803 -52.1979 12.9119
# 4 3.8859 9.4953 7.1803 63.1795 -1.9852 -17.5749
# 5 -56.1849 -6.2742 -52.1979 -1.9852 71.3591 -11.1562
# 6 22.4158 20.8763 12.9119 -17.5749 -11.1562 40.8279
#
#
#
# Elastic Compliance Matrix: (Units=1/GPa)
#
#
# Indices 1 2 3 4 5 6 
#
# 1 0.018615 0.000885 -0.002581 -0.002826 0.011529 -0.007923
# 2 0.000885 0.009324 -0.002869 -0.002852 -0.001601 -0.006012
# 3 -0.002581 -0.002869 0.007817 0.000240 0.003678 0.001520
# 4 -0.002826 -0.002852 0.000240 0.019564 0.000020 0.011361
# 5 0.011529 -0.001601 0.003678 0.000020 0.025697 0.000356
# 6 -0.007923 -0.006012 0.001520 0.011361 0.000356 0.036424
#
#
# Mechanical properties :
#
#
# Convention : Reuss Voigt Hill
#
# Bulk Modulus (GPa) = 37.55769 77.65803 57.60786
# Shear Modulus (GPa) = 36.91506 55.25108 46.08307
#
# Velocity S-wave (km/s) = 3.56275 4.35867 3.98065
# Velocity P-wave (km/s) = 5.46245 7.21340 6.39811
#
# Compressibility (1/GPa) = 0.02662571
#
# Stress axis : x y z
#
# Youngs Moduli (GPa) = 53.71991 107.24856 127.93139
#
# Poissons Ratio (x) = -0.09496 0.33023
# Poissons Ratio (y) = -0.04756 0.36706
# Poissons Ratio (z) = 0.13867 0.30772
#
# Static dielectric constant tensor:
#      x y z
#    x 2.588380 -0.104580 0.036280 
#    y -0.104580 2.340630 -0.129360 
#    z 0.036280 -0.129360 2.441250 
# 
# From -- ./inp_files/33011.got.cif
#   From: 2010.05.17/outbox.cif.g08.bks.cpg/sg2_17_cif.got.tgz:33011.got - 2010.06.03 11:33:40.
