data_PCOD9081585
_publ_section_title
;
Structure prediction by ZEFSAII (Michael W. Deem and Ramdas Pophale) SiO2 
 PCOD9081585
Probable space group: P -1
;
_chemical_formula_sum "Si O2"
_cell_formula_units_Z 14
_cell_length_a 13.131586
_cell_length_b 9.485972
_cell_length_c 18.651083
_cell_angle_alpha 115.726117
_cell_angle_beta 20.146392
_cell_angle_gamma 107.832690
_cell_volume 681.392915
_symmetry_space_group_name_H-M "P -1"
_symmetry_group_IT_number 2
_symmetry_cell_setting 'triclinic'
loop_
_space_group_symop_operation_xyz
x,y,z
-x,-y,-z
loop_
_atom_site_type_symbol
_atom_site_label
_atom_site_fract_x
_atom_site_fract_y
_atom_site_fract_z
Si Si1 0.502796 0.001369 0.711852
Si Si2 0.866657 0.214149 0.701867
Si Si3 0.463064 0.992997 0.938585
Si Si4 0.706783 0.312988 0.995709
Si Si5 0.514679 0.338642 0.825492
Si Si6 0.417530 0.148594 0.530193
Si Si7 0.995166 0.789252 0.813650
O O1 0.611915 0.164980 0.679965
O O2 0.491242 0.937591 0.626335
O O3 0.177604 0.064026 0.983008
O O4 0.763644 0.857858 0.549499
O O5 0.744499 0.284572 0.877450
O O6 0.738297 0.329370 0.743760
O O7 0.721086 0.065350 0.752281
O O8 0.464682 0.807756 0.884570
O O9 0.500000 0.000000 0.000000
O O10 0.136403 0.122684 0.155018
O O11 0.052974 0.253964 0.787996
O O12 0.527229 0.506575 0.163187
O O13 0.175513 0.344916 0.084942
O O14 0.639552 0.256466 0.426929
O O15 0.500000 0.000000 0.500000
#
# Coordination Sequence:
#
# PCOD9081585 Si02
#       7
#     2   2   2   2   2   2   2
#     4   9  20  34  56  76 103 138 179 211 255 312
#     4   9  17  33  56  75 103 140 176 203 254 321
#     4   9  17  30  52  80 104 135 172 210 254 308
#     4  10  19  32  52  80 109 134 171 217 260 301
#     4   9  19  32  53  78 110 132 166 218 270 297
#     4  11  20  35  56  77  99 141 185 211 250 313
#     4   9  19  34  55  75 104 137 176 211 254 307
#
# _framework density 20.546149
#
# number of rings (size 3 to 8) (size 9 to 14) (size 15 to 20)
#    0.857    1.714    1.429    1.286    0.000    0.571 
#    0.000    1.429    0.000    0.000    0.000    0.000 
#    0.000    0.000    0.000    0.000    0.000    0.000 
#
# Total GULP energy -77986.765868 kJ/mol
# GULP energy per Si atom -5570.483276 kJ/mol
# Density = 2.049939 g / cm^3
# Si number density = 20.546149 Si / 1000 Ang^3
#
#
#
# Elastic Constant Matrix: (Units=GPa)
#
#
# Indices 1 2 3 4 5 6 
#
# 1 81.7478 -0.3827 21.6953 -1.7960 -27.5004 -9.0368
# 2 -0.3827 70.7107 22.8913 9.7001 -21.3868 -5.0779
# 3 21.6953 22.8913 65.9163 -1.5703 -30.0946 -3.2429
# 4 -1.7960 9.7001 -1.5703 19.5083 -1.2565 -5.0424
# 5 -27.5004 -21.3868 -30.0946 -1.2565 34.1473 0.3809
# 6 -9.0368 -5.0779 -3.2429 -5.0424 0.3809 20.3636
#
#
#
# Elastic Compliance Matrix: (Units=1/GPa)
#
#
# Indices 1 2 3 4 5 6 
#
# 1 0.020659 0.006711 0.001701 0.003102 0.022326 0.011463
# 2 0.006711 0.021301 -0.001836 -0.007537 0.016786 0.005817
# 3 0.001701 -0.001836 0.026517 0.006183 0.023754 0.005606
# 4 0.003102 -0.007537 0.006183 0.060074 0.005268 0.015259
# 5 0.022326 0.016786 0.023754 0.005268 0.078709 0.017708
# 6 0.011463 0.005817 0.005606 0.015259 0.017708 0.059985
#
#
# Mechanical properties :
#
#
# Convention : Reuss Voigt Hill
#
# Bulk Modulus (GPa) = 12.25058 34.08698 23.16878
# Shear Modulus (GPa) = 17.77442 26.41526 22.09484
#
# Velocity S-wave (km/s) = 2.94444 3.58949 3.28285
# Velocity P-wave (km/s) = 4.18749 5.81427 5.06660
#
# Compressibility (1/GPa) = 0.08162878
#
# Stress axis : x y z
#
# Youngs Moduli (GPa) = 48.40596 46.94517 37.71161
#
# Poissons Ratio (x) = -0.31506 -0.06414
# Poissons Ratio (y) = -0.32487 0.06924
# Poissons Ratio (z) = -0.08232 0.08620
#
# Static dielectric constant tensor:
#      x y z
#    x 1.742400 0.015660 0.008330 
#    y 0.015660 1.760950 -0.014370 
#    z 0.008330 -0.014370 1.755020 
# 
# From -- ./inp_files/195389.got.cif
#   From: 2010.05.17/outbox.cif.g08.bks.cpg/sg2_98_cif.got.tgz:195389.got - 2010.06.03 11:33:40.
