data_PCOD9081379
_publ_section_title
;
Structure prediction by ZEFSAII (Michael W. Deem and Ramdas Pophale) SiO2 
 PCOD9081379
Probable space group: P -1
;
_chemical_formula_sum "Si O2"
_cell_formula_units_Z 10
_cell_length_a 9.226678
_cell_length_b 8.442483
_cell_length_c 6.760990
_cell_angle_alpha 123.409531
_cell_angle_beta 50.252907
_cell_angle_gamma 103.335664
_cell_volume 331.915960
_symmetry_space_group_name_H-M "P -1"
_symmetry_group_IT_number 2
_symmetry_cell_setting 'triclinic'
loop_
_space_group_symop_operation_xyz
x,y,z
-x,-y,-z
loop_
_atom_site_type_symbol
_atom_site_label
_atom_site_fract_x
_atom_site_fract_y
_atom_site_fract_z
Si Si1 0.054022 0.799112 0.928842
Si Si2 0.487201 0.948137 0.207940
Si Si3 0.341394 0.335491 0.716991
Si Si4 0.822168 0.256034 0.770074
Si Si5 0.778642 0.613581 0.590864
O O1 0.863225 0.716591 0.088024
O O2 0.147644 0.813088 0.073891
O O3 0.174203 0.616729 0.575335
O O4 0.000000 0.000000 0.000000
O O5 0.276061 0.896135 0.364952
O O6 0.650045 0.757068 0.954838
O O7 0.500000 0.000000 0.000000
O O8 0.499090 0.138856 0.455856
O O9 0.334654 0.544403 0.957924
O O10 0.324660 0.373577 0.522078
O O11 0.026081 0.302054 0.555247
#
# Coordination Sequence:
#
# PCOD9081379 Si02
#       5
#     2   2   2   2   2
#     4   9  17  32  54  78 107 143 175 205 258 323
#     4  10  19  31  56  86 100 126 183 224 256 303
#     4   8  17  32  52  76 102 132 173 215 255 303
#     4   9  18  35  56  76 107 137 166 223 264 294
#     4   8  17  32  52  76 102 132 173 215 255 303
#
# _framework density 30.128108999999998
#
# number of rings (size 3 to 8) (size 9 to 14) (size 15 to 20)
#    0.000    3.200    0.000    2.400    0.000   14.400 
#    0.000    3.000    0.000   60.000    0.000    0.000 
#    0.000    0.000    0.000    0.000    0.000    0.000 
#
# Total GULP energy -56143.203384 kJ/mol
# GULP energy per Si atom -5614.320338 kJ/mol
# Density = 3.005954 g / cm^3
# Si number density = 30.128109 Si / 1000 Ang^3
#
#
#
# Elastic Constant Matrix: (Units=GPa)
#
#
# Indices 1 2 3 4 5 6 
#
# 1 135.4118 41.2096 32.6082 6.2802 9.4260 4.8811
# 2 41.2096 161.8625 56.4736 29.5738 -19.0639 -2.0755
# 3 32.6082 56.4736 243.5105 41.6427 2.7456 11.0391
# 4 6.2802 29.5738 41.6427 63.8868 -1.4896 -17.4172
# 5 9.4260 -19.0639 2.7456 -1.4896 39.8953 6.5800
# 6 4.8811 -2.0755 11.0391 -17.4172 6.5800 72.2298
#
#
#
# Elastic Compliance Matrix: (Units=1/GPa)
#
#
# Indices 1 2 3 4 5 6 
#
# 1 0.008459 -0.002401 -0.000637 0.000590 -0.003060 -0.000122
# 2 -0.002401 0.008239 -0.001122 -0.002888 0.004563 -0.000541
# 3 -0.000637 -0.001122 0.005060 -0.003129 -0.000610 -0.001462
# 4 0.000590 -0.002888 -0.003129 0.020412 -0.001434 0.005408
# 5 -0.003060 0.004563 -0.000610 -0.001434 0.028370 -0.002499
# 6 -0.000122 -0.000541 -0.001462 0.005408 -0.002499 0.015592
#
#
# Mechanical properties :
#
#
# Convention : Reuss Voigt Hill
#
# Bulk Modulus (GPa) = 74.41745 89.04083 81.72914
# Shear Modulus (GPa) = 50.53948 62.56862 56.55405
#
# Velocity S-wave (km/s) = 4.10016 4.56208 4.33727
# Velocity P-wave (km/s) = 6.86797 7.57419 7.22971
#
# Compressibility (1/GPa) = 0.01343771
#
# Stress axis : x y z
#
# Youngs Moduli (GPa) = 118.21672 121.37234 197.61395
#
# Poissons Ratio (x) = 0.29145 0.12583
# Poissons Ratio (y) = 0.28388 0.22178
# Poissons Ratio (z) = 0.07528 0.13622
#
# Static dielectric constant tensor:
#      x y z
#    x 2.246950 -0.101710 -0.056190 
#    y -0.101710 2.325510 0.009020 
#    z -0.056190 0.009020 2.403510 
# 
# From -- ./inp_files/148021.got.cif
#   From: 2010.05.17/outbox.cif.g08.bks.cpg/sg2_75_cif.got.tgz:148021.got - 2010.06.03 11:33:40.
