data_PCOD9081276
_publ_section_title
;
Structure prediction by ZEFSAII (Michael W. Deem and Ramdas Pophale) SiO2 
 PCOD9081276
Probable space group: P -1
;
_chemical_formula_sum "Si O2"
_cell_formula_units_Z 16
_cell_length_a 19.879900
_cell_length_b 9.499073
_cell_length_c 13.137933
_cell_angle_alpha 53.645960
_cell_angle_beta 157.615132
_cell_angle_gamma 136.024702
_cell_volume 630.795879
_symmetry_space_group_name_H-M "P -1"
_symmetry_group_IT_number 2
_symmetry_cell_setting 'triclinic'
loop_
_space_group_symop_operation_xyz
x,y,z
-x,-y,-z
loop_
_atom_site_type_symbol
_atom_site_label
_atom_site_fract_x
_atom_site_fract_y
_atom_site_fract_z
Si Si1 0.126279 0.797839 0.534273
Si Si2 0.849417 0.851023 0.701691
Si Si3 0.379476 0.629202 0.855846
Si Si4 0.086738 0.426414 0.242294
Si Si5 0.329556 0.160531 0.334175
Si Si6 0.644215 0.642927 0.904790
Si Si7 0.510862 0.140529 0.288812
Si Si8 0.008025 0.795084 0.592432
O O1 0.230513 0.686035 0.680145
O O2 0.142486 0.816782 0.670792
O O3 0.221575 0.014092 0.515177
O O4 0.876301 0.683323 0.206587
O O5 0.851686 0.706053 0.681733
O O6 0.707016 0.770779 0.638028
O O7 0.092370 0.993810 0.026431
O O8 0.509305 0.811606 0.877013
O O9 0.227571 0.408405 0.678448
O O10 0.483720 0.561659 0.114571
O O11 0.273262 0.646991 0.458501
O O12 0.945882 0.277976 0.204931
O O13 0.000000 0.500000 0.000000
O O14 0.434610 0.350500 0.319455
O O15 0.454787 0.045961 0.566792
O O16 0.661857 0.842523 0.898218
O O17 0.000000 0.000000 0.500000
#
# Coordination Sequence:
#
# PCOD9081276 Si02
#       8
#     2   2   2   2   2   2   2   2
#     4  10  19  37  60  84 108 145 191 233 268 322
#     4  10  19  35  57  83 110 142 186 236 271 319
#     4  10  21  36  59  84 109 148 191 229 271 322
#     4  11  22  34  55  82 117 144 181 228 282 328
#     4  10  20  34  59  80 110 147 186 224 276 327
#     4  10  21  34  57  85 115 139 186 235 273 320
#     4  11  21  37  56  84 113 150 181 225 281 336
#     4  10  19  31  53  83 112 138 178 230 277 315
#
# _framework density 25.364781000000001
#
# number of rings (size 3 to 8) (size 9 to 14) (size 15 to 20)
#    0.000    1.750    3.750    2.250    0.000    1.000 
#    0.000    0.625    0.000    6.750    0.000    0.000 
#    0.000    0.000    0.000    0.000    0.000    0.000 
#
# Total GULP energy -89470.333482 kJ/mol
# GULP energy per Si atom -5591.895843 kJ/mol
# Density = 2.530705 g / cm^3
# Si number density = 25.364781 Si / 1000 Ang^3
#
#
#
# Elastic Constant Matrix: (Units=GPa)
#
#
# Indices 1 2 3 4 5 6 
#
# 1 214.0670 47.8037 64.9489 -45.6611 -32.6001 11.2012
# 2 47.8037 89.3509 65.1633 -27.1800 -22.9618 -17.1104
# 3 64.9489 65.1633 120.0630 -36.8674 -24.9367 -0.2742
# 4 -45.6611 -27.1800 -36.8674 58.7936 6.1700 -4.8294
# 5 -32.6001 -22.9618 -24.9367 6.1700 50.2797 -22.9542
# 6 11.2012 -17.1104 -0.2742 -4.8294 -22.9542 33.8167
#
#
#
# Elastic Compliance Matrix: (Units=1/GPa)
#
#
# Indices 1 2 3 4 5 6 
#
# 1 0.006418 -0.000660 -0.001525 0.003434 0.002576 -0.000233
# 2 -0.000660 0.037352 -0.010855 0.010253 0.028030 0.039520
# 3 -0.001525 -0.010855 0.015972 0.003486 -0.000642 -0.004796
# 4 0.003434 0.010253 0.003486 0.026609 0.012997 0.016701
# 5 0.002576 0.028030 -0.000642 0.012997 0.057058 0.053910
# 6 -0.000233 0.039520 -0.004796 0.016701 0.053910 0.088584
#
#
# Mechanical properties :
#
#
# Convention : Reuss Voigt Hill
#
# Bulk Modulus (GPa) = 29.70722 86.59030 58.14876
# Shear Modulus (GPa) = 18.56710 44.94900 31.75805
#
# Velocity S-wave (km/s) = 2.70849 4.21420 3.54227
# Velocity P-wave (km/s) = 4.63882 7.60864 6.30119
#
# Compressibility (1/GPa) = 0.03366185
#
# Stress axis : x y z
#
# Youngs Moduli (GPa) = 155.80051 26.77268 62.61120
#
# Poissons Ratio (x) = 0.01767 0.09549
# Poissons Ratio (y) = 0.10280 0.67964
# Poissons Ratio (z) = 0.23760 0.29062
#
# Static dielectric constant tensor:
#      x y z
#    x 2.014110 0.071100 -0.003980 
#    y 0.071100 2.040420 0.047980 
#    z -0.003980 0.047980 2.008740 
# 
# From -- ./inp_files/461136.got.cif
#   From: 2010.05.17/outbox.cif.g08.bks.cpg/sg2_231_cif.got.tgz:461136.got - 2010.06.03 11:33:40.
