data_PCOD9081709
_publ_section_title
;
Structure prediction by ZEFSAII (Michael W. Deem and Ramdas Pophale) SiO2 
 PCOD9081709
Probable space group: P -1
;
_chemical_formula_sum "Si O2"
_cell_formula_units_Z 16
_cell_length_a 8.115474
_cell_length_b 24.388467
_cell_length_c 16.653658
_cell_angle_alpha 163.654454
_cell_angle_beta 114.668670
_cell_angle_gamma 70.432029
_cell_volume 814.794508
_symmetry_space_group_name_H-M "P -1"
_symmetry_group_IT_number 2
_symmetry_cell_setting 'triclinic'
loop_
_space_group_symop_operation_xyz
x,y,z
-x,-y,-z
loop_
_atom_site_type_symbol
_atom_site_label
_atom_site_fract_x
_atom_site_fract_y
_atom_site_fract_z
Si Si1 0.795022 0.577941 0.925871
Si Si2 0.799046 0.915384 0.518495
Si Si3 0.223839 0.036706 0.590353
Si Si4 0.866124 0.594587 0.289149
Si Si5 0.436543 0.768274 0.348724
Si Si6 0.823475 0.834309 0.765091
Si Si7 0.558298 0.163908 0.367995
Si Si8 0.095412 0.012788 0.839413
O O1 0.654919 0.374812 0.641168
O O2 0.972603 0.525266 0.847222
O O3 0.855937 0.721449 0.218383
O O4 0.703253 0.720145 0.051910
O O5 0.622773 0.833933 0.425477
O O6 0.973799 0.048723 0.789927
O O7 0.742517 0.021511 0.576787
O O8 0.311059 0.917550 0.504279
O O9 0.000000 0.000000 0.500000
O O10 0.807501 0.644883 0.437080
O O11 0.963602 0.803973 0.557603
O O12 0.688479 0.455260 0.011359
O O13 0.477749 0.797733 0.492369
O O14 0.639625 0.916481 0.829356
O O15 0.862302 0.821432 0.848941
O O16 0.000000 0.000000 0.000000
O O17 0.708643 0.032426 0.208333
#
# Coordination Sequence:
#
# PCOD9081709 Si02
#       8
#     2   2   2   2   2   2   2   2
#     4   9  20  35  54  85 115 144 179 224 286 323
#     4  10  21  34  54  83 113 143 183 224 269 336
#     4  10  20  37  53  83 115 151 176 217 282 342
#     4  10  19  32  54  80 113 144 180 228 273 327
#     4  12  20  33  58  87 113 145 178 226 288 320
#     4  10  21  35  53  83 111 145 185 230 276 319
#     4  11  21  35  58  86 111 142 182 236 273 329
#     4  10  20  36  53  80 111 149 185 225 270 322
#
# _framework density 19.636854
#
# number of rings (size 3 to 8) (size 9 to 14) (size 15 to 20)
#    0.750    1.000    1.250    5.250    0.000    3.500 
#    0.000    0.000    0.000    0.750    6.500    7.000 
#    0.000    0.000    0.000    0.000    0.000    0.000 
#
# Total GULP energy -89244.339790 kJ/mol
# GULP energy per Si atom -5577.771237 kJ/mol
# Density = 1.959216 g / cm^3
# Si number density = 19.636854 Si / 1000 Ang^3
#
#
#
# Elastic Constant Matrix: (Units=GPa)
#
#
# Indices 1 2 3 4 5 6 
#
# 1 99.4994 5.8819 9.1979 -6.1616 7.5160 1.0907
# 2 5.8819 43.1905 8.8124 4.2050 9.1693 -11.3702
# 3 9.1979 8.8124 33.2066 -18.8317 1.2397 -1.2045
# 4 -6.1616 4.2050 -18.8317 21.2271 -5.4504 4.7211
# 5 7.5160 9.1693 1.2397 -5.4504 29.8050 -3.2213
# 6 1.0907 -11.3702 -1.2045 4.7211 -3.2213 27.2354
#
#
#
# Elastic Compliance Matrix: (Units=1/GPa)
#
#
# Indices 1 2 3 4 5 6 
#
# 1 0.010551 -0.001240 -0.001614 0.001689 -0.002071 -0.001549
# 2 -0.001240 0.052421 -0.049748 -0.067139 -0.022925 0.028661
# 3 -0.001614 -0.049748 0.111408 0.123405 0.030011 -0.033619
# 4 0.001689 -0.067139 0.123405 0.193220 0.044938 -0.050818
# 5 -0.002071 -0.022925 0.030011 0.044938 0.046972 -0.010395
# 6 -0.001549 0.028661 -0.033619 -0.050818 -0.010395 0.054837
#
#
# Mechanical properties :
#
#
# Convention : Reuss Voigt Hill
#
# Bulk Modulus (GPa) = 14.45607 24.85343 19.65475
# Shear Modulus (GPa) = 8.36579 25.78713 17.07646
#
# Velocity S-wave (km/s) = 2.06628 3.62774 2.95212
# Velocity P-wave (km/s) = 3.61529 5.49830 4.65305
#
# Compressibility (1/GPa) = 0.06917511
#
# Stress axis : x y z
#
# Youngs Moduli (GPa) = 94.77917 19.07617 8.97604
#
# Poissons Ratio (x) = 0.02366 0.01449
# Poissons Ratio (y) = 0.11755 0.44654
# Poissons Ratio (z) = 0.15301 0.94900
#
# Static dielectric constant tensor:
#      x y z
#    x 1.719390 0.006120 -0.016490 
#    y 0.006120 1.720040 0.004100 
#    z -0.016490 0.004100 1.697670 
# 
# From -- ./inp_files/508766.got.cif
#   From: 2010.05.17/outbox.cif.g08.bks.cpg/sg2_255_cif.got.tgz:508766.got - 2010.06.03 11:33:40.
