data_PCOD9081846
_publ_section_title
;
Structure prediction by ZEFSAII (Michael W. Deem and Ramdas Pophale) SiO2 
 PCOD9081846
Probable space group: P -1
;
_chemical_formula_sum "Si O2"
_cell_formula_units_Z 16
_cell_length_a 5.257270
_cell_length_b 13.092656
_cell_length_c 12.393948
_cell_angle_alpha 130.633504
_cell_angle_beta 104.178419
_cell_angle_gamma 95.224475
_cell_volume 590.165407
_symmetry_space_group_name_H-M "P -1"
_symmetry_group_IT_number 2
_symmetry_cell_setting 'triclinic'
loop_
_space_group_symop_operation_xyz
x,y,z
-x,-y,-z
loop_
_atom_site_type_symbol
_atom_site_label
_atom_site_fract_x
_atom_site_fract_y
_atom_site_fract_z
Si Si1 0.659291 0.745360 0.687799
Si Si2 0.272695 0.916687 0.834216
Si Si3 0.775677 0.181739 0.870090
Si Si4 0.175531 0.093729 0.740954
Si Si5 0.091722 0.676446 0.314616
Si Si6 0.471135 0.558277 0.153226
Si Si7 0.183159 0.411562 0.218198
Si Si8 0.660894 0.875891 0.572688
O O1 0.392748 0.793387 0.720109
O O2 0.675743 0.621479 0.682941
O O3 0.679993 0.746714 0.559838
O O4 0.971789 0.857675 0.818771
O O5 0.245482 0.025260 0.812959
O O6 0.500000 0.000000 0.000000
O O7 0.482425 0.179949 0.791351
O O8 0.701829 0.008611 0.751691
O O9 0.021882 0.206930 0.826376
O O10 0.911617 0.283221 0.054126
O O11 0.918933 0.956825 0.577106
O O12 0.205380 0.608720 0.178001
O O13 0.105006 0.555054 0.319151
O O14 0.348187 0.823562 0.460415
O O15 0.778191 0.672695 0.285348
O O16 0.407003 0.443153 0.164948
O O17 0.500000 0.500000 0.000000
#
# Coordination Sequence:
#
# PCOD9081846 Si02
#       8
#     2   2   2   2   2   2   2   2
#     4  11  22  31  52  80 127 160 197 233 280 335
#     4  11  18  29  46  73 114 164 207 228 267 325
#     4  10  19  32  56  82 124 152 203 239 282 329
#     4   9  18  31  51  78 114 170 192 228 271 336
#     4  10  24  39  67  89 115 155 199 238 301 361
#     4  10  24  46  68  88 110 149 200 256 305 356
#     4  10  25  36  60  92 117 156 202 249 290 340
#     4   9  22  36  57  87 128 167 195 224 285 354
#
# _framework density 27.111042000000001
#
# number of rings (size 3 to 8) (size 9 to 14) (size 15 to 20)
#    1.500    0.500    1.250    2.250    5.250    0.500 
#    0.000    0.625    0.000    1.500    0.000    0.000 
#    0.000    0.000    0.000    0.000    0.000    0.000 
#
# Total GULP energy -89153.640118 kJ/mol
# GULP energy per Si atom -5572.102507 kJ/mol
# Density = 2.704934 g / cm^3
# Si number density = 27.111042 Si / 1000 Ang^3
#
#
#
# Elastic Constant Matrix: (Units=GPa)
#
#
# Indices 1 2 3 4 5 6 
#
# 1 177.5406 34.2821 27.6959 -7.3604 33.4190 -11.9423
# 2 34.2821 134.3111 9.7636 -15.3665 4.1831 -9.1390
# 3 27.6959 9.7636 133.8524 23.4866 30.2125 5.9156
# 4 -7.3604 -15.3665 23.4866 18.2568 7.7790 5.8771
# 5 33.4190 4.1831 30.2125 7.7790 44.2800 8.7072
# 6 -11.9423 -9.1390 5.9156 5.8771 8.7072 39.5761
#
#
#
# Elastic Compliance Matrix: (Units=1/GPa)
#
#
# Indices 1 2 3 4 5 6 
#
# 1 0.007615 -0.000803 -0.001205 0.005763 -0.006422 0.002850
# 2 -0.000803 0.009036 -0.002133 0.010068 -0.000724 0.000827
# 3 -0.001205 -0.002133 0.011506 -0.015525 -0.004138 0.000640
# 4 0.005763 0.010068 -0.015525 0.091323 -0.009762 -0.005029
# 5 -0.006422 -0.000724 -0.004138 -0.009762 0.033494 -0.007406
# 6 0.002850 0.000827 0.000640 -0.005029 -0.007406 0.028599
#
#
# Mechanical properties :
#
#
# Convention : Reuss Voigt Hill
#
# Bulk Modulus (GPa) = 50.31141 65.46527 57.88834
# Shear Modulus (GPa) = 25.44816 45.35342 35.40079
#
# Velocity S-wave (km/s) = 3.06709 4.09452 3.61746
# Velocity P-wave (km/s) = 5.58037 6.82297 6.23271
#
# Compressibility (1/GPa) = 0.01987621
#
# Stress axis : x y z
#
# Youngs Moduli (GPa) = 131.32083 110.66810 86.91394
#
# Poissons Ratio (x) = 0.08884 0.10470
# Poissons Ratio (y) = 0.10543 0.18536
# Poissons Ratio (z) = 0.15820 0.23602
#
# Static dielectric constant tensor:
#      x y z
#    x 2.253240 0.041090 -0.032810 
#    y 0.041090 2.212520 0.032460 
#    z -0.032810 0.032460 2.228090 
# 
# From -- ./inp_files/485039.got.cif
#   From: 2010.05.17/outbox.cif.g08.bks.cpg/sg2_243_cif.got.tgz:485039.got - 2010.06.03 11:33:40.
