data_PCOD9081216
_publ_section_title
;
Structure prediction by ZEFSAII (Michael W. Deem and Ramdas Pophale) SiO2 
 PCOD9081216
Probable space group: P -1
;
_chemical_formula_sum "Si O2"
_cell_formula_units_Z 16
_cell_length_a 11.449144
_cell_length_b 11.854620
_cell_length_c 10.163655
_cell_angle_alpha 87.100190
_cell_angle_beta 35.392201
_cell_angle_gamma 110.759951
_cell_volume 582.005840
_symmetry_space_group_name_H-M "P -1"
_symmetry_group_IT_number 2
_symmetry_cell_setting 'triclinic'
loop_
_space_group_symop_operation_xyz
x,y,z
-x,-y,-z
loop_
_atom_site_type_symbol
_atom_site_label
_atom_site_fract_x
_atom_site_fract_y
_atom_site_fract_z
Si Si1 0.939185 0.497076 0.731024
Si Si2 0.532255 0.603968 0.197093
Si Si3 0.162964 0.272583 0.820902
Si Si4 0.329757 0.041660 0.712674
Si Si5 0.223916 0.661760 0.852943
Si Si6 0.227778 0.755001 0.281907
Si Si7 0.781046 0.725939 0.536812
Si Si8 0.786973 0.937780 0.881018
O O1 0.230937 0.547000 0.493704
O O2 0.045729 0.663465 0.587728
O O3 0.739244 0.382702 0.038841
O O4 0.784718 0.376074 0.760597
O O5 0.644959 0.620574 0.239882
O O6 0.459267 0.459323 0.194170
O O7 0.727158 0.778889 0.948585
O O8 0.252216 0.286832 0.589047
O O9 0.937995 0.283391 0.996486
O O10 0.973600 0.097241 0.057713
O O11 0.297402 0.042815 0.898934
O O12 0.500000 0.000000 0.500000
O O13 0.506013 0.214165 0.488385
O O14 0.000000 0.500000 0.000000
O O15 0.546182 0.896527 0.011191
O O16 0.053621 0.764628 0.342403
O O17 0.900764 0.899268 0.447485
#
# Coordination Sequence:
#
# PCOD9081216 Si02
#       8
#     2   2   2   2   2   2   2   2
#     4   9  18  30  54  83 108 135 180 225 273 321
#     4  10  19  34  52  79 117 140 167 226 282 326
#     4  10  20  35  51  76 117 140 170 226 275 321
#     4   9  21  35  49  75 114 138 178 223 257 322
#     4  11  19  33  53  79 111 143 182 214 267 328
#     4   9  16  31  50  79 111 136 173 230 273 312
#     4  10  19  31  51  82 112 134 174 221 273 324
#     4  10  20  34  55  83 108 143 181 215 282 330
#
# _framework density 27.491132
#
# number of rings (size 3 to 8) (size 9 to 14) (size 15 to 20)
#    0.000    2.250    2.500    3.000    0.000    2.000 
#    2.250    0.000    0.000    0.000    0.000   70.000 
#    0.000    0.125    0.000    0.000    0.000    0.000 
#
# Total GULP energy -89288.351774 kJ/mol
# GULP energy per Si atom -5580.521986 kJ/mol
# Density = 2.742856 g / cm^3
# Si number density = 27.491132 Si / 1000 Ang^3
#
#
#
# Elastic Constant Matrix: (Units=GPa)
#
#
# Indices 1 2 3 4 5 6 
#
# 1 142.5903 20.8913 25.8015 -2.6413 1.8656 6.0297
# 2 20.8913 96.8416 49.6299 -45.9278 -8.4668 -7.2957
# 3 25.8015 49.6299 174.3332 -42.9566 -5.8177 14.8420
# 4 -2.6413 -45.9278 -42.9566 62.4630 1.9500 -10.2044
# 5 1.8656 -8.4668 -5.8177 1.9500 37.7812 -14.8415
# 6 6.0297 -7.2957 14.8420 -10.2044 -14.8415 44.3350
#
#
#
# Elastic Compliance Matrix: (Units=1/GPa)
#
#
# Indices 1 2 3 4 5 6 
#
# 1 0.007670 -0.002885 -0.000836 -0.002724 -0.002010 -0.002538
# 2 -0.002885 0.020818 -0.002453 0.015005 0.007870 0.010727
# 3 -0.000836 -0.002453 0.007460 0.002937 -0.000392 -0.002243
# 4 -0.002724 0.015005 0.002937 0.030558 0.006752 0.011150
# 5 -0.002010 0.007870 -0.000392 0.006752 0.033622 0.014509
# 6 -0.002538 0.010727 -0.002243 0.011150 0.014509 0.032840
#
#
# Mechanical properties :
#
#
# Convention : Reuss Voigt Hill
#
# Bulk Modulus (GPa) = 42.37261 67.37895 54.87578
# Shear Modulus (GPa) = 32.64087 50.07868 41.35978
#
# Velocity S-wave (km/s) = 3.44949 4.27269 3.88297
# Velocity P-wave (km/s) = 5.59571 6.99312 6.33308
#
# Compressibility (1/GPa) = 0.02360015
#
# Stress axis : x y z
#
# Youngs Moduli (GPa) = 130.37421 48.03528 134.05283
#
# Poissons Ratio (x) = 0.13858 0.11208
# Poissons Ratio (y) = 0.37612 0.32883
# Poissons Ratio (z) = 0.10900 0.11783
#
# Static dielectric constant tensor:
#      x y z
#    x 1.929310 0.121780 0.025300 
#    y 0.121780 2.968090 0.431290 
#    z 0.025300 0.431290 2.467680 
# 
# From -- ./inp_files/312575.got.cif
#   From: 2010.05.17/outbox.cif.g08.bks.cpg/sg2_157_cif.got.tgz:312575.got - 2010.06.03 11:33:40.
