data_PCOD9081065
_publ_section_title
;
Structure prediction by ZEFSAII (Michael W. Deem and Ramdas Pophale) SiO2 
 PCOD9081065
Probable space group: P -1
;
_chemical_formula_sum "Si O2"
_cell_formula_units_Z 14
_cell_length_a 13.320412
_cell_length_b 7.042954
_cell_length_c 6.870913
_cell_angle_alpha 112.977844
_cell_angle_beta 76.204970
_cell_angle_gamma 113.600337
_cell_volume 541.229286
_symmetry_space_group_name_H-M "P -1"
_symmetry_group_IT_number 2
_symmetry_cell_setting 'triclinic'
loop_
_space_group_symop_operation_xyz
x,y,z
-x,-y,-z
loop_
_atom_site_type_symbol
_atom_site_label
_atom_site_fract_x
_atom_site_fract_y
_atom_site_fract_z
Si Si1 0.291316 0.348260 0.342185
Si Si2 0.765795 0.503046 0.210682
Si Si3 0.777333 0.099589 0.553522
Si Si4 0.090229 0.732750 0.094754
Si Si5 0.451772 0.907331 0.279528
Si Si6 0.831395 0.894545 0.072314
Si Si7 0.486268 0.650271 0.827414
O O1 0.228872 0.476455 0.549942
O O2 0.423175 0.455264 0.316355
O O3 0.264488 0.129251 0.399040
O O4 0.248512 0.263906 0.114911
O O5 0.795450 0.297785 0.040026
O O6 0.846356 0.717867 0.148658
O O7 0.641076 0.481673 0.206686
O O8 0.680080 0.196976 0.672678
O O9 0.789825 0.040783 0.301391
O O10 0.890579 0.225015 0.666447
O O11 0.083256 0.931301 0.042871
O O12 0.000000 0.500000 0.000000
O O13 0.500000 0.000000 0.500000
O O14 0.483256 0.125443 0.220645
O O15 0.498266 0.741062 0.078820
#
# Coordination Sequence:
#
# PCOD9081065 Si02
#       7
#     2   2   2   2   2   2   2
#     4   9  20  38  60  91 133 169 200 253 308 375
#     4  11  23  40  64  94 126 166 211 259 309 379
#     4   9  19  39  60  92 129 160 210 257 301 378
#     4  11  25  45  68  91 120 164 216 270 320 364
#     4  10  19  30  57  95 127 169 204 243 307 369
#     4  10  23  42  65  91 129 163 204 265 319 368
#     4  10  20  34  56  93 134 163 211 250 292 383
#
# _framework density 25.867042000000001
#
# number of rings (size 3 to 8) (size 9 to 14) (size 15 to 20)
#    0.000    2.000    1.429    1.286    4.000    4.000 
#    0.000    6.429    0.000    0.000    0.000    0.000 
#    0.000    0.000    0.000    0.000    0.000    0.000 
#
# Total GULP energy -78251.189112 kJ/mol
# GULP energy per Si atom -5589.370651 kJ/mol
# Density = 2.580817 g / cm^3
# Si number density = 25.867042 Si / 1000 Ang^3
#
#
#
# Elastic Constant Matrix: (Units=GPa)
#
#
# Indices 1 2 3 4 5 6 
#
# 1 46.4614 18.5213 33.3125 2.4171 7.3573 7.8794
# 2 18.5213 98.4756 16.8666 -18.0618 17.9415 16.8773
# 3 33.3125 16.8666 196.5572 3.8350 30.5363 2.8831
# 4 2.4171 -18.0618 3.8350 51.4246 -6.9670 0.1835
# 5 7.3573 17.9415 30.5363 -6.9670 23.9730 10.2864
# 6 7.8794 16.8773 2.8831 0.1835 10.2864 39.9051
#
#
#
# Elastic Compliance Matrix: (Units=1/GPa)
#
#
# Indices 1 2 3 4 5 6 
#
# 1 0.026838 -0.004380 -0.004282 -0.002290 0.001318 -0.003466
# 2 -0.004380 0.013394 0.000661 0.003913 -0.007081 -0.003041
# 3 -0.004282 0.000661 0.007308 -0.001483 -0.010052 0.002636
# 4 -0.002290 0.003913 -0.001483 0.022053 0.007405 -0.003106
# 5 0.001318 -0.007081 -0.010052 0.007405 0.067567 -0.013990
# 6 -0.003466 -0.003041 0.002636 -0.003106 -0.013990 0.030460
#
#
# Mechanical properties :
#
#
# Convention : Reuss Voigt Hill
#
# Bulk Modulus (GPa) = 31.70697 53.21056 42.45876
# Shear Modulus (GPa) = 25.75536 41.24681 33.50108
#
# Velocity S-wave (km/s) = 3.15887 3.99754 3.60269
# Velocity P-wave (km/s) = 5.05854 6.47476 5.80997
#
# Compressibility (1/GPa) = 0.03153881
#
# Stress axis : x y z
#
# Youngs Moduli (GPa) = 37.26099 74.65960 136.82871
#
# Poissons Ratio (x) = 0.32703 0.58587
# Poissons Ratio (y) = 0.16321 -0.09048
# Poissons Ratio (z) = 0.15954 -0.04937
#
# Static dielectric constant tensor:
#      x y z
#    x 2.101720 -0.013180 0.000260 
#    y -0.013180 2.036050 -0.003880 
#    z 0.000260 -0.003880 2.015150 
# 
# From -- ./inp_files/45933.got.cif
#   From: 2010.05.17/outbox.cif.g08.bks.cpg/sg2_23_cif.got.tgz:45933.got - 2010.06.03 11:33:40.
