data_PCOD9081463
_publ_section_title
;
Structure prediction by ZEFSAII (Michael W. Deem and Ramdas Pophale) SiO2 
 PCOD9081463
Probable space group: P -1
;
_chemical_formula_sum "Si O2"
_cell_formula_units_Z 14
_cell_length_a 14.636532
_cell_length_b 7.314565
_cell_length_c 9.747743
_cell_angle_alpha 85.054233
_cell_angle_beta 39.140850
_cell_angle_gamma 72.308936
_cell_volume 607.896475
_symmetry_space_group_name_H-M "P -1"
_symmetry_group_IT_number 2
_symmetry_cell_setting 'triclinic'
loop_
_space_group_symop_operation_xyz
x,y,z
-x,-y,-z
loop_
_atom_site_type_symbol
_atom_site_label
_atom_site_fract_x
_atom_site_fract_y
_atom_site_fract_z
Si Si1 0.683814 0.517685 0.044566
Si Si2 0.154528 0.928585 0.121896
Si Si3 0.356893 0.723553 0.418243
Si Si4 0.174761 0.961486 0.392675
Si Si5 0.021574 0.410151 0.764049
Si Si6 0.967331 0.230921 0.099122
Si Si7 0.739743 0.495865 0.670455
O O1 0.716808 0.285674 0.043972
O O2 0.847708 0.523547 0.901525
O O3 0.663513 0.560703 0.902297
O O4 0.526467 0.663182 0.289378
O O5 0.203048 0.009057 0.201363
O O6 0.992166 0.903730 0.360273
O O7 0.099298 0.072625 0.048369
O O8 0.312807 0.902405 0.346558
O O9 0.203498 0.780543 0.687329
O O10 0.366480 0.527248 0.329732
O O11 0.159388 0.741921 0.416322
O O12 0.059285 0.562616 0.810066
O O13 0.154251 0.380868 0.497895
O O14 0.017751 0.241976 0.884371
#
# Coordination Sequence:
#
# PCOD9081463 Si02
#       7
#     2   2   2   2   2   2   2
#     4  11  19  26  53  83  94 109 160 221 235 253
#     4   9  15  28  49  75  89 123 163 197 226 277
#     4   8  16  31  49  76  93 124 157 193 241 284
#     4   7  14  28  50  70  90 126 161 182 228 292
#     4  10  19  32  49  72  95 130 164 190 228 289
#     4   9  19  36  52  61  95 142 162 178 231 305
#     4   8  16  31  49  71  95 126 153 190 235 292
#
# _framework density 23.030237
#
# number of rings (size 3 to 8) (size 9 to 14) (size 15 to 20)
#    0.857    2.286    1.429    0.857    0.000    1.143 
#    0.000    0.000    0.000   15.429    0.000    0.000 
#    0.000    0.000    0.000    0.000    0.000    0.000 
#
# Total GULP energy -77940.356906 kJ/mol
# GULP energy per Si atom -5567.168350 kJ/mol
# Density = 2.297782 g / cm^3
# Si number density = 23.030237 Si / 1000 Ang^3
#
#
#
# Elastic Constant Matrix: (Units=GPa)
#
#
# Indices 1 2 3 4 5 6 
#
# 1 39.0164 12.4858 35.5072 -4.9143 4.5132 -10.0744
# 2 12.4858 63.0631 49.7172 0.7399 3.6618 -28.6466
# 3 35.5072 49.7172 95.9448 -5.3536 -7.5721 -27.6958
# 4 -4.9143 0.7399 -5.3536 32.3304 -11.1958 -1.0239
# 5 4.5132 3.6618 -7.5721 -11.1958 32.4147 3.0930
# 6 -10.0744 -28.6466 -27.6958 -1.0239 3.0930 29.1688
#
#
#
# Elastic Compliance Matrix: (Units=1/GPa)
#
#
# Indices 1 2 3 4 5 6 
#
# 1 0.045802 0.014148 -0.022807 -0.001997 -0.014906 0.009569
# 2 0.014148 0.044829 -0.021622 -0.007590 -0.017567 0.029980
# 3 -0.022807 -0.021622 0.031585 0.007678 0.015698 -0.000517
# 4 -0.001997 -0.007590 0.007678 0.037583 0.016028 -0.001234
# 5 -0.014906 -0.017567 0.015698 0.016028 0.045232 -0.011730
# 6 0.009569 0.029980 -0.000517 -0.001234 -0.011730 0.067741
#
#
# Mechanical properties :
#
#
# Convention : Reuss Voigt Hill
#
# Bulk Modulus (GPa) = 16.21926 43.71609 29.96767
# Shear Modulus (GPa) = 14.12877 25.47038 19.79957
#
# Velocity S-wave (km/s) = 2.47956 3.32920 2.93528
# Velocity P-wave (km/s) = 3.90583 5.81389 4.95261
#
# Compressibility (1/GPa) = 0.06165510
#
# Stress axis : x y z
#
# Youngs Moduli (GPa) = 21.83299 22.30678 31.66015
#
# Poissons Ratio (x) = -0.31560 0.72209
# Poissons Ratio (y) = -0.30890 0.68454
# Poissons Ratio (z) = 0.49796 0.48231
#
# Static dielectric constant tensor:
#      x y z
#    x 1.972450 0.045420 0.039090 
#    y 0.045420 1.914880 -0.045840 
#    z 0.039090 -0.045840 1.871880 
# 
# From -- ./inp_files/460473.got.cif
#   From: 2010.05.17/outbox.cif.g08.bks.cpg/sg2_231_cif.got.tgz:460473.got - 2010.06.03 11:33:40.
