data_PCOD9081636
_publ_section_title
;
Structure prediction by ZEFSAII (Michael W. Deem and Ramdas Pophale) SiO2 
 PCOD9081636
Probable space group: P -1
;
_chemical_formula_sum "Si O2"
_cell_formula_units_Z 16
_cell_length_a 11.171096
_cell_length_b 14.722476
_cell_length_c 10.594289
_cell_angle_alpha 29.336614
_cell_angle_beta 96.891304
_cell_angle_gamma 83.643194
_cell_volume 759.941224
_symmetry_space_group_name_H-M "P -1"
_symmetry_group_IT_number 2
_symmetry_cell_setting 'triclinic'
loop_
_space_group_symop_operation_xyz
x,y,z
-x,-y,-z
loop_
_atom_site_type_symbol
_atom_site_label
_atom_site_fract_x
_atom_site_fract_y
_atom_site_fract_z
Si Si1 0.121697 0.196900 0.986758
Si Si2 0.854881 0.544489 0.874579
Si Si3 0.741106 0.336790 0.929272
Si Si4 0.709345 0.777249 0.806956
Si Si5 0.260713 0.013516 0.797743
Si Si6 0.542489 0.188479 0.127546
Si Si7 0.813954 0.478634 0.531812
Si Si8 0.839323 0.118546 0.812279
O O1 0.183975 0.312200 0.763447
O O2 0.174415 0.962638 0.228564
O O3 0.962391 0.329166 0.787542
O O4 0.167794 0.219897 0.103388
O O5 0.832801 0.374374 0.997636
O O6 0.759502 0.609416 0.906461
O O7 0.805804 0.746451 0.533577
O O8 0.000000 0.500000 0.000000
O O9 0.717788 0.485433 0.625565
O O10 0.599703 0.357752 0.940495
O O11 0.802285 0.106155 0.155488
O O12 0.606740 0.749544 0.923149
O O13 0.632291 0.997386 0.461320
O O14 0.234237 0.961951 0.996918
O O15 0.413836 0.903550 0.897299
O O16 0.797008 0.354055 0.560316
O O17 0.000000 0.000000 0.000000
#
# Coordination Sequence:
#
# PCOD9081636 Si02
#       8
#     2   2   2   2   2   2   2   2
#     4  10  19  32  53  78 110 143 165 223 276 312
#     4  11  21  32  53  85 108 135 178 227 274 325
#     4   9  18  36  57  74 101 150 178 218 277 309
#     4  10  20  38  54  80 111 142 187 221 265 320
#     4   8  18  36  53  75 104 141 179 218 264 317
#     4   8  19  39  59  70 108 151 183 227 257 310
#     4   9  18  34  53  78 109 135 176 217 271 332
#     4   9  17  31  53  76 101 138 173 209 267 323
#
# _framework density 21.054259999999999
#
# number of rings (size 3 to 8) (size 9 to 14) (size 15 to 20)
#    0.750    2.000    0.000    1.500    0.000    3.000 
#    9.000    1.250    0.000    0.000    0.000    0.000 
#    0.000    0.000    0.000    0.000    0.000    0.000 
#
# Total GULP energy -89123.492154 kJ/mol
# GULP energy per Si atom -5570.218260 kJ/mol
# Density = 2.100634 g / cm^3
# Si number density = 21.054260 Si / 1000 Ang^3
#
#
#
# Elastic Constant Matrix: (Units=GPa)
#
#
# Indices 1 2 3 4 5 6 
#
# 1 56.3373 -11.3477 17.1144 0.6377 -21.1601 -12.5599
# 2 -11.3477 94.4615 6.7593 -17.1172 2.4885 14.0561
# 3 17.1144 6.7593 23.5836 -3.9426 0.3554 -1.7357
# 4 0.6377 -17.1172 -3.9426 18.9106 4.6799 -7.3226
# 5 -21.1601 2.4885 0.3554 4.6799 19.0526 3.5152
# 6 -12.5599 14.0561 -1.7357 -7.3226 3.5152 25.5933
#
#
#
# Elastic Compliance Matrix: (Units=1/GPa)
#
#
# Indices 1 2 3 4 5 6 
#
# 1 0.068398 0.003824 -0.055900 -0.027358 0.081634 0.008635
# 2 0.003824 0.013645 -0.005337 0.009613 0.000819 -0.003342
# 3 -0.055900 -0.005337 0.091441 0.034439 -0.071812 0.001417
# 4 -0.027358 0.009613 0.034439 0.090787 -0.057820 0.017547
# 5 0.081634 0.000819 -0.071812 -0.057820 0.159263 -0.003676
# 6 0.008635 -0.003342 0.001417 0.017547 -0.003676 0.050767
#
#
# Mechanical properties :
#
#
# Convention : Reuss Voigt Hill
#
# Bulk Modulus (GPa) = 17.04785 22.15938 19.60361
# Shear Modulus (GPa) = 8.21448 23.50173 15.85810
#
# Velocity S-wave (km/s) = 1.97738 3.34465 2.74743
# Velocity P-wave (km/s) = 3.65076 5.04612 4.40406
#
# Compressibility (1/GPa) = 0.05865844
#
# Stress axis : x y z
#
# Youngs Moduli (GPa) = 14.62030 73.28614 10.93597
#
# Poissons Ratio (x) = -0.28022 0.61132
# Poissons Ratio (y) = -0.05590 0.05836
# Poissons Ratio (z) = 0.81727 0.39112
#
# Static dielectric constant tensor:
#      x y z
#    x 1.801170 -0.010310 -0.010320 
#    y -0.010310 1.773340 0.005600 
#    z -0.010320 0.005600 1.747910 
# 
# From -- ./inp_files/432306.got.cif
#   From: 2010.05.17/outbox.cif.g08.bks.cpg/sg2_217_cif.got.tgz:432306.got - 2010.06.03 11:33:40.
