data_PCOD9081354
_publ_section_title
;
Structure prediction by ZEFSAII (Michael W. Deem and Ramdas Pophale) SiO2 
 PCOD9081354
Probable space group: P -1
;
_chemical_formula_sum "Si O2"
_cell_formula_units_Z 15
_cell_length_a 8.985010
_cell_length_b 9.393290
_cell_length_c 13.057401
_cell_angle_alpha 112.012995
_cell_angle_beta 127.726456
_cell_angle_gamma 108.406588
_cell_volume 540.511459
_symmetry_space_group_name_H-M "P -1"
_symmetry_group_IT_number 2
_symmetry_cell_setting 'triclinic'
loop_
_space_group_symop_operation_xyz
x,y,z
-x,-y,-z
loop_
_atom_site_type_symbol
_atom_site_label
_atom_site_fract_x
_atom_site_fract_y
_atom_site_fract_z
Si Si1 0.109246 0.131198 0.337950
Si Si2 0.763858 0.055007 0.010061
Si Si3 0.653357 0.268080 0.906939
Si Si4 0.000000 0.000000 0.500000
Si Si5 0.349468 0.434819 0.241489
Si Si6 0.409938 0.423377 0.826309
Si Si7 0.443350 0.112269 0.323943
Si Si8 0.247092 0.721830 0.319502
O O1 0.834401 0.039255 0.147084
O O2 0.063232 0.039173 0.406457
O O3 0.365804 0.408518 0.531572
O O4 0.224769 0.072873 0.291662
O O5 0.066726 0.222090 0.123877
O O6 0.667136 0.173821 0.990210
O O7 0.564537 0.847044 0.788101
O O8 0.389664 0.218134 0.756655
O O9 0.077575 0.456338 0.898071
O O10 0.658312 0.129077 0.792643
O O11 0.091173 0.246024 0.612412
O O12 0.392851 0.404874 0.135617
O O13 0.321371 0.604641 0.266075
O O14 0.500000 0.500000 0.000000
O O15 0.733071 0.306018 0.557916
O O16 0.500000 0.000000 0.500000
#
# Coordination Sequence:
#
# PCOD9081354 Si02
#       8
#     2   2   2   1   2   2   2   2
#     4  10  19  39  61  91 123 162 201 240 309 359
#     4   9  19  35  63  91 124 152 195 263 304 357
#     4   9  22  36  56  92 122 156 201 256 305 353
#     4  10  26  42  62  86 120 164 208 246 290 384
#     4   9  20  34  57  91 120 156 200 250 302 355
#     4  11  24  40  59  82 122 167 204 246 302 366
#     4   9  20  33  59  92 122 152 198 254 304 353
#     4  10  19  31  55  89 126 153 186 256 310 356
#
# _framework density 27.751494000000001
#
# number of rings (size 3 to 8) (size 9 to 14) (size 15 to 20)
#    0.800    1.600    0.000    1.600    3.733    4.800 
#    0.000    0.667    0.000    3.200    0.000    0.000 
#    0.000    0.000    0.000    0.267    0.000    0.000 
#
# Total GULP energy -83552.820879 kJ/mol
# GULP energy per Si atom -5570.188059 kJ/mol
# Density = 2.768833 g / cm^3
# Si number density = 27.751494 Si / 1000 Ang^3
#
#
#
# Elastic Constant Matrix: (Units=GPa)
#
#
# Indices 1 2 3 4 5 6 
#
# 1 96.2566 47.0658 41.4002 -8.0309 -4.9185 12.0795
# 2 47.0658 87.5416 43.7422 -16.6954 -2.4665 -4.5277
# 3 41.4002 43.7422 207.3680 -10.1181 -14.9320 10.4913
# 4 -8.0309 -16.6954 -10.1181 58.3172 0.2910 -0.1556
# 5 -4.9185 -2.4665 -14.9320 0.2910 41.4738 0.3567
# 6 12.0795 -4.5277 10.4913 -0.1556 0.3567 36.4113
#
#
#
# Elastic Compliance Matrix: (Units=1/GPa)
#
#
# Indices 1 2 3 4 5 6 
#
# 1 0.015623 -0.008242 -0.001025 -0.000407 0.001047 -0.005924
# 2 -0.008242 0.017972 -0.002314 0.003628 -0.000816 0.005659
# 3 -0.001025 -0.002314 0.005737 0.000178 0.001819 -0.001618
# 4 -0.000407 0.003628 0.000178 0.018162 0.000099 0.000611
# 5 0.001047 -0.000816 0.001819 0.000099 0.024852 -0.001216
# 6 -0.005924 0.005659 -0.001618 0.000611 -0.001216 0.030614
#
#
# Mechanical properties :
#
#
# Convention : Reuss Voigt Hill
#
# Bulk Modulus (GPa) = 61.84223 72.84249 67.34236
# Shear Modulus (GPa) = 35.33325 44.50432 39.91879
#
# Velocity S-wave (km/s) = 3.57207 4.00893 3.79679
# Velocity P-wave (km/s) = 6.27260 6.90897 6.59846
#
# Compressibility (1/GPa) = 0.01617018
#
# Stress axis : x y z
#
# Youngs Moduli (GPa) = 64.00940 55.64286 174.32034
#
# Poissons Ratio (x) = 0.45859 0.17872
# Poissons Ratio (y) = 0.52754 0.40330
# Poissons Ratio (z) = 0.06563 0.12873
#
# Static dielectric constant tensor:
#      x y z
#    x 2.295750 -0.120970 0.041780 
#    y -0.120970 2.418410 -0.047980 
#    z 0.041780 -0.047980 2.353450 
# 
# From -- ./inp_files/388082.got.cif
#   From: 2010.05.17/outbox.cif.g08.bks.cpg/sg2_195_cif.got.tgz:388082.got - 2010.06.03 11:33:40.
