data_PCOD9081642
_publ_section_title
;
Structure prediction by ZEFSAII (Michael W. Deem and Ramdas Pophale) SiO2 
 PCOD9081642
Probable space group: P -1
;
_chemical_formula_sum "Si O2"
_cell_formula_units_Z 16
_cell_length_a 15.379666
_cell_length_b 5.864276
_cell_length_c 14.961692
_cell_angle_alpha 82.095919
_cell_angle_beta 139.366825
_cell_angle_gamma 106.156671
_cell_volume 838.170840
_symmetry_space_group_name_H-M "P -1"
_symmetry_group_IT_number 2
_symmetry_cell_setting 'triclinic'
loop_
_space_group_symop_operation_xyz
x,y,z
-x,-y,-z
loop_
_atom_site_type_symbol
_atom_site_label
_atom_site_fract_x
_atom_site_fract_y
_atom_site_fract_z
Si Si1 0.103679 0.020823 0.164896
Si Si2 0.492006 0.946822 0.891125
Si Si3 0.223777 0.618881 0.705083
Si Si4 0.266658 0.663863 0.040114
Si Si5 0.952844 0.083959 0.218090
Si Si6 0.839054 0.432789 0.844957
Si Si7 0.701646 0.660306 0.062999
Si Si8 0.949907 0.759530 0.531618
O O1 0.181017 0.308677 0.215284
O O2 0.020663 0.977922 0.195510
O O3 0.175335 0.803462 0.215786
O O4 0.000000 0.000000 0.000000
O O5 0.330996 0.863208 0.743321
O O6 0.595378 0.154265 0.903176
O O7 0.558751 0.726619 0.942627
O O8 0.500000 0.000000 0.000000
O O9 0.296728 0.533466 0.850935
O O10 0.182850 0.420691 0.606928
O O11 0.079718 0.646416 0.629222
O O12 0.257335 0.650143 0.139365
O O13 0.129276 0.736508 0.896299
O O14 0.262924 0.416751 0.002944
O O15 0.060065 0.189856 0.374334
O O16 0.826995 0.885722 0.175961
O O17 0.000000 0.500000 0.000000
O O18 0.000000 0.000000 0.500000
#
# Coordination Sequence:
#
# PCOD9081642 Si02
#       8
#     2   2   2   2   2   2   2   2
#     4  10  19  32  53  79 119 146 182 241 297 356
#     4  11  23  35  53  83 111 152 193 232 291 347
#     4  11  22  37  52  77 112 150 194 237 273 337
#     4  11  21  32  55  81 115 148 185 228 298 352
#     4  11  20  33  53  81 112 149 190 230 294 346
#     4  10  19  33  51  82 118 146 182 239 297 358
#     4  11  20  33  57  78 110 151 190 232 287 345
#     4  11  23  37  54  77 111 156 192 237 273 333
#
# _framework density 19.089188
#
# number of rings (size 3 to 8) (size 9 to 14) (size 15 to 20)
#    0.000    1.250    6.250    2.625    1.750    0.000 
#    0.000    0.000    0.000    0.000    0.000    1.750 
#    0.000    0.000    0.000    0.000    0.000    0.000 
#
# Total GULP energy -89163.455246 kJ/mol
# GULP energy per Si atom -5572.715953 kJ/mol
# Density = 1.904574 g / cm^3
# Si number density = 19.089188 Si / 1000 Ang^3
#
#
#
# Elastic Constant Matrix: (Units=GPa)
#
#
# Indices 1 2 3 4 5 6 
#
# 1 112.5521 20.1496 20.4864 15.2645 -12.4278 -8.1070
# 2 20.1496 77.0775 4.8481 5.7971 -1.4135 -11.2282
# 3 20.4864 4.8481 38.8963 22.4795 -9.3652 1.1129
# 4 15.2645 5.7971 22.4795 21.4520 -1.3778 -1.4709
# 5 -12.4278 -1.4135 -9.3652 -1.3778 18.1725 7.3879
# 6 -8.1070 -11.2282 1.1129 -1.4709 7.3879 40.6452
#
#
#
# Elastic Compliance Matrix: (Units=1/GPa)
#
#
# Indices 1 2 3 4 5 6 
#
# 1 0.010952 -0.002217 0.000131 -0.006887 0.006831 0.000078
# 2 -0.002217 0.014229 0.000053 -0.002198 -0.002088 0.003787
# 3 0.000131 0.000053 0.091240 -0.093749 0.045767 -0.014169
# 4 -0.006887 -0.002198 -0.093749 0.148278 -0.047913 0.014661
# 5 0.006831 -0.002088 0.045767 -0.047913 0.086800 -0.017979
# 6 0.000078 0.003787 -0.014169 0.014661 -0.017979 0.029851
#
#
# Mechanical properties :
#
#
# Convention : Reuss Voigt Hill
#
# Bulk Modulus (GPa) = 8.90041 35.49934 22.19988
# Shear Modulus (GPa) = 11.82407 28.25671 20.04039
#
# Velocity S-wave (km/s) = 2.49150 3.85157 3.24362
# Velocity P-wave (km/s) = 3.59853 6.19810 5.06783
#
# Compressibility (1/GPa) = 0.11235435
#
# Stress axis : x y z
#
# Youngs Moduli (GPa) = 91.31043 70.27998 10.96016
#
# Poissons Ratio (x) = 0.15579 -0.00143
# Poissons Ratio (y) = 0.20241 -0.00058
# Poissons Ratio (z) = -0.01193 -0.00374
#
# Static dielectric constant tensor:
#      x y z
#    x 1.667070 -0.005590 0.018320 
#    y -0.005590 1.768210 0.007590 
#    z 0.018320 0.007590 1.630770 
# 
# From -- ./inp_files/74159.got.cif
#   From: 2010.05.17/outbox.cif.g08.bks.cpg/sg2_38_cif.got.tgz:74159.got - 2010.06.03 11:33:40.
