data_PCOD9081808
_publ_section_title
;
Structure prediction by ZEFSAII (Michael W. Deem and Ramdas Pophale) SiO2 
 PCOD9081808
Probable space group: P -1
;
_chemical_formula_sum "Si O2"
_cell_formula_units_Z 14
_cell_length_a 10.832904
_cell_length_b 12.524101
_cell_length_c 9.793632
_cell_angle_alpha 33.539297
_cell_angle_beta 113.136091
_cell_angle_gamma 116.676628
_cell_volume 655.516204
_symmetry_space_group_name_H-M "P -1"
_symmetry_group_IT_number 2
_symmetry_cell_setting 'triclinic'
loop_
_space_group_symop_operation_xyz
x,y,z
-x,-y,-z
loop_
_atom_site_type_symbol
_atom_site_label
_atom_site_fract_x
_atom_site_fract_y
_atom_site_fract_z
Si Si1 0.886458 0.381983 0.391272
Si Si2 0.544809 0.261125 0.675023
Si Si3 0.513696 0.958170 0.752141
Si Si4 0.655734 0.684357 0.228093
Si Si5 0.937444 0.888780 0.228470
Si Si6 0.150059 0.729341 0.183229
Si Si7 0.405852 0.658219 0.813097
O O1 0.850546 0.314930 0.605201
O O2 0.751891 0.419665 0.220200
O O3 0.948448 0.201968 0.551621
O O4 0.013772 0.573952 0.237761
O O5 0.495053 0.064073 0.773662
O O6 0.581286 0.463428 0.383422
O O7 0.431962 0.283193 0.712228
O O8 0.695738 0.273388 0.792599
O O9 0.534782 0.144782 0.462150
O O10 0.410379 0.761764 0.855156
O O11 0.647100 0.864000 0.931795
O O12 0.812672 0.709021 0.314798
O O13 0.871630 0.052666 0.094625
O O14 0.000000 0.000000 0.000000
O O15 0.500000 0.500000 0.000000
#
# Coordination Sequence:
#
# PCOD9081808 Si02
#       7
#     2   2   2   2   2   2   2
#     4  10  20  35  53  84 120 148 192 241 307 348
#     4  11  21  37  59  95 121 158 197 241 302 351
#     4  11  22  37  59  87 122 154 201 245 292 355
#     4  11  22  36  62  91 126 153 197 248 298 360
#     4  10  19  32  55  86 118 151 184 245 306 348
#     4  10  19  32  59  86 118 147 188 250 297 357
#     4  11  24  39  60  85 120 163 200 248 292 355
#
# _framework density 21.357213000000002
#
# number of rings (size 3 to 8) (size 9 to 14) (size 15 to 20)
#    0.000    1.429    4.286    2.143    0.000    2.286 
#    0.000    0.000    0.000    1.714    0.000    0.000 
#    0.000    0.000    0.000    0.000    0.000    0.000 
#
# Total GULP energy -78033.593429 kJ/mol
# GULP energy per Si atom -5573.828102 kJ/mol
# Density = 2.130860 g / cm^3
# Si number density = 21.357213 Si / 1000 Ang^3
#
#
#
# Elastic Constant Matrix: (Units=GPa)
#
#
# Indices 1 2 3 4 5 6 
#
# 1 83.4729 45.6567 24.6253 1.3172 20.3269 22.7017
# 2 45.6567 135.7435 36.2445 -9.4388 16.4637 15.3793
# 3 24.6253 36.2445 115.6469 -16.5893 31.9908 10.2488
# 4 1.3172 -9.4388 -16.5893 31.3412 9.2450 6.6387
# 5 20.3269 16.4637 31.9908 9.2450 36.1926 -1.7378
# 6 22.7017 15.3793 10.2488 6.6387 -1.7378 31.4335
#
#
#
# Elastic Compliance Matrix: (Units=1/GPa)
#
#
# Indices 1 2 3 4 5 6 
#
# 1 0.021877 -0.003618 0.004416 0.009508 -0.017860 -0.018465
# 2 -0.003618 0.009778 -0.000447 0.004511 -0.003325 -0.003162
# 3 0.004416 -0.000447 0.018927 0.020163 -0.024866 -0.014775
# 4 0.009508 0.004511 0.020163 0.062772 -0.042749 -0.031268
# 5 -0.017860 -0.003325 -0.024866 -0.042749 0.073788 0.035741
# 6 -0.018465 -0.003162 -0.014775 -0.031268 0.035741 0.060093
#
#
# Mechanical properties :
#
#
# Convention : Reuss Voigt Hill
#
# Bulk Modulus (GPa) = 19.49905 60.87958 40.18931
# Shear Modulus (GPa) = 18.96609 35.01592 26.99101
#
# Velocity S-wave (km/s) = 2.98324 4.05351 3.55884
# Velocity P-wave (km/s) = 4.58433 7.10459 5.97876
#
# Compressibility (1/GPa) = 0.05128455
#
# Stress axis : x y z
#
# Youngs Moduli (GPa) = 45.71004 102.26746 52.83412
#
# Poissons Ratio (x) = 0.37002 -0.23334
# Poissons Ratio (y) = 0.16538 0.02363
# Poissons Ratio (z) = -0.20187 0.04574
#
# Static dielectric constant tensor:
#      x y z
#    x 1.810650 -0.042930 0.023480 
#    y -0.042930 1.854990 -0.005220 
#    z 0.023480 -0.005220 1.879800 
# 
# From -- ./inp_files/430846.got.cif
#   From: 2010.05.17/outbox.cif.g08.bks.cpg/sg2_216_cif.got.tgz:430846.got - 2010.06.03 11:33:40.
