data_PCOD9081594
_publ_section_title
;
Structure prediction by ZEFSAII (Michael W. Deem and Ramdas Pophale) SiO2 
 PCOD9081594
Probable space group: P -1
;
_chemical_formula_sum "Si O2"
_cell_formula_units_Z 16
_cell_length_a 8.287128
_cell_length_b 12.603119
_cell_length_c 16.415926
_cell_angle_alpha 110.854744
_cell_angle_beta 35.556126
_cell_angle_gamma 96.149893
_cell_volume 877.576387
_symmetry_space_group_name_H-M "P -1"
_symmetry_group_IT_number 2
_symmetry_cell_setting 'triclinic'
loop_
_space_group_symop_operation_xyz
x,y,z
-x,-y,-z
loop_
_atom_site_type_symbol
_atom_site_label
_atom_site_fract_x
_atom_site_fract_y
_atom_site_fract_z
Si Si1 0.522956 0.781186 0.556225
Si Si2 0.831159 0.904313 0.057647
Si Si3 0.839907 0.729215 0.701184
Si Si4 0.629392 0.314954 0.235513
Si Si5 0.915548 0.060102 0.348238
Si Si6 0.717013 0.987369 0.568267
Si Si7 0.490802 0.560526 0.432399
Si Si8 0.501804 0.113501 0.975595
O O1 0.410164 0.738474 0.673838
O O2 0.255115 0.881661 0.647461
O O3 0.624091 0.667107 0.422734
O O4 0.750707 0.848046 0.502411
O O5 0.572007 0.955624 0.242979
O O6 0.684667 0.882864 0.027771
O O7 0.076061 0.779208 0.948219
O O8 0.000000 0.000000 0.000000
O O9 0.647116 0.686585 0.704882
O O10 0.913559 0.847069 0.671272
O O11 0.152430 0.628891 0.564487
O O12 0.650822 0.772388 0.873466
O O13 0.634491 0.449494 0.282839
O O14 0.698791 0.051260 0.505948
O O15 0.154520 0.927998 0.200288
O O16 0.000000 0.000000 0.500000
O O17 0.500000 0.500000 0.500000
O O18 0.500000 0.000000 0.000000
#
# Coordination Sequence:
#
# PCOD9081594 Si02
#       8
#     2   2   2   2   2   2   2   2
#     4  10  21  36  58  79 116 154 189 236 287 338
#     4  12  22  35  58  86 119 149 190 242 291 339
#     4  10  20  33  59  85 119 149 191 241 283 338
#     4  11  20  35  58  88 112 148 196 246 281 335
#     4  10  20  36  52  84 117 157 184 230 290 355
#     4  12  23  37  56  86 121 153 189 233 294 353
#     4   9  19  36  57  85 112 149 195 241 285 332
#     4  10  19  32  52  81 120 146 185 229 292 332
#
# _framework density 18.232030000000002
#
# number of rings (size 3 to 8) (size 9 to 14) (size 15 to 20)
#    0.000    1.500    2.500    6.000    1.750    0.000 
#    0.000    0.000    0.000    3.750    3.250    0.000 
#    0.000    0.000    0.000    0.000    0.000    0.000 
#
# Total GULP energy -89268.288017 kJ/mol
# GULP energy per Si atom -5579.268001 kJ/mol
# Density = 1.819053 g / cm^3
# Si number density = 18.232030 Si / 1000 Ang^3
#
#
#
# Elastic Constant Matrix: (Units=GPa)
#
#
# Indices 1 2 3 4 5 6 
#
# 1 93.8373 36.3210 29.1320 3.5630 2.2546 11.9060
# 2 36.3210 81.6102 51.1927 17.3799 -2.2153 23.2266
# 3 29.1320 51.1927 109.6199 8.1527 5.6454 7.9339
# 4 3.5630 17.3799 8.1527 32.4211 -4.3901 4.0294
# 5 2.2546 -2.2153 5.6454 -4.3901 25.2691 1.5680
# 6 11.9060 23.2266 7.9339 4.0294 1.5680 36.5720
#
#
#
# Elastic Compliance Matrix: (Units=1/GPa)
#
#
# Indices 1 2 3 4 5 6 
#
# 1 0.013104 -0.005373 -0.000983 0.001636 -0.001088 -0.000774
# 2 -0.005373 0.025893 -0.009350 -0.008920 0.004024 -0.011857
# 3 -0.000983 -0.009350 0.013649 0.000745 -0.003862 0.003381
# 4 0.001636 -0.008920 0.000745 0.035847 0.005084 0.000803
# 5 -0.001088 0.004024 -0.003862 0.005084 0.042001 -0.003725
# 6 -0.000774 -0.011857 0.003381 0.000803 -0.003725 0.034463
#
#
# Mechanical properties :
#
#
# Convention : Reuss Voigt Hill
#
# Bulk Modulus (GPa) = 47.09401 57.59542 52.34472
# Shear Modulus (GPa) = 24.57643 30.08056 27.32849
#
# Velocity S-wave (km/s) = 3.67547 4.06627 3.87580
# Velocity P-wave (km/s) = 6.62560 7.32836 6.98582
#
# Compressibility (1/GPa) = 0.02123412
#
# Stress axis : x y z
#
# Youngs Moduli (GPa) = 76.31367 38.62019 73.26639
#
# Poissons Ratio (x) = 0.20752 0.07200
# Poissons Ratio (y) = 0.41005 0.68503
# Poissons Ratio (z) = 0.07499 0.36110
#
# Static dielectric constant tensor:
#      x y z
#    x 1.670010 0.024530 0.003180 
#    y 0.024530 1.636530 0.012140 
#    z 0.003180 0.012140 1.673030 
# 
# From -- ./inp_files/202117.got.cif
#   From: 2010.05.17/outbox.cif.g08.bks.cpg/sg2_102_cif.got.tgz:202117.got - 2010.06.03 11:33:40.
