data_PCOD9081847
_publ_section_title
;
Structure prediction by ZEFSAII (Michael W. Deem and Ramdas Pophale) SiO2 
 PCOD9081847
Probable space group: P -1
;
_chemical_formula_sum "Si O2"
_cell_formula_units_Z 16
_cell_length_a 12.962967
_cell_length_b 10.060357
_cell_length_c 18.984598
_cell_angle_alpha 49.628880
_cell_angle_beta 151.177963
_cell_angle_gamma 146.000984
_cell_volume 638.411717
_symmetry_space_group_name_H-M "P -1"
_symmetry_group_IT_number 2
_symmetry_cell_setting 'triclinic'
loop_
_space_group_symop_operation_xyz
x,y,z
-x,-y,-z
loop_
_atom_site_type_symbol
_atom_site_label
_atom_site_fract_x
_atom_site_fract_y
_atom_site_fract_z
Si Si1 0.016178 0.593484 0.620165
Si Si2 0.341750 0.593018 0.654495
Si Si3 0.872525 0.883000 0.631179
Si Si4 0.402431 0.242066 0.100561
Si Si5 0.583371 0.655639 0.392382
Si Si6 0.977383 0.689900 0.092463
Si Si7 0.457317 0.662333 0.164764
Si Si8 0.570458 0.105733 0.595519
O O1 0.343679 0.725359 0.800347
O O2 0.981978 0.603941 0.511450
O O3 0.843284 0.659797 0.526917
O O4 0.789296 0.300952 0.598955
O O5 0.382702 0.583335 0.764336
O O6 0.520681 0.535227 0.747602
O O7 0.521433 0.873671 0.651202
O O8 0.750555 0.846278 0.491617
O O9 0.704006 0.617486 0.654059
O O10 0.740038 0.966685 0.567781
O O11 0.234046 0.087600 0.771929
O O12 0.227087 0.326799 0.963423
O O13 0.146557 0.948916 0.065386
O O14 0.476363 0.713763 0.242439
O O15 0.231667 0.731769 0.272210
O O16 0.804620 0.474775 0.004141
#
# Coordination Sequence:
#
# PCOD9081847 Si02
#       8
#     2   2   2   2   2   2   2   2
#     4  10  19  32  56  83 105 142 187 227 275 312
#     4   9  19  31  52  82 110 133 180 224 267 325
#     4  10  21  38  62  80 111 140 183 234 279 305
#     4   9  18  33  52  72 113 152 172 219 270 327
#     4   9  21  39  58  86 106 136 192 236 263 324
#     4   9  20  35  49  78 115 145 181 209 273 336
#     4  10  20  37  59  81 107 151 180 222 275 329
#     4  10  21  34  53  84 114 143 175 227 271 331
#
# _framework density 25.062197000000001
#
# number of rings (size 3 to 8) (size 9 to 14) (size 15 to 20)
#    0.000    2.500    0.000    1.875   10.500    0.500 
#    2.250    0.625    0.000    2.250    0.000    0.000 
#    0.000    0.000    0.000    0.000    0.000    0.000 
#
# Total GULP energy -89143.163455 kJ/mol
# GULP energy per Si atom -5571.447716 kJ/mol
# Density = 2.500515 g / cm^3
# Si number density = 25.062197 Si / 1000 Ang^3
#
#
#
# Elastic Constant Matrix: (Units=GPa)
#
#
# Indices 1 2 3 4 5 6 
#
# 1 54.5356 13.5582 25.5908 14.3536 6.0809 1.7162
# 2 13.5582 86.5339 3.6117 22.4325 7.7375 16.4761
# 3 25.5908 3.6117 102.8729 16.7899 -5.0890 8.2216
# 4 14.3536 22.4325 16.7899 32.1643 -1.4415 5.7965
# 5 6.0809 7.7375 -5.0890 -1.4415 36.2991 1.6793
# 6 1.7162 16.4761 8.2216 5.7965 1.6793 28.0007
#
#
#
# Elastic Compliance Matrix: (Units=1/GPa)
#
#
# Indices 1 2 3 4 5 6 
#
# 1 0.023504 -0.001668 -0.005038 -0.007419 -0.004714 0.002839
# 2 -0.001668 0.016124 0.001996 -0.010293 -0.002932 -0.007665
# 3 -0.005038 0.001996 0.012059 -0.004705 0.002087 -0.003558
# 4 -0.007419 -0.010293 -0.004705 0.044532 0.004620 -0.001603
# 5 -0.004714 -0.002932 0.002087 0.004620 0.029501 -0.001324
# 6 0.002839 -0.007665 -0.003558 -0.001603 -0.001324 0.041506
#
#
# Mechanical properties :
#
#
# Convention : Reuss Voigt Hill
#
# Bulk Modulus (GPa) = 23.65812 36.60707 30.13259
# Shear Modulus (GPa) = 26.21454 32.70494 29.45974
#
# Velocity S-wave (km/s) = 3.23767 3.61633 3.43223
# Velocity P-wave (km/s) = 4.84117 5.66351 5.26841
#
# Compressibility (1/GPa) = 0.04226879
#
# Stress axis : x y z
#
# Youngs Moduli (GPa) = 42.54567 62.01874 82.92405
#
# Poissons Ratio (x) = 0.10346 0.41774
# Poissons Ratio (y) = 0.07097 -0.16555
# Poissons Ratio (z) = 0.21433 -0.12382
#
# Static dielectric constant tensor:
#      x y z
#    x 2.290850 -0.022930 0.017260 
#    y -0.022930 1.950270 -0.010950 
#    z 0.017260 -0.010950 2.076140 
# 
# From -- ./inp_files/178938.got.cif
#   From: 2010.05.17/outbox.cif.g08.bks.cpg/sg2_90_cif.got.tgz:178938.got - 2010.06.03 11:33:40.
