data_PCOD9081106
_publ_section_title
;
Structure prediction by ZEFSAII (Michael W. Deem and Ramdas Pophale) SiO2 
 PCOD9081106
Probable space group: P -1
;
_chemical_formula_sum "Si O2"
_cell_formula_units_Z 16
_cell_length_a 8.198440
_cell_length_b 7.771939
_cell_length_c 10.864653
_cell_angle_alpha 107.990468
_cell_angle_beta 80.349411
_cell_angle_gamma 120.356684
_cell_volume 568.095980
_symmetry_space_group_name_H-M "P -1"
_symmetry_group_IT_number 2
_symmetry_cell_setting 'triclinic'
loop_
_space_group_symop_operation_xyz
x,y,z
-x,-y,-z
loop_
_atom_site_type_symbol
_atom_site_label
_atom_site_fract_x
_atom_site_fract_y
_atom_site_fract_z
Si Si1 0.674037 0.886398 0.893139
Si Si2 0.071851 0.791016 0.559426
Si Si3 0.861655 0.056091 0.672082
Si Si4 0.442234 0.761388 0.554323
Si Si5 0.303558 0.302790 0.933092
Si Si6 0.695550 0.425973 0.227227
Si Si7 0.942869 0.556150 0.893094
Si Si8 0.276472 0.499896 0.301621
O O1 0.807821 0.069928 0.824545
O O2 0.453572 0.786900 0.868848
O O3 0.696758 0.693297 0.786540
O O4 0.691447 0.887472 0.039525
O O5 0.282313 0.836770 0.583585
O O6 0.094384 0.404377 0.392921
O O7 0.007423 0.963537 0.636459
O O8 0.054710 0.774736 0.409415
O O9 0.653764 0.911787 0.606095
O O10 0.368534 0.582317 0.627011
O O11 0.437460 0.673756 0.400417
O O12 0.285534 0.382491 0.817010
O O13 0.500000 0.500000 0.000000
O O14 0.116857 0.277646 0.020472
O O15 0.880889 0.401950 0.200545
O O16 0.762523 0.411803 0.799231
O O17 0.000000 0.500000 0.000000
#
# Coordination Sequence:
#
# PCOD9081106 Si02
#       8
#     2   2   2   2   2   2   2   2
#     4   8  16  29  45  65  98 123 163 201 241 287
#     4  10  19  33  49  69 103 132 171 202 238 297
#     4   9  20  33  48  70  98 139 171 198 244 292
#     4  11  20  32  49  74 108 127 162 206 256 298
#     4   8  14  26  42  62  92 122 156 200 240 283
#     4   9  16  25  42  68  94 126 154 193 254 290
#     4   9  16  27  43  66  97 121 158 196 242 295
#     4  10  19  31  47  74 101 129 157 209 254 291
#
# _framework density 28.164255000000001
#
# number of rings (size 3 to 8) (size 9 to 14) (size 15 to 20)
#    0.000    2.750    1.250    0.750    0.000    4.500 
#    0.000    0.000    0.000    0.000    0.000    1.750 
#    7.500    0.125    0.000    0.000    0.000    0.000 
#
# Total GULP energy -89204.148084 kJ/mol
# GULP energy per Si atom -5575.259255 kJ/mol
# Density = 2.810015 g / cm^3
# Si number density = 28.164255 Si / 1000 Ang^3
#
#
#
# Elastic Constant Matrix: (Units=GPa)
#
#
# Indices 1 2 3 4 5 6 
#
# 1 176.9723 42.5422 33.6019 10.3767 5.9646 -12.5044
# 2 42.5422 106.5979 62.9269 -22.8923 9.1387 -7.6147
# 3 33.6019 62.9269 97.9816 -33.6914 24.0806 -7.7241
# 4 10.3767 -22.8923 -33.6914 47.9204 0.4728 14.6806
# 5 5.9646 9.1387 24.0806 0.4728 57.2450 -16.2245
# 6 -12.5044 -7.6147 -7.7241 14.6806 -16.2245 39.9610
#
#
#
# Elastic Compliance Matrix: (Units=1/GPa)
#
#
# Indices 1 2 3 4 5 6 
#
# 1 0.007530 -0.002077 -0.003847 -0.006812 0.002572 0.004764
# 2 -0.002077 0.016015 -0.009637 0.001007 0.001981 0.000973
# 3 -0.003847 -0.009637 0.025797 0.017278 -0.011642 -0.009128
# 4 -0.006812 0.001007 0.017278 0.040788 -0.012324 -0.018588
# 5 0.002572 0.001981 -0.011642 -0.012324 0.025837 0.013950
# 6 0.004764 0.000973 -0.009128 -0.018588 0.013950 0.037429
#
#
# Mechanical properties :
#
#
# Convention : Reuss Voigt Hill
#
# Bulk Modulus (GPa) = 54.88583 73.29930 64.09257
# Shear Modulus (GPa) = 26.23417 45.19067 35.71242
#
# Velocity S-wave (km/s) = 3.05531 4.01002 3.56477
# Velocity P-wave (km/s) = 5.65479 6.89365 6.30472
#
# Compressibility (1/GPa) = 0.01821964
#
# Stress axis : x y z
#
# Youngs Moduli (GPa) = 132.80663 62.44267 38.76397
#
# Poissons Ratio (x) = 0.12970 0.14914
# Poissons Ratio (y) = 0.27585 0.37355
# Poissons Ratio (z) = 0.51094 0.60173
#
# Static dielectric constant tensor:
#      x y z
#    x 2.361440 0.001390 -0.148920 
#    y 0.001390 2.272920 -0.000350 
#    z -0.148920 -0.000350 2.316120 
# 
# From -- ./inp_files/388036.got.cif
#   From: 2010.05.17/outbox.cif.g08.bks.cpg/sg2_195_cif.got.tgz:388036.got - 2010.06.03 11:33:40.
