data_PCOD9081010
_publ_section_title
;
Structure prediction by ZEFSAII (Michael W. Deem and Ramdas Pophale) SiO2 
 PCOD9081010
Probable space group: P -1
;
_chemical_formula_sum "Si O2"
_cell_formula_units_Z 16
_cell_length_a 12.610875
_cell_length_b 11.081042
_cell_length_c 19.956114
_cell_angle_alpha 113.256407
_cell_angle_beta 38.535928
_cell_angle_gamma 144.573482
_cell_volume 746.122204
_symmetry_space_group_name_H-M "P -1"
_symmetry_group_IT_number 2
_symmetry_cell_setting 'triclinic'
loop_
_space_group_symop_operation_xyz
x,y,z
-x,-y,-z
loop_
_atom_site_type_symbol
_atom_site_label
_atom_site_fract_x
_atom_site_fract_y
_atom_site_fract_z
Si Si1 0.785099 0.562760 0.643581
Si Si2 0.410599 0.671204 0.616176
Si Si3 0.860042 0.301602 0.702728
Si Si4 0.044036 0.877531 0.460323
Si Si5 0.743620 0.212939 0.032155
Si Si6 0.967197 0.079058 0.308704
Si Si7 0.075075 0.856279 0.191401
Si Si8 0.360100 0.764707 0.443870
O O1 0.589294 0.296972 0.658214
O O2 0.199548 0.791982 0.503501
O O3 0.774165 0.641069 0.598778
O O4 0.716045 0.610315 0.750731
O O5 0.554411 0.857016 0.646944
O O6 0.728105 0.878626 0.449291
O O7 0.068953 0.497475 0.707324
O O8 0.277590 0.441532 0.660896
O O9 0.026387 0.486775 0.596395
O O10 0.984597 0.235777 0.613176
O O11 0.443907 0.000431 0.862463
O O12 0.000000 0.000000 0.500000
O O13 0.420609 0.059956 0.113576
O O14 0.912890 0.224796 0.898944
O O15 0.000000 0.500000 0.000000
O O16 0.714591 0.990259 0.363566
O O17 0.068633 0.006845 0.213599
#
# Coordination Sequence:
#
# PCOD9081010 Si02
#       8
#     2   2   2   2   2   2   2   2
#     4   9  19  31  47  76 110 137 163 200 250 311
#     4   9  19  30  46  73 109 129 155 204 252 308
#     4   9  19  33  51  71  98 139 168 204 256 300
#     4  10  20  27  47  79 109 132 161 195 252 312
#     4  10  21  36  49  69 104 140 174 215 255 302
#     4  10  19  30  52  77 103 133 166 210 257 303
#     4  10  21  32  49  74 103 136 174 207 256 309
#     4   9  18  34  51  75 105 134 169 205 252 310
#
# _framework density 21.444206999999999
#
# number of rings (size 3 to 8) (size 9 to 14) (size 15 to 20)
#    0.000    2.500    0.000    1.500   12.250    1.000 
#    0.000    0.000    0.000    0.750    0.000    8.750 
#    0.000    0.000    0.000    0.000    0.000    0.000 
#
# Total GULP energy -89094.652946 kJ/mol
# GULP energy per Si atom -5568.415809 kJ/mol
# Density = 2.139540 g / cm^3
# Si number density = 21.444207 Si / 1000 Ang^3
#
#
#
# Elastic Constant Matrix: (Units=GPa)
#
#
# Indices 1 2 3 4 5 6 
#
# 1 57.0850 6.4903 13.3206 11.6103 6.2321 -4.8152
# 2 6.4903 97.6686 23.8088 17.1600 7.8820 18.4043
# 3 13.3206 23.8088 44.5302 10.3908 6.8287 2.7089
# 4 11.6103 17.1600 10.3908 29.7263 -1.6868 0.2379
# 5 6.2321 7.8820 6.8287 -1.6868 13.9821 7.4961
# 6 -4.8152 18.4043 2.7089 0.2379 7.4961 40.9113
#
#
#
# Elastic Compliance Matrix: (Units=1/GPa)
#
#
# Indices 1 2 3 4 5 6 
#
# 1 0.021645 0.001015 -0.003459 -0.008549 -0.012013 0.004571
# 2 0.001015 0.013902 -0.005266 -0.006758 -0.003828 -0.005045
# 3 -0.003459 -0.005266 0.029545 -0.006631 -0.011913 0.002227
# 4 -0.008549 -0.006758 -0.006631 0.044148 0.016630 -0.000831
# 5 -0.012013 -0.003828 -0.011913 0.016630 0.095724 -0.016539
# 6 0.004571 -0.005045 0.002227 -0.000831 -0.016539 0.030138
#
#
# Mechanical properties :
#
#
# Convention : Reuss Voigt Hill
#
# Bulk Modulus (GPa) = 20.13135 31.83590 25.98362
# Shear Modulus (GPa) = 18.72102 27.30154 23.01128
#
# Velocity S-wave (km/s) = 2.95788 3.57198 3.27934
# Velocity P-wave (km/s) = 4.59060 5.64714 5.14606
#
# Compressibility (1/GPa) = 0.04967377
#
# Stress axis : x y z
#
# Youngs Moduli (GPa) = 46.19969 71.93336 33.84629
#
# Poissons Ratio (x) = -0.07301 0.11706
# Poissons Ratio (y) = -0.04689 0.17822
# Poissons Ratio (z) = 0.15978 0.37878
#
# Static dielectric constant tensor:
#      x y z
#    x 1.837310 0.021870 -0.001030 
#    y 0.021870 1.826930 -0.022700 
#    z -0.001030 -0.022700 1.799230 
# 
# From -- ./inp_files/433960.got.cif
#   From: 2010.05.17/outbox.cif.g08.bks.cpg/sg2_217_cif.got.tgz:433960.got - 2010.06.03 11:33:40.
