data_PCOD9081876
_publ_section_title
;
Structure prediction by ZEFSAII (Michael W. Deem and Ramdas Pophale) SiO2 
 PCOD9081876
Probable space group: P -1
;
_chemical_formula_sum "Si O2"
_cell_formula_units_Z 14
_cell_length_a 10.282248
_cell_length_b 19.924032
_cell_length_c 17.873773
_cell_angle_alpha 158.591100
_cell_angle_beta 141.510065
_cell_angle_gamma 32.107146
_cell_volume 710.078445
_symmetry_space_group_name_H-M "P -1"
_symmetry_group_IT_number 2
_symmetry_cell_setting 'triclinic'
loop_
_space_group_symop_operation_xyz
x,y,z
-x,-y,-z
loop_
_atom_site_type_symbol
_atom_site_label
_atom_site_fract_x
_atom_site_fract_y
_atom_site_fract_z
Si Si1 0.007175 0.362536 0.989309
Si Si2 0.738700 0.943340 0.613437
Si Si3 0.812619 0.833975 0.375541
Si Si4 0.715653 0.509094 0.151368
Si Si5 0.528548 0.485520 0.804342
Si Si6 0.212622 0.959291 0.108706
Si Si7 0.379001 0.949721 0.643280
O O1 0.777227 0.408870 0.882211
O O2 0.230229 0.135818 0.829021
O O3 0.011632 0.580773 0.201215
O O4 0.945403 0.365635 0.052138
O O5 0.839105 0.942535 0.575372
O O6 0.714252 0.732706 0.387688
O O7 0.456411 0.135879 0.698245
O O8 0.878885 0.963218 0.767083
O O9 0.769043 0.957046 0.405904
O O10 0.676540 0.465559 0.173751
O O11 0.500000 0.500000 0.000000
O O12 0.583513 0.282210 0.568238
O O13 0.422388 0.706857 0.942536
O O14 0.356505 0.078517 0.276301
O O15 0.000000 0.000000 0.000000
#
# Coordination Sequence:
#
# PCOD9081876 Si02
#       7
#     2   2   2   2   2   2   2
#     4  10  19  32  56  89 121 141 168 227 300 342
#     4   9  16  33  51  80 111 144 184 227 263 323
#     4   9  16  28  54  80 113 142 169 221 287 332
#     4   9  18  31  54  87 113 144 180 220 282 350
#     4  11  20  35  57  83 111 146 188 223 280 338
#     4  11  24  39  57  79 109 154 201 231 262 320
#     4  11  21  36  55  87 119 144 176 234 286 334
#
# _framework density 19.716131000000001
#
# number of rings (size 3 to 8) (size 9 to 14) (size 15 to 20)
#    0.000    2.000    5.714    0.857    2.000    0.571 
#    0.000    0.000    0.000    4.286    0.000    0.000 
#    0.000    0.000    0.000    0.000    0.000    0.000 
#
# Total GULP energy -78043.862038 kJ/mol
# GULP energy per Si atom -5574.561574 kJ/mol
# Density = 1.967126 g / cm^3
# Si number density = 19.716131 Si / 1000 Ang^3
#
#
#
# Elastic Constant Matrix: (Units=GPa)
#
#
# Indices 1 2 3 4 5 6 
#
# 1 29.6622 0.3734 15.3637 -2.3745 -16.6053 0.1361
# 2 0.3734 47.9566 25.1563 -23.6240 -9.2280 0.3461
# 3 15.3637 25.1563 129.8870 -2.2800 -14.6034 -0.3517
# 4 -2.3745 -23.6240 -2.2800 21.8170 5.0783 -5.0608
# 5 -16.6053 -9.2280 -14.6034 5.0783 40.6089 0.5568
# 6 0.1361 0.3461 -0.3517 -5.0608 0.5568 10.1700
#
#
#
# Elastic Compliance Matrix: (Units=1/GPa)
#
#
# Indices 1 2 3 4 5 6 
#
# 1 0.048892 0.016103 -0.006427 0.019373 0.018819 0.007185
# 2 0.016103 0.069226 -0.012997 0.082506 0.006808 0.037663
# 3 -0.006427 -0.012997 0.010721 -0.015275 0.000276 -0.006717
# 4 0.019373 0.082506 -0.015275 0.152127 0.001166 0.072042
# 5 0.018819 0.006808 0.000276 0.001166 0.033845 -0.001747
# 6 0.007185 0.037663 -0.006717 0.072042 -0.001747 0.132662
#
#
# Mechanical properties :
#
#
# Convention : Reuss Voigt Hill
#
# Bulk Modulus (GPa) = 8.18333 32.14361 20.16347
# Shear Modulus (GPa) = 10.10413 25.62668 17.86540
#
# Velocity S-wave (km/s) = 2.26626 3.60916 3.01347
# Velocity P-wave (km/s) = 3.31775 5.80574 4.72833
#
# Compressibility (1/GPa) = 0.12219957
#
# Stress axis : x y z
#
# Youngs Moduli (GPa) = 20.45314 14.44543 93.27398
#
# Poissons Ratio (x) = -0.23262 0.59944
# Poissons Ratio (y) = -0.32937 1.21225
# Poissons Ratio (z) = 0.13145 0.18774
#
# Static dielectric constant tensor:
#      x y z
#    x 1.794320 0.038500 0.003910 
#    y 0.038500 1.671680 0.008420 
#    z 0.003910 0.008420 1.766740 
# 
# From -- ./inp_files/234584.got.cif
#   From: 2010.05.17/outbox.cif.g08.bks.cpg/sg2_118_cif.got.tgz:234584.got - 2010.06.03 11:33:40.
