data_PCOD9081916
_publ_section_title
;
Structure prediction by ZEFSAII (Michael W. Deem and Ramdas Pophale) SiO2 
 PCOD9081916
Probable space group: P -1
;
_chemical_formula_sum "Si O2"
_cell_formula_units_Z 16
_cell_length_a 11.659716
_cell_length_b 11.504686
_cell_length_c 9.009018
_cell_angle_alpha 105.275149
_cell_angle_beta 57.069656
_cell_angle_gamma 128.896768
_cell_volume 783.789233
_symmetry_space_group_name_H-M "P -1"
_symmetry_group_IT_number 2
_symmetry_cell_setting 'triclinic'
loop_
_space_group_symop_operation_xyz
x,y,z
-x,-y,-z
loop_
_atom_site_type_symbol
_atom_site_label
_atom_site_fract_x
_atom_site_fract_y
_atom_site_fract_z
Si Si1 0.314705 0.733606 0.860949
Si Si2 0.572785 0.327528 0.819471
Si Si3 0.881211 0.337033 0.602227
Si Si4 0.089202 0.815119 0.203632
Si Si5 0.370956 0.824900 0.515672
Si Si6 0.663890 0.837253 0.796967
Si Si7 0.611367 0.549686 0.652771
Si Si8 0.253106 0.436995 0.756977
O O1 0.313860 0.755251 0.693205
O O2 0.509435 0.820169 0.809820
O O3 0.223183 0.555239 0.881003
O O4 0.225821 0.800296 0.021909
O O5 0.728234 0.333729 0.784189
O O6 0.539357 0.234399 0.661110
O O7 0.637536 0.488225 0.763894
O O8 0.418592 0.242386 0.012838
O O9 0.956914 0.283714 0.646976
O O10 0.787225 0.221982 0.493395
O O11 0.000000 0.500000 0.500000
O O12 0.920772 0.728848 0.191931
O O13 0.180076 0.988886 0.235232
O O14 0.500000 0.000000 0.500000
O O15 0.697153 0.726833 0.658090
O O16 0.407327 0.462275 0.751243
O O17 0.672064 0.517122 0.448577
#
# Coordination Sequence:
#
# PCOD9081916 Si02
#       8
#     2   2   2   2   2   2   2   2
#     4  11  19  37  59  88 119 150 192 236 299 354
#     4  10  20  39  59  84 117 156 199 234 285 353
#     4  10  21  36  59  86 120 151 187 245 296 346
#     4  12  22  38  60  94 123 141 197 249 302 341
#     4  10  19  32  57  86 117 151 186 235 298 345
#     4  11  23  36  63  88 118 160 189 246 291 345
#     4  10  21  42  61  80 116 161 212 221 284 355
#     4  10  22  38  60  87 111 159 194 246 282 347
#
# _framework density 20.413651000000002
#
# number of rings (size 3 to 8) (size 9 to 14) (size 15 to 20)
#    0.750    0.750    2.500    4.125    0.000    0.500 
#    0.000    0.625    0.000    0.000    0.000    0.000 
#    0.000    0.000    0.000    0.000    0.000    0.000 
#
# Total GULP energy -89248.471989 kJ/mol
# GULP energy per Si atom -5578.029499 kJ/mol
# Density = 2.036719 g / cm^3
# Si number density = 20.413651 Si / 1000 Ang^3
#
#
#
# Elastic Constant Matrix: (Units=GPa)
#
#
# Indices 1 2 3 4 5 6 
#
# 1 55.9903 18.7351 -4.2494 11.2168 1.9122 3.7769
# 2 18.7351 122.3132 3.6547 23.3455 -14.4344 15.8247
# 3 -4.2494 3.6547 48.1570 11.5310 16.8615 -10.2525
# 4 11.2168 23.3455 11.5310 25.4284 0.1868 4.0247
# 5 1.9122 -14.4344 16.8615 0.1868 19.9577 1.4859
# 6 3.7769 15.8247 -10.2525 4.0247 1.4859 28.4726
#
#
#
# Elastic Compliance Matrix: (Units=1/GPa)
#
#
# Indices 1 2 3 4 5 6 
#
# 1 0.022849 -0.004133 0.012308 -0.012751 -0.015929 0.006332
# 2 -0.004133 0.013595 -0.008911 -0.005098 0.018584 -0.010466
# 3 0.012308 -0.008911 0.054665 -0.026318 -0.055768 0.029634
# 4 -0.012751 -0.005098 -0.026318 0.063795 0.020291 -0.015028
# 5 -0.015929 0.018584 -0.055768 0.020291 0.114765 -0.037154
# 6 0.006332 -0.010466 0.029634 -0.015028 -0.037154 0.054832
#
#
# Mechanical properties :
#
#
# Convention : Reuss Voigt Hill
#
# Bulk Modulus (GPa) = 11.15593 29.19346 20.17470
# Shear Modulus (GPa) = 14.05083 28.65975 21.35529
#
# Velocity S-wave (km/s) = 2.62640 3.75100 3.23790
# Velocity P-wave (km/s) = 3.83068 5.75256 4.88703
#
# Compressibility (1/GPa) = 0.08963839
#
# Stress axis : x y z
#
# Youngs Moduli (GPa) = 43.76613 73.55549 18.29329
#
# Poissons Ratio (x) = 0.30399 -0.22516
# Poissons Ratio (y) = 0.18088 0.16301
# Poissons Ratio (z) = -0.53869 0.65544
#
# Static dielectric constant tensor:
#      x y z
#    x 1.736450 -0.005870 -0.008580 
#    y -0.005870 1.718740 -0.017410 
#    z -0.008580 -0.017410 1.823480 
# 
# From -- ./inp_files/262796.got.cif
#   From: 2010.05.17/outbox.cif.g08.bks.cpg/sg2_132_cif.got.tgz:262796.got - 2010.06.03 11:33:40.
