data_PCOD9081342
_publ_section_title
;
Structure prediction by ZEFSAII (Michael W. Deem and Ramdas Pophale) SiO2 
 PCOD9081342
Probable space group: P -1
;
_chemical_formula_sum "Si O2"
_cell_formula_units_Z 16
_cell_length_a 11.927487
_cell_length_b 8.146905
_cell_length_c 14.709077
_cell_angle_alpha 136.952970
_cell_angle_beta 57.128584
_cell_angle_gamma 98.432559
_cell_volume 737.424743
_symmetry_space_group_name_H-M "P -1"
_symmetry_group_IT_number 2
_symmetry_cell_setting 'triclinic'
loop_
_space_group_symop_operation_xyz
x,y,z
-x,-y,-z
loop_
_atom_site_type_symbol
_atom_site_label
_atom_site_fract_x
_atom_site_fract_y
_atom_site_fract_z
Si Si1 0.926076 0.375688 0.552617
Si Si2 0.363269 0.343847 0.468271
Si Si3 0.706704 0.876426 0.947307
Si Si4 0.172071 0.879918 0.853475
Si Si5 0.437550 0.736970 0.998234
Si Si6 0.775165 0.014974 0.663928
Si Si7 0.374421 0.852068 0.604507
Si Si8 0.673567 0.220821 0.594015
O O1 0.847232 0.593753 0.754132
O O2 0.793086 0.324243 0.548116
O O3 0.000000 0.500000 0.500000
O O4 0.057549 0.108996 0.426311
O O5 0.242561 0.561768 0.676201
O O6 0.286558 0.207005 0.384930
O O7 0.419037 0.530529 0.461433
O O8 0.496923 0.132386 0.384546
O O9 0.665952 0.039075 0.936613
O O10 0.566099 0.818985 0.008029
O O11 0.744962 0.042953 0.072375
O O12 0.220429 0.980036 0.779813
O O13 0.000000 0.000000 0.000000
O O14 0.334628 0.736405 0.126772
O O15 0.524207 0.464923 0.794199
O O16 0.752334 0.066785 0.588151
O O17 0.358000 0.925660 0.536547
#
# Coordination Sequence:
#
# PCOD9081342 Si02
#       8
#     2   2   2   2   2   2   2   2
#     4  11  22  38  60  87 113 148 193 234 284 337
#     4   9  20  35  59  79 112 145 197 231 276 323
#     4  10  20  35  59  88 110 141 194 247 278 318
#     4  10  19  31  55  85 108 138 188 243 274 315
#     4  10  22  35  59  84 113 147 192 236 286 332
#     4  12  22  38  58  85 119 155 184 231 291 347
#     4   9  20  37  56  80 113 144 196 232 274 330
#     4  11  24  38  56  85 123 152 183 230 293 349
#
# _framework density 21.697129
#
# number of rings (size 3 to 8) (size 9 to 14) (size 15 to 20)
#    0.750    1.000    1.250    3.750    5.250    0.500 
#    0.000    0.000    0.000    3.000    0.000    0.000 
#    0.000    0.000    0.000    0.000    0.000    0.000 
#
# Total GULP energy -89322.286574 kJ/mol
# GULP energy per Si atom -5582.642911 kJ/mol
# Density = 2.164775 g / cm^3
# Si number density = 21.697129 Si / 1000 Ang^3
#
#
#
# Elastic Constant Matrix: (Units=GPa)
#
#
# Indices 1 2 3 4 5 6 
#
# 1 78.7762 11.9031 52.0830 -16.1454 0.0295 -18.3844
# 2 11.9031 53.7171 4.6550 -18.6233 -9.9478 -19.9050
# 3 52.0830 4.6550 129.2901 -20.6748 -23.7129 -11.6114
# 4 -16.1454 -18.6233 -20.6748 24.4814 -0.9892 6.5176
# 5 0.0295 -9.9478 -23.7129 -0.9892 33.5345 1.6277
# 6 -18.3844 -19.9050 -11.6114 6.5176 1.6277 30.4426
#
#
#
# Elastic Compliance Matrix: (Units=1/GPa)
#
#
# Indices 1 2 3 4 5 6 
#
# 1 0.021040 -0.000467 -0.008172 0.004037 -0.006241 0.008754
# 2 -0.000467 0.041553 0.009682 0.034339 0.019108 0.022207
# 3 -0.008172 0.009682 0.016093 0.015223 0.014538 0.003497
# 4 0.004037 0.034339 0.015223 0.080123 0.022712 0.012328
# 5 -0.006241 0.019108 0.014538 0.022712 0.046107 0.006942
# 6 0.008754 0.022207 0.003497 0.012328 0.006942 0.050979
#
#
# Mechanical properties :
#
#
# Convention : Reuss Voigt Hill
#
# Bulk Modulus (GPa) = 12.38044 44.34063 28.36053
# Shear Modulus (GPa) = 17.81058 30.56786 24.18922
#
# Velocity S-wave (km/s) = 2.86820 3.75753 3.34257
# Velocity P-wave (km/s) = 4.08499 6.26944 5.29117
#
# Compressibility (1/GPa) = 0.08077258
#
# Stress axis : x y z
#
# Youngs Moduli (GPa) = 47.52796 24.06569 62.13995
#
# Poissons Ratio (x) = 0.01123 0.50781
# Poissons Ratio (y) = 0.02218 -0.60164
# Poissons Ratio (z) = 0.38840 -0.23300
#
# Static dielectric constant tensor:
#      x y z
#    x 1.768930 0.023460 -0.005680 
#    y 0.023460 1.883570 -0.008290 
#    z -0.005680 -0.008290 1.801320 
# 
# From -- ./inp_files/514680.got.cif
#   From: 2010.05.17/outbox.cif.g08.bks.cpg/sg2_258_cif.got.tgz:514680.got - 2010.06.03 11:33:40.
