data_PCOD9081756
_publ_section_title
;
Structure prediction by ZEFSAII (Michael W. Deem and Ramdas Pophale) SiO2 
 PCOD9081756
Probable space group: P -1
;
_chemical_formula_sum "Si O2"
_cell_formula_units_Z 16
_cell_length_a 15.396015
_cell_length_b 9.972856
_cell_length_c 11.861134
_cell_angle_alpha 65.486138
_cell_angle_beta 140.481417
_cell_angle_gamma 140.434958
_cell_volume 661.566098
_symmetry_space_group_name_H-M "P -1"
_symmetry_group_IT_number 2
_symmetry_cell_setting 'triclinic'
loop_
_space_group_symop_operation_xyz
x,y,z
-x,-y,-z
loop_
_atom_site_type_symbol
_atom_site_label
_atom_site_fract_x
_atom_site_fract_y
_atom_site_fract_z
Si Si1 0.233434 0.768500 0.758329
Si Si2 0.532772 0.085137 0.376516
Si Si3 0.105506 0.851870 0.988128
Si Si4 0.604818 0.428797 0.613116
Si Si5 0.240923 0.525098 0.668842
Si Si6 0.809517 0.065660 0.694397
Si Si7 0.780327 0.720990 0.087610
Si Si8 0.600070 0.313010 0.900558
O O1 0.310287 0.709512 0.764873
O O2 0.008893 0.652406 0.540925
O O3 0.397483 0.043528 0.833065
O O4 0.210937 0.644325 0.889110
O O5 0.628318 0.326493 0.363922
O O6 0.500000 0.000000 0.500000
O O7 0.294253 0.887175 0.148480
O O8 0.734180 0.148504 0.524069
O O9 0.084503 0.835892 0.109873
O O10 0.861784 0.635408 0.769671
O O11 0.210023 0.095481 0.970401
O O12 0.500000 0.500000 0.500000
O O13 0.423355 0.208231 0.427224
O O14 0.584643 0.330010 0.747638
O O15 0.268729 0.390772 0.800856
O O16 0.975094 0.117831 0.763286
O O17 0.635748 0.499905 0.933710
#
# Coordination Sequence:
#
# PCOD9081756 Si02
#       8
#     2   2   2   2   2   2   2   2
#     4   9  19  33  58  90 118 143 201 255 293 343
#     4  10  23  39  61  84 122 161 197 241 304 358
#     4  11  24  40  57  91 124 163 197 240 301 356
#     4  12  22  34  63  90 123 156 198 248 296 350
#     4  10  19  35  59  85 115 158 197 244 299 352
#     4  11  21  40  62  92 119 157 203 249 293 350
#     4  11  20  36  63  86 121 152 200 254 291 348
#     4  10  19  32  54  92 116 151 189 254 302 338
#
# _framework density 24.185036
#
# number of rings (size 3 to 8) (size 9 to 14) (size 15 to 20)
#    0.000    1.500    2.500    4.875    1.750    1.000 
#    0.000    0.000    8.250    0.750    0.000    0.000 
#    0.000    0.000    0.000    0.000    0.000    0.000 
#
# Total GULP energy -89253.795578 kJ/mol
# GULP energy per Si atom -5578.362224 kJ/mol
# Density = 2.412999 g / cm^3
# Si number density = 24.185036 Si / 1000 Ang^3
#
#
#
# Elastic Constant Matrix: (Units=GPa)
#
#
# Indices 1 2 3 4 5 6 
#
# 1 32.4587 20.7594 19.5034 -9.4879 3.1964 6.2167
# 2 20.7594 134.2286 34.3953 -5.9739 -3.7763 11.9624
# 3 19.5034 34.3953 112.7014 12.9167 22.2007 -2.2828
# 4 -9.4879 -5.9739 12.9167 60.3435 0.7053 -7.1090
# 5 3.1964 -3.7763 22.2007 0.7053 30.9592 -8.7553
# 6 6.2167 11.9624 -2.2828 -7.1090 -8.7553 28.6517
#
#
#
# Elastic Compliance Matrix: (Units=1/GPa)
#
#
# Indices 1 2 3 4 5 6 
#
# 1 0.040451 -0.003813 -0.006296 0.006564 -0.002177 -0.006723
# 2 -0.003813 0.009051 -0.002781 0.000606 0.002871 -0.002146
# 3 -0.006296 -0.002781 0.013034 -0.003970 -0.008993 -0.000167
# 4 0.006564 0.000606 -0.003970 0.018900 0.002818 0.003557
# 5 -0.002177 0.002871 -0.008993 0.002818 0.042744 0.012318
# 6 -0.006723 -0.002146 -0.000167 0.003557 0.012318 0.041890
#
#
# Mechanical properties :
#
#
# Convention : Reuss Voigt Hill
#
# Bulk Modulus (GPa) = 27.20586 47.63388 37.41987
# Shear Modulus (GPa) = 24.49763 37.63959 31.06861
#
# Velocity S-wave (km/s) = 3.18610 3.94930 3.58805
# Velocity P-wave (km/s) = 4.98081 6.36666 5.71589
#
# Compressibility (1/GPa) = 0.03675679
#
# Stress axis : x y z
#
# Youngs Moduli (GPa) = 24.72151 110.48271 76.72004
#
# Poissons Ratio (x) = 0.42123 0.48304
# Poissons Ratio (y) = 0.09425 0.21336
# Poissons Ratio (z) = 0.15565 0.30725
#
# Static dielectric constant tensor:
#      x y z
#    x 2.130800 -0.101250 -0.009470 
#    y -0.101250 2.043080 0.010610 
#    z -0.009470 0.010610 1.983490 
# 
# From -- ./inp_files/470936.got.cif
#   From: 2010.05.17/outbox.cif.g08.bks.cpg/sg2_236_cif.got.tgz:470936.got - 2010.06.03 11:33:40.
