data_PCOD9081770
_publ_section_title
;
Structure prediction by ZEFSAII (Michael W. Deem and Ramdas Pophale) SiO2 
 PCOD9081770
Probable space group: P -1
;
_chemical_formula_sum "Si O2"
_cell_formula_units_Z 14
_cell_length_a 9.524850
_cell_length_b 19.292049
_cell_length_c 12.598256
_cell_angle_alpha 32.384590
_cell_angle_beta 132.655780
_cell_angle_gamma 105.891504
_cell_volume 595.269795
_symmetry_space_group_name_H-M "P -1"
_symmetry_group_IT_number 2
_symmetry_cell_setting 'triclinic'
loop_
_space_group_symop_operation_xyz
x,y,z
-x,-y,-z
loop_
_atom_site_type_symbol
_atom_site_label
_atom_site_fract_x
_atom_site_fract_y
_atom_site_fract_z
Si Si1 0.360240 0.624336 0.658391
Si Si2 0.269991 0.088218 0.487787
Si Si3 0.886132 0.515452 0.306988
Si Si4 0.773923 0.318482 0.085402
Si Si5 0.069190 0.904755 0.864165
Si Si6 0.436948 0.321506 0.739058
Si Si7 0.674690 0.101826 0.591338
O O1 0.117211 0.638284 0.497542
O O2 0.292192 0.804237 0.425723
O O3 0.500000 0.500000 0.000000
O O4 0.595672 0.489078 0.860194
O O5 0.511957 0.064333 0.607246
O O6 0.030612 0.258440 0.230436
O O7 0.087529 0.124951 0.247845
O O8 0.425015 0.883202 0.882662
O O9 0.000000 0.500000 0.500000
O O10 0.559065 0.730898 0.835336
O O11 0.094251 0.473828 0.379145
O O12 0.933265 0.113194 0.489071
O O13 0.552940 0.369434 0.819545
O O14 0.975350 0.927275 0.906998
O O15 0.407121 0.732824 0.223165
#
# Coordination Sequence:
#
# PCOD9081770 Si02
#       7
#     2   2   2   2   2   2   2
#     4  10  19  32  55  80 110 137 182 216 262 322
#     4   9  19  32  56  81 108 139 183 218 260 320
#     4  11  19  34  58  83 102 140 186 222 257 315
#     4   9  15  33  54  79 102 144 180 215 258 321
#     4   9  16  32  54  76 106 141 178 211 258 321
#     4   9  18  33  58  80 102 138 185 222 259 307
#     4  11  21  34  56  84 108 139 179 222 264 316
#
# _framework density 23.518749
#
# number of rings (size 3 to 8) (size 9 to 14) (size 15 to 20)
#    0.000    2.286    4.286    3.000    0.000    0.571 
#    0.000    4.286    3.143    0.000    0.000    0.000 
#    0.000    0.000    0.000    0.000    0.000    0.000 
#
# Total GULP energy -78315.995871 kJ/mol
# GULP energy per Si atom -5593.999705 kJ/mol
# Density = 2.346522 g / cm^3
# Si number density = 23.518749 Si / 1000 Ang^3
#
#
#
# Elastic Constant Matrix: (Units=GPa)
#
#
# Indices 1 2 3 4 5 6 
#
# 1 196.6305 82.9774 27.3776 -17.8631 31.5593 -16.7179
# 2 82.9774 140.1846 26.1476 -8.4491 17.5991 -17.5397
# 3 27.3776 26.1476 72.9511 -3.1051 11.0308 -13.6435
# 4 -17.8631 -8.4491 -3.1051 28.9012 -7.4853 10.5125
# 5 31.5593 17.5991 11.0308 -7.4853 40.5006 -16.7818
# 6 -16.7179 -17.5397 -13.6435 10.5125 -16.7818 43.4756
#
#
#
# Elastic Compliance Matrix: (Units=1/GPa)
#
#
# Indices 1 2 3 4 5 6 
#
# 1 0.007629 -0.003802 -0.000991 0.002886 -0.003961 -0.001138
# 2 -0.003802 0.009959 -0.001758 -0.000405 -0.000107 0.002061
# 3 -0.000991 -0.001758 0.015536 -0.001104 -0.001452 0.003491
# 4 0.002886 -0.000405 -0.001104 0.039678 0.002184 -0.008151
# 5 -0.003961 -0.000107 -0.001452 0.002184 0.032815 0.010117
# 6 -0.001138 0.002061 0.003491 -0.008151 0.010117 0.030367
#
#
# Mechanical properties :
#
#
# Convention : Reuss Voigt Hill
#
# Bulk Modulus (GPa) = 49.95038 75.86349 62.90694
# Shear Modulus (GPa) = 32.10052 40.79305 36.44679
#
# Velocity S-wave (km/s) = 3.69845 4.16924 3.94088
# Velocity P-wave (km/s) = 6.28671 7.45006 6.89297
#
# Compressibility (1/GPa) = 0.02001987
#
# Stress axis : x y z
#
# Youngs Moduli (GPa) = 131.07227 100.41346 64.36819
#
# Poissons Ratio (x) = 0.38179 0.06382
# Poissons Ratio (y) = 0.49836 0.11318
# Poissons Ratio (z) = 0.12995 0.17656
#
# Static dielectric constant tensor:
#      x y z
#    x 1.938210 -0.004970 -0.096330 
#    y -0.004970 1.825970 -0.039500 
#    z -0.096330 -0.039500 2.064870 
# 
# From -- ./inp_files/184001.got.cif
#   From: 2010.05.17/outbox.cif.g08.bks.cpg/sg2_93_cif.got.tgz:184001.got - 2010.06.03 11:33:40.
