data_PCOD9081361
_publ_section_title
;
Structure prediction by ZEFSAII (Michael W. Deem and Ramdas Pophale) SiO2 
 PCOD9081361
Probable space group: P -1
;
_chemical_formula_sum "Si O2"
_cell_formula_units_Z 16
_cell_length_a 10.499050
_cell_length_b 19.370394
_cell_length_c 7.799185
_cell_angle_alpha 123.836759
_cell_angle_beta 76.673211
_cell_angle_gamma 145.138216
_cell_volume 661.945141
_symmetry_space_group_name_H-M "P -1"
_symmetry_group_IT_number 2
_symmetry_cell_setting 'triclinic'
loop_
_space_group_symop_operation_xyz
x,y,z
-x,-y,-z
loop_
_atom_site_type_symbol
_atom_site_label
_atom_site_fract_x
_atom_site_fract_y
_atom_site_fract_z
Si Si1 0.911830 0.596295 0.622916
Si Si2 0.435740 0.861673 0.681353
Si Si3 0.159773 0.497697 0.129759
Si Si4 0.122611 0.298239 0.733343
Si Si5 0.478145 0.560739 0.729650
Si Si6 0.008354 0.169935 0.949564
Si Si7 0.347402 0.718364 0.149515
Si Si8 0.621668 0.012217 0.322437
O O1 0.773599 0.474107 0.653585
O O2 0.742850 0.503755 0.375319
O O3 0.192871 0.713128 0.668586
O O4 0.957408 0.716886 0.834472
O O5 0.361291 0.779617 0.407599
O O6 0.450478 0.969306 0.788496
O O7 0.717957 0.985981 0.814307
O O8 0.371077 0.641025 0.124955
O O9 0.057263 0.352239 0.906905
O O10 0.917527 0.423296 0.066287
O O11 0.392900 0.463291 0.792195
O O12 0.065270 0.204024 0.774094
O O13 0.923319 0.174763 0.473559
O O14 0.500000 0.500000 0.500000
O O15 0.756363 0.750474 0.929408
O O16 0.530461 0.868539 0.174604
O O17 0.500000 0.000000 0.500000
#
# Coordination Sequence:
#
# PCOD9081361 Si02
#       8
#     2   2   2   2   2   2   2   2
#     4  10  20  33  52  79 116 144 173 218 278 320
#     4  11  18  33  55  84 113 139 171 231 277 307
#     4  10  20  33  52  82 109 149 179 215 268 327
#     4  11  17  34  56  77 106 143 179 222 270 314
#     4  10  21  35  51  83 109 140 178 228 270 320
#     4  10  20  31  52  84 109 136 184 224 267 316
#     4  10  19  32  52  80 117 134 185 223 262 320
#     4  10  15  29  55  81 105 136 169 226 272 300
#
# _framework density 24.171188000000001
#
# number of rings (size 3 to 8) (size 9 to 14) (size 15 to 20)
#    0.000    1.750    6.250    1.500    0.000    0.500 
#    0.000    0.000    0.000    1.500    0.000    0.000 
#    0.000    0.000    0.000    0.000    0.000    0.000 
#
# Total GULP energy -89224.323507 kJ/mol
# GULP energy per Si atom -5576.520219 kJ/mol
# Density = 2.411617 g / cm^3
# Si number density = 24.171188 Si / 1000 Ang^3
#
#
#
# Elastic Constant Matrix: (Units=GPa)
#
#
# Indices 1 2 3 4 5 6 
#
# 1 28.5606 19.8646 23.9375 9.5185 7.8886 -2.0836
# 2 19.8646 86.6737 33.0392 3.2813 19.2043 -4.2365
# 3 23.9375 33.0392 100.8710 12.3428 33.8403 3.0931
# 4 9.5185 3.2813 12.3428 43.0597 4.3993 5.5637
# 5 7.8886 19.2043 33.8403 4.3993 29.9469 9.8978
# 6 -2.0836 -4.2365 3.0931 5.5637 9.8978 38.3187
#
#
#
# Elastic Compliance Matrix: (Units=1/GPa)
#
#
# Indices 1 2 3 4 5 6 
#
# 1 0.050921 -0.008212 -0.009297 -0.008642 0.002570 0.003202
# 2 -0.008212 0.015640 -0.000573 0.001224 -0.008505 0.003348
# 3 -0.009297 -0.000573 0.018914 -0.001754 -0.019342 0.003155
# 4 -0.008642 0.001224 -0.001754 0.025983 0.001058 -0.004239
# 5 0.002570 -0.008505 -0.019342 0.001058 0.065240 -0.016245
# 6 0.003202 0.003348 0.003155 -0.004239 -0.016245 0.031198
#
#
# Mechanical properties :
#
#
# Convention : Reuss Voigt Hill
#
# Bulk Modulus (GPa) = 20.27937 41.08754 30.68345
# Shear Modulus (GPa) = 19.19398 31.54932 25.37165
#
# Velocity S-wave (km/s) = 2.82101 3.61674 3.24337
# Velocity P-wave (km/s) = 4.36107 5.87167 5.17182
#
# Compressibility (1/GPa) = 0.04931121
#
# Stress axis : x y z
#
# Youngs Moduli (GPa) = 19.63821 63.93906 52.86966
#
# Poissons Ratio (x) = 0.52508 0.49153
# Poissons Ratio (y) = 0.16127 0.03029
# Poissons Ratio (z) = 0.18258 0.03663
#
# Static dielectric constant tensor:
#      x y z
#    x 2.009910 -0.010490 -0.028120 
#    y -0.010490 1.995270 -0.010660 
#    z -0.028120 -0.010660 1.967360 
# 
# From -- ./inp_files/282104.got.cif
#   From: 2010.05.17/outbox.cif.g08.bks.cpg/sg2_142_cif.got.tgz:282104.got - 2010.06.03 11:33:40.
