data_PCOD9081435
_publ_section_title
;
Structure prediction by ZEFSAII (Michael W. Deem and Ramdas Pophale) SiO2 
 PCOD9081435
Probable space group: P -1
;
_chemical_formula_sum "Si O2"
_cell_formula_units_Z 12
_cell_length_a 24.759580
_cell_length_b 22.247884
_cell_length_c 22.361942
_cell_angle_alpha 167.128123
_cell_angle_beta 168.311578
_cell_angle_gamma 12.628487
_cell_volume 491.084715
_symmetry_space_group_name_H-M "P -1"
_symmetry_group_IT_number 2
_symmetry_cell_setting 'triclinic'
loop_
_space_group_symop_operation_xyz
x,y,z
-x,-y,-z
loop_
_atom_site_type_symbol
_atom_site_label
_atom_site_fract_x
_atom_site_fract_y
_atom_site_fract_z
Si Si1 0.325650 0.969985 0.839613
Si Si2 0.097333 0.812887 0.659904
Si Si3 0.367132 0.718101 0.991139
Si Si4 0.515243 0.650576 0.531104
Si Si5 0.647632 0.782638 0.678761
Si Si6 0.252289 0.950159 0.296650
O O1 0.500022 0.635268 0.733701
O O2 0.000000 0.000000 0.500000
O O3 0.500000 0.000000 0.000000
O O4 0.308105 0.227670 0.116187
O O5 0.173321 0.836662 0.834565
O O6 0.080055 0.496672 0.331288
O O7 0.806607 0.067969 0.559933
O O8 0.345745 0.909951 0.997723
O O9 0.594677 0.364501 0.879848
O O10 0.106800 0.844733 0.882653
O O11 0.591360 0.862214 0.379796
O O12 0.657443 0.591477 0.562372
O O13 0.388564 0.857077 0.421578
#
# Coordination Sequence:
#
# PCOD9081435 Si02
#       6
#     2   2   2   2   2   2
#     4  12  30  48  62  76  92 108 122 140 156 174
#     4  10  21  34  54  78  94 107 124 140 158 175
#     4  10  19  32  47  69  96 111 126 144 162 180
#     4  12  24  42  66  72  92 106 126 138 160 172
#     4  10  21  34  54  78  94 107 124 140 158 175
#     4  10  19  32  47  69  96 111 126 144 162 180
#
# _framework density 24.435703
#
# number of rings (size 3 to 8) (size 9 to 14) (size 15 to 20)
#    0.000    1.333    1.667    4.000    7.000    0.000 
#    0.000    0.000    0.000    0.000    0.000    0.000 
#    0.000    0.000    0.000    0.000    0.000    0.000 
#
# Total GULP energy -66887.019734 kJ/mol
# GULP energy per Si atom -5573.918311 kJ/mol
# Density = 2.438009 g / cm^3
# Si number density = 24.435703 Si / 1000 Ang^3
#
#
#
# Elastic Constant Matrix: (Units=GPa)
#
#
# Indices 1 2 3 4 5 6 
#
# 1 39.4665 -2.1019 58.9929 -17.9071 33.3130 7.1446
# 2 -2.1019 196.3760 66.6499 -18.1842 -7.8746 -14.4175
# 3 58.9929 66.6499 119.2008 42.7318 45.6420 -2.7904
# 4 -17.9071 -18.1842 42.7318 48.4122 -13.9797 -11.8382
# 5 33.3130 -7.8746 45.6420 -13.9797 -21.3969 -38.6494
# 6 7.1446 -14.4175 -2.7904 -11.8382 -38.6494 38.2251
#
#
#
# Elastic Compliance Matrix: (Units=1/GPa)
#
#
# Indices 1 2 3 4 5 6 
#
# 1 -0.019403 -0.006961 0.016965 -0.020243 0.010277 0.006361
# 2 -0.006961 0.003236 0.003818 -0.004973 -0.001030 0.000219
# 3 0.016965 0.003818 -0.006765 0.013779 -0.000748 0.001286
# 4 -0.020243 -0.004973 0.013779 -0.001042 -0.001519 0.001055
# 5 0.010277 -0.001030 -0.000748 -0.001519 -0.009142 -0.012078
# 6 0.006361 0.000219 0.001286 0.001055 -0.012078 0.013263
#
#
# Mechanical properties :
#
#
# Convention : Reuss Voigt Hill
#
# Bulk Modulus (GPa) = 212.17778 66.90279 139.54029
# Shear Modulus (GPa) = -108.87083 28.48158 -40.19463
#
# Velocity S-wave (km/s) = -6.68212 3.41775 -4.06015
# Velocity P-wave (km/s) = 5.24264 6.55845 5.93711
#
# Compressibility (1/GPa) = 0.00471303
#
# Stress axis : x y z
#
# Youngs Moduli (GPa) = -51.53939 309.00314 -147.82680
#
# Poissons Ratio (x) = 2.15095 2.50790
# Poissons Ratio (y) = -0.35876 0.56438
# Poissons Ratio (z) = 0.87437 -1.17973
#
# Static dielectric constant tensor:
#      x y z
#    x 2.032590 -0.069200 0.026080 
#    y -0.069200 1.974180 0.022100 
#    z 0.026080 0.022100 2.062790 
# 
# From -- ./inp_files/621406.got.cif
#   From: 2010.05.17/outbox.cif.g08.bks.cpg/sg2_311_cif.got.tgz:621406.got - 2010.06.03 11:33:40.
