data_PCOD9081521
_publ_section_title
;
Structure prediction by ZEFSAII (Michael W. Deem and Ramdas Pophale) SiO2 
 PCOD9081521
Probable space group: P -1
;
_chemical_formula_sum "Si O2"
_cell_formula_units_Z 16
_cell_length_a 14.854083
_cell_length_b 11.461717
_cell_length_c 20.818335
_cell_angle_alpha 145.950052
_cell_angle_beta 27.275740
_cell_angle_gamma 128.999613
_cell_volume 826.445156
_symmetry_space_group_name_H-M "P -1"
_symmetry_group_IT_number 2
_symmetry_cell_setting 'triclinic'
loop_
_space_group_symop_operation_xyz
x,y,z
-x,-y,-z
loop_
_atom_site_type_symbol
_atom_site_label
_atom_site_fract_x
_atom_site_fract_y
_atom_site_fract_z
Si Si1 0.570248 0.466272 0.712735
Si Si2 0.624256 0.627742 0.565514
Si Si3 0.495212 0.050736 0.602162
Si Si4 0.794190 0.706946 0.754112
Si Si5 0.007409 0.170173 0.958511
Si Si6 0.036442 0.689164 0.712291
Si Si7 0.373704 0.336827 0.558000
Si Si8 0.244324 0.811636 0.992525
O O1 0.571034 0.253429 0.654189
O O2 0.603025 0.653718 0.822159
O O3 0.761118 0.368166 0.492919
O O4 0.344328 0.596576 0.877938
O O5 0.860443 0.515202 0.395713
O O6 0.566864 0.411721 0.486510
O O7 0.601160 0.759754 0.573912
O O8 0.440297 0.767943 0.797406
O O9 0.241977 0.134609 0.816011
O O10 0.500000 0.000000 0.500000
O O11 0.627735 0.832936 0.462947
O O12 0.000000 0.500000 0.500000
O O13 0.839917 0.695540 0.796144
O O14 0.794227 0.947121 0.841669
O O15 0.977857 0.941285 0.893169
O O16 0.833607 0.419351 0.202231
O O17 0.960055 0.171746 0.911996
#
# Coordination Sequence:
#
# PCOD9081521 Si02
#       8
#     2   2   2   2   2   2   2   2
#     4  10  19  32  51  75 108 138 167 211 258 312
#     4   9  17  35  53  77 105 134 176 219 259 300
#     4  12  21  35  51  74 115 141 167 207 260 323
#     4   9  18  31  51  81 104 129 175 220 255 308
#     4  10  19  33  49  81 102 139 171 202 267 305
#     4   9  16  33  52  76 104 131 172 217 262 296
#     4  10  21  33  52  79 108 137 175 215 252 314
#     4   9  18  33  55  77 102 137 170 215 268 300
#
# _framework density 19.360026999999999
#
# number of rings (size 3 to 8) (size 9 to 14) (size 15 to 20)
#    0.000    2.250    2.500    1.875    0.000    2.500 
#    4.500    0.000    0.000    1.500    0.000    0.000 
#    0.000    0.000    0.000    0.000    0.000    0.000 
#
# Total GULP energy -89138.384762 kJ/mol
# GULP energy per Si atom -5571.149048 kJ/mol
# Density = 1.931596 g / cm^3
# Si number density = 19.360027 Si / 1000 Ang^3
#
#
#
# Elastic Constant Matrix: (Units=GPa)
#
#
# Indices 1 2 3 4 5 6 
#
# 1 39.7470 3.7883 12.7258 2.2061 -7.5560 -11.2059
# 2 3.7883 38.6237 10.5274 13.9242 11.8181 -10.5729
# 3 12.7258 10.5274 68.5788 17.0099 -7.2128 -11.6409
# 4 2.2061 13.9242 17.0099 15.7790 0.5699 -4.8131
# 5 -7.5560 11.8181 -7.2128 0.5699 22.8887 2.9006
# 6 -11.2059 -10.5729 -11.6409 -4.8131 2.9006 29.4186
#
#
#
# Elastic Compliance Matrix: (Units=1/GPa)
#
#
# Indices 1 2 3 4 5 6 
#
# 1 0.030944 -0.005351 -0.004153 0.007040 0.010437 0.008344
# 2 -0.005351 0.055266 0.003229 -0.045986 -0.029981 0.014534
# 3 -0.004153 0.003229 0.022177 -0.025153 0.004091 0.003835
# 4 0.007040 -0.045986 -0.025153 0.128199 0.015501 -0.004352
# 5 0.010437 -0.029981 0.004091 0.015501 0.064661 -0.009020
# 6 0.008344 0.014534 0.003835 -0.004352 -0.009020 0.044089
#
#
# Mechanical properties :
#
#
# Convention : Reuss Voigt Hill
#
# Bulk Modulus (GPa) = 10.43430 22.33695 16.38563
# Shear Modulus (GPa) = 12.82605 21.61113 17.21859
#
# Velocity S-wave (km/s) = 2.57670 3.34470 2.98550
# Velocity P-wave (km/s) = 3.77543 5.14575 4.51290
#
# Compressibility (1/GPa) = 0.09583773
#
# Stress axis : x y z
#
# Youngs Moduli (GPa) = 32.31600 18.09432 45.09189
#
# Poissons Ratio (x) = 0.09682 0.18727
# Poissons Ratio (y) = 0.17291 -0.14560
# Poissons Ratio (z) = 0.13421 -0.05843
#
# Static dielectric constant tensor:
#      x y z
#    x 1.750970 -0.005740 -0.000310 
#    y -0.005740 1.685440 -0.015000 
#    z -0.000310 -0.015000 1.725680 
# 
# From -- ./inp_files/426936.got.cif
#   From: 2010.05.17/outbox.cif.g08.bks.cpg/sg2_214_cif.got.tgz:426936.got - 2010.06.03 11:33:40.
