data_PCOD9081248
_publ_section_title
;
Structure prediction by ZEFSAII (Michael W. Deem and Ramdas Pophale) SiO2 
 PCOD9081248
Probable space group: P -1
;
_chemical_formula_sum "Si O2"
_cell_formula_units_Z 14
_cell_length_a 21.276438
_cell_length_b 14.963905
_cell_length_c 11.711961
_cell_angle_alpha 27.694150
_cell_angle_beta 160.629073
_cell_angle_gamma 154.064209
_cell_volume 522.973592
_symmetry_space_group_name_H-M "P -1"
_symmetry_group_IT_number 2
_symmetry_cell_setting 'triclinic'
loop_
_space_group_symop_operation_xyz
x,y,z
-x,-y,-z
loop_
_atom_site_type_symbol
_atom_site_label
_atom_site_fract_x
_atom_site_fract_y
_atom_site_fract_z
Si Si1 0.038220 0.304522 0.843762
Si Si2 0.554947 0.441421 0.839440
Si Si3 0.698714 0.170562 0.784692
Si Si4 0.691794 0.129882 0.295939
Si Si5 0.786297 0.982232 0.946023
Si Si6 0.718273 0.547029 0.256844
Si Si7 0.691539 0.303195 0.871826
O O1 0.881328 0.122546 0.699896
O O2 0.947836 0.203949 0.922869
O O3 0.000000 0.500000 0.500000
O O4 0.281597 0.380805 0.164277
O O5 0.351386 0.487515 0.447741
O O6 0.559842 0.231505 0.030189
O O7 0.660528 0.486243 0.095105
O O8 0.764637 0.004954 0.019247
O O9 0.793154 0.386810 0.628355
O O10 0.758211 0.240173 0.937353
O O11 0.445981 0.075156 0.440177
O O12 0.533047 0.892996 0.269791
O O13 0.793057 0.280517 0.189804
O O14 0.844985 0.793727 0.220121
O O15 0.500000 0.500000 0.000000
#
# Coordination Sequence:
#
# PCOD9081248 Si02
#       7
#     2   2   2   2   2   2   2
#     4  10  20  36  58  82 112 145 183 222 279 323
#     4  11  21  36  58  82 112 140 182 232 268 322
#     4  10  19  32  54  79 111 138 181 230 270 314
#     4  10  22  36  52  82 114 146 178 221 272 331
#     4  10  19  33  52  81 110 140 179 232 268 314
#     4  10  19  31  52  84 107 134 184 226 274 312
#     4  11  21  35  55  84 110 144 183 218 280 324
#
# _framework density 26.769995000000002
#
# number of rings (size 3 to 8) (size 9 to 14) (size 15 to 20)
#    0.000    1.714    4.286    2.143    4.000    2.286 
#    0.000    0.000    0.000    7.714    0.000    7.000 
#    0.000    0.000    0.000    0.000    0.000    0.000 
#
# Total GULP energy -78270.424312 kJ/mol
# GULP energy per Si atom -5590.744594 kJ/mol
# Density = 2.670907 g / cm^3
# Si number density = 26.769995 Si / 1000 Ang^3
#
#
#
# Elastic Constant Matrix: (Units=GPa)
#
#
# Indices 1 2 3 4 5 6 
#
# 1 181.9843 21.9821 49.1310 -20.9603 -4.0515 -32.5188
# 2 21.9821 78.8812 25.7788 -20.0203 9.5178 -0.1425
# 3 49.1310 25.7788 67.8146 -19.0566 11.0476 -25.7458
# 4 -20.9603 -20.0203 -19.0566 41.3948 -8.8848 -2.5928
# 5 -4.0515 9.5178 11.0476 -8.8848 34.5615 -9.3525
# 6 -32.5188 -0.1425 -25.7458 -2.5928 -9.3525 44.3395
#
#
#
# Elastic Compliance Matrix: (Units=1/GPa)
#
#
# Indices 1 2 3 4 5 6 
#
# 1 0.007844 -0.000790 -0.003273 0.003336 0.004386 0.004970
# 2 -0.000790 0.016035 -0.005501 0.003957 -0.002839 -0.004090
# 3 -0.003273 -0.005501 0.026978 0.008585 -0.001660 0.013399
# 4 0.003336 0.003957 0.008585 0.034215 0.008387 0.011214
# 5 0.004386 -0.002839 -0.001660 0.008387 0.035694 0.010263
# 6 0.004970 -0.004090 0.013399 0.011214 0.010263 0.036786
#
#
# Mechanical properties :
#
#
# Convention : Reuss Voigt Hill
#
# Bulk Modulus (GPa) = 31.51703 58.05154 44.78429
# Shear Modulus (GPa) = 26.70152 39.51172 33.10662
#
# Velocity S-wave (km/s) = 3.16166 3.84600 3.52050
# Velocity P-wave (km/s) = 5.01268 6.43853 5.76982
#
# Compressibility (1/GPa) = 0.03172888
#
# Stress axis : x y z
#
# Youngs Moduli (GPa) = 127.48828 62.36457 37.06713
#
# Poissons Ratio (x) = 0.04926 0.12131
# Poissons Ratio (y) = 0.10070 0.20391
# Poissons Ratio (z) = 0.41724 0.34308
#
# Static dielectric constant tensor:
#      x y z
#    x 2.132350 -0.016010 -0.022300 
#    y -0.016010 2.190570 0.024320 
#    z -0.022300 0.024320 2.136110 
# 
# From -- ./inp_files/422899.got.cif
#   From: 2010.05.17/outbox.cif.g08.bks.cpg/sg2_212_cif.got.tgz:422899.got - 2010.06.03 11:33:40.
