data_PCOD9081829
_publ_section_title
;
Structure prediction by ZEFSAII (Michael W. Deem and Ramdas Pophale) SiO2 
 PCOD9081829
Probable space group: P -1
;
_chemical_formula_sum "Si O2"
_cell_formula_units_Z 14
_cell_length_a 14.726945
_cell_length_b 9.468231
_cell_length_c 13.681409
_cell_angle_alpha 80.681627
_cell_angle_beta 53.112408
_cell_angle_gamma 125.779535
_cell_volume 758.295968
_symmetry_space_group_name_H-M "P -1"
_symmetry_group_IT_number 2
_symmetry_cell_setting 'triclinic'
loop_
_space_group_symop_operation_xyz
x,y,z
-x,-y,-z
loop_
_atom_site_type_symbol
_atom_site_label
_atom_site_fract_x
_atom_site_fract_y
_atom_site_fract_z
Si Si1 0.376918 0.144947 0.005198
Si Si2 0.332386 0.875842 0.701603
Si Si3 0.587628 0.073191 0.139839
Si Si4 0.103025 0.240508 0.342302
Si Si5 0.942962 0.640935 0.947767
Si Si6 0.714901 0.995760 0.698171
Si Si7 0.742417 0.672440 0.980360
O O1 0.642418 0.452933 0.822434
O O2 0.358988 0.987578 0.966699
O O3 0.259342 0.000940 0.202917
O O4 0.286013 0.189241 0.007812
O O5 0.440775 0.019938 0.721948
O O6 0.199117 0.870430 0.752824
O O7 0.500000 0.000000 0.500000
O O8 0.157384 0.553970 0.872314
O O9 0.376514 0.943534 0.265110
O O10 0.802930 0.412848 0.975703
O O11 0.124904 0.216559 0.218543
O O12 0.000000 0.000000 0.500000
O O13 0.938132 0.194368 0.473835
O O14 0.873387 0.729228 0.973948
O O15 0.508822 0.668749 0.831724
#
# Coordination Sequence:
#
# PCOD9081829 Si02
#       7
#     2   2   2   2   2   2   2
#     4  11  20  34  49  79 114 134 168 215 253 302
#     4   9  18  37  58  75  98 130 174 219 255 313
#     4   9  20  35  53  79 105 133 170 217 264 298
#     4  11  19  32  51  75 107 146 180 197 244 306
#     4   8  19  36  55  78  94 133 177 210 259 313
#     4  10  19  35  51  75 107 145 173 204 244 313
#     4  10  19  32  56  74 103 143 174 207 249 310
#
# _framework density 18.462447000000001
#
# number of rings (size 3 to 8) (size 9 to 14) (size 15 to 20)
#    0.857    1.429    2.857    1.286    2.000    0.571 
#    2.571    0.714    0.000    0.857    0.000    0.000 
#    0.000    0.000    0.000    0.000    0.000    0.000 
#
# Total GULP energy -77981.946957 kJ/mol
# GULP energy per Si atom -5570.139068 kJ/mol
# Density = 1.842043 g / cm^3
# Si number density = 18.462447 Si / 1000 Ang^3
#
#
#
# Elastic Constant Matrix: (Units=GPa)
#
#
# Indices 1 2 3 4 5 6 
#
# 1 95.3945 5.6454 17.6316 10.6435 -37.7335 -20.1582
# 2 5.6454 28.5881 1.6234 14.1169 -10.9631 -15.1818
# 3 17.6316 1.6234 89.8403 16.6912 -15.1472 -9.8139
# 4 10.6435 14.1169 16.6912 15.7304 -11.5500 -8.7911
# 5 -37.7335 -10.9631 -15.1472 -11.5500 28.2785 13.9241
# 6 -20.1582 -15.1818 -9.8139 -8.7911 13.9241 17.3468
#
#
#
# Elastic Compliance Matrix: (Units=1/GPa)
#
#
# Indices 1 2 3 4 5 6 
#
# 1 0.027128 0.021336 0.003055 -0.003154 0.033133 0.023733
# 2 0.021336 0.136537 0.024122 -0.103594 0.000159 0.105309
# 3 0.003055 0.024122 0.018236 -0.032250 0.001403 0.017509
# 4 -0.003154 -0.103594 -0.032250 0.197974 0.041742 -0.045750
# 5 0.033133 0.000159 0.001403 0.041742 0.111782 -0.029136
# 6 0.023733 0.105309 0.017509 -0.045750 -0.029136 0.187499
#
#
# Mechanical properties :
#
#
# Convention : Reuss Voigt Hill
#
# Bulk Modulus (GPa) = 3.58515 29.29152 16.43834
# Shear Modulus (GPa) = 7.40625 24.86597 16.13611
#
# Velocity S-wave (km/s) = 2.00505 3.67391 2.95955
# Velocity P-wave (km/s) = 2.70303 5.82209 4.53890
#
# Compressibility (1/GPa) = 0.27892804
#
# Stress axis : x y z
#
# Youngs Moduli (GPa) = 36.86217 7.32402 54.83590
#
# Poissons Ratio (x) = -0.15626 -0.16752
# Poissons Ratio (y) = -0.78649 -1.32277
# Poissons Ratio (z) = -0.11261 -0.17667
#
# Static dielectric constant tensor:
#      x y z
#    x 1.692410 -0.019900 -0.013460 
#    y -0.019900 1.633650 -0.012070 
#    z -0.013460 -0.012070 1.636940 
# 
# From -- ./inp_files/94052.got.cif
#   From: 2010.05.17/outbox.cif.g08.bks.cpg/sg2_48_cif.got.tgz:94052.got - 2010.06.03 11:33:40.
