data_PCOD9081699
_publ_section_title
;
Structure prediction by ZEFSAII (Michael W. Deem and Ramdas Pophale) SiO2 
 PCOD9081699
Probable space group: P -1
;
_chemical_formula_sum "Si O2"
_cell_formula_units_Z 16
_cell_length_a 8.050980
_cell_length_b 8.597364
_cell_length_c 14.826684
_cell_angle_alpha 55.539677
_cell_angle_beta 124.533961
_cell_angle_gamma 124.416714
_cell_volume 650.364374
_symmetry_space_group_name_H-M "P -1"
_symmetry_group_IT_number 2
_symmetry_cell_setting 'triclinic'
loop_
_space_group_symop_operation_xyz
x,y,z
-x,-y,-z
loop_
_atom_site_type_symbol
_atom_site_label
_atom_site_fract_x
_atom_site_fract_y
_atom_site_fract_z
Si Si1 0.505510 0.842990 0.723547
Si Si2 0.181352 0.236558 0.272380
Si Si3 0.113983 0.878381 0.500418
Si Si4 0.822086 0.373379 0.763036
Si Si5 0.336772 0.337215 0.613095
Si Si6 0.242216 0.080976 0.837000
Si Si7 0.635169 0.958629 0.923780
Si Si8 0.778867 0.293172 0.588335
O O1 0.599592 0.703294 0.738661
O O2 0.261621 0.830462 0.636453
O O3 0.566904 0.840895 0.847535
O O4 0.638286 0.065177 0.649396
O O5 0.122184 0.423365 0.229326
O O6 0.198156 0.097031 0.406895
O O7 0.988757 0.089864 0.199140
O O8 0.119272 0.730787 0.467306
O O9 0.857537 0.814856 0.457298
O O10 0.568537 0.322036 0.676556
O O11 0.813232 0.179037 0.881468
O O12 0.924402 0.382653 0.692613
O O13 0.274762 0.266441 0.719670
O O14 0.348670 0.559169 0.520899
O O15 0.423723 0.994656 0.885777
O O16 0.277400 0.132064 0.936073
#
# Coordination Sequence:
#
# PCOD9081699 Si02
#       8
#     2   2   2   2   2   2   2   2
#     4  10  20  35  55  79 108 140 172 216 264 311
#     4  10  20  34  55  82 108 135 175 219 262 312
#     4  10  20  34  52  78 113 142 169 210 265 319
#     4  10  20  34  54  80 108 138 174 218 262 310
#     4  10  19  32  54  79 105 139 174 212 258 313
#     4   9  20  37  56  77 104 141 179 217 260 310
#     4   9  20  39  57  74 104 142 179 216 263 310
#     4  10  19  33  52  77 108 139 170 210 263 313
#
# _framework density 24.601593999999999
#
# number of rings (size 3 to 8) (size 9 to 14) (size 15 to 20)
#    0.000    2.250    0.000    3.750    0.000    4.000 
#    0.000    7.500    0.000   12.000    0.000    0.000 
#    0.000    0.000    0.000    0.000    0.000    0.000 
#
# Total GULP energy -89465.121795 kJ/mol
# GULP energy per Si atom -5591.570112 kJ/mol
# Density = 2.454560 g / cm^3
# Si number density = 24.601594 Si / 1000 Ang^3
#
#
#
# Elastic Constant Matrix: (Units=GPa)
#
#
# Indices 1 2 3 4 5 6 
#
# 1 64.3680 11.8542 24.5227 16.6680 -15.9168 -6.9841
# 2 11.8542 53.7119 30.6441 13.0917 -9.9122 10.0740
# 3 24.5227 30.6441 161.8594 30.9327 -31.0081 -4.4149
# 4 16.6680 13.0917 30.9327 32.2192 -7.3493 4.9877
# 5 -15.9168 -9.9122 -31.0081 -7.3493 26.2754 12.4629
# 6 -6.9841 10.0740 -4.4149 4.9877 12.4629 33.2680
#
#
#
# Elastic Compliance Matrix: (Units=1/GPa)
#
#
# Indices 1 2 3 4 5 6 
#
# 1 0.020363 -0.001670 0.000675 -0.009022 0.008545 0.003022
# 2 -0.001670 0.025152 -0.002231 -0.002970 0.010606 -0.011791
# 3 0.000675 -0.002231 0.009455 -0.006378 0.009126 -0.000391
# 4 -0.009022 -0.002970 -0.006378 0.045293 0.003224 -0.009839
# 5 0.008545 0.010606 0.009126 0.003224 0.072034 -0.027675
# 6 0.003022 -0.011791 -0.000391 -0.009839 -0.027675 0.046055
#
#
# Mechanical properties :
#
#
# Convention : Reuss Voigt Hill
#
# Bulk Modulus (GPa) = 20.61121 45.99792 33.30457
# Shear Modulus (GPa) = 20.74881 32.54707 26.64794
#
# Velocity S-wave (km/s) = 2.90727 3.64121 3.29474
# Velocity P-wave (km/s) = 4.43462 6.03453 5.29535
#
# Compressibility (1/GPa) = 0.04851728
#
# Stress axis : x y z
#
# Youngs Moduli (GPa) = 49.10785 39.75851 105.76464
#
# Poissons Ratio (x) = 0.06639 -0.07135
# Poissons Ratio (y) = 0.08200 0.23598
# Poissons Ratio (z) = -0.03313 0.08871
#
# Static dielectric constant tensor:
#      x y z
#    x 2.126940 -0.036300 0.000460 
#    y -0.036300 2.012820 0.038320 
#    z 0.000460 0.038320 1.917340 
# 
# From -- ./inp_files/189180.got.cif
#   From: 2010.05.17/outbox.cif.g08.bks.cpg/sg2_95_cif.got.tgz:189180.got - 2010.06.03 11:33:40.
