data_PCOD9081295
_publ_section_title
;
Structure prediction by ZEFSAII (Michael W. Deem and Ramdas Pophale) SiO2 
 PCOD9081295
Probable space group: P -1
;
_chemical_formula_sum "Si O2"
_cell_formula_units_Z 16
_cell_length_a 15.036857
_cell_length_b 13.797508
_cell_length_c 7.807000
_cell_angle_alpha 53.617793
_cell_angle_beta 126.847375
_cell_angle_gamma 152.687443
_cell_volume 586.652398
_symmetry_space_group_name_H-M "P -1"
_symmetry_group_IT_number 2
_symmetry_cell_setting 'triclinic'
loop_
_space_group_symop_operation_xyz
x,y,z
-x,-y,-z
loop_
_atom_site_type_symbol
_atom_site_label
_atom_site_fract_x
_atom_site_fract_y
_atom_site_fract_z
Si Si1 0.720719 0.666198 0.140150
Si Si2 0.647908 0.911792 0.606509
Si Si3 0.083220 0.641872 0.668029
Si Si4 0.334918 0.745590 0.595608
Si Si5 0.629902 0.413586 0.621798
Si Si6 0.947814 0.245989 0.156419
Si Si7 0.755039 0.841802 0.528760
Si Si8 0.007903 0.142103 0.062134
O O1 0.703611 0.563925 0.392932
O O2 0.500000 0.500000 0.000000
O O3 0.854567 0.724425 0.085502
O O4 0.838581 0.890986 0.101291
O O5 0.489057 0.773381 0.720211
O O6 0.499551 0.808289 0.383658
O O7 0.826487 0.164334 0.538577
O O8 0.729534 0.859531 0.680684
O O9 0.219915 0.658986 0.731535
O O10 0.851908 0.420005 0.580621
O O11 0.117222 0.707499 0.837132
O O12 0.500000 0.000000 0.500000
O O13 0.817368 0.531725 0.805091
O O14 0.463142 0.337517 0.611837
O O15 0.908261 0.173668 0.989810
O O16 0.878454 0.060965 0.363207
O O17 0.853004 0.800822 0.695488
#
# Coordination Sequence:
#
# PCOD9081295 Si02
#       8
#     2   2   2   2   2   2   2   2
#     4  11  22  39  49  68  99 141 180 213 246 297
#     4   8  16  27  43  72  97 127 165 200 243 295
#     4   9  16  28  45  68 109 129 154 202 252 300
#     4   9  15  26  45  70 102 137 153 189 255 308
#     4  10  19  31  54  70 101 130 174 212 248 291
#     4  11  20  33  49  79 104 132 168 213 252 301
#     4   9  18  31  47  75  99 129 167 210 244 293
#     4  11  23  34  52  71 103 139 173 209 257 297
#
# _framework density 27.273391
#
# number of rings (size 3 to 8) (size 9 to 14) (size 15 to 20)
#    0.750    1.500    3.750    0.375    0.000    1.500 
#    0.000    0.000    0.000    0.000    0.000    0.875 
#    0.000   14.500    0.000    0.375    0.000    0.000 
#
# Total GULP energy -89252.261305 kJ/mol
# GULP energy per Si atom -5578.266332 kJ/mol
# Density = 2.721132 g / cm^3
# Si number density = 27.273391 Si / 1000 Ang^3
#
#
#
# Elastic Constant Matrix: (Units=GPa)
#
#
# Indices 1 2 3 4 5 6 
#
# 1 203.0425 30.0506 25.3297 -8.9700 -38.3524 20.2105
# 2 30.0506 185.9948 34.2864 -11.6049 -10.3347 16.5674
# 3 25.3297 34.2864 67.3004 -22.6449 -15.8011 2.4739
# 4 -8.9700 -11.6049 -22.6449 24.7087 0.6318 -1.5240
# 5 -38.3524 -10.3347 -15.8011 0.6318 21.4497 5.1717
# 6 20.2105 16.5674 2.4739 -1.5240 5.1717 42.5737
#
#
#
# Elastic Compliance Matrix: (Units=1/GPa)
#
#
# Indices 1 2 3 4 5 6 
#
# 1 0.009378 -0.000035 0.003564 0.005690 0.020892 -0.006980
# 2 -0.000035 0.006179 -0.002543 0.000369 0.001616 -0.002424
# 3 0.003564 -0.002543 0.030813 0.027313 0.028235 -0.004945
# 4 0.005690 0.000369 0.027313 0.066628 0.029878 -0.005676
# 5 0.020892 0.001616 0.028235 0.029878 0.110594 -0.024552
# 6 -0.006980 -0.002424 -0.004945 -0.005676 -0.024552 0.030812
#
#
# Mechanical properties :
#
#
# Convention : Reuss Voigt Hill
#
# Bulk Modulus (GPa) = 20.68445 70.63012 45.65728
# Shear Modulus (GPa) = 18.61883 42.19116 30.40500
#
# Velocity S-wave (km/s) = 2.61564 3.93742 3.34252
# Velocity P-wave (km/s) = 4.08933 6.82820 5.62792
#
# Compressibility (1/GPa) = 0.04834549
#
# Stress axis : x y z
#
# Youngs Moduli (GPa) = 106.63265 161.82633 32.45333
#
# Poissons Ratio (x) = 0.00560 -0.11568
# Poissons Ratio (y) = 0.00369 0.08251
# Poissons Ratio (z) = -0.38009 0.41145
#
# Static dielectric constant tensor:
#      x y z
#    x 2.297790 -0.080050 -0.023490 
#    y -0.080050 2.167530 0.070170 
#    z -0.023490 0.070170 2.176710 
# 
# From -- ./inp_files/313017.got.cif
#   From: 2010.05.17/outbox.cif.g08.bks.cpg/sg2_157_cif.got.tgz:313017.got - 2010.06.03 11:33:40.
