data_PCOD9081366
_publ_section_title
;
Structure prediction by ZEFSAII (Michael W. Deem and Ramdas Pophale) SiO2 
 PCOD9081366
Probable space group: P -1
;
_chemical_formula_sum "Si O2"
_cell_formula_units_Z 14
_cell_length_a 15.676658
_cell_length_b 5.044739
_cell_length_c 11.164552
_cell_angle_alpha 115.097570
_cell_angle_beta 69.873636
_cell_angle_gamma 91.455564
_cell_volume 743.173953
_symmetry_space_group_name_H-M "P -1"
_symmetry_group_IT_number 2
_symmetry_cell_setting 'triclinic'
loop_
_space_group_symop_operation_xyz
x,y,z
-x,-y,-z
loop_
_atom_site_type_symbol
_atom_site_label
_atom_site_fract_x
_atom_site_fract_y
_atom_site_fract_z
Si Si1 0.734001 0.406176 0.911047
Si Si2 0.796904 0.518204 0.651870
Si Si3 0.026609 0.613599 0.817090
Si Si4 0.556487 0.764486 0.061454
Si Si5 0.378136 0.091137 0.205637
Si Si6 0.094355 0.797080 0.061553
Si Si7 0.903664 0.884964 0.497398
O O1 0.788286 0.549352 0.806549
O O2 0.650869 0.627743 0.053077
O O3 0.804554 0.243277 0.940191
O O4 0.682355 0.174663 0.817332
O O5 0.693905 0.624103 0.672140
O O6 0.862024 0.733154 0.602631
O O7 0.837125 0.177954 0.544587
O O8 0.079771 0.372945 0.657848
O O9 0.955029 0.448549 0.894135
O O10 0.090772 0.736453 0.909481
O O11 0.969603 0.890253 0.829640
O O12 0.593763 0.880663 0.941628
O O13 0.500000 0.500000 0.000000
O O14 0.477021 0.001991 0.202915
O O15 0.000000 0.000000 0.500000
#
# Coordination Sequence:
#
# PCOD9081366 Si02
#       7
#     2   2   2   2   2   2   2
#     4  10  19  31  56  81 109 138 181 218 275 324
#     4  11  22  34  51  80 109 147 173 219 271 325
#     4  10  23  40  53  75 105 146 188 229 267 306
#     4   8  16  29  48  79 113 139 164 216 267 334
#     4   9  17  31  49  78 116 137 171 210 275 330
#     4  10  22  38  58  74 104 143 185 231 268 311
#     4  12  24  35  53  76 110 144 188 227 267 318
#
# _framework density 18.83812
#
# number of rings (size 3 to 8) (size 9 to 14) (size 15 to 20)
#    0.000    2.000    1.429    2.143    6.000    0.000 
#    0.000    0.000    0.000    0.000    0.000    2.000 
#    0.000    1.286    0.000    0.000    0.000    0.000 
#
# Total GULP energy -78020.825785 kJ/mol
# GULP energy per Si atom -5572.916128 kJ/mol
# Density = 1.879524 g / cm^3
# Si number density = 18.838120 Si / 1000 Ang^3
#
#
#
# Elastic Constant Matrix: (Units=GPa)
#
#
# Indices 1 2 3 4 5 6 
#
# 1 96.0393 33.9871 55.5838 17.3154 -23.9932 -33.9136
# 2 33.9871 97.5310 25.0377 9.6043 -13.2396 -9.8612
# 3 55.5838 25.0377 72.7649 19.6491 -18.6006 -13.1296
# 4 17.3154 9.6043 19.6491 38.9179 -7.0414 -21.5855
# 5 -23.9932 -13.2396 -18.6006 -7.0414 19.1138 4.5408
# 6 -33.9136 -9.8612 -13.1296 -21.5855 4.5408 39.4887
#
#
#
# Elastic Compliance Matrix: (Units=1/GPa)
#
#
# Indices 1 2 3 4 5 6 
#
# 1 0.036071 -0.002989 -0.019421 0.014861 0.022830 0.029273
# 2 -0.002989 0.012008 -0.000795 -0.001029 0.003605 -0.000810
# 3 -0.019421 -0.000795 0.030927 -0.014406 0.003391 -0.014859
# 4 0.014861 -0.001029 -0.014406 0.046613 0.013580 0.031634
# 5 0.022830 0.003605 0.003391 0.013580 0.087257 0.019024
# 6 0.029273 -0.000810 -0.014859 0.031634 0.019024 0.060426
#
#
# Mechanical properties :
#
#
# Convention : Reuss Voigt Hill
#
# Bulk Modulus (GPa) = 30.67811 55.06139 42.86975
# Shear Modulus (GPa) = 15.12503 29.61918 22.37211
#
# Velocity S-wave (km/s) = 2.83661 3.96953 3.44989
# Velocity P-wave (km/s) = 5.20086 7.09237 6.21895
#
# Compressibility (1/GPa) = 0.03259653
#
# Stress axis : x y z
#
# Youngs Moduli (GPa) = 27.72277 83.28002 32.33373
#
# Poissons Ratio (x) = 0.24891 0.62795
# Poissons Ratio (y) = 0.08286 0.02572
# Poissons Ratio (z) = 0.53840 0.06624
#
# Static dielectric constant tensor:
#      x y z
#    x 1.732200 -0.011900 -0.042070 
#    y -0.011900 1.774980 0.012530 
#    z -0.042070 0.012530 1.682020 
# 
# From -- ./inp_files/440090.got.cif
#   From: 2010.05.17/outbox.cif.g08.bks.cpg/sg2_221_cif.got.tgz:440090.got - 2010.06.03 11:33:40.
