data_PCOD9081187
_publ_section_title
;
Structure prediction by ZEFSAII (Michael W. Deem and Ramdas Pophale) SiO2 
 PCOD9081187
Probable space group: P -1
;
_chemical_formula_sum "Si O2"
_cell_formula_units_Z 16
_cell_length_a 7.334245
_cell_length_b 20.328041
_cell_length_c 12.265060
_cell_angle_alpha 29.198038
_cell_angle_beta 73.276947
_cell_angle_gamma 90.748916
_cell_volume 704.531711
_symmetry_space_group_name_H-M "P -1"
_symmetry_group_IT_number 2
_symmetry_cell_setting 'triclinic'
loop_
_space_group_symop_operation_xyz
x,y,z
-x,-y,-z
loop_
_atom_site_type_symbol
_atom_site_label
_atom_site_fract_x
_atom_site_fract_y
_atom_site_fract_z
Si Si1 0.576192 0.517490 0.691659
Si Si2 0.461750 0.203200 0.106763
Si Si3 0.715846 0.111373 0.510298
Si Si4 0.296366 0.326045 0.332901
Si Si5 0.093869 0.413266 0.879501
Si Si6 0.127031 0.658786 0.668747
Si Si7 0.784695 0.705775 0.162440
Si Si8 0.871009 0.932499 0.435070
O O1 0.671563 0.651334 0.576283
O O2 0.297993 0.409699 0.910430
O O3 0.648057 0.610442 0.430563
O O4 0.639288 0.382672 0.872277
O O5 0.274349 0.101761 0.380870
O O6 0.485895 0.063659 0.251388
O O7 0.365112 0.259358 0.943735
O O8 0.679530 0.189420 0.511303
O O9 0.919055 0.085496 0.544299
O O10 0.847026 0.260828 0.184626
O O11 0.285159 0.189671 0.457882
O O12 0.056693 0.302848 0.384754
O O13 0.500000 0.500000 0.000000
O O14 0.163211 0.589386 0.652759
O O15 0.132475 0.390641 0.780852
O O16 0.000000 0.500000 0.000000
O O17 0.006802 0.883664 0.891968
#
# Coordination Sequence:
#
# PCOD9081187 Si02
#       8
#     2   2   2   2   2   2   2   2
#     4  11  21  31  52  80 107 131 168 214 262 292
#     4  10  15  29  51  76 101 130 172 216 246 289
#     4   9  14  26  49  74  95 125 172 210 241 289
#     4  11  20  34  53  77 105 133 169 215 253 307
#     4  10  16  32  51  76 104 132 170 212 250 300
#     4   9  19  30  51  78 101 134 170 208 257 301
#     4  10  19  30  51  78 104 135 173 212 248 298
#     4  10  16  29  52  74 102 134 171 211 251 291
#
# _framework density 22.710118999999999
#
# number of rings (size 3 to 8) (size 9 to 14) (size 15 to 20)
#    0.000    2.000    5.000    3.750    0.000    0.500 
#    0.000    0.625    0.000   20.250    0.000    1.750 
#    0.000    0.000    0.000    0.000    0.000    0.000 
#
# Total GULP energy -89177.521565 kJ/mol
# GULP energy per Si atom -5573.595098 kJ/mol
# Density = 2.265843 g / cm^3
# Si number density = 22.710119 Si / 1000 Ang^3
#
#
#
# Elastic Constant Matrix: (Units=GPa)
#
#
# Indices 1 2 3 4 5 6 
#
# 1 31.9113 -1.0915 1.0231 2.1794 3.1595 5.0506
# 2 -1.0915 185.5822 61.7111 -29.1785 3.6860 -7.6447
# 3 1.0231 61.7111 104.3922 -11.9372 -1.5310 -1.4705
# 4 2.1794 -29.1785 -11.9372 36.5002 -0.8688 3.0211
# 5 3.1595 3.6860 -1.5310 -0.8688 9.8042 -4.2357
# 6 5.0506 -7.6447 -1.4705 3.0211 -4.2357 21.8690
#
#
#
# Elastic Compliance Matrix: (Units=1/GPa)
#
#
# Indices 1 2 3 4 5 6 
#
# 1 0.034854 0.000136 -0.001021 -0.001786 -0.016349 -0.010991
# 2 0.000136 0.007517 -0.003945 0.004550 -0.002561 0.001206
# 3 -0.001021 -0.003945 0.012089 0.000929 0.003911 0.000299
# 4 -0.001786 0.004550 0.000929 0.031643 0.000893 -0.002133
# 5 -0.016349 -0.002561 0.003911 0.000893 0.120289 0.026318
# 6 -0.010991 0.001206 0.000299 -0.002133 0.026318 0.054099
#
#
# Mechanical properties :
#
#
# Convention : Reuss Voigt Hill
#
# Bulk Modulus (GPa) = 22.32129 49.46344 35.89237
# Shear Modulus (GPa) = 17.53857 30.98422 24.26140
#
# Velocity S-wave (km/s) = 2.78201 3.69770 3.27204
# Velocity P-wave (km/s) = 4.49105 6.32916 5.48761
#
# Compressibility (1/GPa) = 0.04480027
#
# Stress axis : x y z
#
# Youngs Moduli (GPa) = 28.69073 133.02950 82.71743
#
# Poissons Ratio (x) = -0.01803 0.08441
# Poissons Ratio (y) = -0.00389 0.32635
# Poissons Ratio (z) = 0.02928 0.52485
#
# Static dielectric constant tensor:
#      x y z
#    x 1.949540 0.011960 0.018470 
#    y 0.011960 1.964550 -0.094690 
#    z 0.018470 -0.094690 1.802970 
# 
# From -- ./inp_files/262124.got.cif
#   From: 2010.05.17/outbox.cif.g08.bks.cpg/sg2_132_cif.got.tgz:262124.got - 2010.06.03 11:33:40.
