data_PCOD9081661
_publ_section_title
;
Structure prediction by ZEFSAII (Michael W. Deem and Ramdas Pophale) SiO2 
 PCOD9081661
Probable space group: P -1
;
_chemical_formula_sum "Si O2"
_cell_formula_units_Z 16
_cell_length_a 8.985731
_cell_length_b 15.394892
_cell_length_c 7.135339
_cell_angle_alpha 57.400392
_cell_angle_beta 104.411819
_cell_angle_gamma 125.261507
_cell_volume 676.211027
_symmetry_space_group_name_H-M "P -1"
_symmetry_group_IT_number 2
_symmetry_cell_setting 'triclinic'
loop_
_space_group_symop_operation_xyz
x,y,z
-x,-y,-z
loop_
_atom_site_type_symbol
_atom_site_label
_atom_site_fract_x
_atom_site_fract_y
_atom_site_fract_z
Si Si1 0.653853 0.645506 0.904738
Si Si2 0.026197 0.528923 0.694055
Si Si3 0.438126 0.807823 0.994832
Si Si4 0.952710 0.279361 0.978982
Si Si5 0.569060 0.256830 0.370237
Si Si6 0.420544 0.354679 0.681181
Si Si7 0.365691 0.938880 0.349815
Si Si8 0.964837 0.730350 0.426957
O O1 0.591113 0.720754 0.678094
O O2 0.500000 0.500000 0.000000
O O3 0.629022 0.662948 0.094759
O O4 0.869031 0.700443 0.884579
O O5 0.241368 0.616056 0.687055
O O6 0.936636 0.603174 0.638250
O O7 0.000000 0.500000 0.500000
O O8 0.951155 0.398100 0.908925
O O9 0.431217 0.772098 0.815966
O O10 0.607186 0.949423 0.895774
O O11 0.262419 0.818155 0.957383
O O12 0.458942 0.706583 0.232644
O O13 0.993103 0.273450 0.778025
O O14 0.575225 0.151639 0.606450
O O15 0.500000 0.500000 0.500000
O O16 0.223587 0.278195 0.607873
O O17 0.150180 0.845299 0.436339
O O18 0.500000 0.000000 0.500000
#
# Coordination Sequence:
#
# PCOD9081661 Si02
#       8
#     2   2   2   2   2   2   2   2
#     4  10  19  36  56  81 114 150 177 223 285 341
#     4   9  16  29  51  77 103 138 183 221 275 333
#     4  10  21  35  55  81 111 147 186 235 269 328
#     4  10  19  32  53  81 112 141 184 224 287 330
#     4   9  18  35  56  77 106 149 187 228 275 329
#     4  10  21  38  56  87 117 140 186 233 282 337
#     4   9  19  38  57  77 109 148 198 226 269 325
#     4   9  19  34  57  77 108 152 182 227 277 329
#
# _framework density 23.661255000000001
#
# number of rings (size 3 to 8) (size 9 to 14) (size 15 to 20)
#    0.000    2.500    1.250    0.750    0.000    2.500 
#    6.750    0.625    0.000    0.000    0.000    0.000 
#    0.000    0.000    0.000    0.000    0.000    0.000 
#
# Total GULP energy -89225.163111 kJ/mol
# GULP energy per Si atom -5576.572694 kJ/mol
# Density = 2.360740 g / cm^3
# Si number density = 23.661255 Si / 1000 Ang^3
#
#
#
# Elastic Constant Matrix: (Units=GPa)
#
#
# Indices 1 2 3 4 5 6 
#
# 1 137.7340 28.7636 31.1736 9.0166 17.4451 22.7583
# 2 28.7636 100.9835 16.7423 -1.8718 11.4764 22.5766
# 3 31.1736 16.7423 75.5349 -2.4095 18.1713 2.1568
# 4 9.0166 -1.8718 -2.4095 37.1295 1.7465 0.6279
# 5 17.4451 11.4764 18.1713 1.7465 32.9276 17.5996
# 6 22.7583 22.5766 2.1568 0.6279 17.5996 29.4032
#
#
#
# Elastic Compliance Matrix: (Units=1/GPa)
#
#
# Indices 1 2 3 4 5 6 
#
# 1 0.009501 -0.000592 -0.004022 -0.002543 0.001512 -0.007455
# 2 -0.000592 0.012694 -0.003083 0.000606 0.003542 -0.011196
# 3 -0.004022 -0.003083 0.018626 0.002470 -0.013785 0.012312
# 4 -0.002543 0.000606 0.002470 0.027842 -0.003077 0.002569
# 5 0.001512 0.003542 -0.013785 -0.003077 0.055301 -0.035914
# 6 -0.007455 -0.011196 0.012312 0.002569 -0.035914 0.068915
#
#
# Mechanical properties :
#
#
# Convention : Reuss Voigt Hill
#
# Bulk Modulus (GPa) = 39.32628 51.95682 45.64155
# Shear Modulus (GPa) = 23.06834 35.73026 29.39930
#
# Velocity S-wave (km/s) = 3.12579 3.89018 3.52875
# Velocity P-wave (km/s) = 5.44831 6.49495 5.99451
#
# Compressibility (1/GPa) = 0.02542829
#
# Stress axis : x y z
#
# Youngs Moduli (GPa) = 105.25141 78.77794 53.68964
#
# Poissons Ratio (x) = 0.04661 0.21593
# Poissons Ratio (y) = 0.06227 0.16550
# Poissons Ratio (z) = 0.42331 0.24284
#
# Static dielectric constant tensor:
#      x y z
#    x 1.910910 -0.002290 0.025250 
#    y -0.002290 1.953930 0.027480 
#    z 0.025250 0.027480 1.986370 
# 
# From -- ./inp_files/216783.got.cif
#   From: 2010.05.17/outbox.cif.g08.bks.cpg/sg2_109_cif.got.tgz:216783.got - 2010.06.03 11:33:40.
