data_PCOD9081250
_publ_section_title
;
Structure prediction by ZEFSAII (Michael W. Deem and Ramdas Pophale) SiO2 
 PCOD9081250
Probable space group: P -1
;
_chemical_formula_sum "Si O2"
_cell_formula_units_Z 16
_cell_length_a 10.058498
_cell_length_b 14.445338
_cell_length_c 5.746629
_cell_angle_alpha 75.146429
_cell_angle_beta 79.376655
_cell_angle_gamma 111.923348
_cell_volume 711.254406
_symmetry_space_group_name_H-M "P -1"
_symmetry_group_IT_number 2
_symmetry_cell_setting 'triclinic'
loop_
_space_group_symop_operation_xyz
x,y,z
-x,-y,-z
loop_
_atom_site_type_symbol
_atom_site_label
_atom_site_fract_x
_atom_site_fract_y
_atom_site_fract_z
Si Si1 0.380834 0.249558 0.076242
Si Si2 0.807344 0.439018 0.354579
Si Si3 0.813155 0.795309 0.215481
Si Si4 0.157663 0.335855 0.322521
Si Si5 0.618723 0.453805 0.058444
Si Si6 0.171113 0.038926 0.512686
Si Si7 0.133791 0.637866 0.125114
Si Si8 0.911396 0.182507 0.182002
O O1 0.266332 0.294323 0.183939
O O2 0.540325 0.332489 0.067886
O O3 0.303876 0.126138 0.255899
O O4 0.352291 0.250940 0.812518
O O5 0.662976 0.458544 0.312867
O O6 0.798981 0.375595 0.636559
O O7 0.957822 0.550455 0.255182
O O8 0.820578 0.386166 0.135520
O O9 0.831348 0.700389 0.401094
O O10 0.826579 0.891892 0.308763
O O11 0.954936 0.836450 0.971691
O O12 0.994941 0.266837 0.308461
O O13 0.228252 0.461216 0.174165
O O14 0.500000 0.500000 0.000000
O O15 0.195891 0.934469 0.615704
O O16 0.000000 0.000000 0.500000
O O17 0.150339 0.757482 0.012289
#
# Coordination Sequence:
#
# PCOD9081250 Si02
#       8
#     2   2   2   2   2   2   2   2
#     4   9  20  34  49  82 117 159 189 234 307 362
#     4  10  22  43  61  88 125 159 203 253 303 368
#     4  10  19  31  52  85 120 155 191 247 310 358
#     4   9  18  32  51  84 117 149 188 237 297 369
#     4  10  20  40  60  87 124 155 195 243 307 373
#     4  11  19  33  53  81 122 154 195 255 305 353
#     4  10  23  39  63  89 120 164 206 250 303 359
#     4  11  20  32  57  86 115 153 201 246 302 358
#
# _framework density 22.495467000000001
#
# number of rings (size 3 to 8) (size 9 to 14) (size 15 to 20)
#    0.000    2.000    5.000    0.375    1.750    1.500 
#    6.750    0.000    0.000    1.500    0.000    0.000 
#    0.000    0.000    0.000    0.000    0.000    0.000 
#
# Total GULP energy -89158.760038 kJ/mol
# GULP energy per Si atom -5572.422502 kJ/mol
# Density = 2.244427 g / cm^3
# Si number density = 22.495467 Si / 1000 Ang^3
#
#
#
# Elastic Constant Matrix: (Units=GPa)
#
#
# Indices 1 2 3 4 5 6 
#
# 1 65.0751 39.5519 49.4582 1.5605 36.7075 9.2736
# 2 39.5519 114.1485 73.2583 -26.1563 23.2251 19.0948
# 3 49.4582 73.2583 137.2079 -25.4334 47.7204 8.8630
# 4 1.5605 -26.1563 -25.4334 46.5658 -5.7572 4.3207
# 5 36.7075 23.2251 47.7204 -5.7572 44.5534 7.2474
# 6 9.2736 19.0948 8.8630 4.3207 7.2474 35.4184
#
#
#
# Elastic Compliance Matrix: (Units=1/GPa)
#
#
# Indices 1 2 3 4 5 6 
#
# 1 0.036290 -0.009339 -0.001424 -0.010580 -0.025255 0.002348
# 2 -0.009339 0.018219 -0.007143 0.008442 0.008291 -0.008316
# 3 -0.001424 -0.007143 0.016497 0.003259 -0.012726 0.002302
# 4 -0.010580 0.008442 0.003259 0.029768 0.005881 -0.007432
# 5 -0.025255 0.008291 -0.012726 0.005881 0.054381 -0.006518
# 6 0.002348 -0.008316 0.002302 -0.007432 -0.006518 0.033767
#
#
# Mechanical properties :
#
#
# Convention : Reuss Voigt Hill
#
# Bulk Modulus (GPa) = 28.41404 71.21870 49.81637
# Shear Modulus (GPa) = 21.14475 35.58506 28.36491
#
# Velocity S-wave (km/s) = 3.06920 3.98160 3.55479
# Velocity P-wave (km/s) = 5.02179 7.27086 6.24835
#
# Compressibility (1/GPa) = 0.03519387
#
# Stress axis : x y z
#
# Youngs Moduli (GPa) = 27.55566 54.88705 60.61841
#
# Poissons Ratio (x) = 0.51259 0.08634
# Poissons Ratio (y) = 0.25734 0.43299
# Poissons Ratio (z) = 0.03925 0.39205
#
# Static dielectric constant tensor:
#      x y z
#    x 2.005830 -0.044670 0.041590 
#    y -0.044670 1.865640 0.026040 
#    z 0.041590 0.026040 2.010720 
# 
# From -- ./inp_files/77413.got.cif
#   From: 2010.05.17/outbox.cif.g08.bks.cpg/sg2_39_cif.got.tgz:77413.got - 2010.06.03 11:33:40.
