data_PCOD9081692
_publ_section_title
;
Structure prediction by ZEFSAII (Michael W. Deem and Ramdas Pophale) SiO2 
 PCOD9081692
Probable space group: P -1
;
_chemical_formula_sum "Si O2"
_cell_formula_units_Z 14
_cell_length_a 6.748331
_cell_length_b 12.991944
_cell_length_c 9.573256
_cell_angle_alpha 108.215756
_cell_angle_beta 107.382971
_cell_angle_gamma 123.802084
_cell_volume 530.582539
_symmetry_space_group_name_H-M "P -1"
_symmetry_group_IT_number 2
_symmetry_cell_setting 'triclinic'
loop_
_space_group_symop_operation_xyz
x,y,z
-x,-y,-z
loop_
_atom_site_type_symbol
_atom_site_label
_atom_site_fract_x
_atom_site_fract_y
_atom_site_fract_z
Si Si1 0.857377 0.868580 0.707916
Si Si2 0.288497 0.324221 0.825056
Si Si3 0.356284 0.133867 0.602101
Si Si4 0.683728 0.723233 0.896991
Si Si5 0.765325 0.608135 0.433625
Si Si6 0.508104 0.047163 0.831050
Si Si7 0.245911 0.742832 0.792399
O O1 0.653953 0.869624 0.569461
O O2 0.821958 0.844678 0.854216
O O3 0.746468 0.712236 0.557172
O O4 0.209954 0.999833 0.804829
O O5 0.446856 0.281382 0.760824
O O6 0.098440 0.307528 0.653321
O O7 0.500000 0.500000 0.000000
O O8 0.150888 0.228610 0.900541
O O9 0.513786 0.093140 0.694740
O O10 0.000000 0.000000 0.500000
O O11 0.548651 0.562163 0.739780
O O12 0.387916 0.684376 0.847538
O O13 0.964739 0.612752 0.581352
O O14 0.435929 0.897757 0.798965
O O15 0.777490 0.193545 0.044388
#
# Coordination Sequence:
#
# PCOD9081692 Si02
#       7
#     2   2   2   2   2   2   2
#     4   9  19  32  55  80 103 131 174 219 260 299
#     4   9  18  32  53  78 101 134 179 214 249 308
#     4   9  16  33  53  73  99 143 174 203 254 321
#     4  11  19  32  55  83 103 127 175 229 253 290
#     4   9  19  35  54  74 106 142 168 202 265 323
#     4   9  18  34  53  73 101 143 173 204 255 321
#     4  10  19  32  54  76 102 135 178 207 253 312
#
# _framework density 26.386092000000001
#
# number of rings (size 3 to 8) (size 9 to 14) (size 15 to 20)
#    0.000    2.571    1.429    1.714    0.000    0.571 
#    0.000    0.714    9.429    0.857    0.000    0.000 
#    0.000    0.000    0.000    0.000    0.000    0.000 
#
# Total GULP energy -78095.953457 kJ/mol
# GULP energy per Si atom -5578.282390 kJ/mol
# Density = 2.632604 g / cm^3
# Si number density = 26.386092 Si / 1000 Ang^3
#
#
#
# Elastic Constant Matrix: (Units=GPa)
#
#
# Indices 1 2 3 4 5 6 
#
# 1 34.8913 15.4172 28.3890 -5.4591 13.9883 -11.1032
# 2 15.4172 84.2174 74.5259 -23.8271 -1.0037 -11.4758
# 3 28.3890 74.5259 166.9000 -32.9710 9.5159 5.4201
# 4 -5.4591 -23.8271 -32.9710 84.0064 -14.6308 -11.4922
# 5 13.9883 -1.0037 9.5159 -14.6308 39.6238 -10.1589
# 6 -11.1032 -11.4758 5.4201 -11.4922 -10.1589 29.4430
#
#
#
# Elastic Compliance Matrix: (Units=1/GPa)
#
#
# Indices 1 2 3 4 5 6 
#
# 1 0.042989 0.000883 -0.007562 0.000492 -0.009331 0.014920
# 2 0.000883 0.027776 -0.012312 0.007914 0.011524 0.020491
# 3 -0.007562 -0.012312 0.013174 -0.001218 -0.004346 -0.012051
# 4 0.000492 0.007914 -0.001218 0.017385 0.010284 0.013828
# 5 -0.009331 0.011524 -0.004346 0.010284 0.038559 0.019091
# 6 0.014920 0.020491 -0.012051 0.013828 0.019091 0.061780
#
#
# Mechanical properties :
#
#
# Convention : Reuss Voigt Hill
#
# Bulk Modulus (GPa) = 21.75945 58.07476 39.91711
# Shear Modulus (GPa) = 19.61056 41.79308 30.70182
#
# Velocity S-wave (km/s) = 2.72916 3.98415 3.41480
# Velocity P-wave (km/s) = 4.26562 6.57434 5.54155
#
# Compressibility (1/GPa) = 0.04595705
#
# Stress axis : x y z
#
# Youngs Moduli (GPa) = 23.26193 36.00183 75.90624
#
# Poissons Ratio (x) = -0.03180 0.57400
# Poissons Ratio (y) = -0.02055 0.93459
# Poissons Ratio (z) = 0.17590 0.44327
#
# Static dielectric constant tensor:
#      x y z
#    x 2.171370 0.034350 0.021720 
#    y 0.034350 2.179330 -0.030410 
#    z 0.021720 -0.030410 2.082010 
# 
# From -- ./inp_files/163336.got.cif
#   From: 2010.05.17/outbox.cif.g08.bks.cpg/sg2_82_cif.got.tgz:163336.got - 2010.06.03 11:33:40.
