data_PCOD9081373
_publ_section_title
;
Structure prediction by ZEFSAII (Michael W. Deem and Ramdas Pophale) SiO2 
 PCOD9081373
Probable space group: P -1
;
_chemical_formula_sum "Si O2"
_cell_formula_units_Z 16
_cell_length_a 8.455559
_cell_length_b 11.811809
_cell_length_c 18.178758
_cell_angle_alpha 73.381626
_cell_angle_beta 121.705215
_cell_angle_gamma 58.406065
_cell_volume 832.116454
_symmetry_space_group_name_H-M "P -1"
_symmetry_group_IT_number 2
_symmetry_cell_setting 'triclinic'
loop_
_space_group_symop_operation_xyz
x,y,z
-x,-y,-z
loop_
_atom_site_type_symbol
_atom_site_label
_atom_site_fract_x
_atom_site_fract_y
_atom_site_fract_z
Si Si1 0.853898 0.290891 0.995234
Si Si2 0.608973 0.986761 0.223708
Si Si3 0.757949 0.106199 0.768986
Si Si4 0.614453 0.603398 0.238485
Si Si5 0.734116 0.691918 0.109205
Si Si6 0.076016 0.177584 0.821668
Si Si7 0.311476 0.378623 0.050593
Si Si8 0.166411 0.296383 0.541610
O O1 0.653991 0.501765 0.945575
O O2 0.653977 0.349176 0.865301
O O3 0.225906 0.143909 0.097604
O O4 0.919142 0.142703 0.090809
O O5 0.797975 0.848553 0.222484
O O6 0.781359 0.837610 0.363609
O O7 0.596092 0.136307 0.188663
O O8 0.577484 0.210425 0.785492
O O9 0.536054 0.152574 0.647514
O O10 0.806305 0.217288 0.739989
O O11 0.744718 0.604502 0.199041
O O12 0.929432 0.388517 0.399646
O O13 0.990224 0.667190 0.180021
O O14 0.761144 0.608646 0.054960
O O15 0.379607 0.945823 0.975694
O O16 0.000000 0.500000 0.000000
O O17 0.000000 0.500000 0.500000
#
# Coordination Sequence:
#
# PCOD9081373 Si02
#       8
#     2   2   2   2   2   2   2   2
#     4  10  19  34  58  81 106 141 185 219 263 323
#     4   9  19  37  56  78 112 145 176 217 273 318
#     4  10  20  33  57  82 110 142 177 221 273 317
#     4  11  21  34  54  85 111 138 182 223 271 315
#     4  10  20  32  51  84 113 134 172 230 273 310
#     4  10  19  31  56  83 110 136 177 225 275 313
#     4   9  20  35  56  79 109 143 178 222 271 315
#     4   9  19  36  54  76 111 147 174 216 270 325
#
# _framework density 19.228076999999999
#
# number of rings (size 3 to 8) (size 9 to 14) (size 15 to 20)
#    0.000    2.250    1.250    2.625    7.000    0.500 
#    0.000    6.250    0.000    6.750    0.000    0.000 
#    0.000    0.000    0.000    0.000    0.000    0.000 
#
# Total GULP energy -89133.355890 kJ/mol
# GULP energy per Si atom -5570.834743 kJ/mol
# Density = 1.918431 g / cm^3
# Si number density = 19.228077 Si / 1000 Ang^3
#
#
#
# Elastic Constant Matrix: (Units=GPa)
#
#
# Indices 1 2 3 4 5 6 
#
# 1 86.9598 21.5601 37.1607 6.6842 -18.7647 8.9673
# 2 21.5601 90.2513 32.4536 7.5190 -8.6153 18.6671
# 3 37.1607 32.4536 134.9902 12.2192 -21.8852 11.3215
# 4 6.6842 7.5190 12.2192 10.3677 -0.0239 -0.3828
# 5 -18.7647 -8.6153 -21.8852 -0.0239 24.0493 2.5324
# 6 8.9673 18.6671 11.3215 -0.3828 2.5324 28.7059
#
#
#
# Elastic Compliance Matrix: (Units=1/GPa)
#
#
# Indices 1 2 3 4 5 6 
#
# 1 0.015847 -0.000416 -0.001107 -0.008783 0.011768 -0.005399
# 2 -0.000416 0.014829 -0.000911 -0.009760 0.005174 -0.009740
# 3 -0.001107 -0.000911 0.010803 -0.011495 0.009080 -0.004277
# 4 -0.008783 -0.009760 -0.011495 0.123327 -0.022504 0.017254
# 5 0.011768 0.005174 0.009080 -0.022504 0.062589 -0.016444
# 6 -0.005399 -0.009740 -0.004277 0.017254 -0.016444 0.046224
#
#
# Mechanical properties :
#
#
# Convention : Reuss Voigt Hill
#
# Bulk Modulus (GPa) = 27.31424 54.95001 41.13213
# Shear Modulus (GPa) = 17.20042 27.35970 22.28006
#
# Velocity S-wave (km/s) = 2.99414 3.77623 3.40770
# Velocity P-wave (km/s) = 5.11756 6.90314 6.07629
#
# Compressibility (1/GPa) = 0.03661094
#
# Stress axis : x y z
#
# Youngs Moduli (GPa) = 63.10397 67.43561 92.56771
#
# Poissons Ratio (x) = 0.02805 0.10244
# Poissons Ratio (y) = 0.02625 0.08436
# Poissons Ratio (z) = 0.06983 0.06145
#
# Static dielectric constant tensor:
#      x y z
#    x 1.764220 0.023940 0.058110 
#    y 0.023940 1.700040 -0.003660 
#    z 0.058110 -0.003660 1.729580 
# 
# From -- ./inp_files/335568.got.cif
#   From: 2010.05.17/outbox.cif.g08.bks.cpg/sg2_168_cif.got.tgz:335568.got - 2010.06.03 11:33:40.
