data_PCOD9081812
_publ_section_title
;
Structure prediction by ZEFSAII (Michael W. Deem and Ramdas Pophale) SiO2 
 PCOD9081812
Probable space group: P -1
;
_chemical_formula_sum "Si O2"
_cell_formula_units_Z 16
_cell_length_a 8.529953
_cell_length_b 5.094192
_cell_length_c 15.219304
_cell_angle_alpha 74.898761
_cell_angle_beta 96.866321
_cell_angle_gamma 86.129963
_cell_volume 630.545313
_symmetry_space_group_name_H-M "P -1"
_symmetry_group_IT_number 2
_symmetry_cell_setting 'triclinic'
loop_
_space_group_symop_operation_xyz
x,y,z
-x,-y,-z
loop_
_atom_site_type_symbol
_atom_site_label
_atom_site_fract_x
_atom_site_fract_y
_atom_site_fract_z
Si Si1 0.913223 0.271999 0.767969
Si Si2 0.036797 0.685311 0.863774
Si Si3 0.388314 0.273192 0.690928
Si Si4 0.726767 0.624673 0.970671
Si Si5 0.480699 0.173270 0.393590
Si Si6 0.160866 0.964408 0.395939
Si Si7 0.602532 0.213639 0.872655
Si Si8 0.897425 0.373590 0.428527
O O1 0.034608 0.006322 0.822243
O O2 0.872878 0.239374 0.666457
O O3 0.987360 0.532815 0.786947
O O4 0.751598 0.239285 0.814077
O O5 0.887378 0.651769 0.921639
O O6 0.199343 0.541234 0.926609
O O7 0.208944 0.402824 0.653357
O O8 0.487215 0.510707 0.634631
O O9 0.450708 0.228385 0.797900
O O10 0.419583 0.996656 0.661000
O O11 0.610926 0.456176 0.920839
O O12 0.643819 0.927857 0.950252
O O13 0.500000 0.000000 0.500000
O O14 0.296800 0.146811 0.359224
O O15 0.005895 0.154556 0.398934
O O16 0.212998 0.795910 0.502235
O O17 0.000000 0.500000 0.500000
#
# Coordination Sequence:
#
# PCOD9081812 Si02
#       8
#     2   2   2   2   2   2   2   2
#     4  10  20  32  55  86 118 153 206 248 295 358
#     4   9  18  31  52  83 120 159 189 241 306 369
#     4  12  25  41  63  95 121 165 212 256 309 368
#     4   9  17  32  51  82 125 156 187 238 315 364
#     4  12  24  40  65  89 120 161 214 259 311 365
#     4  11  25  42  61  91 122 169 207 264 309 362
#     4  10  19  32  55  87 120 154 198 251 297 364
#     4  11  27  45  63  85 129 170 210 258 314 372
#
# _framework density 25.374860000000002
#
# number of rings (size 3 to 8) (size 9 to 14) (size 15 to 20)
#    0.000    1.500    2.500    2.625    8.750    3.000 
#    0.000    0.000    0.000    0.000    0.000    5.250 
#    0.000    0.000    0.000    0.000    0.000    0.000 
#
# Total GULP energy -89672.251679 kJ/mol
# GULP energy per Si atom -5604.515730 kJ/mol
# Density = 2.531711 g / cm^3
# Si number density = 25.374860 Si / 1000 Ang^3
#
#
#
# Elastic Constant Matrix: (Units=GPa)
#
#
# Indices 1 2 3 4 5 6 
#
# 1 67.8156 5.2535 15.4472 -0.0826 14.0115 -12.7353
# 2 5.2535 66.2197 2.0712 -1.2379 -5.1877 -2.1691
# 3 15.4472 2.0712 84.0425 -10.0633 20.0149 -18.4243
# 4 -0.0826 -1.2379 -10.0633 46.9227 -9.2757 4.7599
# 5 14.0115 -5.1877 20.0149 -9.2757 39.1603 -1.5362
# 6 -12.7353 -2.1691 -18.4243 4.7599 -1.5362 33.6667
#
#
#
# Elastic Compliance Matrix: (Units=1/GPa)
#
#
# Indices 1 2 3 4 5 6 
#
# 1 0.017496 -0.001712 -0.000515 -0.002033 -0.006461 0.006219
# 2 -0.001712 0.015532 -0.000745 0.000895 0.003262 -0.000032
# 3 -0.000515 -0.000745 0.015597 0.001085 -0.007323 0.007805
# 4 -0.002033 0.000895 0.001085 0.022990 0.005615 -0.003112
# 5 -0.006461 0.003262 -0.007323 0.005615 0.033136 -0.005523
# 6 0.006219 -0.000032 0.007805 -0.003112 -0.005523 0.036513
#
#
# Mechanical properties :
#
#
# Convention : Reuss Voigt Hill
#
# Bulk Modulus (GPa) = 23.43003 29.29129 26.36066
# Shear Modulus (GPa) = 30.97244 36.97032 33.97138
#
# Velocity S-wave (km/s) = 3.49749 3.82116 3.66291
# Velocity P-wave (km/s) = 5.05604 5.57108 5.31979
#
# Compressibility (1/GPa) = 0.04268027
#
# Stress axis : x y z
#
# Youngs Moduli (GPa) = 57.15532 64.38491 64.11632
#
# Poissons Ratio (x) = 0.11026 0.03302
# Poissons Ratio (y) = 0.09787 0.04775
# Poissons Ratio (z) = 0.02943 0.04795
#
# Static dielectric constant tensor:
#      x y z
#    x 2.083930 0.053070 -0.042250 
#    y 0.053070 1.935620 -0.054790 
#    z -0.042250 -0.054790 1.984360 
# 
# From -- ./inp_files/510389.got.cif
#   From: 2010.05.17/outbox.cif.g08.bks.cpg/sg2_256_cif.got.tgz:510389.got - 2010.06.03 11:33:40.
