data_PCOD9081027
_publ_section_title
;
Structure prediction by ZEFSAII (Michael W. Deem and Ramdas Pophale) SiO2 
 PCOD9081027
Probable space group: P -1
;
_chemical_formula_sum "Si O2"
_cell_formula_units_Z 14
_cell_length_a 6.433479
_cell_length_b 13.541497
_cell_length_c 12.173052
_cell_angle_alpha 49.862345
_cell_angle_beta 126.524706
_cell_angle_gamma 137.555414
_cell_volume 532.284559
_symmetry_space_group_name_H-M "P -1"
_symmetry_group_IT_number 2
_symmetry_cell_setting 'triclinic'
loop_
_space_group_symop_operation_xyz
x,y,z
-x,-y,-z
loop_
_atom_site_type_symbol
_atom_site_label
_atom_site_fract_x
_atom_site_fract_y
_atom_site_fract_z
Si Si1 0.656616 0.879158 0.430171
Si Si2 0.417966 0.676589 0.823126
Si Si3 0.303265 0.955568 0.113282
Si Si4 0.000749 0.993545 0.808767
Si Si5 0.331095 0.396003 0.855893
Si Si6 0.324768 0.522238 0.545782
Si Si7 0.900890 0.228024 0.489265
O O1 0.590280 0.953960 0.251985
O O2 0.573877 0.708880 0.493996
O O3 0.397173 0.833418 0.476849
O O4 0.000000 0.000000 0.500000
O O5 0.789378 0.816731 0.820825
O O6 0.315545 0.530410 0.815568
O O7 0.231056 0.754017 0.679871
O O8 0.421402 0.619340 0.987448
O O9 0.011694 0.771493 0.135434
O O10 0.209453 0.017471 0.143275
O O11 0.310035 0.043445 0.941794
O O12 0.986820 0.108249 0.638760
O O13 0.419613 0.446163 0.722461
O O14 0.000000 0.500000 0.500000
O O15 0.188972 0.405796 0.483543
#
# Coordination Sequence:
#
# PCOD9081027 Si02
#       7
#     2   2   2   2   2   2   2
#     4  10  18  28  48  72  96 122 158 200 231 267
#     4  10  18  24  44  78 100 114 147 206 246 262
#     4   9  16  30  45  70  95 125 157 189 232 284
#     4   9  17  26  46  71  99 121 150 194 238 276
#     4  10  16  28  45  70 100 119 150 198 236 272
#     4  10  15  29  49  67  92 120 159 195 224 277
#     4  10  17  31  48  74  95 121 159 193 231 282
#
# _framework density 26.301722000000002
#
# number of rings (size 3 to 8) (size 9 to 14) (size 15 to 20)
#    0.000    2.286    7.143    0.429    0.000    0.000 
#    0.000    0.000    0.000    4.286    0.000   17.000 
#    0.000    0.000    0.000    0.000    0.000    0.000 
#
# Total GULP energy -78321.889213 kJ/mol
# GULP energy per Si atom -5594.420658 kJ/mol
# Density = 2.624186 g / cm^3
# Si number density = 26.301722 Si / 1000 Ang^3
#
#
#
# Elastic Constant Matrix: (Units=GPa)
#
#
# Indices 1 2 3 4 5 6 
#
# 1 50.8493 25.0107 27.4971 3.3872 17.4523 -6.6353
# 2 25.0107 183.0605 38.2347 11.3927 0.3840 -0.8131
# 3 27.4971 38.2347 275.0833 23.5422 2.9182 3.0064
# 4 3.3872 11.3927 23.5422 45.3612 -2.6452 -2.2198
# 5 17.4523 0.3840 2.9182 -2.6452 46.9479 -8.1960
# 6 -6.6353 -0.8131 3.0064 -2.2198 -8.1960 37.2073
#
#
#
# Elastic Compliance Matrix: (Units=1/GPa)
#
#
# Indices 1 2 3 4 5 6 
#
# 1 0.025720 -0.003026 -0.002042 -0.000492 -0.008969 0.002680
# 2 -0.003026 0.006031 -0.000459 -0.001002 0.001011 -0.000208
# 3 -0.002042 -0.000459 0.004068 -0.001865 0.000273 -0.000754
# 4 -0.000492 -0.001002 -0.001865 0.023507 0.001959 0.001875
# 5 -0.008969 0.001011 0.000273 0.001959 0.025439 0.004121
# 6 0.002680 -0.000208 -0.000754 0.001875 0.004121 0.028430
#
#
# Mechanical properties :
#
#
# Convention : Reuss Voigt Hill
#
# Bulk Modulus (GPa) = 40.37933 76.71981 58.54957
# Shear Modulus (GPa) = 37.73460 53.78665 45.76062
#
# Velocity S-wave (km/s) = 3.79183 4.52706 4.17566
# Velocity P-wave (km/s) = 5.87846 7.52051 6.74961
#
# Compressibility (1/GPa) = 0.02476514
#
# Stress axis : x y z
#
# Youngs Moduli (GPa) = 38.88085 165.80482 245.81752
#
# Poissons Ratio (x) = 0.50173 0.50204
# Poissons Ratio (y) = 0.11765 0.11271
# Poissons Ratio (z) = 0.07941 0.07602
#
# Static dielectric constant tensor:
#      x y z
#    x 2.326570 0.068500 0.007170 
#    y 0.068500 1.990250 -0.012090 
#    z 0.007170 -0.012090 2.058180 
# 
# From -- ./inp_files/252601.got.cif
#   From: 2010.05.17/outbox.cif.g08.bks.cpg/sg2_127_cif.got.tgz:252601.got - 2010.06.03 11:33:40.
