data_PCOD9081183
_publ_section_title
;
Structure prediction by ZEFSAII (Michael W. Deem and Ramdas Pophale) SiO2 
 PCOD9081183
Probable space group: P -1
;
_chemical_formula_sum "Si O2"
_cell_formula_units_Z 14
_cell_length_a 8.500848
_cell_length_b 10.234265
_cell_length_c 14.191770
_cell_angle_alpha 27.289201
_cell_angle_beta 68.653508
_cell_angle_gamma 66.493127
_cell_volume 518.968656
_symmetry_space_group_name_H-M "P -1"
_symmetry_group_IT_number 2
_symmetry_cell_setting 'triclinic'
loop_
_space_group_symop_operation_xyz
x,y,z
-x,-y,-z
loop_
_atom_site_type_symbol
_atom_site_label
_atom_site_fract_x
_atom_site_fract_y
_atom_site_fract_z
Si Si1 0.565783 0.676252 0.784997
Si Si2 0.922314 0.550651 0.836710
Si Si3 0.551716 0.121764 0.071070
Si Si4 0.361474 0.478824 0.623514
Si Si5 0.712206 0.384471 0.237530
Si Si6 0.993203 0.523861 0.347707
Si Si7 0.826933 0.950535 0.261274
O O1 0.740646 0.768786 0.722638
O O2 0.392169 0.809533 0.681088
O O3 0.635442 0.411388 0.865302
O O4 0.500000 0.500000 0.000000
O O5 0.082142 0.672235 0.767665
O O6 0.875723 0.259143 0.079356
O O7 0.986033 0.445745 0.786459
O O8 0.616987 0.871105 0.144534
O O9 0.633576 0.982766 0.240673
O O10 0.355264 0.282707 0.000096
O O11 0.500000 0.500000 0.500000
O O12 0.183885 0.603880 0.530684
O O13 0.361220 0.604599 0.647107
O O14 0.137007 0.291097 0.512960
O O15 0.949222 0.809491 0.238127
#
# Coordination Sequence:
#
# PCOD9081183 Si02
#       7
#     2   2   2   2   2   2   2
#     4   9  20  36  56  79 102 140 188 225 267 314
#     4  10  19  34  55  73 106 142 170 232 272 301
#     4   8  18  34  49  78 108 136 180 212 264 327
#     4  10  19  31  50  81 117 143 167 220 271 320
#     4   9  20  34  54  81 106 137 184 212 265 335
#     4   9  19  30  47  79 106 143 187 202 262 339
#     4   9  17  32  49  73 111 144 170 217 261 322
#
# _framework density 26.976579000000001
#
# number of rings (size 3 to 8) (size 9 to 14) (size 15 to 20)
#    0.857    2.000    0.000    0.857    2.000    5.143 
#    0.000    0.000    0.000    7.714    0.000   11.000 
#    0.000    0.000    0.000    0.000    0.000    0.000 
#
# Total GULP energy -78004.313377 kJ/mol
# GULP energy per Si atom -5571.736670 kJ/mol
# Density = 2.691518 g / cm^3
# Si number density = 26.976579 Si / 1000 Ang^3
#
#
#
# Elastic Constant Matrix: (Units=GPa)
#
#
# Indices 1 2 3 4 5 6 
#
# 1 216.8413 43.6573 56.1352 13.1323 19.8991 -29.8730
# 2 43.6573 106.5554 34.3538 -5.0220 10.6097 -0.5918
# 3 56.1352 34.3538 78.0029 11.7287 10.8232 2.2934
# 4 13.1323 -5.0220 11.7287 42.8176 -6.5678 8.7048
# 5 19.8991 10.6097 10.8232 -6.5678 46.8092 3.6514
# 6 -29.8730 -0.5918 2.2934 8.7048 3.6514 47.1940
#
#
#
# Elastic Compliance Matrix: (Units=1/GPa)
#
#
# Indices 1 2 3 4 5 6 
#
# 1 0.007032 -0.001508 -0.003778 -0.002778 -0.002580 0.005328
# 2 -0.001508 0.011614 -0.004418 0.003203 -0.000431 -0.001151
# 3 -0.003778 -0.004418 0.018483 -0.004253 -0.002076 -0.002400
# 4 -0.002778 0.003203 -0.004253 0.028114 0.005941 -0.007157
# 5 -0.002580 -0.000431 -0.002076 0.005941 0.024223 -0.004507
# 6 0.005328 -0.001151 -0.002400 -0.007157 -0.004507 0.026332
#
#
# Mechanical properties :
#
#
# Convention : Reuss Voigt Hill
#
# Bulk Modulus (GPa) = 56.42723 74.41024 65.41874
# Shear Modulus (GPa) = 35.43277 45.18103 40.30690
#
# Velocity S-wave (km/s) = 3.62811 4.09690 3.86961
# Velocity P-wave (km/s) = 6.20592 7.07267 6.65342
#
# Compressibility (1/GPa) = 0.01772194
#
# Stress axis : x y z
#
# Youngs Moduli (GPa) = 142.20514 86.10024 54.10498
#
# Poissons Ratio (x) = 0.12981 0.20440
# Poissons Ratio (y) = 0.21440 0.23904
# Poissons Ratio (z) = 0.53722 0.38040
#
# Static dielectric constant tensor:
#      x y z
#    x 2.207610 -0.004410 -0.012480 
#    y -0.004410 2.201080 0.024110 
#    z -0.012480 0.024110 2.189770 
# 
# From -- ./inp_files/503542.got.cif
#   From: 2010.05.17/outbox.cif.g08.bks.cpg/sg2_252_cif.got.tgz:503542.got - 2010.06.03 11:33:40.
