data_PCOD9081882
_publ_section_title
;
Structure prediction by ZEFSAII (Michael W. Deem and Ramdas Pophale) SiO2 
 PCOD9081882
Probable space group: P -1
;
_chemical_formula_sum "Si O2"
_cell_formula_units_Z 16
_cell_length_a 8.529632
_cell_length_b 16.746155
_cell_length_c 9.706520
_cell_angle_alpha 119.293865
_cell_angle_beta 66.668076
_cell_angle_gamma 63.359258
_cell_volume 663.320854
_symmetry_space_group_name_H-M "P -1"
_symmetry_group_IT_number 2
_symmetry_cell_setting 'triclinic'
loop_
_space_group_symop_operation_xyz
x,y,z
-x,-y,-z
loop_
_atom_site_type_symbol
_atom_site_label
_atom_site_fract_x
_atom_site_fract_y
_atom_site_fract_z
Si Si1 0.413980 0.272029 0.277163
Si Si2 0.731761 0.970504 0.838103
Si Si3 0.624634 0.058147 0.438608
Si Si4 0.710232 0.463882 0.505938
Si Si5 0.351645 0.501989 0.853885
Si Si6 0.750821 0.175600 0.349694
Si Si7 0.157336 0.232204 0.946858
Si Si8 0.899602 0.730804 0.421028
O O1 0.317968 0.413785 0.381766
O O2 0.637908 0.197949 0.259280
O O3 0.174338 0.311416 0.469438
O O4 0.576128 0.133374 0.000396
O O5 0.889111 0.841963 0.561379
O O6 0.961988 0.890371 0.809358
O O7 0.500000 0.000000 0.000000
O O8 0.802707 0.068261 0.340278
O O9 0.467104 0.133849 0.704846
O O10 0.362817 0.165960 0.510011
O O11 0.812851 0.886829 0.207880
O O12 0.500000 0.500000 0.500000
O O13 0.587293 0.474615 0.698815
O O14 0.026475 0.303226 0.203818
O O15 0.504315 0.340043 0.646658
O O16 0.086604 0.617882 0.936587
O O17 0.197425 0.582793 0.119406
#
# Coordination Sequence:
#
# PCOD9081882 Si02
#       8
#     2   2   2   2   2   2   2   2
#     4  10  20  37  63  92 112 155 204 251 291 351
#     4  10  23  40  57  86 124 158 200 251 299 347
#     4   9  20  34  63  93 114 156 205 244 294 354
#     4  10  19  32  56  91 122 151 181 256 307 339
#     4  10  21  35  59  91 127 150 193 247 309 342
#     4  11  21  34  64  96 109 152 210 254 286 356
#     4   9  18  35  56  89 130 148 186 253 310 337
#     4   9  21  40  59  85 125 165 194 239 298 362
#
# _framework density 24.121058000000001
#
# number of rings (size 3 to 8) (size 9 to 14) (size 15 to 20)
#    0.000    2.250    2.500    0.375    5.250    5.000 
#    0.000    0.625    0.000    3.750    0.000    0.000 
#    0.000    0.000    0.000    0.000    0.000    0.000 
#
# Total GULP energy -89401.435965 kJ/mol
# GULP energy per Si atom -5587.589748 kJ/mol
# Density = 2.406616 g / cm^3
# Si number density = 24.121058 Si / 1000 Ang^3
#
#
#
# Elastic Constant Matrix: (Units=GPa)
#
#
# Indices 1 2 3 4 5 6 
#
# 1 91.0893 18.1849 38.4268 -3.2794 -3.7646 9.0067
# 2 18.1849 68.0626 30.5236 -3.1081 10.4538 28.9451
# 3 38.4268 30.5236 173.1054 4.1593 20.0041 20.5034
# 4 -3.2794 -3.1081 4.1593 32.6143 4.6677 5.4207
# 5 -3.7646 10.4538 20.0041 4.6677 32.5066 8.0623
# 6 9.0067 28.9451 20.5034 5.4207 8.0623 37.1837
#
#
#
# Elastic Compliance Matrix: (Units=1/GPa)
#
#
# Indices 1 2 3 4 5 6 
#
# 1 0.012945 -0.002485 -0.002852 0.000953 0.004078 -0.000651
# 2 -0.002485 0.024262 -0.001353 0.005686 -0.003718 -0.017561
# 3 -0.002852 -0.001353 0.007277 -0.000556 -0.003964 -0.001328
# 4 0.000953 0.005686 -0.000556 0.033340 -0.004099 -0.008322
# 5 0.004078 -0.003718 -0.003964 -0.004099 0.036245 -0.003169
# 6 -0.000651 -0.017561 -0.001328 -0.008322 -0.003169 0.043354
#
#
# Mechanical properties :
#
#
# Convention : Reuss Voigt Hill
#
# Bulk Modulus (GPa) = 32.15182 56.28087 44.21634
# Shear Modulus (GPa) = 27.59789 36.80237 32.20013
#
# Velocity S-wave (km/s) = 3.38619 3.91031 3.65765
# Velocity P-wave (km/s) = 5.35225 6.61594 6.01736
#
# Compressibility (1/GPa) = 0.03110244
#
# Stress axis : x y z
#
# Youngs Moduli (GPa) = 77.24995 41.21622 137.41159
#
# Poissons Ratio (x) = 0.10244 0.39195
# Poissons Ratio (y) = 0.19199 0.18597
# Poissons Ratio (z) = 0.22035 0.05578
#
# Static dielectric constant tensor:
#      x y z
#    x 1.972010 -0.029610 0.017190 
#    y -0.029610 1.960040 -0.017060 
#    z 0.017190 -0.017060 1.960890 
# 
# From -- ./inp_files/277751.got.cif
#   From: 2010.05.17/outbox.cif.g08.bks.cpg/sg2_139_cif.got.tgz:277751.got - 2010.06.03 11:33:40.
