data_PCOD9081262
_publ_section_title
;
Structure prediction by ZEFSAII (Michael W. Deem and Ramdas Pophale) SiO2 
 PCOD9081262
Probable space group: P -1
;
_chemical_formula_sum "Si O2"
_cell_formula_units_Z 16
_cell_length_a 18.601235
_cell_length_b 14.543051
_cell_length_c 27.913576
_cell_angle_alpha 160.035588
_cell_angle_beta 18.592522
_cell_angle_gamma 150.839355
_cell_volume 811.226106
_symmetry_space_group_name_H-M "P -1"
_symmetry_group_IT_number 2
_symmetry_cell_setting 'triclinic'
loop_
_space_group_symop_operation_xyz
x,y,z
-x,-y,-z
loop_
_atom_site_type_symbol
_atom_site_label
_atom_site_fract_x
_atom_site_fract_y
_atom_site_fract_z
Si Si1 0.961936 0.258134 0.795567
Si Si2 0.998630 0.851320 0.816726
Si Si3 0.647845 0.780479 0.264115
Si Si4 0.555015 0.984785 0.901341
Si Si5 0.257338 0.003168 0.566823
Si Si6 0.567688 0.464750 0.579434
Si Si7 0.674449 0.377339 0.289164
Si Si8 0.915110 0.744409 0.710881
O O1 0.115992 0.039247 0.624794
O O2 0.130184 0.427776 0.744249
O O3 0.787258 0.101586 0.801369
O O4 0.787920 0.489824 0.048648
O O5 0.166107 0.672178 0.660613
O O6 0.948186 0.696661 0.723581
O O7 0.163152 0.060623 0.798356
O O8 0.781722 0.060196 0.074732
O O9 0.500000 0.000000 0.500000
O O10 0.458492 0.751254 0.328444
O O11 0.573825 0.675986 0.721474
O O12 0.500000 0.000000 0.000000
O O13 0.344332 0.146836 0.084656
O O14 0.397338 0.255691 0.599887
O O15 0.064523 0.980023 0.716978
O O16 0.458136 0.602172 0.667785
O O17 0.500000 0.500000 0.500000
O O18 0.000000 0.500000 0.500000
#
# Coordination Sequence:
#
# PCOD9081262 Si02
#       8
#     2   2   2   2   2   2   2   2
#     4  10  23  38  55  87 118 153 201 244 293 353
#     4  10  21  36  57  88 119 152 197 248 288 356
#     4  10  19  31  53  79 112 154 194 232 284 347
#     4  12  23  34  54  91 131 163 186 229 296 368
#     4  10  21  35  54  80 118 163 195 232 280 355
#     4  10  23  38  60  88 118 155 202 244 299 360
#     4  10  22  45  68  85 108 153 214 266 300 333
#     4  12  22  33  54  87 129 168 193 229 290 364
#
# _framework density 19.723231999999999
#
# number of rings (size 3 to 8) (size 9 to 14) (size 15 to 20)
#    0.000    1.500    3.750    1.500    3.500    1.500 
#    0.000    0.625    0.000    0.750    0.000    0.000 
#    0.000    0.000    0.000    0.000    0.000    0.000 
#
# Total GULP energy -89124.340426 kJ/mol
# GULP energy per Si atom -5570.271277 kJ/mol
# Density = 1.967834 g / cm^3
# Si number density = 19.723232 Si / 1000 Ang^3
#
#
#
# Elastic Constant Matrix: (Units=GPa)
#
#
# Indices 1 2 3 4 5 6 
#
# 1 55.5000 29.6043 29.3559 -13.7243 -18.2437 27.5539
# 2 29.6043 55.1166 28.2660 -12.3033 -1.0642 18.5185
# 3 29.3559 28.2660 105.7547 -11.6300 -2.6571 14.3915
# 4 -13.7243 -12.3033 -11.6300 20.6723 4.5026 -3.0974
# 5 -18.2437 -1.0642 -2.6571 4.5026 36.7328 -8.6046
# 6 27.5539 18.5185 14.3915 -3.0974 -8.6046 26.2992
#
#
#
# Elastic Compliance Matrix: (Units=1/GPa)
#
#
# Indices 1 2 3 4 5 6 
#
# 1 0.056454 -0.008534 -0.004946 0.019904 0.014869 -0.043223
# 2 -0.008534 0.030698 -0.003197 0.010665 -0.007746 -0.012204
# 3 -0.004946 -0.003197 0.011762 0.001915 -0.001783 0.000638
# 4 0.019904 0.010665 0.001915 0.066297 -0.003091 -0.022614
# 5 0.014869 -0.007746 -0.001783 -0.003091 0.035095 0.001971
# 6 -0.043223 -0.012204 0.000638 -0.022614 0.001971 0.089534
#
#
# Mechanical properties :
#
#
# Convention : Reuss Voigt Hill
#
# Bulk Modulus (GPa) = 15.25295 43.42488 29.33891
# Shear Modulus (GPa) = 14.49069 25.35055 19.92062
#
# Velocity S-wave (km/s) = 2.71348 3.58902 3.18151
# Velocity P-wave (km/s) = 4.19137 6.26416 5.32950
#
# Compressibility (1/GPa) = 0.06556109
#
# Stress axis : x y z
#
# Youngs Moduli (GPa) = 17.71339 32.57537 85.01870
#
# Poissons Ratio (x) = 0.27800 0.42046
# Poissons Ratio (y) = 0.15117 0.27182
# Poissons Ratio (z) = 0.08760 0.10415
#
# Static dielectric constant tensor:
#      x y z
#    x 1.766490 0.029650 -0.040920 
#    y 0.029650 1.721600 0.041080 
#    z -0.040920 0.041080 1.755610 
# 
# From -- ./inp_files/202965.got.cif
#   From: 2010.05.17/outbox.cif.g08.bks.cpg/sg2_102_cif.got.tgz:202965.got - 2010.06.03 11:33:40.
