data_PCOD9081291
_publ_section_title
;
Structure prediction by ZEFSAII (Michael W. Deem and Ramdas Pophale) SiO2 
 PCOD9081291
Probable space group: P -1
;
_chemical_formula_sum "Si O2"
_cell_formula_units_Z 16
_cell_length_a 18.402361
_cell_length_b 20.997772
_cell_length_c 10.243127
_cell_angle_alpha 45.908129
_cell_angle_beta 46.253840
_cell_angle_gamma 12.885870
_cell_volume 631.813651
_symmetry_space_group_name_H-M "P -1"
_symmetry_group_IT_number 2
_symmetry_cell_setting 'triclinic'
loop_
_space_group_symop_operation_xyz
x,y,z
-x,-y,-z
loop_
_atom_site_type_symbol
_atom_site_label
_atom_site_fract_x
_atom_site_fract_y
_atom_site_fract_z
Si Si1 0.242969 0.215324 0.128241
Si Si2 0.119489 0.310383 0.555077
Si Si3 0.305720 0.040997 0.927886
Si Si4 0.209524 0.524583 0.826081
Si Si5 0.251605 0.900622 0.838652
Si Si6 0.614062 0.298078 0.461139
Si Si7 0.802046 0.190473 0.757993
Si Si8 0.175035 0.581540 0.374260
O O1 0.020520 0.315802 0.237562
O O2 0.481791 0.047225 0.184768
O O3 0.000000 0.500000 0.000000
O O4 0.500000 0.000000 0.000000
O O5 0.093068 0.249553 0.773231
O O6 0.000000 0.500000 0.500000
O O7 0.913860 0.447912 0.489017
O O8 0.500000 0.000000 0.500000
O O9 0.056678 0.225449 0.091205
O O10 0.575546 0.738042 0.013146
O O11 0.472826 0.373868 0.661324
O O12 0.587314 0.592928 0.792179
O O13 0.237497 0.873965 0.040435
O O14 0.987405 0.081438 0.807284
O O15 0.159108 0.081667 0.692393
O O16 0.520422 0.480052 0.322081
O O17 0.397605 0.426104 0.440000
O O18 0.975434 0.987268 0.394296
#
# Coordination Sequence:
#
# PCOD9081291 Si02
#       8
#     2   2   2   2   2   2   2   2
#     4   8  16  30  48  71  95 128 176 218 258 309
#     4  12  26  42  58  79 111 148 194 237 268 309
#     4  10  21  38  54  75 102 147 190 221 271 323
#     4  10  19  34  55  79 108 141 178 225 276 333
#     4   9  17  33  55  77 114 145 181 215 272 344
#     4  10  19  31  53  87 119 136 175 223 285 331
#     4   9  17  30  51  85 115 144 167 221 281 338
#     4  10  21  36  54  82 109 149 184 224 273 328
#
# _framework density 25.323923000000001
#
# number of rings (size 3 to 8) (size 9 to 14) (size 15 to 20)
#    0.000    2.250    0.000    3.000    1.750    3.000 
#    6.750    0.000    0.000    0.000    0.000   17.500 
#    0.000    0.000    0.000    0.000    0.000    0.000 
#
# Total GULP energy -89347.382282 kJ/mol
# GULP energy per Si atom -5584.211393 kJ/mol
# Density = 2.526628 g / cm^3
# Si number density = 25.323923 Si / 1000 Ang^3
#
#
#
# Elastic Constant Matrix: (Units=GPa)
#
#
# Indices 1 2 3 4 5 6 
#
# 1 83.6363 25.8865 -1.5147 -3.0436 -9.6527 -11.2634
# 2 25.8865 105.1537 14.3064 8.4007 3.8705 21.9715
# 3 -1.5147 14.3064 57.9264 22.1201 4.5323 -8.3112
# 4 -3.0436 8.4007 22.1201 38.2374 2.9942 0.8832
# 5 -9.6527 3.8705 4.5323 2.9942 27.6875 0.1570
# 6 -11.2634 21.9715 -8.3112 0.8832 0.1570 43.5153
#
#
#
# Elastic Compliance Matrix: (Units=1/GPa)
#
#
# Indices 1 2 3 4 5 6 
#
# 1 0.015520 -0.005937 0.002249 0.000616 0.005764 0.007411
# 2 -0.005937 0.013663 -0.004443 -0.000443 -0.003152 -0.009263
# 3 0.002249 -0.004443 0.024681 -0.013205 -0.001251 0.007812
# 4 0.000616 -0.000443 -0.013205 0.034100 -0.001233 -0.002826
# 5 0.005764 -0.003152 -0.001251 -0.001233 0.038890 0.002729
# 6 0.007411 -0.009263 0.007812 -0.002826 0.002729 0.031115
#
#
# Mechanical properties :
#
#
# Convention : Reuss Voigt Hill
#
# Bulk Modulus (GPa) = 26.59346 36.00810 31.30078
# Shear Modulus (GPa) = 26.77172 35.75725 31.26449
#
# Velocity S-wave (km/s) = 3.25494 3.76173 3.51748
# Velocity P-wave (km/s) = 4.96491 5.75477 5.37437
#
# Compressibility (1/GPa) = 0.03760322
#
# Stress axis : x y z
#
# Youngs Moduli (GPa) = 64.43116 73.19144 40.51760
#
# Poissons Ratio (x) = 0.43451 -0.09113
# Poissons Ratio (y) = 0.38251 0.18001
# Poissons Ratio (z) = -0.14492 0.32518
#
# Static dielectric constant tensor:
#      x y z
#    x 2.173300 -0.062630 0.042960 
#    y -0.062630 1.896950 0.004280 
#    z 0.042960 0.004280 1.993220 
# 
# From -- ./inp_files/475738.got.cif
#   From: 2010.05.17/outbox.cif.g08.bks.cpg/sg2_238_cif.got.tgz:475738.got - 2010.06.03 11:33:40.
