data_PCOD9081019
_publ_section_title
;
Structure prediction by ZEFSAII (Michael W. Deem and Ramdas Pophale) SiO2 
 PCOD9081019
Probable space group: P -1
;
_chemical_formula_sum "Si O2"
_cell_formula_units_Z 16
_cell_length_a 9.655223
_cell_length_b 18.454121
_cell_length_c 7.617951
_cell_angle_alpha 65.983612
_cell_angle_beta 113.353948
_cell_angle_gamma 138.426774
_cell_volume 813.216664
_symmetry_space_group_name_H-M "P -1"
_symmetry_group_IT_number 2
_symmetry_cell_setting 'triclinic'
loop_
_space_group_symop_operation_xyz
x,y,z
-x,-y,-z
loop_
_atom_site_type_symbol
_atom_site_label
_atom_site_fract_x
_atom_site_fract_y
_atom_site_fract_z
Si Si1 0.373843 0.949604 0.757267
Si Si2 0.172162 0.037306 0.695008
Si Si3 0.891034 0.246664 0.911597
Si Si4 0.599538 0.268439 0.614169
Si Si5 0.913941 0.842119 0.037494
Si Si6 0.498880 0.226158 0.209100
Si Si7 0.860073 0.382571 0.954354
Si Si8 0.257805 0.969571 0.326731
O O1 0.303061 0.009695 0.720134
O O2 0.269323 0.851567 0.934156
O O3 0.619394 0.020771 0.789467
O O4 0.286073 0.916737 0.547299
O O5 0.046434 0.955221 0.877164
O O6 0.364903 0.169682 0.674488
O O7 0.000000 0.000000 0.500000
O O8 0.991115 0.355838 0.967921
O O9 0.036919 0.229813 0.930314
O O10 0.743547 0.240792 0.707173
O O11 0.568783 0.280623 0.384333
O O12 0.731163 0.364614 0.733468
O O13 0.673982 0.777899 0.953944
O O14 0.014935 0.889386 0.234043
O O15 0.690525 0.290811 0.104848
O O16 0.377998 0.096682 0.297052
O O17 0.000000 0.500000 0.000000
#
# Coordination Sequence:
#
# PCOD9081019 Si02
#       8
#     2   2   2   2   2   2   2   2
#     4  10  19  30  52  82 123 159 192 230 271 356
#     4  11  18  32  50  85 126 162 183 218 292 361
#     4   9  21  39  57  86 118 158 202 243 293 352
#     4  10  21  39  63  86 121 160 204 238 290 363
#     4  11  22  33  57  89 129 160 188 243 293 356
#     4  12  22  40  60  91 123 157 202 243 294 362
#     4  10  24  44  66  83 110 156 213 265 301 341
#     4  11  20  32  53  90 125 162 198 223 285 368
#
# _framework density 19.674952999999999
#
# number of rings (size 3 to 8) (size 9 to 14) (size 15 to 20)
#    0.750    0.750    3.750    2.625    1.750    3.500 
#    0.000    0.625    0.000    0.750    0.000    0.000 
#    0.000    0.000    0.000    0.000    0.000    0.000 
#
# Total GULP energy -89160.749648 kJ/mol
# GULP energy per Si atom -5572.546853 kJ/mol
# Density = 1.963017 g / cm^3
# Si number density = 19.674953 Si / 1000 Ang^3
#
#
#
# Elastic Constant Matrix: (Units=GPa)
#
#
# Indices 1 2 3 4 5 6 
#
# 1 69.5996 23.1416 8.4126 9.3562 10.1346 -5.4948
# 2 23.1416 49.6238 26.7028 26.2297 -0.4883 -15.2928
# 3 8.4126 26.7028 114.7170 21.9179 6.6355 -4.4431
# 4 9.3562 26.2297 21.9179 25.9175 -0.6451 -8.2097
# 5 10.1346 -0.4883 6.6355 -0.6451 32.2846 2.4508
# 6 -5.4948 -15.2928 -4.4431 -8.2097 2.4508 17.6387
#
#
#
# Elastic Compliance Matrix: (Units=1/GPa)
#
#
# Indices 1 2 3 4 5 6 
#
# 1 0.018330 -0.011453 0.000925 0.003568 -0.005932 -0.001502
# 2 -0.011453 0.058499 -0.003531 -0.043956 0.002394 0.025471
# 3 0.000925 -0.003531 0.010819 -0.006894 -0.002484 -0.002911
# 4 0.003568 -0.043956 -0.006894 0.088343 0.001229 0.002212
# 5 -0.005932 0.002394 -0.002484 0.001229 0.033751 -0.004516
# 6 -0.001502 0.025471 -0.002911 0.002212 -0.004516 0.079233
#
#
# Mechanical properties :
#
#
# Convention : Reuss Voigt Hill
#
# Bulk Modulus (GPa) = 16.79802 38.93938 27.86870
# Shear Modulus (GPa) = 14.83962 26.88036 20.85999
#
# Velocity S-wave (km/s) = 2.74932 3.70025 3.25965
# Velocity P-wave (km/s) = 4.31679 6.17172 5.32564
#
# Compressibility (1/GPa) = 0.05953084
#
# Stress axis : x y z
#
# Youngs Moduli (GPa) = 54.55635 17.09425 92.42735
#
# Poissons Ratio (x) = 0.19578 -0.08549
# Poissons Ratio (y) = 0.62482 0.32634
# Poissons Ratio (z) = -0.05046 0.06036
#
# Static dielectric constant tensor:
#      x y z
#    x 1.771290 -0.035460 -0.025440 
#    y -0.035460 1.698390 0.028770 
#    z -0.025440 0.028770 1.755920 
# 
# From -- ./inp_files/282993.got.cif
#   From: 2010.05.17/outbox.cif.g08.bks.cpg/sg2_142_cif.got.tgz:282993.got - 2010.06.03 11:33:40.
