data_PCOD9081978
_publ_section_title
;
Structure prediction by ZEFSAII (Michael W. Deem and Ramdas Pophale) SiO2 
 PCOD9081978
Probable space group: P -1
;
_chemical_formula_sum "Si O2"
_cell_formula_units_Z 16
_cell_length_a 5.252542
_cell_length_b 10.818776
_cell_length_c 15.727698
_cell_angle_alpha 102.802539
_cell_angle_beta 64.134407
_cell_angle_gamma 129.465971
_cell_volume 618.851053
_symmetry_space_group_name_H-M "P -1"
_symmetry_group_IT_number 2
_symmetry_cell_setting 'triclinic'
loop_
_space_group_symop_operation_xyz
x,y,z
-x,-y,-z
loop_
_atom_site_type_symbol
_atom_site_label
_atom_site_fract_x
_atom_site_fract_y
_atom_site_fract_z
Si Si1 0.162460 0.921307 0.920348
Si Si2 0.153076 0.087248 0.727504
Si Si3 0.058721 0.637141 0.638415
Si Si4 0.518476 0.712823 0.749117
Si Si5 0.747322 0.827937 0.466234
Si Si6 0.396125 0.730509 0.945172
Si Si7 0.130424 0.745333 0.162988
Si Si8 0.934478 0.319559 0.646626
O O1 0.326658 0.858529 0.946725
O O2 0.794050 0.778500 0.907158
O O3 0.494946 0.074792 0.845859
O O4 0.000000 0.000000 0.000000
O O5 0.132072 0.133259 0.642447
O O6 0.551588 0.143939 0.673787
O O7 0.128988 0.204611 0.809471
O O8 0.834754 0.900828 0.755755
O O9 0.290683 0.705108 0.702881
O O10 0.343167 0.744973 0.539499
O O11 0.737812 0.647899 0.684380
O O12 0.914328 0.454089 0.630987
O O13 0.287859 0.636906 0.857269
O O14 0.807570 0.694762 0.451119
O O15 0.000000 0.000000 0.500000
O O16 0.208311 0.683082 0.058023
O O17 0.005273 0.648193 0.254901
#
# Coordination Sequence:
#
# PCOD9081978 Si02
#       8
#     2   2   2   2   2   2   2   2
#     4  10  19  32  59 100 136 172 225 294 355 389
#     4  11  24  41  75 105 137 182 237 297 351 420
#     4  12  29  49  70 101 150 189 230 291 356 433
#     4  12  26  45  72 104 143 186 242 291 354 406
#     4  11  24  47  76 109 135 177 238 299 359 414
#     4  11  22  38  65 103 140 185 233 298 347 402
#     4  10  22  38  65 102 141 180 237 291 348 411
#     4  11  27  45  71 104 143 191 232 284 360 432
#
# _framework density 25.854364
#
# number of rings (size 3 to 8) (size 9 to 14) (size 15 to 20)
#    0.000    1.000    2.500    4.125   10.500    1.500 
#    0.000    1.250    0.000    0.000    0.000    0.000 
#    0.000    0.000    0.000    0.000    0.000    0.000 
#
# Total GULP energy -89313.065112 kJ/mol
# GULP energy per Si atom -5582.066569 kJ/mol
# Density = 2.579552 g / cm^3
# Si number density = 25.854364 Si / 1000 Ang^3
#
#
#
# Elastic Constant Matrix: (Units=GPa)
#
#
# Indices 1 2 3 4 5 6 
#
# 1 91.7885 10.4519 27.4582 -8.4511 -24.8478 -3.5092
# 2 10.4519 78.6046 43.0231 -23.2948 -4.3218 -3.7161
# 3 27.4582 43.0231 144.7453 5.6800 -17.0979 -6.0039
# 4 -8.4511 -23.2948 5.6800 42.8063 -3.0631 2.9434
# 5 -24.8478 -4.3218 -17.0979 -3.0631 40.4897 6.4959
# 6 -3.5092 -3.7161 -6.0039 2.9434 6.4959 35.8575
#
#
#
# Elastic Compliance Matrix: (Units=1/GPa)
#
#
# Indices 1 2 3 4 5 6 
#
# 1 0.014024 0.001007 -0.002184 0.004246 0.008229 -0.000728
# 2 0.001007 0.019623 -0.006381 0.011795 0.000922 -0.000071
# 3 -0.002184 -0.006381 0.009637 -0.005135 0.001517 0.000885
# 4 0.004246 0.011795 -0.005135 0.031806 0.004528 -0.002653
# 5 0.008229 0.000922 0.001517 0.004528 0.031623 -0.004945
# 6 -0.000728 -0.000071 0.000885 -0.002653 -0.004945 0.029071
#
#
# Mechanical properties :
#
#
# Convention : Reuss Voigt Hill
#
# Bulk Modulus (GPa) = 35.50058 53.00051 44.25055
# Shear Modulus (GPa) = 31.19341 39.44437 35.31889
#
# Velocity S-wave (km/s) = 3.47725 3.91018 3.70005
# Velocity P-wave (km/s) = 5.46648 6.39767 5.95032
#
# Compressibility (1/GPa) = 0.02816855
#
# Stress axis : x y z
#
# Youngs Moduli (GPa) = 71.30510 50.96007 103.76601
#
# Poissons Ratio (x) = -0.05132 0.22667
# Poissons Ratio (y) = -0.07181 0.66209
# Poissons Ratio (z) = 0.15576 0.32516
#
# Static dielectric constant tensor:
#      x y z
#    x 2.221520 0.000340 0.024700 
#    y 0.000340 2.166090 0.050060 
#    z 0.024700 0.050060 2.002680 
# 
# From -- ./inp_files/549498.got.cif
#   From: 2010.05.17/outbox.cif.g08.bks.cpg/sg2_275_cif.got.tgz:549498.got - 2010.06.03 11:33:40.
