data_PCOD9081355
_publ_section_title
;
Structure prediction by ZEFSAII (Michael W. Deem and Ramdas Pophale) SiO2 
 PCOD9081355
Probable space group: P -1
;
_chemical_formula_sum "Si O2"
_cell_formula_units_Z 14
_cell_length_a 12.566715
_cell_length_b 7.471528
_cell_length_c 8.841073
_cell_angle_alpha 51.590029
_cell_angle_beta 82.155204
_cell_angle_gamma 68.714606
_cell_volume 601.566503
_symmetry_space_group_name_H-M "P -1"
_symmetry_group_IT_number 2
_symmetry_cell_setting 'triclinic'
loop_
_space_group_symop_operation_xyz
x,y,z
-x,-y,-z
loop_
_atom_site_type_symbol
_atom_site_label
_atom_site_fract_x
_atom_site_fract_y
_atom_site_fract_z
Si Si1 0.427728 0.622143 0.593737
Si Si2 0.383200 0.474198 0.970478
Si Si3 0.214583 0.790936 0.355301
Si Si4 0.213280 0.021013 0.689775
Si Si5 0.353155 0.323476 0.365832
Si Si6 0.007732 0.644351 0.575859
Si Si7 0.079257 0.156643 0.950861
O O1 0.500000 0.500000 0.500000
O O2 0.411773 0.418338 0.817406
O O3 0.307856 0.795322 0.457677
O O4 0.512241 0.739042 0.593186
O O5 0.281357 0.735087 0.838131
O O6 0.500000 0.500000 0.000000
O O7 0.343671 0.329954 0.182330
O O8 0.281029 0.591242 0.315679
O O9 0.123206 0.699571 0.506012
O O10 0.143927 0.040378 0.152084
O O11 0.299516 0.148665 0.549370
O O12 0.170151 0.108494 0.821580
O O13 0.103751 0.111643 0.550487
O O14 0.011890 0.449319 0.807638
O O15 0.000000 0.500000 0.500000
O O16 0.000000 0.000000 0.000000
#
# Coordination Sequence:
#
# PCOD9081355 Si02
#       7
#     2   2   2   2   2   2   2
#     4   9  22  39  59  81 116 156 185 237 295 342
#     4  10  22  39  60  84 112 156 195 232 288 341
#     4  11  18  36  58  87 122 148 190 238 282 339
#     4  11  20  33  61  90 114 144 200 243 276 326
#     4  10  19  37  61  86 115 151 196 236 280 340
#     4  10  19  31  55  92 116 146 194 238 277 331
#     4  11  18  31  58  92 114 150 192 232 280 336
#
# _framework density 23.272575
#
# number of rings (size 3 to 8) (size 9 to 14) (size 15 to 20)
#    0.000    1.714    7.143    0.000    0.000    2.286 
#    0.000    5.714    0.000    1.714    0.000    0.000 
#    0.000    0.000    0.000    0.000    0.000    0.000 
#
# Total GULP energy -78169.892139 kJ/mol
# GULP energy per Si atom -5583.563724 kJ/mol
# Density = 2.321961 g / cm^3
# Si number density = 23.272575 Si / 1000 Ang^3
#
#
#
# Elastic Constant Matrix: (Units=GPa)
#
#
# Indices 1 2 3 4 5 6 
#
# 1 143.4462 13.3974 79.3901 -18.4194 8.2069 -18.3954
# 2 13.3974 51.4917 17.9192 1.4670 2.8247 -10.7663
# 3 79.3901 17.9192 189.5757 -2.2506 0.3000 9.7842
# 4 -18.4194 1.4670 -2.2506 34.2525 -12.7359 6.0127
# 5 8.2069 2.8247 0.3000 -12.7359 50.2909 -3.7515
# 6 -18.3954 -10.7663 9.7842 6.0127 -3.7515 20.3784
#
#
#
# Elastic Compliance Matrix: (Units=1/GPa)
#
#
# Indices 1 2 3 4 5 6 
#
# 1 0.012414 0.001664 -0.006027 0.003738 -0.000103 0.013857
# 2 0.001664 0.024077 -0.003893 -0.003862 -0.001311 0.016989
# 3 -0.006027 -0.003893 0.008758 -0.000402 0.000187 -0.011549
# 4 0.003738 -0.003862 -0.000402 0.035667 0.008082 -0.007509
# 5 -0.000103 -0.001311 0.000187 0.008082 0.022080 0.000805
# 6 0.013857 0.016989 -0.011549 -0.007509 0.000805 0.078465
#
#
# Mechanical properties :
#
#
# Convention : Reuss Voigt Hill
#
# Bulk Modulus (GPa) = 34.79883 67.32524 51.06204
# Shear Modulus (GPa) = 24.09037 39.23815 31.66426
#
# Velocity S-wave (km/s) = 3.22085 4.11058 3.69261
# Velocity P-wave (km/s) = 5.36815 7.17781 6.33790
#
# Compressibility (1/GPa) = 0.02873660
#
# Stress axis : x y z
#
# Youngs Moduli (GPa) = 80.55318 41.53371 114.18455
#
# Poissons Ratio (x) = -0.06910 0.68815
# Poissons Ratio (y) = -0.13402 0.44454
# Poissons Ratio (z) = 0.48547 0.16170
#
# Static dielectric constant tensor:
#      x y z
#    x 2.440470 0.767900 -0.521840 
#    y 0.767900 3.111900 -0.747510 
#    z -0.521840 -0.747510 2.417910 
# 
# From -- ./inp_files/236601.got.cif
#   From: 2010.05.17/outbox.cif.g08.bks.cpg/sg2_119_cif.got.tgz:236601.got - 2010.06.03 11:33:40.
