data_PCOD9081588
_publ_section_title
;
Structure prediction by ZEFSAII (Michael W. Deem and Ramdas Pophale) SiO2 
 PCOD9081588
Probable space group: P -1
;
_chemical_formula_sum "Si O2"
_cell_formula_units_Z 16
_cell_length_a 9.431043
_cell_length_b 15.044107
_cell_length_c 11.920581
_cell_angle_alpha 56.390090
_cell_angle_beta 101.884612
_cell_angle_gamma 138.676555
_cell_volume 859.770171
_symmetry_space_group_name_H-M "P -1"
_symmetry_group_IT_number 2
_symmetry_cell_setting 'triclinic'
loop_
_space_group_symop_operation_xyz
x,y,z
-x,-y,-z
loop_
_atom_site_type_symbol
_atom_site_label
_atom_site_fract_x
_atom_site_fract_y
_atom_site_fract_z
Si Si1 0.753549 0.580522 0.161168
Si Si2 0.612380 0.745153 0.811642
Si Si3 0.001026 0.123061 0.368078
Si Si4 0.655349 0.569512 0.637201
Si Si5 0.526546 0.897979 0.528511
Si Si6 0.959562 0.923267 0.925781
Si Si7 0.585584 0.717805 0.357234
Si Si8 0.200539 0.582792 0.557542
O O1 0.623402 0.454909 0.118698
O O2 0.548493 0.508890 0.257746
O O3 0.861386 0.548919 0.276235
O O4 0.925772 0.776690 0.031242
O O5 0.585866 0.841225 0.671832
O O6 0.818784 0.789217 0.764212
O O7 0.717501 0.823841 0.897290
O O8 0.113138 0.274190 0.364911
O O9 0.736802 0.007097 0.397216
O O10 0.000000 0.000000 0.500000
O O11 0.676338 0.661917 0.470567
O O12 0.574187 0.410692 0.683906
O O13 0.289638 0.728696 0.548281
O O14 0.500000 0.000000 0.500000
O O15 0.187922 0.086753 0.778027
O O16 0.000000 0.000000 0.000000
O O17 0.419373 0.673796 0.453292
O O18 0.000000 0.500000 0.500000
#
# Coordination Sequence:
#
# PCOD9081588 Si02
#       8
#     2   2   2   2   2   2   2   2
#     4   9  19  37  54  83 110 144 184 224 275 333
#     4   9  19  35  55  76 113 150 180 224 276 331
#     4   9  16  31  53  76 105 141 185 222 275 326
#     4   9  17  31  54  80 106 138 178 234 272 319
#     4  10  20  33  54  85 110 138 187 232 275 326
#     4  12  21  32  54  88 114 141 182 233 279 326
#     4  10  19  32  52  80 113 139 181 226 280 320
#     4  10  22  38  57  78 112 150 183 225 278 331
#
# _framework density 18.609625000000001
#
# number of rings (size 3 to 8) (size 9 to 14) (size 15 to 20)
#    0.000    2.250    1.250    4.875    1.750    1.000 
#    0.000    0.625    0.000    1.500    0.000    7.000 
#    0.000    0.000    0.000    0.000    0.000    0.000 
#
# Total GULP energy -89093.716223 kJ/mol
# GULP energy per Si atom -5568.357264 kJ/mol
# Density = 1.856727 g / cm^3
# Si number density = 18.609625 Si / 1000 Ang^3
#
#
#
# Elastic Constant Matrix: (Units=GPa)
#
#
# Indices 1 2 3 4 5 6 
#
# 1 60.1999 38.8876 19.0362 -6.5027 14.3128 -8.9089
# 2 38.8876 167.1749 50.9832 0.3973 29.3062 -12.6377
# 3 19.0362 50.9832 78.3340 -19.3483 15.4440 0.2034
# 4 -6.5027 0.3973 -19.3483 38.3069 -4.0897 2.9412
# 5 14.3128 29.3062 15.4440 -4.0897 16.8378 -1.2113
# 6 -8.9089 -12.6377 0.2034 2.9412 -1.2113 28.6735
#
#
#
# Elastic Compliance Matrix: (Units=1/GPa)
#
#
# Indices 1 2 3 4 5 6 
#
# 1 0.022527 -0.002101 -0.001046 0.001433 -0.013799 0.005351
# 2 -0.002101 0.010557 -0.004987 -0.004663 -0.012862 0.003971
# 3 -0.001046 -0.004987 0.019952 0.009538 -0.006698 -0.003926
# 4 0.001433 -0.004663 0.009538 0.032179 0.005623 -0.004741
# 5 -0.013799 -0.012862 -0.006698 0.005623 0.100567 -0.006237
# 6 0.005351 0.003971 -0.003926 -0.004741 -0.006237 0.038539
#
#
# Mechanical properties :
#
#
# Convention : Reuss Voigt Hill
#
# Bulk Modulus (GPa) = 27.19716 58.16919 42.68317
# Shear Modulus (GPa) = 19.77504 29.88376 24.82940
#
# Velocity S-wave (km/s) = 3.26333 4.01162 3.65667
# Velocity P-wave (km/s) = 5.37079 7.26518 6.38859
#
# Compressibility (1/GPa) = 0.03676855
#
# Stress axis : x y z
#
# Youngs Moduli (GPa) = 44.39159 94.72166 50.11961
#
# Poissons Ratio (x) = 0.19900 0.05243
# Poissons Ratio (y) = 0.09326 0.24994
# Poissons Ratio (z) = 0.04644 0.47236
#
# Static dielectric constant tensor:
#      x y z
#    x 1.617350 -0.019420 -0.004150 
#    y -0.019420 1.743160 0.032170 
#    z -0.004150 0.032170 1.688840 
# 
# From -- ./inp_files/397215.got.cif
#   From: 2010.05.17/outbox.cif.g08.bks.cpg/sg2_199_cif.got.tgz:397215.got - 2010.06.03 11:33:40.
