data_PCOD9081697
_publ_section_title
;
Structure prediction by ZEFSAII (Michael W. Deem and Ramdas Pophale) SiO2 
 PCOD9081697
Probable space group: P -1
;
_chemical_formula_sum "Si O2"
_cell_formula_units_Z 16
_cell_length_a 11.161262
_cell_length_b 10.119211
_cell_length_c 9.643308
_cell_angle_alpha 60.146565
_cell_angle_beta 103.804034
_cell_angle_gamma 129.458530
_cell_volume 724.392363
_symmetry_space_group_name_H-M "P -1"
_symmetry_group_IT_number 2
_symmetry_cell_setting 'triclinic'
loop_
_space_group_symop_operation_xyz
x,y,z
-x,-y,-z
loop_
_atom_site_type_symbol
_atom_site_label
_atom_site_fract_x
_atom_site_fract_y
_atom_site_fract_z
Si Si1 0.287588 0.946048 0.443329
Si Si2 0.499670 0.378400 0.364066
Si Si3 0.248115 0.757726 0.012663
Si Si4 0.978521 0.804866 0.568691
Si Si5 0.356880 0.570968 0.337137
Si Si6 0.464862 0.928590 0.757106
Si Si7 0.947259 0.656759 0.945906
Si Si8 0.637841 0.487852 0.074906
O O1 0.360640 0.900483 0.611673
O O2 0.106680 0.832216 0.486006
O O3 0.366392 0.172098 0.368020
O O4 0.358096 0.932108 0.326700
O O5 0.443238 0.508495 0.301043
O O6 0.541258 0.336095 0.545291
O O7 0.645184 0.482300 0.246347
O O8 0.312757 0.689880 0.180036
O O9 0.145642 0.573938 0.975215
O O10 0.385569 0.940465 0.866503
O O11 0.108625 0.763839 0.019157
O O12 0.805814 0.632794 0.560104
O O13 0.990619 0.742349 0.758656
O O14 0.000000 0.000000 0.500000
O O15 0.431937 0.725865 0.883665
O O16 0.806769 0.651241 0.972545
O O17 0.500000 0.500000 0.000000
#
# Coordination Sequence:
#
# PCOD9081697 Si02
#       8
#     2   2   2   2   2   2   2   2
#     4  10  19  32  54  78 109 136 176 222 270 307
#     4  10  20  37  52  79 109 142 174 222 265 319
#     4   9  16  32  50  76 100 140 176 216 263 310
#     4  11  19  32  55  83 104 139 179 224 262 316
#     4  10  21  34  56  76 108 142 179 217 270 317
#     4   9  18  31  52  77 105 135 174 225 258 304
#     4   9  18  29  52  76 105 130 178 227 255 303
#     4  10  19  32  55  80 104 139 183 219 257 318
#
# _framework density 22.087475999999999
#
# number of rings (size 3 to 8) (size 9 to 14) (size 15 to 20)
#    0.000    2.250    2.500    2.250    3.500    0.000 
#    0.000    1.250    0.000    0.750    0.000    0.000 
#    0.000    0.000    0.000    0.000    0.000    0.000 
#
# Total GULP energy -89194.074511 kJ/mol
# GULP energy per Si atom -5574.629657 kJ/mol
# Density = 2.203720 g / cm^3
# Si number density = 22.087476 Si / 1000 Ang^3
#
#
#
# Elastic Constant Matrix: (Units=GPa)
#
#
# Indices 1 2 3 4 5 6 
#
# 1 134.8762 15.1397 38.9662 -6.1629 -23.6013 25.3195
# 2 15.1397 43.2295 8.5764 -4.2172 -10.5765 10.9191
# 3 38.9662 8.5764 92.1054 -11.4461 -10.7523 13.8259
# 4 -6.1629 -4.2172 -11.4461 24.0321 4.8550 -3.1066
# 5 -23.6013 -10.5765 -10.7523 4.8550 48.7336 -12.8271
# 6 25.3195 10.9191 13.8259 -3.1066 -12.8271 23.7820
#
#
#
# Elastic Compliance Matrix: (Units=1/GPa)
#
#
# Indices 1 2 3 4 5 6 
#
# 1 0.010114 -0.000522 -0.002853 -0.000292 0.002144 -0.007751
# 2 -0.000522 0.026745 -0.000147 0.002678 0.002658 -0.009854
# 3 -0.002853 -0.000147 0.013302 0.005070 -0.000032 -0.003984
# 4 -0.000292 0.002678 0.005070 0.045052 -0.002795 0.000511
# 5 0.002144 0.002658 -0.000032 -0.002795 0.024933 0.009598
# 6 -0.007751 -0.009854 -0.003984 0.000511 0.009598 0.062385
#
#
# Mechanical properties :
#
#
# Convention : Reuss Voigt Hill
#
# Bulk Modulus (GPa) = 23.19243 43.95285 33.57264
# Shear Modulus (GPa) = 24.51627 33.14480 28.83054
#
# Velocity S-wave (km/s) = 3.33522 3.87798 3.61680
# Velocity P-wave (km/s) = 5.03534 6.32410 5.71616
#
# Compressibility (1/GPa) = 0.04311751
#
# Stress axis : x y z
#
# Youngs Moduli (GPa) = 98.87363 37.38990 75.17716
#
# Poissons Ratio (x) = 0.01952 0.21445
# Poissons Ratio (y) = 0.05163 0.01105
# Poissons Ratio (z) = 0.28205 0.00550
#
# Static dielectric constant tensor:
#      x y z
#    x 1.959910 -0.019660 -0.040070 
#    y -0.019660 1.848140 0.001230 
#    z -0.040070 0.001230 1.870000 
# 
# From -- ./inp_files/262106.got.cif
#   From: 2010.05.17/outbox.cif.g08.bks.cpg/sg2_132_cif.got.tgz:262106.got - 2010.06.03 11:33:40.
