data_PCOD9081523
_publ_section_title
;
Structure prediction by ZEFSAII (Michael W. Deem and Ramdas Pophale) SiO2 
 PCOD9081523
Probable space group: P -1
;
_chemical_formula_sum "Si O2"
_cell_formula_units_Z 14
_cell_length_a 5.161879
_cell_length_b 11.999999
_cell_length_c 11.460011
_cell_angle_alpha 107.698897
_cell_angle_beta 96.740784
_cell_angle_gamma 71.472877
_cell_volume 641.044497
_symmetry_space_group_name_H-M "P -1"
_symmetry_group_IT_number 2
_symmetry_cell_setting 'triclinic'
loop_
_space_group_symop_operation_xyz
x,y,z
-x,-y,-z
loop_
_atom_site_type_symbol
_atom_site_label
_atom_site_fract_x
_atom_site_fract_y
_atom_site_fract_z
Si Si1 0.449864 0.558002 0.886264
Si Si2 0.121494 0.886084 0.557787
Si Si3 0.451535 0.026983 0.739645
Si Si4 0.788022 0.929999 0.929945
Si Si5 0.973698 0.574704 0.203078
Si Si6 0.345429 0.203212 0.574885
Si Si7 0.260648 0.260290 0.972931
O O1 0.173146 0.531155 0.825402
O O2 0.700538 0.481448 0.792872
O O3 0.500000 0.500000 0.000000
O O4 0.499668 0.689609 0.947933
O O5 0.536382 0.911241 0.365363
O O6 0.878646 0.825281 0.531001
O O7 0.241551 0.947538 0.689349
O O8 0.000000 0.000000 0.500000
O O9 0.352098 0.147075 0.852798
O O10 0.717613 0.945089 0.794565
O O11 0.388834 0.792684 0.481102
O O12 0.868175 0.794526 0.944888
O O13 0.500000 0.000000 0.000000
O O14 0.000000 0.000000 0.000000
O O15 0.819046 0.680869 0.318983
O O16 0.917929 0.634546 0.088704
#
# Coordination Sequence:
#
# PCOD9081523 Si02
#       7
#     2   2   2   2   2   2   2
#     4  10  19  32  51  76 101 133 171 210 257 308
#     4  10  19  32  51  76 101 133 171 210 257 308
#     4   9  19  33  50  73 105 135 165 205 250 306
#     4  10  22  34  48  72 103 142 175 198 242 310
#     4  10  20  33  52  76 103 133 168 214 262 301
#     4  10  20  33  52  76 103 133 168 214 262 301
#     4   9  19  33  50  73 105 135 165 205 250 306
#
# _framework density 21.839355999999999
#
# number of rings (size 3 to 8) (size 9 to 14) (size 15 to 20)
#    0.000    2.286    0.000    4.286    0.000   16.000 
#    0.000    0.000    0.000    0.000    0.000    6.000 
#    0.000    0.000    0.000    0.000    0.000    0.000 
#
# Total GULP energy -78033.568590 kJ/mol
# GULP energy per Si atom -5573.826328 kJ/mol
# Density = 2.178965 g / cm^3
# Si number density = 21.839356 Si / 1000 Ang^3
#
#
#
# Elastic Constant Matrix: (Units=GPa)
#
#
# Indices 1 2 3 4 5 6 
#
# 1 142.2030 34.4580 41.7015 6.9705 3.0095 6.1497
# 2 34.4580 68.5244 53.2568 13.3962 16.1183 9.6549
# 3 41.7015 53.2568 108.4566 24.7342 5.6150 2.8443
# 4 6.9705 13.3962 24.7342 23.7222 -7.0516 -3.9621
# 5 3.0095 16.1183 5.6150 -7.0516 41.9860 16.8532
# 6 6.1497 9.6549 2.8443 -3.9621 16.8532 21.7222
#
#
#
# Elastic Compliance Matrix: (Units=1/GPa)
#
#
# Indices 1 2 3 4 5 6 
#
# 1 0.008363 -0.003049 -0.002176 0.001789 0.001922 -0.001892
# 2 -0.003049 0.028538 -0.010515 -0.007661 -0.008517 -0.005234
# 3 -0.002176 -0.010515 0.018015 -0.012222 -0.000800 0.001322
# 4 0.001789 -0.007661 -0.012222 0.063493 0.012572 0.006327
# 5 0.001922 -0.008517 -0.000800 0.012572 0.039072 -0.024675
# 6 -0.001892 -0.005234 0.001322 0.006327 -0.024675 0.069023
#
#
# Mechanical properties :
#
#
# Convention : Reuss Voigt Hill
#
# Bulk Modulus (GPa) = 42.67359 64.22408 53.44884
# Shear Modulus (GPa) = 18.81143 30.13724 24.47434
#
# Velocity S-wave (km/s) = 2.93807 3.71880 3.35125
# Velocity P-wave (km/s) = 5.57601 6.92175 6.28500
#
# Compressibility (1/GPa) = 0.02343370
#
# Stress axis : x y z
#
# Youngs Moduli (GPa) = 119.57894 35.04140 55.51063
#
# Poissons Ratio (x) = 0.10685 0.12079
# Poissons Ratio (y) = 0.36464 0.58371
# Poissons Ratio (z) = 0.26020 0.36847
#
# Static dielectric constant tensor:
#      x y z
#    x 1.875410 -0.022450 -0.038740 
#    y -0.022450 1.859290 -0.003720 
#    z -0.038740 -0.003720 1.859680 
# 
# From -- ./inp_files/365282.got.cif
#   From: 2010.05.17/outbox.cif.g08.bks.cpg/sg2_183_cif.got.tgz:365282.got - 2010.06.03 11:33:40.
