data_PCOD9081351
_publ_section_title
;
Structure prediction by ZEFSAII (Michael W. Deem and Ramdas Pophale) SiO2 
 PCOD9081351
Probable space group: P -1
;
_chemical_formula_sum "Si O2"
_cell_formula_units_Z 16
_cell_length_a 20.052198
_cell_length_b 23.747163
_cell_length_c 12.614116
_cell_angle_alpha 150.559094
_cell_angle_beta 151.986224
_cell_angle_gamma 16.412641
_cell_volume 783.996722
_symmetry_space_group_name_H-M "P -1"
_symmetry_group_IT_number 2
_symmetry_cell_setting 'triclinic'
loop_
_space_group_symop_operation_xyz
x,y,z
-x,-y,-z
loop_
_atom_site_type_symbol
_atom_site_label
_atom_site_fract_x
_atom_site_fract_y
_atom_site_fract_z
Si Si1 0.057137 0.118184 0.848050
Si Si2 0.310517 0.024855 0.406620
Si Si3 0.408762 0.457690 0.225313
Si Si4 0.662476 0.189613 0.455532
Si Si5 0.716416 0.056706 0.535673
Si Si6 0.771356 0.275463 0.050995
Si Si7 0.751423 0.345564 0.381764
Si Si8 0.481434 0.155243 0.818865
O O1 0.844780 0.336396 0.852075
O O2 0.897817 0.122083 0.687224
O O3 0.234757 0.954365 0.733367
O O4 0.241425 0.051022 0.081459
O O5 0.382507 0.936036 0.482071
O O6 0.315208 0.159231 0.628209
O O7 0.032194 0.166723 0.216650
O O8 0.495307 0.860100 0.301616
O O9 0.500000 0.500000 0.500000
O O10 0.641554 0.310268 0.230662
O O11 0.392534 0.336973 0.037008
O O12 0.429288 0.425390 0.483120
O O13 0.592212 0.169258 0.431813
O O14 0.963067 0.821611 0.462001
O O15 0.794596 0.130102 0.807859
O O16 0.748012 0.308617 0.196802
O O17 0.500000 0.500000 0.000000
#
# Coordination Sequence:
#
# PCOD9081351 Si02
#       8
#     2   2   2   2   2   2   2   2
#     4  10  21  35  60  89 118 159 200 247 309 354
#     4  10  24  40  61  87 125 171 195 250 311 361
#     4  11  21  36  63  93 118 159 206 255 300 354
#     4  10  19  34  58  91 117 146 201 262 293 351
#     4  11  20  37  58  88 119 150 204 254 303 357
#     4  11  20  35  59  90 114 151 200 256 300 351
#     4  10  19  31  55  88 115 148 191 247 311 339
#     4  11  22  44  58  85 133 161 204 247 302 377
#
# _framework density 20.408249000000001
#
# number of rings (size 3 to 8) (size 9 to 14) (size 15 to 20)
#    0.000    1.500    1.250    7.500    1.750    0.000 
#    2.250    1.875    0.000   15.750    0.000    0.000 
#    0.000    0.000    0.000    0.000    0.000    0.000 
#
# Total GULP energy -89124.695034 kJ/mol
# GULP energy per Si atom -5570.293440 kJ/mol
# Density = 2.036180 g / cm^3
# Si number density = 20.408249 Si / 1000 Ang^3
#
#
#
# Elastic Constant Matrix: (Units=GPa)
#
#
# Indices 1 2 3 4 5 6 
#
# 1 103.5503 20.7994 39.0215 11.2969 17.3140 9.1992
# 2 20.7994 66.8620 7.0641 13.6483 -2.5463 18.0084
# 3 39.0215 7.0641 70.6830 18.5895 12.6569 3.4848
# 4 11.2969 13.6483 18.5895 19.7183 0.4192 -1.6206
# 5 17.3140 -2.5463 12.6569 0.4192 16.7400 1.2585
# 6 9.1992 18.0084 3.4848 -1.6206 1.2585 27.4243
#
#
#
# Elastic Compliance Matrix: (Units=1/GPa)
#
#
# Indices 1 2 3 4 5 6 
#
# 1 0.014570 -0.004083 -0.005484 -0.000189 -0.011465 -0.000994
# 2 -0.004083 0.024863 0.005139 -0.021250 0.005940 -0.017138
# 3 -0.005484 0.005139 0.025566 -0.024735 -0.011829 -0.005703
# 4 -0.000189 -0.021250 -0.024735 0.090406 0.011750 0.021964
# 5 -0.011465 0.005940 -0.011829 0.011750 0.081267 -0.001587
# 6 -0.000994 -0.017138 -0.005703 0.021964 -0.001587 0.050147
#
#
# Mechanical properties :
#
#
# Convention : Reuss Voigt Hill
#
# Bulk Modulus (GPa) = 17.81130 41.65170 29.73150
# Shear Modulus (GPa) = 15.90394 24.39054 20.14724
#
# Velocity S-wave (km/s) = 2.79460 3.46082 3.14540
# Velocity P-wave (km/s) = 4.37716 6.03517 5.27175
#
# Compressibility (1/GPa) = 0.05614412
#
# Stress axis : x y z
#
# Youngs Moduli (GPa) = 68.63588 40.21996 39.11475
#
# Poissons Ratio (x) = 0.16422 0.21449
# Poissons Ratio (y) = 0.28025 -0.20102
# Poissons Ratio (z) = 0.37637 -0.20670
#
# Static dielectric constant tensor:
#      x y z
#    x 1.783420 -0.046920 -0.005290 
#    y -0.046920 2.285840 -0.091160 
#    z -0.005290 -0.091160 1.760770 
# 
# From -- ./inp_files/467204.got.cif
#   From: 2010.05.17/outbox.cif.g08.bks.cpg/sg2_234_cif.got.tgz:467204.got - 2010.06.03 11:33:40.
