data_PCOD9081148
_publ_section_title
;
Structure prediction by ZEFSAII (Michael W. Deem and Ramdas Pophale) SiO2 
 PCOD9081148
Probable space group: P -1
;
_chemical_formula_sum "Si O2"
_cell_formula_units_Z 16
_cell_length_a 6.520282
_cell_length_b 11.976034
_cell_length_c 7.527155
_cell_angle_alpha 93.685998
_cell_angle_beta 93.401721
_cell_angle_gamma 109.766293
_cell_volume 549.936942
_symmetry_space_group_name_H-M "P -1"
_symmetry_group_IT_number 2
_symmetry_cell_setting 'triclinic'
loop_
_space_group_symop_operation_xyz
x,y,z
-x,-y,-z
loop_
_atom_site_type_symbol
_atom_site_label
_atom_site_fract_x
_atom_site_fract_y
_atom_site_fract_z
Si Si1 0.659817 0.906160 0.492788
Si Si2 0.021862 0.792500 0.966052
Si Si3 0.397206 0.662329 0.525436
Si Si4 0.789022 0.537272 0.034983
Si Si5 0.690018 0.960429 0.914001
Si Si6 0.928811 0.155554 0.435629
Si Si7 0.563835 0.285616 0.044005
Si Si8 0.822303 0.591321 0.458518
O O1 0.460810 0.784995 0.426814
O O2 0.651827 0.921049 0.704982
O O3 0.878301 0.874586 0.457429
O O4 0.714148 0.039354 0.435956
O O5 0.234242 0.753781 0.012534
O O6 0.025664 0.834000 0.768542
O O7 0.831098 0.663798 0.956326
O O8 0.095911 0.921866 0.075916
O O9 0.387877 0.688289 0.739154
O O10 0.624012 0.632804 0.518142
O O11 0.215905 0.533902 0.455714
O O12 0.593553 0.412929 0.969299
O O13 0.792425 0.563748 0.246803
O O14 0.000000 0.500000 0.000000
O O15 0.651130 0.833162 0.997886
O O16 0.500000 0.000000 0.000000
O O17 0.960023 0.292382 0.496958
#
# Coordination Sequence:
#
# PCOD9081148 Si02
#       8
#     2   2   2   2   2   2   2   2
#     4   9  18  34  52  69  96 132 164 196 242 289
#     4  10  19  31  49  75 101 124 161 205 237 280
#     4   8  15  30  52  70  88 126 169 195 226 289
#     4   9  17  31  51  73  96 125 158 195 242 290
#     4   9  17  32  53  72  95 132 164 194 241 290
#     4  10  20  32  49  74 100 127 161 202 241 282
#     4   8  16  32  51  71  96 129 163 195 239 288
#     4   9  16  30  53  72  92 127 163 194 240 293
#
# _framework density 29.094244
#
# number of rings (size 3 to 8) (size 9 to 14) (size 15 to 20)
#    0.000    3.000    0.000    0.750    0.000    0.500 
#    0.000   12.500    0.000   25.500    0.000    0.000 
#    0.000    0.000    0.000    0.000    0.000    0.000 
#
# Total GULP energy -89494.272999 kJ/mol
# GULP energy per Si atom -5593.392062 kJ/mol
# Density = 2.902802 g / cm^3
# Si number density = 29.094244 Si / 1000 Ang^3
#
#
#
# Elastic Constant Matrix: (Units=GPa)
#
#
# Indices 1 2 3 4 5 6 
#
# 1 80.9893 78.2180 -1.8256 -4.9611 5.2844 34.4770
# 2 78.2180 388.9373 23.4696 -33.7097 1.8116 31.1177
# 3 -1.8256 23.4696 71.8607 -7.6746 -0.6509 3.4071
# 4 -4.9611 -33.7097 -7.6746 48.0492 4.9282 -8.2637
# 5 5.2844 1.8116 -0.6509 4.9282 26.0324 0.5621
# 6 34.4770 31.1177 3.4071 -8.2637 0.5621 94.2118
#
#
#
# Elastic Compliance Matrix: (Units=1/GPa)
#
#
# Indices 1 2 3 4 5 6 
#
# 1 0.018206 -0.003372 0.001712 -0.000866 -0.003132 -0.005668
# 2 -0.003372 0.003456 -0.001019 0.001962 0.000041 0.000301
# 3 0.001712 -0.001019 0.014502 0.001686 -0.000219 -0.000665
# 4 -0.000866 0.001962 0.001686 0.023097 -0.004327 0.001660
# 5 -0.003132 0.000041 -0.000219 -0.004327 0.039849 0.000523
# 6 -0.005668 0.000301 -0.000665 0.001660 0.000523 0.012756
#
#
# Mechanical properties :
#
#
# Convention : Reuss Voigt Hill
#
# Bulk Modulus (GPa) = 32.46055 82.39014 57.42535
# Shear Modulus (GPa) = 39.21763 63.12035 51.16899
#
# Velocity S-wave (km/s) = 3.67543 4.66286 4.19827
# Velocity P-wave (km/s) = 5.40305 7.57426 6.57885
#
# Compressibility (1/GPa) = 0.03080662
#
# Stress axis : x y z
#
# Youngs Moduli (GPa) = 54.92550 289.31701 68.95737
#
# Poissons Ratio (x) = 0.97549 -0.11803
# Poissons Ratio (y) = 0.18519 0.07026
# Poissons Ratio (z) = -0.09401 0.29479
#
# Static dielectric constant tensor:
#      x y z
#    x 2.657880 -0.179170 -0.152300 
#    y -0.179170 2.726420 0.219230 
#    z -0.152300 0.219230 2.225250 
# 
# From -- ./inp_files/187662.got.cif
#   From: 2010.05.17/outbox.cif.g08.bks.cpg/sg2_94_cif.got.tgz:187662.got - 2010.06.03 11:33:40.
