data_PCOD9081166
_publ_section_title
;
Structure prediction by ZEFSAII (Michael W. Deem and Ramdas Pophale) SiO2 
 PCOD9081166
Probable space group: P -1
;
_chemical_formula_sum "Si O2"
_cell_formula_units_Z 16
_cell_length_a 5.551941
_cell_length_b 16.235477
_cell_length_c 22.387514
_cell_angle_alpha 162.867500
_cell_angle_beta 101.868002
_cell_angle_gamma 79.565856
_cell_volume 580.919267
_symmetry_space_group_name_H-M "P -1"
_symmetry_group_IT_number 2
_symmetry_cell_setting 'triclinic'
loop_
_space_group_symop_operation_xyz
x,y,z
-x,-y,-z
loop_
_atom_site_type_symbol
_atom_site_label
_atom_site_fract_x
_atom_site_fract_y
_atom_site_fract_z
Si Si1 0.435509 0.018574 0.209555
Si Si2 0.216369 0.247350 0.632218
Si Si3 0.647857 0.361630 0.645957
Si Si4 0.006317 0.664271 0.197951
Si Si5 0.070723 0.062343 0.836452
Si Si6 0.464007 0.382945 0.307010
Si Si7 0.994095 0.438740 0.385999
Si Si8 0.617738 0.789066 0.183445
O O1 0.153774 0.930324 0.123798
O O2 0.515857 0.849853 0.155329
O O3 0.661373 0.971595 0.144785
O O4 0.463449 0.335735 0.454541
O O5 0.444876 0.396917 0.712360
O O6 0.207519 0.288225 0.731030
O O7 0.938087 0.339243 0.662547
O O8 0.213379 0.909812 0.390682
O O9 0.624184 0.561791 0.726348
O O10 0.556738 0.062833 0.406390
O O11 0.901564 0.748566 0.187132
O O12 0.068626 0.350328 0.999431
O O13 0.019419 0.769814 0.593450
O O14 0.739145 0.279518 0.244063
O O15 0.226413 0.281710 0.263294
O O16 0.000000 0.500000 0.500000
O O17 0.500000 0.500000 0.000000
#
# Coordination Sequence:
#
# PCOD9081166 Si02
#       8
#     2   2   2   2   2   2   2   2
#     4   9  19  31  45  73 102 134 170 204 252 314
#     4  10  23  37  52  73 103 147 192 226 247 294
#     4  10  21  38  54  74 104 143 187 218 258 301
#     4  10  22  35  52  74 107 144 186 225 263 295
#     4  10  20  33  50  71 105 138 168 209 259 316
#     4   9  18  33  54  76 106 137 170 206 256 322
#     4  10  19  33  54  84 112 133 159 205 273 337
#     4  10  19  31  50  75 104 139 175 213 264 310
#
# _framework density 27.542556000000001
#
# number of rings (size 3 to 8) (size 9 to 14) (size 15 to 20)
#    0.000    2.250    1.250    1.125    1.750   12.000 
#    0.000    0.000    0.000    0.000    0.000    5.250 
#    0.000    0.000    0.000    0.000    0.000    0.000 
#
# Total GULP energy -89353.264145 kJ/mol
# GULP energy per Si atom -5584.579009 kJ/mol
# Density = 2.747987 g / cm^3
# Si number density = 27.542556 Si / 1000 Ang^3
#
#
#
# Elastic Constant Matrix: (Units=GPa)
#
#
# Indices 1 2 3 4 5 6 
#
# 1 242.9413 37.0031 18.1963 -13.2195 -23.1337 0.8277
# 2 37.0031 103.9720 13.3023 -6.2609 5.6331 8.2483
# 3 18.1963 13.3023 63.4516 9.6289 13.5441 6.1450
# 4 -13.2195 -6.2609 9.6289 25.0986 1.2349 -5.5121
# 5 -23.1337 5.6331 13.5441 1.2349 22.0306 -3.0815
# 6 0.8277 8.2483 6.1450 -5.5121 -3.0815 38.5413
#
#
#
# Elastic Compliance Matrix: (Units=1/GPa)
#
#
# Indices 1 2 3 4 5 6 
#
# 1 0.005819 -0.001978 -0.004075 0.004183 0.009206 0.002282
# 2 -0.001978 0.010965 -0.000727 0.001699 -0.004855 -0.002333
# 3 -0.004075 -0.000727 0.023566 -0.011918 -0.018854 -0.006726
# 4 0.004183 0.001699 -0.011918 0.048574 0.009847 0.009181
# 5 0.009206 -0.004855 -0.018854 0.009847 0.068844 0.010760
# 6 0.002282 -0.002333 -0.006726 0.009181 0.010760 0.029642
#
#
# Mechanical properties :
#
#
# Convention : Reuss Voigt Hill
#
# Bulk Modulus (GPa) = 37.32738 60.81872 49.07305
# Shear Modulus (GPa) = 23.82074 39.92498 31.87286
#
# Velocity S-wave (km/s) = 2.94406 3.81146 3.40549
# Velocity P-wave (km/s) = 5.01385 6.44199 5.77226
#
# Compressibility (1/GPa) = 0.02678999
#
# Stress axis : x y z
#
# Youngs Moduli (GPa) = 171.84530 91.19682 42.43460
#
# Poissons Ratio (x) = 0.18035 0.17293
# Poissons Ratio (y) = 0.33984 0.03086
# Poissons Ratio (z) = 0.70031 0.06633
#
# Static dielectric constant tensor:
#      x y z
#    x 2.324790 -0.097050 0.050480 
#    y -0.097050 2.498360 -0.269900 
#    z 0.050480 -0.269900 2.525180 
# 
# From -- ./inp_files/78487.got.cif
#   From: 2010.05.17/outbox.cif.g08.bks.cpg/sg2_40_cif.got.tgz:78487.got - 2010.06.03 11:33:40.
