data_PCOD9081214
_publ_section_title
;
Structure prediction by ZEFSAII (Michael W. Deem and Ramdas Pophale) SiO2 
 PCOD9081214
Probable space group: P -1
;
_chemical_formula_sum "Si O2"
_cell_formula_units_Z 16
_cell_length_a 7.207882
_cell_length_b 15.564563
_cell_length_c 12.549256
_cell_angle_alpha 35.147824
_cell_angle_beta 117.388704
_cell_angle_gamma 124.101347
_cell_volume 671.123377
_symmetry_space_group_name_H-M "P -1"
_symmetry_group_IT_number 2
_symmetry_cell_setting 'triclinic'
loop_
_space_group_symop_operation_xyz
x,y,z
-x,-y,-z
loop_
_atom_site_type_symbol
_atom_site_label
_atom_site_fract_x
_atom_site_fract_y
_atom_site_fract_z
Si Si1 0.002744 0.182324 0.178339
Si Si2 0.212717 0.138060 0.484411
Si Si3 0.786955 0.894088 0.874483
Si Si4 0.400456 0.609457 0.931518
Si Si5 0.385883 0.281700 0.795730
Si Si6 0.401683 0.358811 0.488424
Si Si7 0.172457 0.557672 0.144148
Si Si8 0.739721 0.128431 0.473950
O O1 0.198748 0.182988 0.312735
O O2 0.006906 0.116056 0.128820
O O3 0.792294 0.041758 0.318864
O O4 0.008302 0.360806 0.993796
O O5 0.400861 0.261807 0.480198
O O6 0.970497 0.130644 0.476096
O O7 0.594283 0.747370 0.910411
O O8 0.759352 0.059629 0.666507
O O9 0.787395 0.846462 0.044863
O O10 0.280685 0.702411 0.731104
O O11 0.500000 0.500000 0.000000
O O12 0.243247 0.526687 0.075421
O O13 0.380076 0.260563 0.689788
O O14 0.399358 0.466920 0.628558
O O15 0.624467 0.297053 0.893350
O O16 0.184197 0.412790 0.365485
O O17 0.500000 0.000000 0.500000
#
# Coordination Sequence:
#
# PCOD9081214 Si02
#       8
#     2   2   2   2   2   2   2   2
#     4  10  20  33  53  86 118 140 181 229 291 335
#     4  10  20  34  55  87 113 148 182 229 279 340
#     4   9  19  33  56  77 109 152 180 225 281 329
#     4  10  19  31  51  81 114 139 181 221 277 346
#     4   8  18  39  59  76 105 156 198 226 278 313
#     4   9  19  36  61  74 109 152 198 230 270 328
#     4   9  18  35  55  79 110 149 180 228 284 326
#     4   9  18  35  52  76 115 147 177 216 284 338
#
# _framework density 23.840622
#
# number of rings (size 3 to 8) (size 9 to 14) (size 15 to 20)
#    0.750    2.000    1.250    0.000    1.750    1.500 
#    0.000    3.750    0.000    0.000    0.000    0.000 
#    0.000    0.000    0.000    0.000    0.000    0.000 
#
# Total GULP energy -89072.862631 kJ/mol
# GULP energy per Si atom -5567.053914 kJ/mol
# Density = 2.378636 g / cm^3
# Si number density = 23.840622 Si / 1000 Ang^3
#
#
#
# Elastic Constant Matrix: (Units=GPa)
#
#
# Indices 1 2 3 4 5 6 
#
# 1 56.9969 -6.5695 23.7216 10.8334 -0.7740 -6.7188
# 2 -6.5695 69.9970 31.9403 3.4888 2.3476 -2.7316
# 3 23.7216 31.9403 179.0208 16.6765 -13.8527 -27.9009
# 4 10.8334 3.4888 16.6765 34.6185 -7.8900 -6.3912
# 5 -0.7740 2.3476 -13.8527 -7.8900 31.7470 -2.7757
# 6 -6.7188 -2.7316 -27.9009 -6.3912 -2.7757 18.8060
#
#
#
# Elastic Compliance Matrix: (Units=1/GPa)
#
#
# Indices 1 2 3 4 5 6 
#
# 1 0.020314 0.003575 -0.002753 -0.005636 -0.002245 0.001446
# 2 0.003575 0.016593 -0.004097 -0.002392 -0.003852 -0.003773
# 3 -0.002753 -0.004097 0.009054 0.000522 0.005439 0.012834
# 4 -0.005636 -0.002392 0.000522 0.035108 0.010026 0.011824
# 5 -0.002245 -0.003852 0.005439 0.010026 0.037968 0.015719
# 6 0.001446 -0.003773 0.012834 0.011824 0.015719 0.078523
#
#
# Mechanical properties :
#
#
# Convention : Reuss Voigt Hill
#
# Bulk Modulus (GPa) = 25.37386 44.91105 35.14245
# Shear Modulus (GPa) = 23.01526 34.16244 28.58885
#
# Velocity S-wave (km/s) = 3.11043 3.78954 3.46665
# Velocity P-wave (km/s) = 4.85447 6.16656 5.54943
#
# Compressibility (1/GPa) = 0.03941063
#
# Stress axis : x y z
#
# Youngs Moduli (GPa) = 49.22757 60.26719 110.44454
#
# Poissons Ratio (x) = -0.21548 0.30405
# Poissons Ratio (y) = -0.17601 0.45255
# Poissons Ratio (z) = 0.13552 0.24694
#
# Static dielectric constant tensor:
#      x y z
#    x 2.098820 0.090030 -0.057270 
#    y 0.090030 2.000130 -0.079680 
#    z -0.057270 -0.079680 1.949740 
# 
# From -- ./inp_files/396964.got.cif
#   From: 2010.05.17/outbox.cif.g08.bks.cpg/sg2_199_cif.got.tgz:396964.got - 2010.06.03 11:33:40.
