data_PCOD9081400
_publ_section_title
;
Structure prediction by ZEFSAII (Michael W. Deem and Ramdas Pophale) SiO2 
 PCOD9081400
Probable space group: P -1
;
_chemical_formula_sum "Si O2"
_cell_formula_units_Z 14
_cell_length_a 22.839723
_cell_length_b 11.712531
_cell_length_c 14.043628
_cell_angle_alpha 136.744590
_cell_angle_beta 23.207003
_cell_angle_gamma 147.959920
_cell_volume 761.841621
_symmetry_space_group_name_H-M "P -1"
_symmetry_group_IT_number 2
_symmetry_cell_setting 'triclinic'
loop_
_space_group_symop_operation_xyz
x,y,z
-x,-y,-z
loop_
_atom_site_type_symbol
_atom_site_label
_atom_site_fract_x
_atom_site_fract_y
_atom_site_fract_z
Si Si1 0.977404 0.061017 0.280990
Si Si2 0.933106 0.468941 0.377918
Si Si3 0.467065 0.828075 0.095503
Si Si4 0.244070 0.538213 0.072924
Si Si5 0.571571 0.806259 0.618312
Si Si6 0.088760 0.925540 0.389369
Si Si7 0.867766 0.035573 0.158838
O O1 0.104503 0.301706 0.188370
O O2 0.968982 0.077983 0.416549
O O3 0.757733 0.903771 0.467826
O O4 0.090387 0.982517 0.023330
O O5 0.716893 0.347735 0.667782
O O6 0.924013 0.271398 0.233546
O O7 0.096551 0.574086 0.281326
O O8 0.006021 0.680253 0.337291
O O9 0.401786 0.716394 0.021996
O O10 0.479795 0.036894 0.198884
O O11 0.673806 0.906369 0.866517
O O12 0.373421 0.570562 0.808854
O O13 0.652485 0.849818 0.416052
O O14 0.000000 0.000000 0.500000
O O15 0.000000 0.000000 0.000000
#
# Coordination Sequence:
#
# PCOD9081400 Si02
#       7
#     2   2   2   2   2   2   2
#     4  11  21  39  55  88 126 147 188 241 289 347
#     4  11  21  37  62  88 121 151 185 238 297 346
#     4  11  20  34  57  89 116 146 196 240 287 346
#     4  12  18  30  61  93 115 148 175 236 309 344
#     4  10  19  31  57  89 121 145 180 229 302 360
#     4  12  26  41  59  81 113 162 208 243 273 328
#     4   9  19  37  55  90 127 150 173 235 297 364
#
# _framework density 18.376524
#
# number of rings (size 3 to 8) (size 9 to 14) (size 15 to 20)
#    0.000    1.143    8.571    1.714    0.000    1.143 
#    0.000    0.714    0.000    3.429    0.000    0.000 
#    0.000    0.000    0.000    0.000    0.000    0.000 
#
# Total GULP energy -78057.314169 kJ/mol
# GULP energy per Si atom -5575.522441 kJ/mol
# Density = 1.833470 g / cm^3
# Si number density = 18.376524 Si / 1000 Ang^3
#
#
#
# Elastic Constant Matrix: (Units=GPa)
#
#
# Indices 1 2 3 4 5 6 
#
# 1 60.1247 28.6995 46.1300 1.1540 -8.4210 -14.8637
# 2 28.6995 77.7340 48.2951 0.2891 -10.7301 -15.9896
# 3 46.1300 48.2951 144.4960 -16.0004 7.3749 -6.2582
# 4 1.1540 0.2891 -16.0004 36.8113 -0.9859 4.8418
# 5 -8.4210 -10.7301 7.3749 -0.9859 18.0442 10.4198
# 6 -14.8637 -15.9896 -6.2582 4.8418 10.4198 18.3391
#
#
#
# Elastic Compliance Matrix: (Units=1/GPa)
#
#
# Indices 1 2 3 4 5 6 
#
# 1 0.030104 -0.000046 -0.009939 -0.007622 0.006546 0.019261
# 2 -0.000046 0.021284 -0.007509 -0.004869 0.008157 0.012609
# 3 -0.009939 -0.007509 0.013693 0.006717 -0.011274 -0.005298
# 4 -0.007622 -0.004869 0.006717 0.032925 0.003447 -0.018782
# 5 0.006546 0.008157 -0.011274 0.003447 0.094802 -0.046205
# 6 0.019261 0.012609 -0.005298 -0.018782 -0.046205 0.110536
#
#
# Mechanical properties :
#
#
# Convention : Reuss Voigt Hill
#
# Bulk Modulus (GPa) = 33.22884 58.73374 45.98129
# Shear Modulus (GPa) = 14.35280 25.25427 19.80354
#
# Velocity S-wave (km/s) = 2.79774 3.71113 3.28633
# Velocity P-wave (km/s) = 5.34396 7.09888 6.28299
#
# Compressibility (1/GPa) = 0.03009434
#
# Stress axis : x y z
#
# Youngs Moduli (GPa) = 33.21768 46.98389 73.02923
#
# Poissons Ratio (x) = 0.00214 0.72587
# Poissons Ratio (y) = 0.00151 0.54835
# Poissons Ratio (z) = 0.33016 0.35278
#
# Static dielectric constant tensor:
#      x y z
#    x 1.611590 0.029730 0.055480 
#    y 0.029730 1.722720 0.014190 
#    z 0.055480 0.014190 1.686480 
# 
# From -- ./inp_files/281459.got.cif
#   From: 2010.05.17/outbox.cif.g08.bks.cpg/sg2_141_cif.got.tgz:281459.got - 2010.06.03 11:33:40.
