data_PCOD9081420
_publ_section_title
;
Structure prediction by ZEFSAII (Michael W. Deem and Ramdas Pophale) SiO2 
 PCOD9081420
Probable space group: P -1
;
_chemical_formula_sum "Si O2"
_cell_formula_units_Z 14
_cell_length_a 9.256246
_cell_length_b 15.293006
_cell_length_c 8.537601
_cell_angle_alpha 51.261414
_cell_angle_beta 110.533937
_cell_angle_gamma 80.340601
_cell_volume 748.487609
_symmetry_space_group_name_H-M "P -1"
_symmetry_group_IT_number 2
_symmetry_cell_setting 'triclinic'
loop_
_space_group_symop_operation_xyz
x,y,z
-x,-y,-z
loop_
_atom_site_type_symbol
_atom_site_label
_atom_site_fract_x
_atom_site_fract_y
_atom_site_fract_z
Si Si1 0.394246 0.631393 0.514760
Si Si2 0.242308 0.452617 0.121482
Si Si3 0.916630 0.151072 0.338998
Si Si4 0.959247 0.671173 0.966924
Si Si5 0.844332 0.655860 0.278403
Si Si6 0.532826 0.326411 0.846032
Si Si7 0.073488 0.701640 0.537423
O O1 0.542648 0.628018 0.690635
O O2 0.467361 0.477741 0.685641
O O3 0.395605 0.697860 0.278273
O O4 0.202479 0.688950 0.459169
O O5 0.168636 0.358364 0.156589
O O6 0.172547 0.567581 0.833414
O O7 0.152744 0.532528 0.161259
O O8 0.953506 0.181349 0.493725
O O9 0.006529 0.216057 0.198740
O O10 0.701566 0.233605 0.126518
O O11 0.000000 0.000000 0.500000
O O12 0.876533 0.702480 0.072075
O O13 0.643614 0.682882 0.187656
O O14 0.000000 0.500000 0.500000
O O15 0.897644 0.712787 0.381249
#
# Coordination Sequence:
#
# PCOD9081420 Si02
#       7
#     2   2   2   2   2   2   2
#     4  11  20  34  60  99 128 149 195 257 326 364
#     4  10  19  31  59  95 125 154 193 252 317 363
#     4  11  26  47  62  81 121 176 218 245 285 364
#     4  10  20  35  60  85 126 158 201 244 310 355
#     4  12  21  34  60 101 132 151 184 255 329 374
#     4  11  23  36  61  92 133 157 195 252 313 368
#     4  11  22  35  63  93 125 160 199 251 313 368
#
# _framework density 18.704384999999998
#
# number of rings (size 3 to 8) (size 9 to 14) (size 15 to 20)
#    0.000    1.143    5.714    2.143    6.000    0.000 
#    0.000    4.286    0.000    0.000    0.000    0.000 
#    0.000    0.000    0.000    0.000    0.000    0.000 
#
# Total GULP energy -78173.768876 kJ/mol
# GULP energy per Si atom -5583.840634 kJ/mol
# Density = 1.866181 g / cm^3
# Si number density = 18.704385 Si / 1000 Ang^3
#
#
#
# Elastic Constant Matrix: (Units=GPa)
#
#
# Indices 1 2 3 4 5 6 
#
# 1 136.3418 47.7875 29.8588 8.1113 2.6714 12.4466
# 2 47.7875 115.0302 46.5716 3.2572 3.1199 18.9452
# 3 29.8588 46.5716 30.0927 3.1921 -0.3790 8.1203
# 4 8.1113 3.2572 3.1921 23.9974 4.8540 -3.9803
# 5 2.6714 3.1199 -0.3790 4.8540 19.1774 13.1790
# 6 12.4466 18.9452 8.1203 -3.9803 13.1790 35.9081
#
#
#
# Elastic Compliance Matrix: (Units=1/GPa)
#
#
# Indices 1 2 3 4 5 6 
#
# 1 0.009546 -0.000224 -0.008418 -0.002411 0.000293 -0.001662
# 2 -0.000224 0.024070 -0.036398 0.001710 -0.002875 -0.003146
# 3 -0.008418 -0.036398 0.101571 -0.010712 0.017668 -0.008520
# 4 -0.002411 0.001710 -0.010712 0.051625 -0.025105 0.017293
# 5 0.000293 -0.002875 0.017668 -0.025105 0.084197 -0.036265
# 6 -0.001662 -0.003146 -0.008520 0.017293 -0.036265 0.047239
#
#
# Mechanical properties :
#
#
# Convention : Reuss Voigt Hill
#
# Bulk Modulus (GPa) = 22.16895 58.87784 40.52339
# Shear Modulus (GPa) = 11.81022 26.29968 19.05495
#
# Velocity S-wave (km/s) = 2.51552 3.75383 3.19524
# Velocity P-wave (km/s) = 4.50723 7.09470 5.94348
#
# Compressibility (1/GPa) = 0.04510815
#
# Stress axis : x y z
#
# Youngs Moduli (GPa) = 104.75837 41.54494 9.84537
#
# Poissons Ratio (x) = 0.00929 0.08287
# Poissons Ratio (y) = 0.02342 0.35835
# Poissons Ratio (z) = 0.88181 1.51216
#
# Static dielectric constant tensor:
#      x y z
#    x 1.676470 -0.008140 -0.004450 
#    y -0.008140 1.670240 0.062700 
#    z -0.004450 0.062700 1.685080 
# 
# From -- ./inp_files/164339.got.cif
#   From: 2010.05.17/outbox.cif.g08.bks.cpg/sg2_83_cif.got.tgz:164339.got - 2010.06.03 11:33:40.
