data_PCOD9081008
_publ_section_title
;
Structure prediction by ZEFSAII (Michael W. Deem and Ramdas Pophale) SiO2 
 PCOD9081008
Probable space group: P -1
;
_chemical_formula_sum "Si O2"
_cell_formula_units_Z 16
_cell_length_a 12.435492
_cell_length_b 9.025706
_cell_length_c 13.831248
_cell_angle_alpha 138.963923
_cell_angle_beta 89.600683
_cell_angle_gamma 109.942877
_cell_volume 875.751286
_symmetry_space_group_name_H-M "P -1"
_symmetry_group_IT_number 2
_symmetry_cell_setting 'triclinic'
loop_
_space_group_symop_operation_xyz
x,y,z
-x,-y,-z
loop_
_atom_site_type_symbol
_atom_site_label
_atom_site_fract_x
_atom_site_fract_y
_atom_site_fract_z
Si Si1 0.546199 0.700549 0.236439
Si Si2 0.602084 0.592615 0.389627
Si Si3 0.308374 0.175416 0.901311
Si Si4 0.607393 0.068138 0.715224
Si Si5 0.107395 0.642173 0.932828
Si Si6 0.255275 0.674824 0.774211
Si Si7 0.619056 0.993199 0.886910
Si Si8 0.137258 0.414340 0.016774
O O1 0.609554 0.708742 0.340534
O O2 0.641916 0.780283 0.186558
O O3 0.488940 0.890407 0.325902
O O4 0.425904 0.409334 0.074409
O O5 0.713691 0.532887 0.373342
O O6 0.474265 0.312709 0.255734
O O7 0.598429 0.793759 0.563027
O O8 0.269911 0.894291 0.807397
O O9 0.192469 0.223869 0.931189
O O10 0.747699 0.303473 0.811549
O O11 0.581350 0.092555 0.840763
O O12 0.108798 0.454775 0.925336
O O13 0.235558 0.921755 0.087440
O O14 0.132148 0.565410 0.788406
O O15 0.984936 0.658584 0.956691
O O16 0.364029 0.834981 0.933861
#
# Coordination Sequence:
#
# PCOD9081008 Si02
#       8
#     2   2   2   2   2   2   2   2
#     4  10  20  31  48  74 102 132 165 204 247 292
#     4  12  20  32  51  75 107 133 159 200 251 306
#     4  10  19  30  52  75 100 128 167 213 242 283
#     4  10  21  33  50  75 105 134 159 198 255 301
#     4   8  17  32  54  74  96 127 169 213 237 284
#     4  10  20  32  50  77  97 132 168 203 244 287
#     4   9  19  33  50  75 100 130 164 205 242 292
#     4   9  17  34  52  75 100 126 168 207 247 285
#
# _framework density 18.270026000000001
#
# number of rings (size 3 to 8) (size 9 to 14) (size 15 to 20)
#    0.750    1.500    1.250    2.625    3.500    0.500 
#    0.000    0.625    0.000    0.000    0.000    9.625 
#    0.000    0.000    0.000    0.000    0.000    0.000 
#
# Total GULP energy -89141.542663 kJ/mol
# GULP energy per Si atom -5571.346416 kJ/mol
# Density = 1.822844 g / cm^3
# Si number density = 18.270026 Si / 1000 Ang^3
#
#
#
# Elastic Constant Matrix: (Units=GPa)
#
#
# Indices 1 2 3 4 5 6 
#
# 1 94.9453 25.9533 13.2252 13.7894 -28.7853 -5.5048
# 2 25.9533 58.9669 2.4223 5.2050 -11.1191 -9.1130
# 3 13.2252 2.4223 35.3129 10.2120 -19.0274 -7.3641
# 4 13.7894 5.2050 10.2120 16.7255 -8.1372 1.7801
# 5 -28.7853 -11.1191 -19.0274 -8.1372 22.9036 3.7771
# 6 -5.5048 -9.1130 -7.3641 1.7801 3.7771 21.9183
#
#
#
# Elastic Compliance Matrix: (Units=1/GPa)
#
#
# Indices 1 2 3 4 5 6 
#
# 1 0.020408 -0.002184 0.012878 -0.009145 0.031398 0.003876
# 2 -0.002184 0.021942 0.009790 -0.006189 0.012148 0.010273
# 3 0.012878 0.009790 0.071252 -0.026923 0.066955 0.021893
# 4 -0.009145 -0.006189 -0.026923 0.086537 -0.002744 -0.020471
# 5 0.031398 0.012148 0.066955 -0.002744 0.141819 0.011216
# 6 0.003876 0.010273 0.021893 -0.020471 0.011216 0.057954
#
#
# Mechanical properties :
#
#
# Convention : Reuss Voigt Hill
#
# Bulk Modulus (GPa) = 6.46957 30.26963 18.36960
# Shear Modulus (GPa) = 12.18123 22.15110 17.16616
#
# Velocity S-wave (km/s) = 2.58492 3.48577 3.06858
# Velocity P-wave (km/s) = 3.52957 5.72754 4.75723
#
# Compressibility (1/GPa) = 0.15456974
#
# Stress axis : x y z
#
# Youngs Moduli (GPa) = 49.00097 45.57368 14.03468
#
# Poissons Ratio (x) = 0.09955 -0.18073
# Poissons Ratio (y) = 0.10704 -0.13741
# Poissons Ratio (z) = -0.63102 -0.44619
#
# Static dielectric constant tensor:
#      x y z
#    x 1.637840 0.001950 -0.013630 
#    y 0.001950 1.662550 -0.018560 
#    z -0.013630 -0.018560 1.626740 
# 
# From -- ./inp_files/270183.got.cif
#   From: 2010.05.17/outbox.cif.g08.bks.cpg/sg2_136_cif.got.tgz:270183.got - 2010.06.03 11:33:40.
