data_PCOD9081271
_publ_section_title
;
Structure prediction by ZEFSAII (Michael W. Deem and Ramdas Pophale) SiO2 
 PCOD9081271
Probable space group: P -1
;
_chemical_formula_sum "Si O2"
_cell_formula_units_Z 16
_cell_length_a 15.866326
_cell_length_b 14.321810
_cell_length_c 5.360321
_cell_angle_alpha 94.697095
_cell_angle_beta 73.984253
_cell_angle_gamma 44.234682
_cell_volume 742.352895
_symmetry_space_group_name_H-M "P -1"
_symmetry_group_IT_number 2
_symmetry_cell_setting 'triclinic'
loop_
_space_group_symop_operation_xyz
x,y,z
-x,-y,-z
loop_
_atom_site_type_symbol
_atom_site_label
_atom_site_fract_x
_atom_site_fract_y
_atom_site_fract_z
Si Si1 0.162554 0.892111 0.845331
Si Si2 0.810323 0.529201 0.227097
Si Si3 0.851509 0.175330 0.658002
Si Si4 0.908966 0.691940 0.810359
Si Si5 0.428646 0.919050 0.192068
Si Si6 0.708300 0.017903 0.184337
Si Si7 0.862830 0.387297 0.647523
Si Si8 0.697394 0.770441 0.696761
O O1 0.222305 0.801149 0.523155
O O2 0.188020 0.981497 0.858833
O O3 0.221141 0.795295 0.022483
O O4 0.000000 0.000000 0.000000
O O5 0.787505 0.476976 0.469409
O O6 0.722301 0.692315 0.407163
O O7 0.970204 0.426699 0.118562
O O8 0.797689 0.489120 0.965952
O O9 0.872516 0.268683 0.648421
O O10 0.000000 0.000000 0.500000
O O11 0.837177 0.665692 0.720826
O O12 0.985211 0.694216 0.541579
O O13 0.793373 0.851065 0.067839
O O14 0.397171 0.900187 0.480792
O O15 0.356202 0.081332 0.282517
O O16 0.584802 0.811529 0.966269
O O17 0.363460 0.916010 0.012512
#
# Coordination Sequence:
#
# PCOD9081271 Si02
#       8
#     2   2   2   2   2   2   2   2
#     4  10  20  31  56  84 117 146 176 232 293 357
#     4  10  23  36  57  84 121 160 188 239 289 348
#     4  10  19  31  53  81 119 148 179 220 281 367
#     4   9  22  34  59  82 125 150 189 240 285 347
#     4  10  25  40  61  81 117 159 201 246 271 330
#     4  11  22  39  57  89 120 150 188 242 298 335
#     4  10  22  35  52  90 122 155 179 228 308 341
#     4  10  22  43  58  86 111 162 208 236 279 332
#
# _framework density 21.553091999999999
#
# number of rings (size 3 to 8) (size 9 to 14) (size 15 to 20)
#    0.750    1.250    0.000    3.375    7.000    8.000 
#    0.000    0.000    0.000    0.000    0.000   17.500 
#    0.000    0.000    0.000    0.000    0.000    0.000 
#
# Total GULP energy -89356.019557 kJ/mol
# GULP energy per Si atom -5584.751222 kJ/mol
# Density = 2.150404 g / cm^3
# Si number density = 21.553092 Si / 1000 Ang^3
#
#
#
# Elastic Constant Matrix: (Units=GPa)
#
#
# Indices 1 2 3 4 5 6 
#
# 1 88.9872 26.0105 48.6229 0.6591 18.6178 24.3226
# 2 26.0105 48.4678 19.3084 -7.1562 14.0424 14.5779
# 3 48.6229 19.3084 131.9340 -25.1756 41.0625 4.0314
# 4 0.6591 -7.1562 -25.1756 25.6359 -3.6289 0.7593
# 5 18.6178 14.0424 41.0625 -3.6289 36.2566 0.7168
# 6 24.3226 14.5779 4.0314 0.7593 0.7168 25.4132
#
#
#
# Elastic Compliance Matrix: (Units=1/GPa)
#
#
# Indices 1 2 3 4 5 6 
#
# 1 0.022141 -0.004754 -0.008801 -0.010076 -0.000238 -0.016760
# 2 -0.004754 0.031095 0.003509 0.010930 -0.012209 -0.013826
# 3 -0.008801 0.003509 0.018452 0.016944 -0.016109 0.003431
# 4 -0.010076 0.010930 0.016944 0.057207 -0.012510 -0.000670
# 5 -0.000238 -0.012209 -0.016109 -0.012510 0.049251 0.008772
# 6 -0.016760 -0.013826 0.003431 -0.000670 0.008772 0.062550
#
#
# Mechanical properties :
#
#
# Convention : Reuss Voigt Hill
#
# Bulk Modulus (GPa) = 19.38067 50.80809 35.09438
# Shear Modulus (GPa) = 17.98648 29.15762 23.57205
#
# Velocity S-wave (km/s) = 2.89194 3.68207 3.31066
# Velocity P-wave (km/s) = 4.49029 6.45767 5.56166
#
# Compressibility (1/GPa) = 0.05159780
#
# Stress axis : x y z
#
# Youngs Moduli (GPa) = 45.16424 32.15925 54.19595
#
# Poissons Ratio (x) = 0.15288 0.47696
# Poissons Ratio (y) = 0.21471 -0.19019
# Poissons Ratio (z) = 0.39748 -0.11286
#
# Static dielectric constant tensor:
#      x y z
#    x 1.564950 0.115290 -0.224760 
#    y 0.115290 1.697480 0.142550 
#    z -0.224760 0.142550 1.519400 
# 
# From -- ./inp_files/110530.got.cif
#   From: 2010.05.17/outbox.cif.g08.bks.cpg/sg2_56_cif.got.tgz:110530.got - 2010.06.03 11:33:40.
