data_PCOD9081331
_publ_section_title
;
Structure prediction by ZEFSAII (Michael W. Deem and Ramdas Pophale) SiO2 
 PCOD9081331
Probable space group: P -1
;
_chemical_formula_sum "Si O2"
_cell_formula_units_Z 16
_cell_length_a 10.416884
_cell_length_b 22.724173
_cell_length_c 14.605023
_cell_angle_alpha 159.448924
_cell_angle_beta 140.772788
_cell_angle_gamma 38.971219
_cell_volume 746.049378
_symmetry_space_group_name_H-M "P -1"
_symmetry_group_IT_number 2
_symmetry_cell_setting 'triclinic'
loop_
_space_group_symop_operation_xyz
x,y,z
-x,-y,-z
loop_
_atom_site_type_symbol
_atom_site_label
_atom_site_fract_x
_atom_site_fract_y
_atom_site_fract_z
Si Si1 0.313623 0.849650 0.094847
Si Si2 0.777867 0.073404 0.031990
Si Si3 0.227487 0.130968 0.947752
Si Si4 0.397048 0.559344 0.173798
Si Si5 0.125576 0.629128 0.799504
Si Si6 0.662093 0.202732 0.346713
Si Si7 0.418853 0.889360 0.552601
Si Si8 0.620824 0.794980 0.344098
O O1 0.344781 0.808512 0.945513
O O2 0.522577 0.790723 0.183915
O O3 0.253018 0.057703 0.372908
O O4 0.150926 0.761104 0.925068
O O5 0.646106 0.926006 0.760354
O O6 0.777629 0.174788 0.273117
O O7 0.000000 0.000000 0.000000
O O8 0.258310 0.968675 0.797674
O O9 0.260753 0.049453 0.746097
O O10 0.419351 0.215600 0.204716
O O11 0.010321 0.262503 0.037536
O O12 0.644372 0.471180 0.189267
O O13 0.324261 0.641781 0.352491
O O14 0.379054 0.715314 0.320211
O O15 0.290896 0.401381 0.862229
O O16 0.000000 0.500000 0.500000
O O17 0.436275 0.872863 0.429142
#
# Coordination Sequence:
#
# PCOD9081331 Si02
#       8
#     2   2   2   2   2   2   2   2
#     4   9  20  34  52  76 103 149 176 212 264 318
#     4  10  19  31  55  78 110 140 176 215 271 331
#     4   9  17  31  51  79 111 138 173 216 272 319
#     4  10  19  32  56  84 106 138 178 224 264 307
#     4  11  20  31  54  80 113 136 168 225 276 315
#     4   9  17  31  51  79 109 140 173 215 268 321
#     4   9  19  34  58  80 103 144 183 221 256 314
#     4   9  18  37  55  72 107 145 191 209 253 319
#
# _framework density 21.446300999999998
#
# number of rings (size 3 to 8) (size 9 to 14) (size 15 to 20)
#    0.000    2.500    1.250    1.875    1.750    0.000 
#    0.000    5.000    2.750   15.000    0.000    0.000 
#    0.000    0.000    0.000    0.000    0.000    0.000 
#
# Total GULP energy -89231.670644 kJ/mol
# GULP energy per Si atom -5576.979415 kJ/mol
# Density = 2.139749 g / cm^3
# Si number density = 21.446301 Si / 1000 Ang^3
#
#
#
# Elastic Constant Matrix: (Units=GPa)
#
#
# Indices 1 2 3 4 5 6 
#
# 1 115.1723 16.7755 43.1278 9.2007 -17.4726 13.7150
# 2 16.7755 27.9884 -2.5337 -0.7146 -6.6886 1.0814
# 3 43.1278 -2.5337 94.8683 18.9521 16.3932 2.9457
# 4 9.2007 -0.7146 18.9521 19.7718 5.0446 -5.2203
# 5 -17.4726 -6.6886 16.3932 5.0446 46.9634 -1.3547
# 6 13.7150 1.0814 2.9457 -5.2203 -1.3547 32.3395
#
#
#
# Elastic Compliance Matrix: (Units=1/GPa)
#
#
# Indices 1 2 3 4 5 6 
#
# 1 0.014422 -0.007493 -0.007117 -0.003387 0.006989 -0.005471
# 2 -0.007493 0.040920 0.003921 0.001258 0.001586 0.001722
# 3 -0.007117 0.003921 0.017454 -0.011739 -0.006947 -0.000888
# 4 -0.003387 0.001258 -0.011739 0.067950 -0.003899 0.013269
# 5 0.006989 0.001586 -0.006947 -0.003899 0.026909 -0.001886
# 6 -0.005471 0.001722 -0.000888 0.013269 -0.001886 0.035328
#
#
# Mechanical properties :
#
#
# Convention : Reuss Voigt Hill
#
# Bulk Modulus (GPa) = 19.44922 39.19648 29.32285
# Shear Modulus (GPa) = 20.70379 31.85889 26.28134
#
# Velocity S-wave (km/s) = 3.11042 3.85842 3.50444
# Velocity P-wave (km/s) = 4.68915 6.17788 5.48426
#
# Compressibility (1/GPa) = 0.05141594
#
# Stress axis : x y z
#
# Youngs Moduli (GPa) = 69.34011 24.43796 57.29186
#
# Poissons Ratio (x) = 0.18312 0.40777
# Poissons Ratio (y) = 0.51958 -0.22462
# Poissons Ratio (z) = 0.49352 -0.09581
#
# Static dielectric constant tensor:
#      x y z
#    x 1.792490 0.005700 0.013280 
#    y 0.005700 1.810280 -0.024930 
#    z 0.013280 -0.024930 1.818420 
# 
# From -- ./inp_files/273238.got.cif
#   From: 2010.05.17/outbox.cif.g08.bks.cpg/sg2_137_cif.got.tgz:273238.got - 2010.06.03 11:33:40.
