data_PCOD9081317
_publ_section_title
;
Structure prediction by ZEFSAII (Michael W. Deem and Ramdas Pophale) SiO2 
 PCOD9081317
Probable space group: P -1
;
_chemical_formula_sum "Si O2"
_cell_formula_units_Z 16
_cell_length_a 14.159425
_cell_length_b 7.683434
_cell_length_c 8.381313
_cell_angle_alpha 108.449616
_cell_angle_beta 56.228996
_cell_angle_gamma 130.268163
_cell_volume 577.033406
_symmetry_space_group_name_H-M "P -1"
_symmetry_group_IT_number 2
_symmetry_cell_setting 'triclinic'
loop_
_space_group_symop_operation_xyz
x,y,z
-x,-y,-z
loop_
_atom_site_type_symbol
_atom_site_label
_atom_site_fract_x
_atom_site_fract_y
_atom_site_fract_z
Si Si1 0.085438 0.641068 0.807316
Si Si2 0.937031 0.247203 0.611038
Si Si3 0.726163 0.845359 0.529663
Si Si4 0.051471 0.067970 0.261052
Si Si5 0.243026 0.154647 0.848081
Si Si6 0.371325 0.726287 0.671428
Si Si7 0.482844 0.749579 0.258904
Si Si8 0.538058 0.252236 0.070850
O O1 0.994039 0.485453 0.699965
O O2 0.124209 0.888053 0.841480
O O3 0.233666 0.686141 0.715325
O O4 0.000000 0.500000 0.000000
O O5 0.893294 0.063510 0.741986
O O6 0.064821 0.260275 0.412657
O O7 0.805109 0.117330 0.577582
O O8 0.594102 0.747522 0.745980
O O9 0.877890 0.877061 0.379080
O O10 0.676273 0.765336 0.373933
O O11 0.141273 0.188536 0.053776
O O12 0.363723 0.196912 0.865206
O O13 0.406754 0.626906 0.461072
O O14 0.359240 0.638171 0.838202
O O15 0.486248 0.000706 0.674205
O O16 0.414986 0.643504 0.120680
O O17 0.500000 0.000000 0.000000
#
# Coordination Sequence:
#
# PCOD9081317 Si02
#       8
#     2   2   2   2   2   2   2   2
#     4  11  22  35  57  83 121 148 184 237 302 334
#     4   9  20  36  53  81 111 153 187 230 284 338
#     4  10  20  33  56  87 114 143 199 235 281 336
#     4   9  19  35  57  79 110 156 193 227 280 337
#     4  11  19  34  59  88 114 148 188 242 285 338
#     4   9  19  34  51  80 112 150 182 235 283 338
#     4   9  18  32  54  80 112 144 193 232 281 329
#     4  10  19  31  54  83 112 145 192 240 278 330
#
# _framework density 27.728031999999999
#
# number of rings (size 3 to 8) (size 9 to 14) (size 15 to 20)
#    0.750    1.500    2.500    1.125    5.250    0.500 
#    0.000    1.250    0.000    1.500    0.000    0.000 
#    0.000    0.000    0.000    0.000    0.000    0.000 
#
# Total GULP energy -89178.988748 kJ/mol
# GULP energy per Si atom -5573.686797 kJ/mol
# Density = 2.766492 g / cm^3
# Si number density = 27.728032 Si / 1000 Ang^3
#
#
#
# Elastic Constant Matrix: (Units=GPa)
#
#
# Indices 1 2 3 4 5 6 
#
# 1 88.0343 -3.3375 46.1788 -0.1391 18.6076 11.0957
# 2 -3.3375 59.6631 30.3189 18.6910 8.2011 -12.1031
# 3 46.1788 30.3189 213.9718 5.5984 18.2139 1.8285
# 4 -0.1391 18.6910 5.5984 53.0878 7.7449 12.0076
# 5 18.6076 8.2011 18.2139 7.7449 46.4885 3.6328
# 6 11.0957 -12.1031 1.8285 12.0076 3.6328 23.2990
#
#
#
# Elastic Compliance Matrix: (Units=1/GPa)
#
#
# Indices 1 2 3 4 5 6 
#
# 1 0.014788 0.000877 -0.002910 0.002269 -0.004782 -0.006782
# 2 0.000877 0.028023 -0.003707 -0.014012 -0.003239 0.022157
# 3 -0.002910 -0.003707 0.005857 0.001093 -0.000543 -0.001478
# 4 0.002269 -0.014012 0.001093 0.029185 -0.001915 -0.023188
# 5 -0.004782 -0.003239 -0.000543 -0.001915 0.024702 -0.002228
# 6 -0.006782 0.022157 -0.001478 -0.023188 -0.002228 0.070074
#
#
# Mechanical properties :
#
#
# Convention : Reuss Voigt Hill
#
# Bulk Modulus (GPa) = 26.89059 56.44329 41.66694
# Shear Modulus (GPa) = 25.44461 43.80897 34.62679
#
# Velocity S-wave (km/s) = 3.03256 3.97917 3.53767
# Velocity P-wave (km/s) = 4.68838 6.44298 5.63440
#
# Compressibility (1/GPa) = 0.03718773
#
# Stress axis : x y z
#
# Youngs Moduli (GPa) = 67.62217 35.68457 170.73432
#
# Poissons Ratio (x) = -0.03129 0.49686
# Poissons Ratio (y) = -0.05929 0.63292
# Poissons Ratio (z) = 0.19679 0.13228
#
# Static dielectric constant tensor:
#      x y z
#    x 2.287980 -0.131090 0.125880 
#    y -0.131090 2.231210 -0.045990 
#    z 0.125880 -0.045990 2.179780 
# 
# From -- ./inp_files/331245.got.cif
#   From: 2010.05.17/outbox.cif.g08.bks.cpg/sg2_166_cif.got.tgz:331245.got - 2010.06.03 11:33:40.
