data_PCOD9081864
_publ_section_title
;
Structure prediction by ZEFSAII (Michael W. Deem and Ramdas Pophale) SiO2 
 PCOD9081864
Probable space group: P -1
;
_chemical_formula_sum "Si O2"
_cell_formula_units_Z 14
_cell_length_a 11.093338
_cell_length_b 12.325930
_cell_length_c 9.120561
_cell_angle_alpha 41.581040
_cell_angle_beta 95.747800
_cell_angle_gamma 73.879062
_cell_volume 696.304452
_symmetry_space_group_name_H-M "P -1"
_symmetry_group_IT_number 2
_symmetry_cell_setting 'triclinic'
loop_
_space_group_symop_operation_xyz
x,y,z
-x,-y,-z
loop_
_atom_site_type_symbol
_atom_site_label
_atom_site_fract_x
_atom_site_fract_y
_atom_site_fract_z
Si Si1 0.571339 0.499818 0.658103
Si Si2 0.860686 0.496627 0.661194
Si Si3 0.926821 0.287714 0.153590
Si Si4 0.125729 0.179024 0.825048
Si Si5 0.007729 0.910956 0.352570
Si Si6 0.702990 0.136394 0.606173
Si Si7 0.362823 0.684211 0.867925
O O1 0.500000 0.500000 0.500000
O O2 0.716838 0.493486 0.653975
O O3 0.450387 0.696933 0.522510
O O4 0.604269 0.322527 0.949482
O O5 0.829813 0.696745 0.390601
O O6 0.977661 0.331897 0.733990
O O7 0.925969 0.442286 0.889482
O O8 0.006089 0.213322 0.393651
O O9 0.764952 0.355755 0.108044
O O10 0.975190 0.103748 0.238080
O O11 0.092051 0.058910 0.826829
O O12 0.236635 0.050368 0.095783
O O13 0.171539 0.815772 0.413145
O O14 0.684588 0.135091 0.428100
O O15 0.500000 0.500000 0.000000
#
# Coordination Sequence:
#
# PCOD9081864 Si02
#       7
#     2   2   2   2   2   2   2
#     4  10  20  34  57  80 104 136 182 226 264 319
#     4  10  22  38  50  79 114 146 175 218 278 311
#     4   9  18  33  55  78 107 135 180 226 259 317
#     4  11  22  34  55  78 115 144 175 223 264 326
#     4  10  19  32  56  86 101 136 185 224 264 306
#     4  10  19  33  55  79 105 140 177 218 267 316
#     4   8  17  32  50  79 105 133 167 224 272 303
#
# _framework density 20.106148000000001
#
# number of rings (size 3 to 8) (size 9 to 14) (size 15 to 20)
#    0.000    2.286    1.429    1.286    4.000    1.143 
#    0.000    0.000    0.000    0.857    0.000    0.000 
#    0.000    0.000    0.000    0.000    0.000    0.000 
#
# Total GULP energy -77952.603654 kJ/mol
# GULP energy per Si atom -5568.043118 kJ/mol
# Density = 2.006039 g / cm^3
# Si number density = 20.106148 Si / 1000 Ang^3
#
#
#
# Elastic Constant Matrix: (Units=GPa)
#
#
# Indices 1 2 3 4 5 6 
#
# 1 55.7423 20.9624 26.1124 3.1881 3.0391 -24.1115
# 2 20.9624 35.6855 34.6710 19.6200 -2.9858 -10.2515
# 3 26.1124 34.6710 186.8940 49.9158 -12.9183 2.1129
# 4 3.1881 19.6200 49.9158 40.0207 -8.2522 5.4883
# 5 3.0391 -2.9858 -12.9183 -8.2522 31.4758 2.9528
# 6 -24.1115 -10.2515 2.1129 5.4883 2.9528 25.0708
#
#
#
# Elastic Compliance Matrix: (Units=1/GPa)
#
#
# Indices 1 2 3 4 5 6 
#
# 1 0.039993 -0.009447 -0.005173 0.000890 -0.010027 0.036022
# 2 -0.009447 0.056827 -0.002261 -0.027965 -0.003920 0.020925
# 3 -0.005173 -0.002261 0.008982 -0.008535 0.002207 -0.005048
# 4 0.000890 -0.027965 -0.008535 0.054531 0.010213 -0.023000
# 5 -0.010027 -0.003920 0.002207 0.010213 0.037648 -0.018102
# 6 0.036022 0.020925 -0.005048 -0.023000 -0.018102 0.090679
#
#
# Mechanical properties :
#
#
# Convention : Reuss Voigt Hill
#
# Bulk Modulus (GPa) = 13.88122 49.09037 31.48579
# Shear Modulus (GPa) = 14.43277 32.41854 23.42566
#
# Velocity S-wave (km/s) = 2.68214 4.01979 3.41706
# Velocity P-wave (km/s) = 4.06335 6.78333 5.59126
#
# Compressibility (1/GPa) = 0.07203978
#
# Stress axis : x y z
#
# Youngs Moduli (GPa) = 25.00464 17.59736 111.33429
#
# Poissons Ratio (x) = 0.16624 0.57596
# Poissons Ratio (y) = 0.23621 0.25171
# Poissons Ratio (z) = 0.12936 0.03979
#
# Static dielectric constant tensor:
#      x y z
#    x 1.707280 -0.019050 0.010610 
#    y -0.019050 1.744540 0.030740 
#    z 0.010610 0.030740 1.817470 
# 
# From -- ./inp_files/167645.got.cif
#   From: 2010.05.17/outbox.cif.g08.bks.cpg/sg2_84_cif.got.tgz:167645.got - 2010.06.03 11:33:40.
