data_PCOD9081924
_publ_section_title
;
Structure prediction by ZEFSAII (Michael W. Deem and Ramdas Pophale) SiO2 
 PCOD9081924
Probable space group: P -1
;
_chemical_formula_sum "Si O2"
_cell_formula_units_Z 12
_cell_length_a 16.063547
_cell_length_b 6.930958
_cell_length_c 10.654470
_cell_angle_alpha 137.245704
_cell_angle_beta 144.213888
_cell_angle_gamma 53.534473
_cell_volume 470.890790
_symmetry_space_group_name_H-M "P -1"
_symmetry_group_IT_number 2
_symmetry_cell_setting 'triclinic'
loop_
_space_group_symop_operation_xyz
x,y,z
-x,-y,-z
loop_
_atom_site_type_symbol
_atom_site_label
_atom_site_fract_x
_atom_site_fract_y
_atom_site_fract_z
Si Si1 0.985416 0.416162 0.644995
Si Si2 0.466026 0.143888 0.390287
Si Si3 0.484240 0.222105 0.973866
Si Si4 0.727984 0.628429 0.562975
Si Si5 0.234745 0.761564 0.235975
Si Si6 0.156565 0.168961 0.535591
O O1 0.856627 0.421315 0.587497
O O2 0.925943 0.635109 0.571452
O O3 0.053373 0.162172 0.526098
O O4 0.120914 0.552474 0.942265
O O5 0.319995 0.301883 0.320463
O O6 0.603854 0.341158 0.630984
O O7 0.500000 0.000000 0.500000
O O8 0.470390 0.933751 0.175582
O O9 0.592531 0.477055 0.257954
O O10 0.316287 0.302171 0.809681
O O11 0.500000 0.000000 0.000000
O O12 0.767343 0.937459 0.700488
O O13 0.191939 0.870364 0.372347
#
# Coordination Sequence:
#
# PCOD9081924 Si02
#       6
#     2   2   2   2   2   2
#     4  10  19  32  57  89 113 137 180 244 293 326
#     4   9  20  36  61  87 109 142 193 245 283 324
#     4  11  24  40  56  79 118 160 191 224 274 340
#     4  10  20  33  55  83 111 145 189 231 279 332
#     4   9  18  32  54  85 113 138 178 239 291 326
#     4   9  19  34  55  81 114 146 183 228 285 335
#
# _framework density 25.483613999999999
#
# number of rings (size 3 to 8) (size 9 to 14) (size 15 to 20)
#    0.000    2.333    0.000    4.000    0.000   20.667 
#    0.000    0.833    0.000   10.000    0.000    0.000 
#    0.000    0.000    0.000    0.000    0.000    0.000 
#
# Total GULP energy -67052.844997 kJ/mol
# GULP energy per Si atom -5587.737083 kJ/mol
# Density = 2.542561 g / cm^3
# Si number density = 25.483614 Si / 1000 Ang^3
#
#
#
# Elastic Constant Matrix: (Units=GPa)
#
#
# Indices 1 2 3 4 5 6 
#
# 1 240.9683 60.6043 9.4500 -10.9970 -25.8283 -48.0824
# 2 60.6043 72.6224 0.6108 1.9634 1.6592 -23.2000
# 3 9.4500 0.6108 72.0057 -16.7418 -17.4671 -11.1578
# 4 -10.9970 1.9634 -16.7418 5.7328 -27.6082 -0.1674
# 5 -25.8283 1.6592 -17.4671 -27.6082 2.7211 -9.3613
# 6 -48.0824 -23.2000 -11.1578 -0.1674 -9.3613 66.9981
#
#
#
# Elastic Compliance Matrix: (Units=1/GPa)
#
#
# Indices 1 2 3 4 5 6 
#
# 1 0.005022 -0.003430 -0.001896 -0.004517 -0.002043 0.001804
# 2 -0.003430 0.017901 0.001848 0.001838 0.001874 0.004312
# 3 -0.001896 0.001848 0.011070 -0.005855 -0.007043 0.000124
# 4 -0.004517 0.001838 -0.005855 0.007760 -0.029083 -0.007625
# 5 -0.002043 0.001874 -0.007043 -0.029083 -0.000808 -0.002176
# 6 0.001804 0.004312 0.000124 -0.007625 -0.002176 0.017411
#
#
# Mechanical properties :
#
#
# Convention : Reuss Voigt Hill
#
# Bulk Modulus (GPa) = 36.98518 58.54739 47.76629
# Shear Modulus (GPa) = 67.27287 36.08581 51.67934
#
# Velocity S-wave (km/s) = 5.14352 3.76711 4.50816
# Velocity P-wave (km/s) = 7.05827 6.47657 6.77367
#
# Compressibility (1/GPa) = 0.02703786
#
# Stress axis : x y z
#
# Youngs Moduli (GPa) = 199.13889 55.86176 90.33092
#
# Poissons Ratio (x) = 0.19159 0.17130
# Poissons Ratio (y) = 0.68298 -0.16695
# Poissons Ratio (z) = 0.37764 -0.10325
#
# Static dielectric constant tensor:
#      x y z
#    x 2.097800 0.038910 -0.042560 
#    y 0.038910 2.144550 -0.058470 
#    z -0.042560 -0.058470 1.976710 
# 
# From -- ./inp_files/462603.got.cif
#   From: 2010.05.17/outbox.cif.g08.bks.cpg/sg2_232_cif.got.tgz:462603.got - 2010.06.03 11:33:40.
