data_PCOD9081474
_publ_section_title
;
Structure prediction by ZEFSAII (Michael W. Deem and Ramdas Pophale) SiO2 
 PCOD9081474
Probable space group: P -1
;
_chemical_formula_sum "Si O2"
_cell_formula_units_Z 12
_cell_length_a 7.618338
_cell_length_b 12.464532
_cell_length_c 9.417070
_cell_angle_alpha 61.984265
_cell_angle_beta 97.750088
_cell_angle_gamma 141.458849
_cell_volume 445.770320
_symmetry_space_group_name_H-M "P -1"
_symmetry_group_IT_number 2
_symmetry_cell_setting 'triclinic'
loop_
_space_group_symop_operation_xyz
x,y,z
-x,-y,-z
loop_
_atom_site_type_symbol
_atom_site_label
_atom_site_fract_x
_atom_site_fract_y
_atom_site_fract_z
Si Si1 0.492190 0.783908 0.108546
Si Si2 0.841296 0.747924 0.851252
Si Si3 0.673316 0.244714 0.605032
Si Si4 0.077319 0.202115 0.844193
Si Si5 0.972796 0.298662 0.345670
Si Si6 0.609154 0.688594 0.587629
O O1 0.405489 0.829775 0.194582
O O2 0.172463 0.534188 0.189652
O O3 0.686223 0.771990 0.186209
O O4 0.724397 0.975286 0.899253
O O5 0.958753 0.834363 0.966776
O O6 0.057115 0.776275 0.768079
O O7 0.736128 0.788149 0.698489
O O8 0.500000 0.500000 0.000000
O O9 0.416637 0.200974 0.563782
O O10 0.000000 0.500000 0.500000
O O11 0.722913 0.190817 0.504913
O O12 0.266217 0.432757 0.702290
O O13 0.171359 0.300024 0.440714
#
# Coordination Sequence:
#
# PCOD9081474 Si02
#       6
#     2   2   2   2   2   2
#     4   9  17  28  50  76 101 123 162 206 244 280
#     4   8  14  31  52  71  95 132 163 196 240 293
#     4  10  19  32  49  78  99 127 165 203 239 293
#     4   9  16  31  52  74  98 131 159 204 247 283
#     4   8  17  31  51  73  96 127 164 199 236 289
#     4   8  17  32  54  72  93 134 164 197 241 291
#
# _framework density 26.919695000000001
#
# number of rings (size 3 to 8) (size 9 to 14) (size 15 to 20)
#    1.000    2.333    1.667    0.000    0.000    6.000 
#    0.000    8.333    0.000    2.000    0.000    0.000 
#    0.000    0.000    0.000    0.000    0.000    0.000 
#
# Total GULP energy -66816.783143 kJ/mol
# GULP energy per Si atom -5568.065262 kJ/mol
# Density = 2.685843 g / cm^3
# Si number density = 26.919695 Si / 1000 Ang^3
#
#
#
# Elastic Constant Matrix: (Units=GPa)
#
#
# Indices 1 2 3 4 5 6 
#
# 1 91.1683 13.9143 35.8993 16.8605 -17.1379 -23.5742
# 2 13.9143 83.5929 26.5337 -0.4733 -11.2227 -28.2201
# 3 35.8993 26.5337 92.4974 13.0351 -35.3874 -18.1727
# 4 16.8605 -0.4733 13.0351 52.7958 -7.4015 -13.7950
# 5 -17.1379 -11.2227 -35.3874 -7.4015 52.8539 2.9634
# 6 -23.5742 -28.2201 -18.1727 -13.7950 2.9634 35.9880
#
#
#
# Elastic Compliance Matrix: (Units=1/GPa)
#
#
# Indices 1 2 3 4 5 6 
#
# 1 0.015043 0.001928 -0.003639 -0.001267 0.002176 0.008863
# 2 0.001928 0.018143 -0.002532 0.004654 0.002549 0.015785
# 3 -0.003639 -0.002532 0.017405 -0.000957 0.009619 0.003261
# 4 -0.001267 0.004654 -0.000957 0.022819 0.002522 0.010875
# 5 0.002176 0.002549 0.009619 0.002522 0.026564 0.007061
# 6 0.008863 0.015785 0.003261 0.010875 0.007061 0.051205
#
#
# Mechanical properties :
#
#
# Convention : Reuss Voigt Hill
#
# Bulk Modulus (GPa) = 23.74988 46.66146 35.20567
# Shear Modulus (GPa) = 28.78525 41.05499 34.92012
#
# Velocity S-wave (km/s) = 3.27356 3.90948 3.60557
# Velocity P-wave (km/s) = 4.80936 6.14409 5.51724
#
# Compressibility (1/GPa) = 0.04210548
#
# Stress axis : x y z
#
# Youngs Moduli (GPa) = 66.47772 55.11738 57.45365
#
# Poissons Ratio (x) = -0.10628 0.20906
# Poissons Ratio (y) = -0.12819 0.14549
# Poissons Ratio (z) = 0.24190 0.13957
#
# Static dielectric constant tensor:
#      x y z
#    x 2.116270 0.082070 -0.039490 
#    y 0.082070 2.255060 -0.033360 
#    z -0.039490 -0.033360 2.143840 
# 
# From -- ./inp_files/281142.got.cif
#   From: 2010.05.17/outbox.cif.g08.bks.cpg/sg2_141_cif.got.tgz:281142.got - 2010.06.03 11:33:40.
