data_PCOD9081088
_publ_section_title
;
Structure prediction by ZEFSAII (Michael W. Deem and Ramdas Pophale) SiO2 
 PCOD9081088
Probable space group: P -1
;
_chemical_formula_sum "Si O2"
_cell_formula_units_Z 16
_cell_length_a 13.568539
_cell_length_b 13.997640
_cell_length_c 13.754313
_cell_angle_alpha 122.299981
_cell_angle_beta 124.579311
_cell_angle_gamma 21.457058
_cell_volume 786.619395
_symmetry_space_group_name_H-M "P -1"
_symmetry_group_IT_number 2
_symmetry_cell_setting 'triclinic'
loop_
_space_group_symop_operation_xyz
x,y,z
-x,-y,-z
loop_
_atom_site_type_symbol
_atom_site_label
_atom_site_fract_x
_atom_site_fract_y
_atom_site_fract_z
Si Si1 0.275049 0.485709 0.670977
Si Si2 0.671698 0.916806 0.132892
Si Si3 0.138330 0.386985 0.623438
Si Si4 0.875805 0.276329 0.546294
Si Si5 0.405588 0.598978 0.725301
Si Si6 0.707231 0.988211 0.515262
Si Si7 0.814132 0.586801 0.735643
Si Si8 0.003057 0.133733 0.753279
O O1 0.276385 0.393143 0.707637
O O2 0.403320 0.501111 0.750331
O O3 0.958191 0.776007 0.618732
O O4 0.447252 0.273542 0.568108
O O5 0.457071 0.130902 0.214665
O O6 0.809456 0.914626 0.169105
O O7 0.927597 0.628272 0.162334
O O8 0.500000 0.000000 0.000000
O O9 0.332887 0.110364 0.583393
O O10 0.000000 0.500000 0.500000
O O11 0.922634 0.551577 0.678605
O O12 0.669660 0.394246 0.418259
O O13 0.771778 0.489137 0.637432
O O14 0.155598 0.065286 0.528053
O O15 0.947049 0.152206 0.618132
O O16 0.165069 0.894462 0.764719
O O17 0.702047 0.404702 0.777973
#
# Coordination Sequence:
#
# PCOD9081088 Si02
#       8
#     2   2   2   2   2   2   2   2
#     4  10  19  31  45  69 107 150 181 209 247 306
#     4  11  24  44  63  82 108 141 193 259 297 323
#     4   9  19  33  54  82 119 154 184 225 273 334
#     4   9  19  32  49  76 117 149 178 222 267 338
#     4  11  21  32  48  78 116 154 182 207 260 348
#     4   9  18  29  45  68 102 151 188 209 251 306
#     4  10  22  37  60  90 113 147 193 229 288 349
#     4  11  22  34  52  77 103 144 188 228 281 334
#
# _framework density 20.340205000000001
#
# number of rings (size 3 to 8) (size 9 to 14) (size 15 to 20)
#    0.000    2.000    0.000    5.250    0.000   18.000 
#    0.000    0.000    0.000    0.000    0.000    5.250 
#    0.000    0.000    0.000    0.000    0.000    0.000 
#
# Total GULP energy -89353.224808 kJ/mol
# GULP energy per Si atom -5584.576550 kJ/mol
# Density = 2.029391 g / cm^3
# Si number density = 20.340205 Si / 1000 Ang^3
#
#
#
# Elastic Constant Matrix: (Units=GPa)
#
#
# Indices 1 2 3 4 5 6 
#
# 1 113.2059 26.9197 6.1305 1.3183 2.8353 5.3528
# 2 26.9197 78.9282 9.3968 -8.1893 2.7605 -4.5775
# 3 6.1305 9.3968 44.7621 -12.9591 11.0531 -10.8659
# 4 1.3183 -8.1893 -12.9591 19.7282 -6.1578 3.1978
# 5 2.8353 2.7605 11.0531 -6.1578 13.6387 -4.5858
# 6 5.3528 -4.5775 -10.8659 3.1978 -4.5858 18.5919
#
#
#
# Elastic Compliance Matrix: (Units=1/GPa)
#
#
# Indices 1 2 3 4 5 6 
#
# 1 0.010235 -0.003822 -0.002242 -0.003837 -0.003049 -0.005290
# 2 -0.003822 0.014816 -0.000368 0.006215 0.002252 0.004020
# 3 -0.002242 -0.000368 0.034525 0.015481 -0.015674 0.014204
# 4 -0.003837 0.006215 0.015481 0.069107 0.019766 0.004672
# 5 -0.003049 0.002252 -0.015674 0.019766 0.099648 0.013451
# 6 -0.005290 0.004020 0.014204 0.004672 0.013451 0.067115
#
#
# Mechanical properties :
#
#
# Convention : Reuss Voigt Hill
#
# Bulk Modulus (GPa) = 21.40720 35.75449 28.58085
# Shear Modulus (GPa) = 15.43784 23.35505 19.39644
#
# Velocity S-wave (km/s) = 2.75795 3.39222 3.09139
# Velocity P-wave (km/s) = 4.54853 5.74101 5.17921
#
# Compressibility (1/GPa) = 0.04671325
#
# Stress axis : x y z
#
# Youngs Moduli (GPa) = 97.70492 67.49277 28.96475
#
# Poissons Ratio (x) = 0.25797 0.06493
# Poissons Ratio (y) = 0.37345 0.01065
# Poissons Ratio (z) = 0.21901 0.02481
#
# Static dielectric constant tensor:
#      x y z
#    x 1.790080 0.019810 0.018960 
#    y 0.019810 1.738670 -0.013880 
#    z 0.018960 -0.013880 1.719860 
# 
# From -- ./inp_files/533369.got.cif
#   From: 2010.05.17/outbox.cif.g08.bks.cpg/sg2_267_cif.got.tgz:533369.got - 2010.06.03 11:33:40.
