data_PCOD9081645
_publ_section_title
;
Structure prediction by ZEFSAII (Michael W. Deem and Ramdas Pophale) SiO2 
 PCOD9081645
Probable space group: P -1
;
_chemical_formula_sum "Si O2"
_cell_formula_units_Z 14
_cell_length_a 13.305461
_cell_length_b 7.947821
_cell_length_c 5.802238
_cell_angle_alpha 95.729666
_cell_angle_beta 111.795922
_cell_angle_gamma 60.006918
_cell_volume 490.611064
_symmetry_space_group_name_H-M "P -1"
_symmetry_group_IT_number 2
_symmetry_cell_setting 'triclinic'
loop_
_space_group_symop_operation_xyz
x,y,z
-x,-y,-z
loop_
_atom_site_type_symbol
_atom_site_label
_atom_site_fract_x
_atom_site_fract_y
_atom_site_fract_z
Si Si1 0.999012 0.765695 0.059397
Si Si2 0.761111 0.913816 0.179646
Si Si3 0.317442 0.551571 0.919388
Si Si4 0.866144 0.646268 0.619779
Si Si5 0.136021 0.864966 0.488178
Si Si6 0.474956 0.673036 0.324168
Si Si7 0.375306 0.201039 0.254237
O O1 0.064543 0.565383 0.235846
O O2 0.098619 0.836229 0.195230
O O3 0.864164 0.893222 0.081267
O O4 0.961122 0.725732 0.774111
O O5 0.827516 0.701561 0.332134
O O6 0.765902 0.057762 0.394838
O O7 0.634247 0.944098 0.960854
O O8 0.198831 0.673297 0.674730
O O9 0.422799 0.416781 0.804194
O O10 0.351724 0.704200 0.091640
O O11 0.322525 0.406021 0.098816
O O12 0.732512 0.758636 0.649788
O O13 0.000000 0.000000 0.500000
O O14 0.500000 0.500000 0.500000
O O15 0.501667 0.822289 0.515343
#
# Coordination Sequence:
#
# PCOD9081645 Si02
#       7
#     2   2   2   2   2   2   2
#     4   9  19  33  50  75 106 148 196 229 265 314
#     4  10  20  33  50  76 115 148 180 224 274 331
#     4  10  20  38  61  84 111 142 184 235 277 323
#     4  10  19  32  53  80 105 143 193 233 268 316
#     4  10  21  36  54  81 119 156 179 214 278 339
#     4   9  19  36  63  88 104 134 189 243 280 314
#     4  10  19  34  58  83 106 140 187 234 276 321
#
# _framework density 28.535845999999999
#
# number of rings (size 3 to 8) (size 9 to 14) (size 15 to 20)
#    0.000    2.286    0.000    3.000    0.000    6.286 
#    0.000   12.143    0.000   12.000    0.000    0.000 
#    0.000    0.000    0.000    0.000    0.000    0.000 
#
# Total GULP energy -78328.750621 kJ/mol
# GULP energy per Si atom -5594.910759 kJ/mol
# Density = 2.847090 g / cm^3
# Si number density = 28.535846 Si / 1000 Ang^3
#
#
#
# Elastic Constant Matrix: (Units=GPa)
#
#
# Indices 1 2 3 4 5 6 
#
# 1 128.7041 32.0823 49.2755 7.0457 2.3692 11.2503
# 2 32.0823 74.7905 29.5097 11.4939 19.4492 21.4624
# 3 49.2755 29.5097 220.2501 12.7491 66.6304 26.2989
# 4 7.0457 11.4939 12.7491 59.5675 27.3437 28.7973
# 5 2.3692 19.4492 66.6304 27.3437 65.4055 9.4408
# 6 11.2503 21.4624 26.2989 28.7973 9.4408 52.5293
#
#
#
# Elastic Compliance Matrix: (Units=1/GPa)
#
#
# Indices 1 2 3 4 5 6 
#
# 1 0.010063 -0.004520 -0.003340 -0.003075 0.005367 0.002085
# 2 -0.004520 0.018342 0.001507 0.003962 -0.007307 -0.008139
# 3 -0.003340 0.001507 0.008685 0.005897 -0.010841 -0.005532
# 4 -0.003075 0.003962 0.005897 0.032211 -0.017891 -0.018356
# 5 0.005367 -0.007307 -0.010841 -0.017891 0.034214 0.010922
# 6 0.002085 -0.008139 -0.005532 -0.018356 0.010922 0.032786
#
#
# Mechanical properties :
#
#
# Convention : Reuss Voigt Hill
#
# Bulk Modulus (GPa) = 41.01317 71.71997 56.36657
# Shear Modulus (GPa) = 31.81983 56.35893 44.08938
#
# Velocity S-wave (km/s) = 3.34291 4.44894 3.93498
# Velocity P-wave (km/s) = 5.41329 7.18183 6.35934
#
# Compressibility (1/GPa) = 0.02438241
#
# Stress axis : x y z
#
# Youngs Moduli (GPa) = 99.37829 54.51952 115.14674
#
# Poissons Ratio (x) = 0.24643 0.38461
# Poissons Ratio (y) = 0.44919 -0.17350
# Poissons Ratio (z) = 0.33194 -0.08215
#
# Static dielectric constant tensor:
#      x y z
#    x 2.073340 0.075310 0.017490 
#    y 0.075310 2.457730 0.124110 
#    z 0.017490 0.124110 2.235900 
# 
# From -- ./inp_files/36911.got.cif
#   From: 2010.05.17/outbox.cif.g08.bks.cpg/sg2_19_cif.got.tgz:36911.got - 2010.06.03 11:33:40.
