data_PCOD9081766
_publ_section_title
;
Structure prediction by ZEFSAII (Michael W. Deem and Ramdas Pophale) SiO2 
 PCOD9081766
Probable space group: P -1
;
_chemical_formula_sum "Si O2"
_cell_formula_units_Z 16
_cell_length_a 9.505149
_cell_length_b 17.616320
_cell_length_c 18.009902
_cell_angle_alpha 148.535818
_cell_angle_beta 40.825940
_cell_angle_gamma 145.250538
_cell_volume 881.254709
_symmetry_space_group_name_H-M "P -1"
_symmetry_group_IT_number 2
_symmetry_cell_setting 'triclinic'
loop_
_space_group_symop_operation_xyz
x,y,z
-x,-y,-z
loop_
_atom_site_type_symbol
_atom_site_label
_atom_site_fract_x
_atom_site_fract_y
_atom_site_fract_z
Si Si1 0.813452 0.480998 0.125521
Si Si2 0.466146 0.058682 0.482165
Si Si3 0.823276 0.989979 0.216321
Si Si4 0.427105 0.295328 0.793756
Si Si5 0.472463 0.118935 0.906461
Si Si6 0.086825 0.415311 0.091993
Si Si7 0.080045 0.860150 0.349640
Si Si8 0.262983 0.944303 0.995565
O O1 0.910313 0.448070 0.137098
O O2 0.850553 0.666834 0.274451
O O3 0.561404 0.306873 0.059127
O O4 0.000000 0.500000 0.000000
O O5 0.724111 0.115518 0.382743
O O6 0.400304 0.200479 0.648319
O O7 0.500000 0.000000 0.500000
O O8 0.244536 0.904403 0.396335
O O9 0.677778 0.836066 0.204853
O O10 0.719729 0.925769 0.121751
O O11 0.110378 0.041403 0.151920
O O12 0.716437 0.428437 0.806395
O O13 0.262797 0.383412 0.938524
O O14 0.717025 0.117845 0.775879
O O15 0.353525 0.985753 0.909550
O O16 0.929486 0.251048 0.069178
O O17 0.000000 0.000000 0.500000
O O18 0.500000 0.000000 0.000000
#
# Coordination Sequence:
#
# PCOD9081766 Si02
#       8
#     2   2   2   2   2   2   2   2
#     4  10  19  32  55  79 114 142 183 229 281 318
#     4   9  17  32  54  79 110 144 176 224 289 331
#     4   9  19  35  55  83 109 145 190 231 279 335
#     4   9  18  31  57  83 110 141 184 236 283 319
#     4  10  20  36  57  80 115 149 191 225 279 331
#     4  10  19  33  52  86 113 140 192 234 269 334
#     4  10  22  35  56  86 116 142 182 235 285 335
#     4  11  21  35  56  81 112 150 189 232 272 327
#
# _framework density 18.155932
#
# number of rings (size 3 to 8) (size 9 to 14) (size 15 to 20)
#    0.000    2.250    1.250    3.375    3.500    1.000 
#    0.000    0.000    2.750    3.000    0.000    0.000 
#    0.000    0.000    0.000    0.000    0.000    0.000 
#
# Total GULP energy -89088.628254 kJ/mol
# GULP energy per Si atom -5568.039266 kJ/mol
# Density = 1.811461 g / cm^3
# Si number density = 18.155932 Si / 1000 Ang^3
#
#
#
# Elastic Constant Matrix: (Units=GPa)
#
#
# Indices 1 2 3 4 5 6 
#
# 1 82.0439 26.8826 33.1354 -9.0700 2.8157 2.1664
# 2 26.8826 70.1842 29.0753 -3.1026 13.8797 -2.9576
# 3 33.1354 29.0753 99.5555 10.6605 7.1666 2.9566
# 4 -9.0700 -3.1026 10.6605 14.8743 0.9718 -2.9504
# 5 2.8157 13.8797 7.1666 0.9718 26.7139 -1.1057
# 6 2.1664 -2.9576 2.9566 -2.9504 -1.1057 24.7883
#
#
#
# Elastic Compliance Matrix: (Units=1/GPa)
#
#
# Indices 1 2 3 4 5 6 
#
# 1 0.017535 -0.003623 -0.006449 0.014595 0.001258 0.000598
# 2 -0.003623 0.019776 -0.004760 0.006619 -0.008706 0.003643
# 3 -0.006449 -0.004760 0.015535 -0.016793 -0.000565 -0.003881
# 4 0.014595 0.006619 -0.016793 0.092211 -0.003316 0.012345
# 5 0.001258 -0.008706 -0.000565 -0.003316 0.042113 0.000402
# 6 0.000598 0.003643 -0.003881 0.012345 0.000402 0.042674
#
#
# Mechanical properties :
#
#
# Convention : Reuss Voigt Hill
#
# Bulk Modulus (GPa) = 43.13763 47.77446 45.45605
# Shear Modulus (GPa) = 18.71001 24.12132 21.41566
#
# Velocity S-wave (km/s) = 3.21365 3.64890 3.43817
# Velocity P-wave (km/s) = 6.13035 6.64253 6.39157
#
# Compressibility (1/GPa) = 0.02318162
#
# Stress axis : x y z
#
# Youngs Moduli (GPa) = 57.02877 50.56725 64.36903
#
# Poissons Ratio (x) = 0.18321 0.41514
# Poissons Ratio (y) = 0.20662 0.30639
# Poissons Ratio (z) = 0.36780 0.24069
#
# Static dielectric constant tensor:
#      x y z
#    x 1.658790 0.019980 -0.049250 
#    y 0.019980 1.625720 -0.004010 
#    z -0.049250 -0.004010 1.700340 
# 
# From -- ./inp_files/345196.got.cif
#   From: 2010.05.17/outbox.cif.g08.bks.cpg/sg2_173_cif.got.tgz:345196.got - 2010.06.03 11:33:40.
