data_PCOD9081898
_publ_section_title
;
Structure prediction by ZEFSAII (Michael W. Deem and Ramdas Pophale) SiO2 
 PCOD9081898
Probable space group: P -1
;
_chemical_formula_sum "Si O2"
_cell_formula_units_Z 16
_cell_length_a 10.944823
_cell_length_b 17.158452
_cell_length_c 6.524389
_cell_angle_alpha 97.213478
_cell_angle_beta 92.321073
_cell_angle_gamma 41.006026
_cell_volume 794.798730
_symmetry_space_group_name_H-M "P -1"
_symmetry_group_IT_number 2
_symmetry_cell_setting 'triclinic'
loop_
_space_group_symop_operation_xyz
x,y,z
-x,-y,-z
loop_
_atom_site_type_symbol
_atom_site_label
_atom_site_fract_x
_atom_site_fract_y
_atom_site_fract_z
Si Si1 0.061190 0.168808 0.950362
Si Si2 0.592318 0.631428 0.439221
Si Si3 0.842689 0.637125 0.600895
Si Si4 0.919278 0.405181 0.096853
Si Si5 0.363412 0.493159 0.210835
Si Si6 0.740780 0.827647 0.393484
Si Si7 0.680905 0.307611 0.833721
Si Si8 0.596884 0.001054 0.822438
O O1 0.153739 0.164782 0.753094
O O2 0.892226 0.194808 0.884324
O O3 0.219395 0.055275 0.070427
O O4 0.964364 0.291188 0.096588
O O5 0.649234 0.686070 0.564276
O O6 0.757744 0.519883 0.265402
O O7 0.588500 0.568874 0.594574
O O8 0.404025 0.718201 0.324233
O O9 0.855991 0.703270 0.468162
O O10 0.000000 0.500000 0.500000
O O11 0.893077 0.641202 0.835497
O O12 0.823808 0.454240 0.884111
O O13 0.327539 0.603671 0.252670
O O14 0.536756 0.391213 0.038166
O O15 0.664969 0.911940 0.613006
O O16 0.571985 0.871980 0.260799
O O17 0.500000 0.000000 0.000000
#
# Coordination Sequence:
#
# PCOD9081898 Si02
#       8
#     2   2   2   2   2   2   2   2
#     4  10  19  32  57  80 103 132 178 230 265 307
#     4  10  20  34  46  70 111 153 175 207 259 311
#     4  10  21  34  50  78 115 144 179 204 254 338
#     4   9  19  31  46  76 107 134 185 212 252 312
#     4   9  18  32  47  67 103 146 178 224 258 291
#     4  10  20  36  55  82 108 139 169 222 278 305
#     4   9  19  31  47  75 100 134 186 220 253 313
#     4   9  19  36  57  80 106 131 176 228 275 307
#
# _framework density 20.130883000000001
#
# number of rings (size 3 to 8) (size 9 to 14) (size 15 to 20)
#    0.000    2.500    1.250    1.125    7.000    1.500 
#    4.500    0.000    0.000    0.750    0.000    8.750 
#    0.000    0.000    0.000    0.000    0.000    0.000 
#
# Total GULP energy -89095.159630 kJ/mol
# GULP energy per Si atom -5568.447477 kJ/mol
# Density = 2.008506 g / cm^3
# Si number density = 20.130883 Si / 1000 Ang^3
#
#
#
# Elastic Constant Matrix: (Units=GPa)
#
#
# Indices 1 2 3 4 5 6 
#
# 1 95.0191 9.2964 38.8867 -2.6201 39.4066 -37.1402
# 2 9.2964 36.8512 20.0542 -12.4161 4.8165 -20.9247
# 3 38.8867 20.0542 61.9483 -10.0720 18.4945 -19.2323
# 4 -2.6201 -12.4161 -10.0720 16.2810 -8.7801 13.1043
# 5 39.4066 4.8165 18.4945 -8.7801 33.1688 -15.7776
# 6 -37.1402 -20.9247 -19.2323 13.1043 -15.7776 30.1459
#
#
#
# Elastic Compliance Matrix: (Units=1/GPa)
#
#
# Indices 1 2 3 4 5 6 
#
# 1 0.168963 0.074268 -0.049396 -0.221929 -0.117553 0.263150
# 2 0.074268 0.088421 -0.031735 -0.078295 -0.033058 0.149361
# 3 -0.049396 -0.031735 0.037647 0.063598 0.023948 -0.073979
# 4 -0.221929 -0.078295 0.063598 0.394183 0.167500 -0.370876
# 5 -0.117553 -0.033058 0.023948 0.167500 0.131047 -0.156720
# 6 0.263150 0.149361 -0.073979 -0.370876 -0.156720 0.493048
#
#
# Mechanical properties :
#
#
# Convention : Reuss Voigt Hill
#
# Bulk Modulus (GPa) = 3.55485 36.69927 20.12706
# Shear Modulus (GPa) = 3.51914 24.29124 13.90519
#
# Velocity S-wave (km/s) = 1.32360 3.47748 2.63104
# Velocity P-wave (km/s) = 2.02623 5.86461 4.38744
#
# Compressibility (1/GPa) = 0.28130591
#
# Stress axis : x y z
#
# Youngs Moduli (GPa) = 5.91845 11.30955 26.56289
#
# Poissons Ratio (x) = -0.83994 1.31211
# Poissons Ratio (y) = -0.43955 0.84296
# Poissons Ratio (z) = 0.29235 0.35890
#
# Static dielectric constant tensor:
#      x y z
#    x 1.780490 -0.057570 0.042550 
#    y -0.057570 1.726510 -0.009270 
#    z 0.042550 -0.009270 1.718820 
# 
# From -- ./inp_files/80582.got.cif
#   From: 2010.05.17/outbox.cif.g08.bks.cpg/sg2_41_cif.got.tgz:80582.got - 2010.06.03 11:33:40.
