data_PCOD9081578
_publ_section_title
;
Structure prediction by ZEFSAII (Michael W. Deem and Ramdas Pophale) SiO2 
 PCOD9081578
Probable space group: P -1
;
_chemical_formula_sum "Si O2"
_cell_formula_units_Z 16
_cell_length_a 11.092609
_cell_length_b 17.939156
_cell_length_c 8.351146
_cell_angle_alpha 76.832383
_cell_angle_beta 102.771303
_cell_angle_gamma 36.846202
_cell_volume 701.601848
_symmetry_space_group_name_H-M "P -1"
_symmetry_group_IT_number 2
_symmetry_cell_setting 'triclinic'
loop_
_space_group_symop_operation_xyz
x,y,z
-x,-y,-z
loop_
_atom_site_type_symbol
_atom_site_label
_atom_site_fract_x
_atom_site_fract_y
_atom_site_fract_z
Si Si1 0.241938 0.285730 0.311050
Si Si2 0.826331 0.323431 0.640646
Si Si3 0.214756 0.532330 0.682192
Si Si4 0.588605 0.365741 0.149068
Si Si5 0.071703 0.634851 0.050135
Si Si6 0.128156 0.102987 0.308380
Si Si7 0.884738 0.977968 0.987247
Si Si8 0.708578 0.641608 0.428414
O O1 0.287395 0.341632 0.389749
O O2 0.060031 0.345682 0.368644
O O3 0.547990 0.082945 0.471167
O O4 0.077020 0.359397 0.062181
O O5 0.500000 0.500000 0.500000
O O6 0.844880 0.350383 0.458472
O O7 0.971422 0.302121 0.821035
O O8 0.968021 0.162156 0.779853
O O9 0.319029 0.429642 0.605291
O O10 0.457916 0.389121 0.953778
O O11 0.402446 0.447699 0.205816
O O12 0.918734 0.181884 0.335945
O O13 0.500000 0.500000 0.000000
O O14 0.955272 0.764322 0.828589
O O15 0.069153 0.087599 0.138091
O O16 0.551074 0.168540 0.814844
O O17 0.000000 0.000000 0.000000
O O18 0.000000 0.500000 0.500000
#
# Coordination Sequence:
#
# PCOD9081578 Si02
#       8
#     2   2   2   2   2   2   2   2
#     4   9  18  32  53  77 102 139 181 217 258 317
#     4  11  21  34  54  84 113 139 174 225 275 314
#     4  10  19  34  55  79 108 140 175 221 268 313
#     4   9  16  29  51  76  99 137 181 218 258 312
#     4   9  18  31  48  75 105 140 178 215 259 318
#     4   9  16  28  49  76 101 129 175 223 255 299
#     4  10  19  32  52  79 106 138 178 219 264 320
#     4   9  18  34  54  78 106 142 181 218 262 319
#
# _framework density 22.804956000000001
#
# number of rings (size 3 to 8) (size 9 to 14) (size 15 to 20)
#    0.000    2.500    0.000    4.125    0.000    0.000 
#    0.000   10.625    0.000    1.500    0.000  127.750 
#    0.000    0.000    0.000    2.250    0.000    0.000 
#
# Total GULP energy -89189.902425 kJ/mol
# GULP energy per Si atom -5574.368902 kJ/mol
# Density = 2.275305 g / cm^3
# Si number density = 22.804956 Si / 1000 Ang^3
#
#
#
# Elastic Constant Matrix: (Units=GPa)
#
#
# Indices 1 2 3 4 5 6 
#
# 1 31.1321 26.8309 30.9101 -5.2504 6.1812 0.0936
# 2 26.8309 99.5065 42.5970 -12.4236 14.0338 11.2793
# 3 30.9101 42.5970 100.5931 -18.3928 4.1626 -3.5000
# 4 -5.2504 -12.4236 -18.3928 49.1011 2.7353 22.7811
# 5 6.1812 14.0338 4.1626 2.7353 35.0686 -4.9856
# 6 0.0936 11.2793 -3.5000 22.7811 -4.9856 42.4696
#
#
#
# Elastic Compliance Matrix: (Units=1/GPa)
#
#
# Indices 1 2 3 4 5 6 
#
# 1 0.052544 -0.008637 -0.012604 -0.001843 -0.003928 0.001667
# 2 -0.008637 0.016469 -0.003166 0.006539 -0.006465 -0.008882
# 3 -0.012604 -0.003166 0.015742 0.003444 0.001420 0.000485
# 4 -0.001843 0.006539 0.003444 0.032856 -0.008110 -0.020025
# 5 -0.003928 -0.006465 0.001420 -0.008110 0.033702 0.010150
# 6 0.001667 -0.008882 0.000485 -0.020025 0.010150 0.037875
#
#
# Mechanical properties :
#
#
# Convention : Reuss Voigt Hill
#
# Bulk Modulus (GPa) = 27.82413 47.98976 37.90694
# Shear Modulus (GPa) = 20.00140 34.05411 27.02776
#
# Velocity S-wave (km/s) = 2.96474 3.86849 3.44637
# Velocity P-wave (km/s) = 4.89356 6.40647 5.70043
#
# Compressibility (1/GPa) = 0.03594003
#
# Stress axis : x y z
#
# Youngs Moduli (GPa) = 19.03180 60.72144 63.52234
#
# Poissons Ratio (x) = 0.52446 0.80067
# Poissons Ratio (y) = 0.16438 0.20110
# Poissons Ratio (z) = 0.23989 0.19223
#
# Static dielectric constant tensor:
#      x y z
#    x 1.945590 0.075870 0.060640 
#    y 0.075870 1.897510 0.042110 
#    z 0.060640 0.042110 1.877910 
# 
# From -- ./inp_files/277846.got.cif
#   From: 2010.05.17/outbox.cif.g08.bks.cpg/sg2_139_cif.got.tgz:277846.got - 2010.06.03 11:33:40.
