data_PCOD9081408
_publ_section_title
;
Structure prediction by ZEFSAII (Michael W. Deem and Ramdas Pophale) SiO2 
 PCOD9081408
Probable space group: P -1
;
_chemical_formula_sum "Si O2"
_cell_formula_units_Z 14
_cell_length_a 19.561683
_cell_length_b 11.504903
_cell_length_c 11.227430
_cell_angle_alpha 143.823678
_cell_angle_beta 159.170937
_cell_angle_gamma 36.791401
_cell_volume 517.242090
_symmetry_space_group_name_H-M "P -1"
_symmetry_group_IT_number 2
_symmetry_cell_setting 'triclinic'
loop_
_space_group_symop_operation_xyz
x,y,z
-x,-y,-z
loop_
_atom_site_type_symbol
_atom_site_label
_atom_site_fract_x
_atom_site_fract_y
_atom_site_fract_z
Si Si1 0.758958 0.285813 0.848502
Si Si2 0.176994 0.382011 0.107747
Si Si3 0.067119 0.418514 0.326779
Si Si4 0.824942 0.141570 0.085312
Si Si5 0.766688 0.971214 0.268738
Si Si6 0.439242 0.303368 0.687763
Si Si7 0.468806 0.262554 0.141331
O O1 0.634143 0.232264 0.490085
O O2 0.635340 0.509246 0.864214
O O3 0.770430 0.138577 0.856465
O O4 0.981190 0.306906 0.199565
O O5 0.362939 0.358101 0.474840
O O6 0.191116 0.160946 0.891150
O O7 0.000000 0.500000 0.000000
O O8 0.128543 0.517005 0.022316
O O9 0.123983 0.633326 0.627090
O O10 0.251658 0.285386 0.446627
O O11 0.023944 0.987224 0.318593
O O12 0.639885 0.135749 0.862880
O O13 0.584962 0.162479 0.130883
O O14 0.693968 0.841775 0.149724
O O15 0.500000 0.500000 0.000000
#
# Coordination Sequence:
#
# PCOD9081408 Si02
#       7
#     2   2   2   2   2   2   2
#     4  11  20  35  57  90 112 148 189 245 282 332
#     4   9  16  31  56  79 103 150 191 228 265 340
#     4   9  18  32  52  85 111 144 188 237 276 334
#     4  10  19  31  58  84 116 143 194 235 282 329
#     4  10  20  38  53  85 116 154 188 235 281 347
#     4   9  18  31  52  88 107 144 189 238 268 341
#     4  10  22  34  56  79 123 149 191 229 293 337
#
# _framework density 27.066628000000001
#
# number of rings (size 3 to 8) (size 9 to 14) (size 15 to 20)
#    0.000    2.286    2.857    2.143    2.000    0.571 
#    0.000    0.000    0.000    4.286    0.000    5.000 
#    0.000    0.000    0.000    0.000    0.000    0.000 
#
# Total GULP energy -78365.423746 kJ/mol
# GULP energy per Si atom -5597.530268 kJ/mol
# Density = 2.700502 g / cm^3
# Si number density = 27.066628 Si / 1000 Ang^3
#
#
#
# Elastic Constant Matrix: (Units=GPa)
#
#
# Indices 1 2 3 4 5 6 
#
# 1 96.3136 54.8888 41.5824 -14.7748 16.6647 -19.4153
# 2 54.8888 140.8607 37.0183 -3.9223 10.4442 -44.1349
# 3 41.5824 37.0183 126.4610 -19.0394 2.0339 -6.3433
# 4 -14.7748 -3.9223 -19.0394 35.3007 -9.2469 13.9780
# 5 16.6647 10.4442 2.0339 -9.2469 51.1931 -15.2426
# 6 -19.4153 -44.1349 -6.3433 13.9780 -15.2426 50.7460
#
#
#
# Elastic Compliance Matrix: (Units=1/GPa)
#
#
# Indices 1 2 3 4 5 6 
#
# 1 0.015688 -0.005294 -0.003027 0.003856 -0.003539 -0.001106
# 2 -0.005294 0.013006 -0.002455 -0.006124 0.001359 0.011074
# 3 -0.003027 -0.002455 0.010281 0.005570 0.001130 -0.003202
# 4 0.003856 -0.006124 0.005570 0.038074 0.002842 -0.012788
# 5 -0.003539 0.001359 0.001130 0.002842 0.022662 0.005993
# 6 -0.001106 0.011074 -0.003202 -0.012788 0.005993 0.033836
#
#
# Mechanical properties :
#
#
# Convention : Reuss Voigt Hill
#
# Bulk Modulus (GPa) = 57.39408 70.06827 63.73117
# Shear Modulus (GPa) = 31.07430 42.79102 36.93266
#
# Velocity S-wave (km/s) = 3.39199 3.98043 3.69793
# Velocity P-wave (km/s) = 6.04910 6.86066 6.46762
#
# Compressibility (1/GPa) = 0.01742340
#
# Stress axis : x y z
#
# Youngs Moduli (GPa) = 63.74453 76.88904 97.26679
#
# Poissons Ratio (x) = 0.40708 0.29438
# Poissons Ratio (y) = 0.33749 0.23875
# Poissons Ratio (z) = 0.19293 0.18873
#
# Static dielectric constant tensor:
#      x y z
#    x 2.057640 -0.054660 -0.009110 
#    y -0.054660 2.140760 0.056870 
#    z -0.009110 0.056870 2.127460 
# 
# From -- ./inp_files/181923.got.cif
#   From: 2010.05.17/outbox.cif.g08.bks.cpg/sg2_91_cif.got.tgz:181923.got - 2010.06.03 11:33:40.
