data_PCOD9081108
_publ_section_title
;
Structure prediction by ZEFSAII (Michael W. Deem and Ramdas Pophale) SiO2 
 PCOD9081108
Probable space group: P -1
;
_chemical_formula_sum "Si O2"
_cell_formula_units_Z 16
_cell_length_a 21.598591
_cell_length_b 13.534003
_cell_length_c 10.927321
_cell_angle_alpha 146.855194
_cell_angle_beta 136.117999
_cell_angle_gamma 31.485502
_cell_volume 911.893299
_symmetry_space_group_name_H-M "P -1"
_symmetry_group_IT_number 2
_symmetry_cell_setting 'triclinic'
loop_
_space_group_symop_operation_xyz
x,y,z
-x,-y,-z
loop_
_atom_site_type_symbol
_atom_site_label
_atom_site_fract_x
_atom_site_fract_y
_atom_site_fract_z
Si Si1 0.883788 0.670472 0.148620
Si Si2 0.163286 0.864020 0.520990
Si Si3 0.369616 0.047895 0.989901
Si Si4 0.429651 0.573926 0.602859
Si Si5 0.173111 0.280588 0.593963
Si Si6 0.032560 0.151916 0.859034
Si Si7 0.977318 0.831035 0.847773
Si Si8 0.433646 0.931618 0.668720
O O1 0.771703 0.736996 0.983809
O O2 0.855277 0.684774 0.266323
O O3 0.880307 0.888745 0.344411
O O4 0.002591 0.394016 0.018357
O O5 0.302282 0.651931 0.477307
O O6 0.084609 0.809157 0.298052
O O7 0.135116 0.927889 0.690700
O O8 0.398701 0.816090 0.851210
O O9 0.399701 0.992349 0.828917
O O10 0.457880 0.075612 0.200474
O O11 0.500000 0.500000 0.500000
O O12 0.512755 0.337880 0.557417
O O13 0.127000 0.150368 0.341612
O O14 0.094446 0.548511 0.705433
O O15 0.313763 0.122626 0.621371
O O16 0.049861 0.122143 0.997475
O O17 0.000000 0.000000 0.000000
#
# Coordination Sequence:
#
# PCOD9081108 Si02
#       8
#     2   2   2   2   2   2   2   2
#     4   9  16  30  48  70 100 125 151 193 238 287
#     4  10  19  31  47  75 103 126 157 190 238 300
#     4   8  15  24  40  67  94 119 146 180 233 284
#     4   9  17  27  44  69  97 124 151 187 233 283
#     4   9  19  31  48  72  93 122 164 198 237 284
#     4  10  20  31  49  71  98 132 159 193 243 286
#     4  10  20  34  49  68  94 126 164 206 239 272
#     4   9  15  26  42  64  93 118 147 191 230 274
#
# _framework density 17.545912000000001
#
# number of rings (size 3 to 8) (size 9 to 14) (size 15 to 20)
#    0.000    2.750    0.000    2.625    0.000    4.000 
#    0.000    0.000    0.000    0.750    0.000    4.375 
#    0.000    0.000    0.000    0.000    0.000    0.000 
#
# Total GULP energy -89080.760813 kJ/mol
# GULP energy per Si atom -5567.547551 kJ/mol
# Density = 1.750598 g / cm^3
# Si number density = 17.545912 Si / 1000 Ang^3
#
#
#
# Elastic Constant Matrix: (Units=GPa)
#
#
# Indices 1 2 3 4 5 6 
#
# 1 33.2593 18.0527 9.8836 -2.3797 8.7216 -4.7935
# 2 18.0527 78.5101 34.5085 -3.2839 7.8564 -4.8635
# 3 9.8836 34.5085 57.4985 -10.4841 13.5392 -0.2816
# 4 -2.3797 -3.2839 -10.4841 18.5252 1.1978 5.0415
# 5 8.7216 7.8564 13.5392 1.1978 29.0478 8.3528
# 6 -4.7935 -4.8635 -0.2816 5.0415 8.3528 23.1218
#
#
#
# Elastic Compliance Matrix: (Units=1/GPa)
#
#
# Indices 1 2 3 4 5 6 
#
# 1 0.039006 -0.007483 0.001492 0.002437 -0.013624 0.010921
# 2 -0.007483 0.019368 -0.011675 -0.005018 0.001850 0.002806
# 3 0.001492 -0.011675 0.029765 0.016016 -0.011502 -0.001121
# 4 0.002437 -0.005018 0.016016 0.066299 -0.005931 -0.012669
# 5 -0.013624 0.001850 -0.011502 -0.005931 0.049090 -0.019016
# 6 0.010921 0.002806 -0.001121 -0.012669 -0.019016 0.055722
#
#
# Mechanical properties :
#
#
# Convention : Reuss Voigt Hill
#
# Bulk Modulus (GPa) = 18.93639 32.68416 25.81027
# Shear Modulus (GPa) = 16.01614 21.26051 18.63832
#
# Velocity S-wave (km/s) = 3.02456 3.48473 3.26277
# Velocity P-wave (km/s) = 4.79720 5.90419 5.37925
#
# Compressibility (1/GPa) = 0.05280838
#
# Stress axis : x y z
#
# Youngs Moduli (GPa) = 25.63695 51.63095 33.59622
#
# Poissons Ratio (x) = 0.38636 -0.05013
# Poissons Ratio (y) = 0.19184 0.39223
# Poissons Ratio (z) = -0.03826 0.60278
#
# Static dielectric constant tensor:
#      x y z
#    x 1.622250 -0.020240 0.011010 
#    y -0.020240 1.626380 0.036790 
#    z 0.011010 0.036790 1.617320 
# 
# From -- ./inp_files/424949.got.cif
#   From: 2010.05.17/outbox.cif.g08.bks.cpg/sg2_213_cif.got.tgz:424949.got - 2010.06.03 11:33:40.
