data_PCOD9081549
_publ_section_title
;
Structure prediction by ZEFSAII (Michael W. Deem and Ramdas Pophale) SiO2 
 PCOD9081549
Probable space group: P -1
;
_chemical_formula_sum "Si O2"
_cell_formula_units_Z 16
_cell_length_a 14.146313
_cell_length_b 8.991778
_cell_length_c 14.688943
_cell_angle_alpha 132.587093
_cell_angle_beta 122.891278
_cell_angle_gamma 42.093644
_cell_volume 918.980720
_symmetry_space_group_name_H-M "P -1"
_symmetry_group_IT_number 2
_symmetry_cell_setting 'triclinic'
loop_
_space_group_symop_operation_xyz
x,y,z
-x,-y,-z
loop_
_atom_site_type_symbol
_atom_site_label
_atom_site_fract_x
_atom_site_fract_y
_atom_site_fract_z
Si Si1 0.009747 0.734816 0.495805
Si Si2 0.019675 0.186798 0.140743
Si Si3 0.844264 0.514531 0.350379
Si Si4 0.036531 0.749105 0.307481
Si Si5 0.202550 0.284375 0.857011
Si Si6 0.703298 0.115206 0.927450
Si Si7 0.385339 0.331723 0.840457
Si Si8 0.839976 0.661931 0.945350
O O1 0.126436 0.564220 0.562649
O O2 0.063643 0.661519 0.390287
O O3 0.888870 0.697520 0.430767
O O4 0.955183 0.020170 0.600005
O O5 0.953761 0.270688 0.241279
O O6 0.928396 0.440741 0.137187
O O7 0.186510 0.043279 0.162175
O O8 0.000000 0.000000 0.000000
O O9 0.691036 0.628856 0.278802
O O10 0.144140 0.523473 0.201273
O O11 0.873583 0.852109 0.244105
O O12 0.329839 0.214352 0.829491
O O13 0.241800 0.292436 0.984784
O O14 0.552705 0.173339 0.859221
O O15 0.780044 0.928918 0.977588
O O16 0.674792 0.385254 0.038521
O O17 0.000000 0.500000 0.000000
#
# Coordination Sequence:
#
# PCOD9081549 Si02
#       8
#     2   2   2   2   2   2   2   2
#     4  10  20  32  54  79 108 136 186 223 258 303
#     4  11  18  31  57  80 106 133 178 227 260 308
#     4  10  20  35  54  81 103 144 179 223 258 313
#     4  10  19  32  51  85 101 134 177 235 259 303
#     4  10  19  33  53  83 106 137 173 221 277 309
#     4  11  20  34  53  81 112 144 169 214 277 326
#     4  10  22  34  51  78 119 142 169 212 275 329
#     4  10  20  31  56  82 105 134 179 224 271 309
#
# _framework density 17.410594
#
# number of rings (size 3 to 8) (size 9 to 14) (size 15 to 20)
#    0.000    1.750    7.500    0.000    5.250    0.500 
#    0.000    0.000    0.000    7.500    0.000    0.000 
#    0.000    0.000    0.000    0.000    0.000    0.000 
#
# Total GULP energy -89095.577819 kJ/mol
# GULP energy per Si atom -5568.473614 kJ/mol
# Density = 1.737097 g / cm^3
# Si number density = 17.410594 Si / 1000 Ang^3
#
#
#
# Elastic Constant Matrix: (Units=GPa)
#
#
# Indices 1 2 3 4 5 6 
#
# 1 63.6441 23.8730 29.3939 -11.7820 5.1083 -11.7548
# 2 23.8730 51.8919 18.0753 -11.7540 -1.7899 -4.2608
# 3 29.3939 18.0753 90.5337 -8.4544 -1.2812 12.1206
# 4 -11.7820 -11.7540 -8.4544 29.3544 7.5010 -0.1223
# 5 5.1083 -1.7899 -1.2812 7.5010 27.5201 -5.9278
# 6 -11.7548 -4.2608 12.1206 -0.1223 -5.9278 31.2232
#
#
#
# Elastic Compliance Matrix: (Units=1/GPa)
#
#
# Indices 1 2 3 4 5 6 
#
# 1 0.025482 -0.006799 -0.007815 0.006579 -0.005009 0.010774
# 2 -0.006799 0.024866 -0.002443 0.006138 0.001545 0.002099
# 3 -0.007815 -0.002443 0.015332 0.000278 -0.000060 -0.009238
# 4 0.006579 0.006138 0.000278 0.042347 -0.012120 0.001072
# 5 -0.005009 0.001545 -0.000060 -0.012120 0.042020 0.006279
# 6 0.010774 0.002099 -0.009238 0.001072 0.006279 0.041152
#
#
# Mechanical properties :
#
#
# Convention : Reuss Voigt Hill
#
# Bulk Modulus (GPa) = 31.67903 38.75045 35.21474
# Shear Modulus (GPa) = 21.20130 26.60138 23.90134
#
# Velocity S-wave (km/s) = 3.49338 3.91306 3.70916
# Velocity P-wave (km/s) = 5.87421 6.53614 6.21400
#
# Compressibility (1/GPa) = 0.03156663
#
# Stress axis : x y z
#
# Youngs Moduli (GPa) = 39.24387 40.21613 65.22103
#
# Poissons Ratio (x) = 0.27342 0.50969
# Poissons Ratio (y) = 0.26681 0.15934
# Poissons Ratio (z) = 0.30668 0.09825
#
# Static dielectric constant tensor:
#      x y z
#    x 1.663600 0.019990 0.008850 
#    y 0.019990 1.588990 0.000490 
#    z 0.008850 0.000490 1.628490 
# 
# From -- ./inp_files/527828.got.cif
#   From: 2010.05.17/outbox.cif.g08.bks.cpg/sg2_264_cif.got.tgz:527828.got - 2010.06.03 11:33:40.
