data_PCOD9081141
_publ_section_title
;
Structure prediction by ZEFSAII (Michael W. Deem and Ramdas Pophale) SiO2 
 PCOD9081141
Probable space group: P -1
;
_chemical_formula_sum "Si O2"
_cell_formula_units_Z 16
_cell_length_a 6.870519
_cell_length_b 13.939372
_cell_length_c 19.126251
_cell_angle_alpha 22.553442
_cell_angle_beta 106.733441
_cell_angle_gamma 93.412960
_cell_volume 556.570937
_symmetry_space_group_name_H-M "P -1"
_symmetry_group_IT_number 2
_symmetry_cell_setting 'triclinic'
loop_
_space_group_symop_operation_xyz
x,y,z
-x,-y,-z
loop_
_atom_site_type_symbol
_atom_site_label
_atom_site_fract_x
_atom_site_fract_y
_atom_site_fract_z
Si Si1 0.916187 0.924662 0.145316
Si Si2 0.502987 0.624828 0.663454
Si Si3 0.513852 0.970290 0.802720
Si Si4 0.180407 0.185774 0.500102
Si Si5 0.155866 0.849933 0.354060
Si Si6 0.259479 0.453694 0.123176
Si Si7 0.768818 0.867460 0.027071
Si Si8 0.153802 0.641267 0.832631
O O1 0.792076 0.835537 0.134210
O O2 0.038149 0.758657 0.342999
O O3 0.711817 0.277696 0.900877
O O4 0.135192 0.924347 0.127044
O O5 0.599252 0.824137 0.510289
O O6 0.269961 0.704783 0.539134
O O7 0.519428 0.647302 0.733209
O O8 0.264617 0.097773 0.648948
O O9 0.623801 0.152754 0.660794
O O10 0.523898 0.984679 0.877798
O O11 0.695717 0.623043 0.030035
O O12 0.961378 0.533999 0.241598
O O13 0.132185 0.953231 0.616848
O O14 0.953229 0.201779 0.110264
O O15 0.116532 0.292465 0.229567
O O16 0.297827 0.478556 0.029309
#
# Coordination Sequence:
#
# PCOD9081141 Si02
#       8
#     2   2   2   2   2   2   2   2
#     4   8  15  28  48  73 101 125 152 200 248 284
#     4   9  17  31  52  74  97 127 162 199 241 289
#     4   9  18  31  46  70 103 129 157 200 243 283
#     4  10  19  31  49  72  98 129 164 201 240 283
#     4   8  15  30  50  72  95 124 163 200 237 285
#     4   9  19  34  49  70 100 130 162 199 238 286
#     4   9  17  29  46  73 102 127 157 195 244 293
#     4  10  19  34  50  68 101 134 160 200 243 280
#
# _framework density 28.747456
#
# number of rings (size 3 to 8) (size 9 to 14) (size 15 to 20)
#    0.000    3.000    0.000    2.625    0.000    3.000 
#    0.000   17.500    0.000    3.000    0.000    5.250 
#    0.000    0.000    0.000    0.000    0.000    0.000 
#
# Total GULP energy -89705.582911 kJ/mol
# GULP energy per Si atom -5606.598932 kJ/mol
# Density = 2.868203 g / cm^3
# Si number density = 28.747456 Si / 1000 Ang^3
#
#
#
# Elastic Constant Matrix: (Units=GPa)
#
#
# Indices 1 2 3 4 5 6 
#
# 1 84.8911 33.1733 35.2445 14.8916 -16.6027 22.6500
# 2 33.1733 274.3266 65.4515 71.2456 12.4836 28.4101
# 3 35.2445 65.4515 78.9053 17.4815 13.4204 15.2727
# 4 14.8916 71.2456 17.4815 65.9474 11.2521 2.9514
# 5 -16.6027 12.4836 13.4204 11.2521 43.7412 3.2781
# 6 22.6500 28.4101 15.2727 2.9514 3.2781 43.0933
#
#
#
# Elastic Compliance Matrix: (Units=1/GPa)
#
#
# Indices 1 2 3 4 5 6 
#
# 1 0.021294 0.001693 -0.010018 -0.005757 0.012854 -0.009341
# 2 0.001693 0.006360 -0.004349 -0.006300 0.002027 -0.003264
# 3 -0.010018 -0.004349 0.021618 0.002893 -0.010016 0.001035
# 4 -0.005757 -0.006300 0.002893 0.023592 -0.007727 0.005126
# 5 0.012854 0.002027 -0.010016 -0.007727 0.032710 -0.006502
# 6 -0.009341 -0.003264 0.001035 0.005126 -0.006502 0.030044
#
#
# Mechanical properties :
#
#
# Convention : Reuss Voigt Hill
#
# Bulk Modulus (GPa) = 41.80054 78.42908 60.11481
# Shear Modulus (GPa) = 29.59601 50.83993 40.21797
#
# Velocity S-wave (km/s) = 3.21209 4.20992 3.74439
# Velocity P-wave (km/s) = 5.32249 7.13951 6.29688
#
# Compressibility (1/GPa) = 0.02392313
#
# Stress axis : x y z
#
# Youngs Moduli (GPa) = 46.96249 157.22412 46.25772
#
# Poissons Ratio (x) = -0.26614 0.46342
# Poissons Ratio (y) = -0.07950 0.20118
# Poissons Ratio (z) = 0.47048 0.68377
#
# Static dielectric constant tensor:
#      x y z
#    x 2.248660 0.002900 -0.032910 
#    y 0.002900 2.222160 0.022500 
#    z -0.032910 0.022500 2.177990 
# 
# From -- ./inp_files/328515.got.cif
#   From: 2010.05.17/outbox.cif.g08.bks.cpg/sg2_165_cif.got.tgz:328515.got - 2010.06.03 11:33:40.
