data_PCOD9081973
_publ_section_title
;
Structure prediction by ZEFSAII (Michael W. Deem and Ramdas Pophale) SiO2 
 PCOD9081973
Probable space group: P -1
;
_chemical_formula_sum "Si O2"
_cell_formula_units_Z 16
_cell_length_a 7.100640
_cell_length_b 8.341133
_cell_length_c 14.066280
_cell_angle_alpha 99.588826
_cell_angle_beta 108.123652
_cell_angle_gamma 126.865311
_cell_volume 560.968764
_symmetry_space_group_name_H-M "P -1"
_symmetry_group_IT_number 2
_symmetry_cell_setting 'triclinic'
loop_
_space_group_symop_operation_xyz
x,y,z
-x,-y,-z
loop_
_atom_site_type_symbol
_atom_site_label
_atom_site_fract_x
_atom_site_fract_y
_atom_site_fract_z
Si Si1 0.673394 0.477627 0.954317
Si Si2 0.292426 0.744202 0.901560
Si Si3 0.517381 0.419704 0.213092
Si Si4 0.971539 0.741086 0.706059
Si Si5 0.684197 0.956204 0.484649
Si Si6 0.184479 0.439734 0.528892
Si Si7 0.065793 0.923519 0.274343
Si Si8 0.544279 0.133220 0.747799
O O1 0.731418 0.636539 0.891901
O O2 0.584656 0.274975 0.855208
O O3 0.500000 0.500000 0.000000
O O4 0.812045 0.443267 0.054126
O O5 0.463581 0.742824 0.849884
O O6 0.028873 0.656244 0.793892
O O7 0.500000 0.000000 0.000000
O O8 0.581218 0.431155 0.337532
O O9 0.785849 0.677304 0.242456
O O10 0.755447 0.561072 0.573494
O O11 0.253634 0.886890 0.704271
O O12 0.981415 0.931072 0.768569
O O13 0.768426 0.920066 0.591279
O O14 0.974157 0.185187 0.511964
O O15 0.500000 0.000000 0.500000
O O16 0.519796 0.801393 0.352304
O O17 0.000000 0.500000 0.500000
O O18 0.243113 0.889337 0.244877
#
# Coordination Sequence:
#
# PCOD9081973 Si02
#       8
#     2   2   2   2   2   2   2   2
#     4  10  21  36  59  84 111 156 205 241 286 351
#     4  11  20  36  60  83 119 159 194 249 298 345
#     4  10  20  36  60  87 118 152 202 245 300 353
#     4  11  21  36  63  87 122 156 194 246 303 360
#     4   8  18  32  55  86 121 155 193 238 297 364
#     4  10  19  32  58  93 120 155 198 248 312 358
#     4  10  20  36  60  90 119 151 201 246 293 361
#     4  10  19  36  60  84 118 157 197 238 301 349
#
# _framework density 28.522091
#
# number of rings (size 3 to 8) (size 9 to 14) (size 15 to 20)
#    0.000    2.000    3.750    0.000    1.750    1.500 
#    0.000    3.125    5.500    6.750    0.000    0.000 
#    0.000    0.000    0.000    0.000    0.000    0.000 
#
# Total GULP energy -89261.974843 kJ/mol
# GULP energy per Si atom -5578.873428 kJ/mol
# Density = 2.845717 g / cm^3
# Si number density = 28.522091 Si / 1000 Ang^3
#
#
#
# Elastic Constant Matrix: (Units=GPa)
#
#
# Indices 1 2 3 4 5 6 
#
# 1 126.6347 41.9100 46.0465 2.7751 -32.2905 -9.9679
# 2 41.9100 95.8902 78.5247 -8.4806 7.9190 -19.0776
# 3 46.0465 78.5247 253.4184 -25.2510 -35.8509 -21.6707
# 4 2.7751 -8.4806 -25.2510 68.3047 -11.5886 5.1693
# 5 -32.2905 7.9190 -35.8509 -11.5886 45.6641 -1.8014
# 6 -9.9679 -19.0776 -21.6707 5.1693 -1.8014 56.6401
#
#
#
# Elastic Compliance Matrix: (Units=1/GPa)
#
#
# Indices 1 2 3 4 5 6 
#
# 1 0.013174 -0.008396 0.002223 0.001384 0.012893 0.000625
# 2 -0.008396 0.022012 -0.007645 -0.002732 -0.016342 0.002741
# 3 0.002223 -0.007645 0.007711 0.003425 0.009852 0.000768
# 4 0.001384 -0.002732 0.003425 0.016990 0.008428 -0.000649
# 5 0.012893 -0.016342 0.009852 0.008428 0.043769 0.001157
# 6 0.000625 0.002741 0.000768 -0.000649 0.001157 0.019078
#
#
# Mechanical properties :
#
#
# Convention : Reuss Voigt Hill
#
# Bulk Modulus (GPa) = 65.52466 89.87840 77.70153
# Shear Modulus (GPa) = 32.16335 54.75259 43.45797
#
# Velocity S-wave (km/s) = 3.36171 4.38614 3.90764
# Velocity P-wave (km/s) = 6.17182 7.56513 6.90372
#
# Compressibility (1/GPa) = 0.01526143
#
# Stress axis : x y z
#
# Youngs Moduli (GPa) = 75.90980 45.42992 129.67802
#
# Poissons Ratio (x) = 0.38145 -0.28833
# Poissons Ratio (y) = 0.63738 0.99135
# Poissons Ratio (z) = -0.16878 0.34730
#
# Static dielectric constant tensor:
#      x y z
#    x 2.286560 0.019960 0.100910 
#    y 0.019960 2.223220 -0.033290 
#    z 0.100910 -0.033290 2.306530 
# 
# From -- ./inp_files/495079.got.cif
#   From: 2010.05.17/outbox.cif.g08.bks.cpg/sg2_248_cif.got.tgz:495079.got - 2010.06.03 11:33:40.
