data_PCOD9081466
_publ_section_title
;
Structure prediction by ZEFSAII (Michael W. Deem and Ramdas Pophale) SiO2 
 PCOD9081466
Probable space group: P -1
;
_chemical_formula_sum "Si O2"
_cell_formula_units_Z 16
_cell_length_a 17.596852
_cell_length_b 12.367381
_cell_length_c 13.879641
_cell_angle_alpha 115.750225
_cell_angle_beta 20.954032
_cell_angle_gamma 125.822857
_cell_volume 807.740858
_symmetry_space_group_name_H-M "P -1"
_symmetry_group_IT_number 2
_symmetry_cell_setting 'triclinic'
loop_
_space_group_symop_operation_xyz
x,y,z
-x,-y,-z
loop_
_atom_site_type_symbol
_atom_site_label
_atom_site_fract_x
_atom_site_fract_y
_atom_site_fract_z
Si Si1 0.262103 0.157863 0.338727
Si Si2 0.296538 0.039424 0.785842
Si Si3 0.618388 0.105190 0.607940
Si Si4 0.285843 0.144534 0.647814
Si Si5 0.393290 0.702969 0.846861
Si Si6 0.297434 0.947289 0.103555
Si Si7 0.369078 0.555776 0.109721
Si Si8 0.965497 0.578719 0.722612
O O1 0.353501 0.230989 0.362242
O O2 0.304488 0.027752 0.224302
O O3 0.435313 0.285486 0.106063
O O4 0.970095 0.095101 0.642162
O O5 0.392721 0.087816 0.800121
O O6 0.321538 0.158064 0.726480
O O7 0.500000 0.000000 0.500000
O O8 0.998942 0.908352 0.071323
O O9 0.870735 0.263907 0.365078
O O10 0.686949 0.989654 0.457100
O O11 0.521155 0.067884 0.817721
O O12 0.511575 0.271467 0.365478
O O13 0.186356 0.542091 0.063147
O O14 0.296164 0.803523 0.036867
O O15 0.233637 0.450514 0.137470
O O16 0.163033 0.556519 0.421721
O O17 0.500000 0.500000 0.000000
#
# Coordination Sequence:
#
# PCOD9081466 Si02
#       8
#     2   2   2   2   2   2   2   2
#     4  10  19  32  49  74 102 141 182 219 256 300
#     4   9  18  35  60  81 106 126 167 220 266 315
#     4  10  19  34  53  80 107 136 175 221 256 310
#     4   9  19  35  57  83  99 136 171 211 271 314
#     4  10  20  34  52  72 107 139 173 214 258 310
#     4  10  19  32  49  76 103 136 181 219 259 299
#     4  10  20  35  50  69 106 151 184 216 257 302
#     4  10  21  35  50  75 107 142 181 215 257 308
#
# _framework density 19.808333000000001
#
# number of rings (size 3 to 8) (size 9 to 14) (size 15 to 20)
#    0.000    2.250    1.250    1.875    0.000    1.000 
#    9.000    0.625    0.000    6.750    0.000    0.000 
#    0.000    0.000    0.000    0.000    0.000    0.000 
#
# Total GULP energy -89135.308170 kJ/mol
# GULP energy per Si atom -5570.956761 kJ/mol
# Density = 1.976325 g / cm^3
# Si number density = 19.808333 Si / 1000 Ang^3
#
#
#
# Elastic Constant Matrix: (Units=GPa)
#
#
# Indices 1 2 3 4 5 6 
#
# 1 3.9944 76.7908 3.3250 15.3754 40.0562 -41.9435
# 2 76.7908 -39.7556 21.5117 -42.9199 -52.7514 14.2707
# 3 3.3250 21.5117 71.6541 -6.5259 4.6045 -20.1057
# 4 15.3754 -42.9199 -6.5259 21.1318 -24.7647 10.5338
# 5 40.0562 -52.7514 4.6045 -24.7647 8.2463 16.2205
# 6 -41.9435 14.2707 -20.1057 10.5338 16.2205 9.7388
#
#
#
# Elastic Compliance Matrix: (Units=1/GPa)
#
#
# Indices 1 2 3 4 5 6 
#
# 1 0.023140 0.020240 0.003877 0.021801 0.011718 0.034908
# 2 0.020240 0.026426 0.007407 0.012298 -0.001895 0.053595
# 3 0.003877 0.007407 0.019173 0.011742 0.004950 0.024483
# 4 0.021801 0.012298 0.011742 0.042844 0.004788 0.045800
# 5 0.011718 -0.001895 0.004950 0.004788 0.022319 0.021110
# 6 0.034908 0.053595 0.024483 0.045800 0.021110 0.140338
#
#
# Mechanical properties :
#
#
# Convention : Reuss Voigt Hill
#
# Bulk Modulus (GPa) = 7.58782 26.57197 17.07990
# Shear Modulus (GPa) = 19.59864 3.44106 11.51985
#
# Velocity S-wave (km/s) = 3.14891 1.31945 2.41418
# Velocity P-wave (km/s) = 4.13035 3.97051 4.05122
#
# Compressibility (1/GPa) = 0.13179008
#
# Stress axis : x y z
#
# Youngs Moduli (GPa) = 43.21521 37.84091 52.15626
#
# Poissons Ratio (x) = -0.76591 -0.20223
# Poissons Ratio (y) = -0.87469 -0.38634
# Poissons Ratio (z) = -0.16756 -0.28030
#
# Static dielectric constant tensor:
#      x y z
#    x 1.808280 0.014990 0.028010 
#    y 0.014990 1.694970 0.020760 
#    z 0.028010 0.020760 1.713790 
# 
# From -- ./inp_files/84573.got.cif
#   From: 2010.05.17/outbox.cif.g08.bks.cpg/sg2_43_cif.got.tgz:84573.got - 2010.06.03 11:33:40.
