data_PCOD9081256
_publ_section_title
;
Structure prediction by ZEFSAII (Michael W. Deem and Ramdas Pophale) SiO2 
 PCOD9081256
Probable space group: P -1
;
_chemical_formula_sum "Si O2"
_cell_formula_units_Z 16
_cell_length_a 15.338833
_cell_length_b 12.355008
_cell_length_c 25.050360
_cell_angle_alpha 37.900984
_cell_angle_beta 153.798638
_cell_angle_gamma 153.111232
_cell_volume 946.486356
_symmetry_space_group_name_H-M "P -1"
_symmetry_group_IT_number 2
_symmetry_cell_setting 'triclinic'
loop_
_space_group_symop_operation_xyz
x,y,z
-x,-y,-z
loop_
_atom_site_type_symbol
_atom_site_label
_atom_site_fract_x
_atom_site_fract_y
_atom_site_fract_z
Si Si1 0.826836 0.228640 0.862077
Si Si2 0.794085 0.819229 0.384915
Si Si3 0.854996 0.542872 0.162107
Si Si4 0.787048 0.865391 0.050434
Si Si5 0.190791 0.846278 0.656693
Si Si6 0.505547 0.228537 0.855939
Si Si7 0.703233 0.958636 0.081673
Si Si8 0.199430 0.451696 0.201012
O O1 0.858760 0.413590 0.847366
O O2 0.998359 0.358892 0.852424
O O3 0.891387 0.089218 0.984200
O O4 0.509489 0.025604 0.751889
O O5 0.745928 0.850906 0.285403
O O6 0.496998 0.567287 0.336547
O O7 0.023550 0.821013 0.524950
O O8 0.840350 0.025264 0.363998
O O9 0.534762 0.339492 0.055428
O O10 0.918722 0.405010 0.283800
O O11 0.909160 0.754427 0.142173
O O12 0.810617 0.923115 0.103329
O O13 0.750019 0.461070 0.866859
O O14 0.485349 0.257392 0.896006
O O15 0.548016 0.043333 0.945817
O O16 0.951714 0.171947 0.171847
#
# Coordination Sequence:
#
# PCOD9081256 Si02
#       8
#     2   2   2   2   2   2   2   2
#     4  10  19  31  53  76 101 128 162 205 251 294
#     4   8  17  34  49  73 107 125 157 215 246 287
#     4  10  21  34  53  72  98 136 167 201 248 290
#     4  10  21  35  48  75 105 128 167 206 237 298
#     4   9  17  35  51  72 101 130 165 208 246 287
#     4   9  19  30  47  76 102 129 157 199 252 292
#     4  11  19  30  52  74 102 134 159 196 253 300
#     4   9  19  30  47  77 103 126 156 201 247 300
#
# _framework density 16.904629
#
# number of rings (size 3 to 8) (size 9 to 14) (size 15 to 20)
#    0.750    1.750    1.250    1.500    5.250    0.000 
#    2.250    1.875    0.000    1.500    0.000    0.000 
#    0.000    0.000    0.000    0.000    0.000    0.000 
#
# Total GULP energy -89068.035618 kJ/mol
# GULP energy per Si atom -5566.752226 kJ/mol
# Density = 1.686615 g / cm^3
# Si number density = 16.904629 Si / 1000 Ang^3
#
#
#
# Elastic Constant Matrix: (Units=GPa)
#
#
# Indices 1 2 3 4 5 6 
#
# 1 73.3788 24.1629 19.0817 -14.5375 -6.4106 8.6686
# 2 24.1629 42.4009 18.6203 -0.8890 2.0773 -4.9892
# 3 19.0817 18.6203 73.5035 -2.5554 -3.8620 -2.0707
# 4 -14.5375 -0.8890 -2.5554 15.7158 -0.3896 -4.5095
# 5 -6.4106 2.0773 -3.8620 -0.3896 14.4909 -3.7409
# 6 8.6686 -4.9892 -2.0707 -4.5095 -3.7409 24.4509
#
#
#
# Elastic Compliance Matrix: (Units=1/GPa)
#
#
# Indices 1 2 3 4 5 6 
#
# 1 0.024346 -0.014011 -0.001661 0.019950 0.011265 -0.006228
# 2 -0.014011 0.035527 -0.006055 -0.009858 -0.011055 0.008194
# 3 -0.001661 -0.006055 0.015918 0.001313 0.004846 0.001685
# 4 0.019950 -0.009858 0.001313 0.084690 0.015181 0.008969
# 5 0.011265 -0.011055 0.004846 0.015181 0.079637 0.009145
# 6 -0.006228 0.008194 0.001685 0.008969 0.009145 0.047974
#
#
# Mechanical properties :
#
#
# Convention : Reuss Voigt Hill
#
# Bulk Modulus (GPa) = 30.92518 34.77921 32.85220
# Shear Modulus (GPa) = 14.60598 19.42608 17.01603
#
# Velocity S-wave (km/s) = 2.94262 3.39360 3.17612
# Velocity P-wave (km/s) = 5.46616 5.99782 5.73815
#
# Compressibility (1/GPa) = 0.03233611
#
# Stress axis : x y z
#
# Youngs Moduli (GPa) = 41.07488 28.14752 62.82340
#
# Poissons Ratio (x) = 0.39437 0.10434
# Poissons Ratio (y) = 0.57550 0.38042
# Poissons Ratio (z) = 0.06822 0.17044
#
# Static dielectric constant tensor:
#      x y z
#    x 1.567220 0.007280 -0.007630 
#    y 0.007280 1.589950 0.018690 
#    z -0.007630 0.018690 1.576530 
# 
# From -- ./inp_files/611867.got.cif
#   From: 2010.05.17/outbox.cif.g08.bks.cpg/sg2_306_cif.got.tgz:611867.got - 2010.06.03 11:33:40.
