data_PCOD9081069
_publ_section_title
;
Structure prediction by ZEFSAII (Michael W. Deem and Ramdas Pophale) SiO2 
 PCOD9081069
Probable space group: P -1
;
_chemical_formula_sum "Si O2"
_cell_formula_units_Z 14
_cell_length_a 9.029946
_cell_length_b 10.622108
_cell_length_c 7.902939
_cell_angle_alpha 59.589556
_cell_angle_beta 86.692746
_cell_angle_gamma 102.826394
_cell_volume 624.254109
_symmetry_space_group_name_H-M "P -1"
_symmetry_group_IT_number 2
_symmetry_cell_setting 'triclinic'
loop_
_space_group_symop_operation_xyz
x,y,z
-x,-y,-z
loop_
_atom_site_type_symbol
_atom_site_label
_atom_site_fract_x
_atom_site_fract_y
_atom_site_fract_z
Si Si1 0.069906 0.605329 0.080681
Si Si2 0.395142 0.152359 0.406361
Si Si3 0.863045 0.739631 0.208646
Si Si4 0.139582 0.996171 0.165983
Si Si5 0.544965 0.026775 0.777429
Si Si6 0.805493 0.647744 0.648948
Si Si7 0.914308 0.123943 0.323094
O O1 0.184968 0.523426 0.214207
O O2 0.921475 0.613659 0.194440
O O3 0.138634 0.771884 0.882804
O O4 0.000000 0.500000 0.000000
O O5 0.482034 0.117226 0.256504
O O6 0.331443 0.298778 0.290986
O O7 0.482038 0.141732 0.585728
O O8 0.238246 0.009753 0.530072
O O9 0.790115 0.682027 0.430332
O O10 0.776732 0.840871 0.040120
O O11 0.023976 0.870163 0.146070
O O12 0.268949 0.919555 0.263540
O O13 0.031059 0.045246 0.276247
O O14 0.500000 0.000000 0.000000
O O15 0.972112 0.758138 0.633019
#
# Coordination Sequence:
#
# PCOD9081069 Si02
#       7
#     2   2   2   2   2   2   2
#     4   9  21  33  51  85 121 147 180 237 300 340
#     4  11  22  38  60  88 117 154 195 238 291 340
#     4  10  19  30  59  87 114 146 193 238 290 342
#     4  10  19  35  57  90 115 146 189 245 290 335
#     4  11  24  36  54  90 123 152 188 244 292 341
#     4  11  18  34  57  87 117 148 190 239 287 344
#     4  10  19  37  60  88 115 147 189 241 290 341
#
# _framework density 22.426766000000001
#
# number of rings (size 3 to 8) (size 9 to 14) (size 15 to 20)
#    0.000    1.714    2.857    2.571    4.000    0.000 
#    0.000    0.000    0.000    4.286    7.429    0.000 
#    0.000    0.000    0.000    0.000    0.000    0.000 
#
# Total GULP energy -77954.589977 kJ/mol
# GULP energy per Si atom -5568.184998 kJ/mol
# Density = 2.237572 g / cm^3
# Si number density = 22.426766 Si / 1000 Ang^3
#
#
#
# Elastic Constant Matrix: (Units=GPa)
#
#
# Indices 1 2 3 4 5 6 
#
# 1 94.7069 14.1704 19.7781 -4.5587 21.0772 -19.0721
# 2 14.1704 73.8237 21.7333 14.7390 -0.9466 -26.0772
# 3 19.7781 21.7333 92.3810 9.6310 16.1839 -14.2706
# 4 -4.5587 14.7390 9.6310 47.4109 -14.6133 8.8546
# 5 21.0772 -0.9466 16.1839 -14.6133 32.6665 -2.7171
# 6 -19.0721 -26.0772 -14.2706 8.8546 -2.7171 26.3130
#
#
#
# Elastic Compliance Matrix: (Units=1/GPa)
#
#
# Indices 1 2 3 4 5 6 
#
# 1 0.015451 0.003714 0.001192 -0.006725 -0.012085 0.016542
# 2 0.003714 0.029481 0.001356 -0.018448 -0.007298 0.038099
# 3 0.001192 0.001356 0.015076 -0.009138 -0.011264 0.012296
# 4 -0.006725 -0.018448 -0.009138 0.042991 0.024230 -0.040078
# 5 -0.012085 -0.007298 -0.011264 0.024230 0.052553 -0.024828
# 6 0.016542 0.038099 0.012296 -0.040078 -0.024828 0.105343
#
#
# Mechanical properties :
#
#
# Convention : Reuss Voigt Hill
#
# Bulk Modulus (GPa) = 13.78682 41.36392 27.57537
# Shear Modulus (GPa) = 18.34540 34.96007 26.65274
#
# Velocity S-wave (km/s) = 2.86320 3.95252 3.45111
# Velocity P-wave (km/s) = 4.13417 6.27008 5.31061
#
# Compressibility (1/GPa) = 0.07253303
#
# Stress axis : x y z
#
# Youngs Moduli (GPa) = 64.71953 33.91993 66.33146
#
# Poissons Ratio (x) = -0.12599 -0.07905
# Poissons Ratio (y) = -0.24038 -0.08997
# Poissons Ratio (z) = -0.07713 -0.04601
#
# Static dielectric constant tensor:
#      x y z
#    x 1.914580 -0.062830 0.128310 
#    y -0.062830 1.907090 0.005680 
#    z 0.128310 0.005680 2.077940 
# 
# From -- ./inp_files/167615.got.cif
#   From: 2010.05.17/outbox.cif.g08.bks.cpg/sg2_84_cif.got.tgz:167615.got - 2010.06.03 11:33:40.
