data_PCOD9081101
_publ_section_title
;
Structure prediction by ZEFSAII (Michael W. Deem and Ramdas Pophale) SiO2 
 PCOD9081101
Probable space group: P -1
;
_chemical_formula_sum "Si O2"
_cell_formula_units_Z 16
_cell_length_a 14.950234
_cell_length_b 6.689259
_cell_length_c 15.122035
_cell_angle_alpha 57.436858
_cell_angle_beta 70.034208
_cell_angle_gamma 105.639597
_cell_volume 982.349712
_symmetry_space_group_name_H-M "P -1"
_symmetry_group_IT_number 2
_symmetry_cell_setting 'triclinic'
loop_
_space_group_symop_operation_xyz
x,y,z
-x,-y,-z
loop_
_atom_site_type_symbol
_atom_site_label
_atom_site_fract_x
_atom_site_fract_y
_atom_site_fract_z
Si Si1 0.735529 0.189287 0.703300
Si Si2 0.116164 0.502711 0.586673
Si Si3 0.997827 0.828462 0.769942
Si Si4 0.935336 0.673184 0.632607
Si Si5 0.132234 0.178366 0.014144
Si Si6 0.503656 0.841590 0.952309
Si Si7 0.090087 0.454756 0.804523
Si Si8 0.326024 0.320975 0.043353
O O1 0.785251 0.281257 0.566803
O O2 0.814245 0.464854 0.674118
O O3 0.600863 0.057235 0.796635
O O4 0.746867 0.939481 0.799520
O O5 0.152352 0.536533 0.668993
O O6 0.014953 0.558399 0.607914
O O7 0.066460 0.174605 0.653952
O O8 0.077078 0.707350 0.779414
O O9 0.925982 0.680033 0.739871
O O10 0.924292 0.756935 0.900585
O O11 0.000000 0.000000 0.500000
O O12 0.250112 0.248036 0.999766
O O13 0.145603 0.367247 0.880693
O O14 0.038776 0.841412 0.100077
O O15 0.559268 0.675643 0.011092
O O16 0.379760 0.626030 0.999988
O O17 0.500000 0.000000 0.000000
#
# Coordination Sequence:
#
# PCOD9081101 Si02
#       8
#     2   2   2   2   2   2   2   2
#     4  10  19  33  51  73 107 139 161 212 268 300
#     4  10  20  33  46  72 113 137 166 208 248 321
#     4  10  19  31  46  75 110 137 171 205 249 317
#     4  11  21  28  46  79 109 139 172 195 256 330
#     4  10  19  33  56  72 106 139 175 219 255 295
#     4   9  21  36  50  76 103 127 182 216 260 312
#     4   9  20  34  48  80 104 140 179 205 251 316
#     4   9  20  35  52  76 100 133 171 220 265 296
#
# _framework density 16.287478
#
# number of rings (size 3 to 8) (size 9 to 14) (size 15 to 20)
#    0.750    1.500    1.250    3.000    3.500    0.000 
#    0.000    0.000    0.000    0.750    0.000    1.750 
#    0.000    0.000    0.000    0.000    0.000    0.000 
#
# Total GULP energy -89072.478095 kJ/mol
# GULP energy per Si atom -5567.029881 kJ/mol
# Density = 1.625041 g / cm^3
# Si number density = 16.287478 Si / 1000 Ang^3
#
#
#
# Elastic Constant Matrix: (Units=GPa)
#
#
# Indices 1 2 3 4 5 6 
#
# 1 56.2731 28.2785 32.2458 -0.4178 12.9517 12.1015
# 2 28.2785 79.8705 32.5147 -6.5528 2.2595 -4.7099
# 3 32.2458 32.5147 85.2206 -1.3573 12.2887 10.7996
# 4 -0.4178 -6.5528 -1.3573 24.4125 1.6631 1.1134
# 5 12.9517 2.2595 12.2887 1.6631 22.0415 -0.4707
# 6 12.1015 -4.7099 10.7996 1.1134 -0.4707 25.9571
#
#
#
# Elastic Compliance Matrix: (Units=1/GPa)
#
#
# Indices 1 2 3 4 5 6 
#
# 1 0.032239 -0.010292 -0.004023 -0.000643 -0.015928 -0.015485
# 2 -0.010292 0.019247 -0.005789 0.003688 0.007252 0.010672
# 3 -0.004023 -0.005789 0.017272 0.000098 -0.006818 -0.006489
# 4 -0.000643 0.003688 0.000098 0.042212 -0.003260 -0.000942
# 5 -0.015928 0.007252 -0.006818 -0.003260 0.058305 0.012776
# 6 -0.015485 0.010672 -0.006489 -0.000942 0.012776 0.050653
#
#
# Mechanical properties :
#
#
# Convention : Reuss Voigt Hill
#
# Bulk Modulus (GPa) = 35.02469 45.27135 40.14802
# Shear Modulus (GPa) = 18.54241 23.03726 20.78983
#
# Velocity S-wave (km/s) = 3.37775 3.76495 3.57659
# Velocity P-wave (km/s) = 6.06325 6.83779 6.46213
#
# Compressibility (1/GPa) = 0.02855128
#
# Stress axis : x y z
#
# Youngs Moduli (GPa) = 31.01851 51.95494 57.89682
#
# Poissons Ratio (x) = 0.53472 0.23291
# Poissons Ratio (y) = 0.31924 0.33515
# Poissons Ratio (z) = 0.12478 0.30075
#
# Static dielectric constant tensor:
#      x y z
#    x 1.556420 -0.009310 0.008170 
#    y -0.009310 1.593070 -0.018800 
#    z 0.008170 -0.018800 1.556790 
# 
# From -- ./inp_files/524954.got.cif
#   From: 2010.05.17/outbox.cif.g08.bks.cpg/sg2_263_cif.got.tgz:524954.got - 2010.06.03 11:33:40.
