data_PCOD9081595
_publ_section_title
;
Structure prediction by ZEFSAII (Michael W. Deem and Ramdas Pophale) SiO2 
 PCOD9081595
Probable space group: P -1
;
_chemical_formula_sum "Si O2"
_cell_formula_units_Z 14
_cell_length_a 7.428629
_cell_length_b 7.826327
_cell_length_c 16.120606
_cell_angle_alpha 43.532567
_cell_angle_beta 123.254773
_cell_angle_gamma 96.226535
_cell_volume 466.900062
_symmetry_space_group_name_H-M "P -1"
_symmetry_group_IT_number 2
_symmetry_cell_setting 'triclinic'
loop_
_space_group_symop_operation_xyz
x,y,z
-x,-y,-z
loop_
_atom_site_type_symbol
_atom_site_label
_atom_site_fract_x
_atom_site_fract_y
_atom_site_fract_z
Si Si1 0.450578 0.340865 0.913637
Si Si2 0.637516 0.956558 0.463387
Si Si3 0.237475 0.904062 0.772635
Si Si4 0.193208 0.615350 0.595744
Si Si5 0.876848 0.768963 0.842616
Si Si6 0.661664 0.394159 0.663983
Si Si7 0.047039 0.858368 0.990730
O O1 0.363065 0.641312 0.832532
O O2 0.256602 0.409526 0.765182
O O3 0.700581 0.214116 0.966313
O O4 0.548939 0.133925 0.093527
O O5 0.759954 0.623780 0.598887
O O6 0.500000 0.000000 0.500000
O O7 0.792512 0.112532 0.459507
O O8 0.408267 0.124608 0.284777
O O9 0.040603 0.840916 0.794659
O O10 0.073115 0.215201 0.579101
O O11 0.428944 0.473561 0.642476
O O12 0.986816 0.413417 0.965624
O O13 0.822151 0.045690 0.798959
O O14 0.500000 0.500000 0.500000
O O15 0.905094 0.210072 0.874716
#
# Coordination Sequence:
#
# PCOD9081595 Si02
#       7
#     2   2   2   2   2   2   2
#     4  10  21  36  55  86 114 153 193 235 286 337
#     4  10  19  32  52  82 112 137 186 233 283 331
#     4  10  20  36  56  84 118 146 193 242 279 340
#     4  11  20  36  60  86 112 149 192 238 289 335
#     4  11  21  35  57  85 112 146 188 242 290 331
#     4  11  19  34  53  81 116 147 182 237 286 337
#     4  11  21  34  54  84 113 144 187 236 285 337
#
# _framework density 29.985002999999999
#
# number of rings (size 3 to 8) (size 9 to 14) (size 15 to 20)
#    0.000    1.429    5.714    3.000    2.000    0.000 
#    0.000    0.000    0.000    3.429    0.000   11.000 
#    0.000    0.000    0.000    0.000    0.000    0.000 
#
# Total GULP energy -78225.780310 kJ/mol
# GULP energy per Si atom -5587.555736 kJ/mol
# Density = 2.991676 g / cm^3
# Si number density = 29.985003 Si / 1000 Ang^3
#
#
#
# Elastic Constant Matrix: (Units=GPa)
#
#
# Indices 1 2 3 4 5 6 
#
# 1 118.3491 67.4422 51.5187 -1.0855 12.4262 -38.0162
# 2 67.4422 248.1535 89.5519 -10.6607 -5.3169 -35.5155
# 3 51.5187 89.5519 312.6306 -13.0181 7.8756 -24.0899
# 4 -1.0855 -10.6607 -13.0181 75.1171 -18.2751 -15.9218
# 5 12.4262 -5.3169 7.8756 -18.2751 40.9836 -10.8783
# 6 -38.0162 -35.5155 -24.0899 -15.9218 -10.8783 53.8671
#
#
#
# Elastic Compliance Matrix: (Units=1/GPa)
#
#
# Indices 1 2 3 4 5 6 
#
# 1 0.012402 -0.002082 -0.000840 0.000790 -0.001686 0.006896
# 2 -0.002082 0.005541 -0.001013 0.001995 0.003223 0.002971
# 3 -0.000840 -0.001013 0.003694 0.000541 -0.000211 0.000508
# 4 0.000790 0.001995 0.000541 0.018352 0.010672 0.009694
# 5 -0.001686 0.003223 -0.000211 0.010672 0.032955 0.010650
# 6 0.006896 0.002971 0.000508 0.009694 0.010650 0.030634
#
#
# Mechanical properties :
#
#
# Convention : Reuss Voigt Hill
#
# Bulk Modulus (GPa) = 72.64734 121.79543 97.22138
# Shear Modulus (GPa) = 43.08901 65.36826 54.22863
#
# Velocity S-wave (km/s) = 3.79492 4.67415 4.25729
# Velocity P-wave (km/s) = 6.59411 8.35686 7.52727
#
# Compressibility (1/GPa) = 0.01376513
#
# Stress axis : x y z
#
# Youngs Moduli (GPa) = 80.63443 180.46058 270.67895
#
# Poissons Ratio (x) = 0.37579 0.22749
# Poissons Ratio (y) = 0.16791 0.27429
# Poissons Ratio (z) = 0.06777 0.18287
#
# Static dielectric constant tensor:
#      x y z
#    x 2.259360 0.186870 0.033170 
#    y 0.186870 2.560420 0.040930 
#    z 0.033170 0.040930 2.295370 
# 
# From -- ./inp_files/252267.got.cif
#   From: 2010.05.17/outbox.cif.g08.bks.cpg/sg2_127_cif.got.tgz:252267.got - 2010.06.03 11:33:40.
