data_PCOD9081650
_publ_section_title
;
Structure prediction by ZEFSAII (Michael W. Deem and Ramdas Pophale) SiO2 
 PCOD9081650
Probable space group: P -1
;
_chemical_formula_sum "Si O2"
_cell_formula_units_Z 16
_cell_length_a 15.233086
_cell_length_b 7.068625
_cell_length_c 7.161408
_cell_angle_alpha 116.529739
_cell_angle_beta 108.541860
_cell_angle_gamma 51.142514
_cell_volume 536.458410
_symmetry_space_group_name_H-M "P -1"
_symmetry_group_IT_number 2
_symmetry_cell_setting 'triclinic'
loop_
_space_group_symop_operation_xyz
x,y,z
-x,-y,-z
loop_
_atom_site_type_symbol
_atom_site_label
_atom_site_fract_x
_atom_site_fract_y
_atom_site_fract_z
Si Si1 0.172613 0.965508 0.596931
Si Si2 0.428895 0.473481 0.157138
Si Si3 0.778591 0.998652 0.919216
Si Si4 0.741359 0.748977 0.333114
Si Si5 0.274147 0.352432 0.124970
Si Si6 0.453124 0.266027 0.690324
Si Si7 0.987396 0.274395 0.974169
Si Si8 0.066459 0.741815 0.584438
O O1 0.207635 0.978731 0.837809
O O2 0.250271 0.006147 0.531407
O O3 0.043089 0.201784 0.568251
O O4 0.152934 0.739035 0.491340
O O5 0.510059 0.561800 0.304275
O O6 0.371443 0.398958 0.240209
O O7 0.486849 0.272124 0.933654
O O8 0.315873 0.723930 0.098339
O O9 0.738081 0.809772 0.797583
O O10 0.906090 0.849452 0.862129
O O11 0.687279 0.802971 0.114628
O O12 0.673873 0.649060 0.341984
O O13 0.868537 0.506002 0.352871
O O14 0.148056 0.576908 0.063163
O O15 0.500000 0.000000 0.500000
O O16 0.026778 0.996203 0.789739
O O17 0.000000 0.500000 0.000000
#
# Coordination Sequence:
#
# PCOD9081650 Si02
#       8
#     2   2   2   2   2   2   2   2
#     4   9  18  33  53  80 110 140 179 221 269 337
#     4  10  21  40  63  81 110 153 188 232 292 330
#     4   9  18  35  56  81 114 150 183 222 277 338
#     4  10  20  36  56  76 107 149 187 228 283 333
#     4   9  18  33  54  81 112 148 186 225 273 337
#     4  10  22  41  61  84 111 143 194 248 282 327
#     4   9  17  30  49  79 115 144 181 222 263 332
#     4  10  19  32  53  80 113 150 180 220 278 333
#
# _framework density 29.825240000000001
#
# number of rings (size 3 to 8) (size 9 to 14) (size 15 to 20)
#    0.000    2.500    0.000    4.125    0.000    3.000 
#    0.000   23.750    0.000   12.750    0.000    0.000 
#    0.000    0.000    0.000    0.000    0.000    0.000 
#
# Total GULP energy -89229.164012 kJ/mol
# GULP energy per Si atom -5576.822751 kJ/mol
# Density = 2.975736 g / cm^3
# Si number density = 29.825240 Si / 1000 Ang^3
#
#
#
# Elastic Constant Matrix: (Units=GPa)
#
#
# Indices 1 2 3 4 5 6 
#
# 1 250.0062 25.1783 30.3429 14.4897 48.5581 37.9622
# 2 25.1783 102.6357 36.4979 4.6962 7.7699 19.0656
# 3 30.3429 36.4979 153.0263 9.0624 32.7214 9.4430
# 4 14.4897 4.6962 9.0624 45.7577 3.3668 8.9776
# 5 48.5581 7.7699 32.7214 3.3668 34.3330 6.7514
# 6 37.9622 19.0656 9.4430 8.9776 6.7514 43.7067
#
#
#
# Elastic Compliance Matrix: (Units=1/GPa)
#
#
# Indices 1 2 3 4 5 6 
#
# 1 0.006306 -0.000479 0.001072 -0.000721 -0.008982 -0.003965
# 2 -0.000479 0.011500 -0.002714 0.000242 0.001482 -0.004293
# 3 0.001072 -0.002714 0.009052 -0.001159 -0.009412 -0.000011
# 4 -0.000721 0.000242 -0.001159 0.023038 0.000608 -0.004055
# 5 -0.008982 0.001482 -0.009412 0.000608 0.050147 0.001318
# 6 -0.003965 -0.004293 -0.000011 -0.004055 0.001318 0.028828
#
#
# Mechanical properties :
#
#
# Convention : Reuss Voigt Hill
#
# Bulk Modulus (GPa) = 44.21721 76.63404 60.42562
# Shear Modulus (GPa) = 35.54890 52.33609 43.94249
#
# Velocity S-wave (km/s) = 3.45615 4.19353 3.84257
# Velocity P-wave (km/s) = 5.54835 7.01411 6.32384
#
# Compressibility (1/GPa) = 0.02261563
#
# Stress axis : x y z
#
# Youngs Moduli (GPa) = 158.56869 86.95637 110.47755
#
# Poissons Ratio (x) = 0.04163 -0.11840
# Poissons Ratio (y) = 0.07591 0.29986
# Poissons Ratio (z) = -0.16994 0.23602
#
# Static dielectric constant tensor:
#      x y z
#    x 2.566190 -0.066480 -0.239230 
#    y -0.066480 2.290460 0.132860 
#    z -0.239230 0.132860 2.626210 
# 
# From -- ./inp_files/326647.got.cif
#   From: 2010.05.17/outbox.cif.g08.bks.cpg/sg2_164_cif.got.tgz:326647.got - 2010.06.03 11:33:40.
