data_PCOD9081859
_publ_section_title
;
Structure prediction by ZEFSAII (Michael W. Deem and Ramdas Pophale) SiO2 
 PCOD9081859
Probable space group: P -1
;
_chemical_formula_sum "Si O2"
_cell_formula_units_Z 16
_cell_length_a 10.900363
_cell_length_b 15.430752
_cell_length_c 14.630436
_cell_angle_alpha 36.667675
_cell_angle_beta 149.711688
_cell_angle_gamma 138.574163
_cell_volume 727.687025
_symmetry_space_group_name_H-M "P -1"
_symmetry_group_IT_number 2
_symmetry_cell_setting 'triclinic'
loop_
_space_group_symop_operation_xyz
x,y,z
-x,-y,-z
loop_
_atom_site_type_symbol
_atom_site_label
_atom_site_fract_x
_atom_site_fract_y
_atom_site_fract_z
Si Si1 0.178542 0.822050 0.944296
Si Si2 0.875876 0.325159 0.577347
Si Si3 0.467035 0.671175 0.473433
Si Si4 0.291884 0.582209 0.082310
Si Si5 0.035864 0.544322 0.175459
Si Si6 0.636442 0.795876 0.997390
Si Si7 0.407471 0.025734 0.776773
Si Si8 0.361488 0.638805 0.793855
O O1 0.292899 0.701277 0.061609
O O2 0.976854 0.708224 0.971075
O O3 0.365403 0.913933 0.058911
O O4 0.177164 0.940629 0.761201
O O5 0.727144 0.303121 0.595145
O O6 0.704865 0.303863 0.395488
O O7 0.000000 0.500000 0.500000
O O8 0.076507 0.216909 0.799792
O O9 0.628902 0.563790 0.709219
O O10 0.308673 0.591708 0.353194
O O11 0.634850 0.825154 0.422989
O O12 0.502748 0.650799 0.088504
O O13 0.044142 0.547261 0.891205
O O14 0.886673 0.437510 0.246522
O O15 0.530360 0.768147 0.850819
O O16 0.523792 0.924643 0.865304
O O17 0.500000 0.500000 0.000000
#
# Coordination Sequence:
#
# PCOD9081859 Si02
#       8
#     2   2   2   2   2   2   2   2
#     4   9  19  38  58  79 111 149 188 226 276 329
#     4  12  19  34  57  86 112 141 183 231 273 326
#     4  11  21  36  57  85 113 145 187 227 277 329
#     4  10  19  34  59  85 108 141 188 239 271 315
#     4  10  19  32  56  85 110 139 184 230 276 320
#     4  10  20  36  56  81 116 148 180 225 280 328
#     4   9  21  38  55  78 116 154 179 223 282 334
#     4  11  19  33  57  88 113 140 181 236 279 317
#
# _framework density 21.987475
#
# number of rings (size 3 to 8) (size 9 to 14) (size 15 to 20)
#    0.000    1.750    3.750    1.125    0.000    2.500 
#    0.000    5.000    0.000    4.500    0.000    0.000 
#    0.000    0.000    0.000    0.000    0.000    0.000 
#
# Total GULP energy -89142.390109 kJ/mol
# GULP energy per Si atom -5571.399382 kJ/mol
# Density = 2.193743 g / cm^3
# Si number density = 21.987475 Si / 1000 Ang^3
#
#
#
# Elastic Constant Matrix: (Units=GPa)
#
#
# Indices 1 2 3 4 5 6 
#
# 1 47.3583 14.5844 22.7466 18.9382 -18.7348 -12.0357
# 2 14.5844 61.1980 26.9886 8.5877 -14.3107 -20.2763
# 3 22.7466 26.9886 72.6129 16.7370 -21.0585 -11.8417
# 4 18.9382 8.5877 16.7370 39.6269 0.1798 -19.2922
# 5 -18.7348 -14.3107 -21.0585 0.1798 33.9123 4.5869
# 6 -12.0357 -20.2763 -11.8417 -19.2922 4.5869 41.2687
#
#
#
# Elastic Compliance Matrix: (Units=1/GPa)
#
#
# Indices 1 2 3 4 5 6 
#
# 1 0.036196 -0.001349 -0.001720 -0.016556 0.018500 -0.000396
# 2 -0.001349 0.023250 -0.006169 0.003231 0.003819 0.010346
# 3 -0.001720 -0.006169 0.020858 -0.007804 0.009748 -0.002280
# 4 -0.016556 0.003231 -0.007804 0.043970 -0.015129 0.016756
# 5 0.018500 0.003819 0.009748 -0.015129 0.047766 -0.002313
# 6 -0.000396 0.010346 -0.002280 0.016756 -0.002313 0.036635
#
#
# Mechanical properties :
#
#
# Convention : Reuss Voigt Hill
#
# Bulk Modulus (GPa) = 16.17435 34.42316 25.29876
# Shear Modulus (GPa) = 20.18075 30.75155 25.46615
#
# Velocity S-wave (km/s) = 3.03286 3.74384 3.40694
# Velocity P-wave (km/s) = 4.43130 5.86329 5.19686
#
# Compressibility (1/GPa) = 0.06182628
#
# Stress axis : x y z
#
# Youngs Moduli (GPa) = 27.62724 43.01121 47.94413
#
# Poissons Ratio (x) = 0.05803 0.08249
# Poissons Ratio (y) = 0.03727 0.29576
# Poissons Ratio (z) = 0.04753 0.26533
#
# Static dielectric constant tensor:
#      x y z
#    x 1.923010 0.061540 -0.013920 
#    y 0.061540 1.835430 0.031580 
#    z -0.013920 0.031580 1.847450 
# 
# From -- ./inp_files/315559.got.cif
#   From: 2010.05.17/outbox.cif.g08.bks.cpg/sg2_158_cif.got.tgz:315559.got - 2010.06.03 11:33:40.
