data_PCOD9081676
_publ_section_title
;
Structure prediction by ZEFSAII (Michael W. Deem and Ramdas Pophale) SiO2 
 PCOD9081676
Probable space group: P -1
;
_chemical_formula_sum "Si O2"
_cell_formula_units_Z 16
_cell_length_a 19.606291
_cell_length_b 9.225730
_cell_length_c 10.468165
_cell_angle_alpha 110.156441
_cell_angle_beta 52.002362
_cell_angle_gamma 66.573529
_cell_volume 793.286892
_symmetry_space_group_name_H-M "P -1"
_symmetry_group_IT_number 2
_symmetry_cell_setting 'triclinic'
loop_
_space_group_symop_operation_xyz
x,y,z
-x,-y,-z
loop_
_atom_site_type_symbol
_atom_site_label
_atom_site_fract_x
_atom_site_fract_y
_atom_site_fract_z
Si Si1 0.887583 0.840961 0.367764
Si Si2 0.512347 0.998488 0.832469
Si Si3 0.897593 0.737798 0.029737
Si Si4 0.745463 0.160559 0.117933
Si Si5 0.527918 0.265823 0.254841
Si Si6 0.159405 0.588680 0.687131
Si Si7 0.549813 0.270943 0.939946
Si Si8 0.025468 0.960039 0.743509
O O1 0.856426 0.841776 0.254500
O O2 0.734318 0.006878 0.662525
O O3 0.046436 0.520963 0.122764
O O4 0.912834 0.988055 0.393951
O O5 0.424427 0.985361 0.864642
O O6 0.686515 0.694984 0.515198
O O7 0.497766 0.201966 0.892026
O O8 0.500000 0.000000 0.000000
O O9 0.783777 0.983552 0.135159
O O10 0.055349 0.595733 0.780448
O O11 0.664160 0.179422 0.109406
O O12 0.618204 0.468028 0.411146
O O13 0.901502 0.018590 0.853261
O O14 0.484793 0.353218 0.182920
O O15 0.071551 0.817713 0.963024
O O16 0.162981 0.674378 0.574814
O O17 0.500000 0.500000 0.000000
#
# Coordination Sequence:
#
# PCOD9081676 Si02
#       8
#     2   2   2   2   2   2   2   2
#     4  10  19  32  53  85 112 137 179 226 279 319
#     4  10  20  33  54  77 109 141 183 227 258 320
#     4   9  18  31  54  82 108 141 175 231 272 307
#     4  10  19  38  58  80 110 143 188 223 260 325
#     4  10  22  37  58  80 108 149 185 219 268 324
#     4   9  15  30  50  81 104 133 186 223 264 301
#     4  11  23  37  55  82 115 142 177 228 279 325
#     4   9  18  28  56  79 107 139 175 228 263 314
#
# _framework density 20.169246999999999
#
# number of rings (size 3 to 8) (size 9 to 14) (size 15 to 20)
#    0.000    2.250    2.500    1.500    3.500    0.000 
#    0.000    2.500    0.000    3.750    0.000    0.000 
#    0.000    0.000    0.000    0.000    0.000    0.000 
#
# Total GULP energy -89097.253086 kJ/mol
# GULP energy per Si atom -5568.578318 kJ/mol
# Density = 2.012334 g / cm^3
# Si number density = 20.169247 Si / 1000 Ang^3
#
#
#
# Elastic Constant Matrix: (Units=GPa)
#
#
# Indices 1 2 3 4 5 6 
#
# 1 94.2817 32.3422 14.3924 5.3887 -1.3598 31.0437
# 2 32.3422 68.3792 -7.1886 11.9450 8.4661 29.2045
# 3 14.3924 -7.1886 33.1224 -0.4218 -0.0037 8.1455
# 4 5.3887 11.9450 -0.4218 22.5780 6.4846 -0.9400
# 5 -1.3598 8.4661 -0.0037 6.4846 19.2197 0.9349
# 6 31.0437 29.2045 8.1455 -0.9400 0.9349 30.4131
#
#
#
# Elastic Compliance Matrix: (Units=1/GPa)
#
#
# Indices 1 2 3 4 5 6 
#
# 1 0.017148 -0.001892 -0.004278 -0.005076 0.004480 -0.014836
# 2 -0.001892 0.040192 0.019687 -0.019568 -0.009177 -0.042259
# 3 -0.004278 0.019687 0.042625 -0.008274 -0.004908 -0.026060
# 4 -0.005076 -0.019568 -0.008274 0.060805 -0.013642 0.028486
# 5 0.004480 -0.009177 -0.004908 -0.013642 0.060832 0.003262
# 6 -0.014836 -0.042259 -0.026060 0.028486 0.003262 0.096363
#
#
# Mechanical properties :
#
#
# Convention : Reuss Voigt Hill
#
# Bulk Modulus (GPa) = 7.87398 30.54169 19.20783
# Shear Modulus (GPa) = 15.00310 24.85799 19.93055
#
# Velocity S-wave (km/s) = 2.73034 3.51446 3.14692
# Velocity P-wave (km/s) = 3.72184 5.62532 4.76950
#
# Compressibility (1/GPa) = 0.12700066
#
# Stress axis : x y z
#
# Youngs Moduli (GPa) = 58.31498 24.88045 23.46023
#
# Poissons Ratio (x) = 0.04708 0.10036
# Poissons Ratio (y) = 0.11035 -0.46187
# Poissons Ratio (z) = 0.24945 -0.48983
#
# Static dielectric constant tensor:
#      x y z
#    x 1.747030 0.052610 -0.066070 
#    y 0.052610 1.798860 -0.002180 
#    z -0.066070 -0.002180 1.875210 
# 
# From -- ./inp_files/259638.got.cif
#   From: 2010.05.17/outbox.cif.g08.bks.cpg/sg2_130_cif.got.tgz:259638.got - 2010.06.03 11:33:40.
