data_PCOD9081303
_publ_section_title
;
Structure prediction by ZEFSAII (Michael W. Deem and Ramdas Pophale) SiO2 
 PCOD9081303
Probable space group: P -1
;
_chemical_formula_sum "Si O2"
_cell_formula_units_Z 16
_cell_length_a 16.492132
_cell_length_b 9.910724
_cell_length_c 12.690139
_cell_angle_alpha 135.797876
_cell_angle_beta 140.212491
_cell_angle_gamma 27.875655
_cell_volume 615.686991
_symmetry_space_group_name_H-M "P -1"
_symmetry_group_IT_number 2
_symmetry_cell_setting 'triclinic'
loop_
_space_group_symop_operation_xyz
x,y,z
-x,-y,-z
loop_
_atom_site_type_symbol
_atom_site_label
_atom_site_fract_x
_atom_site_fract_y
_atom_site_fract_z
Si Si1 0.058792 0.043391 0.315765
Si Si2 0.204719 0.934143 0.048391
Si Si3 0.193098 0.490952 0.094474
Si Si4 0.149896 0.608165 0.481410
Si Si5 0.171295 0.192017 0.355584
Si Si6 0.415535 0.908480 0.083677
Si Si7 0.272857 0.238536 0.807060
Si Si8 0.262561 0.882384 0.711905
O O1 0.169100 0.107997 0.422919
O O2 0.950406 0.195983 0.402176
O O3 0.202613 0.698778 0.261802
O O4 0.888677 0.163206 0.132703
O O5 0.031116 0.269123 0.022159
O O6 0.223998 0.949674 0.199144
O O7 0.387527 0.809058 0.101768
O O8 0.268100 0.254327 0.121136
O O9 0.293544 0.324020 0.989627
O O10 0.256824 0.291357 0.447865
O O11 0.964188 0.803309 0.329457
O O12 0.275271 0.638212 0.576163
O O13 0.949108 0.495433 0.288860
O O14 0.610177 0.791701 0.184088
O O15 0.365120 0.827322 0.890005
O O16 0.328445 0.952184 0.725119
#
# Coordination Sequence:
#
# PCOD9081303 Si02
#       8
#     2   2   2   2   2   2   2   2
#     4  10  19  33  54  79 107 135 179 218 258 301
#     4   9  19  30  54  80 104 132 176 224 254 300
#     4   8  17  28  51  75 103 134 162 220 262 293
#     4  10  19  31  54  79 106 139 169 221 259 313
#     4  10  20  36  53  79 106 139 179 215 257 305
#     4  11  17  33  54  83 110 131 173 214 273 310
#     4   9  19  31  55  79 107 140 166 219 261 314
#     4   9  17  31  48  78 107 128 171 207 266 308
#
# _framework density 25.987228999999999
#
# number of rings (size 3 to 8) (size 9 to 14) (size 15 to 20)
#    0.750    1.750    1.250    3.375    0.000    3.000 
#    0.000    0.625    0.000   13.500    0.000    7.875 
#    0.000    0.000    0.000    0.000    0.000    0.000 
#
# Total GULP energy -89333.544654 kJ/mol
# GULP energy per Si atom -5583.346541 kJ/mol
# Density = 2.592808 g / cm^3
# Si number density = 25.987229 Si / 1000 Ang^3
#
#
#
# Elastic Constant Matrix: (Units=GPa)
#
#
# Indices 1 2 3 4 5 6 
#
# 1 124.6059 30.7210 25.5879 4.1872 18.7298 1.1093
# 2 30.7210 43.0273 5.5151 13.6270 12.9803 9.1257
# 3 25.5879 5.5151 70.5860 10.6953 11.7439 -1.3773
# 4 4.1872 13.6270 10.6953 17.8539 -0.9544 8.4987
# 5 18.7298 12.9803 11.7439 -0.9544 44.9609 1.5961
# 6 1.1093 9.1257 -1.3773 8.4987 1.5961 28.4567
#
#
#
# Elastic Compliance Matrix: (Units=1/GPa)
#
#
# Indices 1 2 3 4 5 6 
#
# 1 0.011081 -0.009445 -0.004213 0.006926 -0.000655 0.000361
# 2 -0.009445 0.044154 0.007169 -0.035310 -0.011355 -0.002262
# 3 -0.004213 0.007169 0.018972 -0.018344 -0.005823 0.004589
# 4 0.006926 -0.035310 -0.018344 0.103392 0.015060 -0.021558
# 5 -0.000655 -0.011355 -0.005823 0.015060 0.027728 -0.002668
# 6 0.000361 -0.002262 0.004589 -0.021558 -0.002668 0.042662
#
#
# Mechanical properties :
#
#
# Convention : Reuss Voigt Hill
#
# Bulk Modulus (GPa) = 16.33168 40.20749 28.26959
# Shear Modulus (GPa) = 17.76981 30.01397 23.89189
#
# Velocity S-wave (km/s) = 2.61777 3.40214 3.03540
# Velocity P-wave (km/s) = 3.92876 5.56223 4.81526
#
# Compressibility (1/GPa) = 0.06123068
#
# Stress axis : x y z
#
# Youngs Moduli (GPa) = 90.24139 22.64819 52.70948
#
# Poissons Ratio (x) = 0.21390 0.22204
# Poissons Ratio (y) = 0.85230 -0.37788
# Poissons Ratio (z) = 0.38015 -0.16237
#
# Static dielectric constant tensor:
#      x y z
#    x 2.036360 0.007970 0.025640 
#    y 0.007970 2.067250 0.015770 
#    z 0.025640 0.015770 2.110120 
# 
# From -- ./inp_files/538059.got.cif
#   From: 2010.05.17/outbox.cif.g08.bks.cpg/sg2_270_cif.got.tgz:538059.got - 2010.06.03 11:33:40.
