data_PCOD9081586
_publ_section_title
;
Structure prediction by ZEFSAII (Michael W. Deem and Ramdas Pophale) SiO2 
 PCOD9081586
Probable space group: P -1
;
_chemical_formula_sum "Si O2"
_cell_formula_units_Z 16
_cell_length_a 20.597553
_cell_length_b 14.368240
_cell_length_c 11.741045
_cell_angle_alpha 31.145051
_cell_angle_beta 150.782738
_cell_angle_gamma 147.064361
_cell_volume 816.499562
_symmetry_space_group_name_H-M "P -1"
_symmetry_group_IT_number 2
_symmetry_cell_setting 'triclinic'
loop_
_space_group_symop_operation_xyz
x,y,z
-x,-y,-z
loop_
_atom_site_type_symbol
_atom_site_label
_atom_site_fract_x
_atom_site_fract_y
_atom_site_fract_z
Si Si1 0.029973 0.527711 0.151955
Si Si2 0.168076 0.564599 0.714870
Si Si3 0.610490 0.823256 0.826461
Si Si4 0.146057 0.960044 0.860996
Si Si5 0.301605 0.548231 0.689042
Si Si6 0.890955 0.816754 0.876258
Si Si7 0.204735 0.968526 0.302159
Si Si8 0.906162 0.104946 0.403205
O O1 0.182867 0.546943 0.417018
O O2 0.926134 0.317291 0.258567
O O3 0.036472 0.745443 0.955874
O O4 0.000000 0.500000 0.000000
O O5 0.241011 0.544147 0.728206
O O6 0.216514 0.790520 0.576967
O O7 0.000000 0.500000 0.500000
O O8 0.175961 0.415483 0.979384
O O9 0.444998 0.734484 0.696371
O O10 0.656257 0.939347 0.657910
O O11 0.660038 0.640480 0.076556
O O12 0.709556 0.960410 0.930599
O O13 0.177697 0.943822 0.793172
O O14 0.061883 0.104713 0.602098
O O15 0.827240 0.880739 0.823909
O O16 0.857490 0.937339 0.597425
O O17 0.063050 0.890325 0.085364
#
# Coordination Sequence:
#
# PCOD9081586 Si02
#       8
#     2   2   2   2   2   2   2   2
#     4  10  21  35  54  83 113 143 186 233 281 330
#     4  10  22  33  52  83 110 144 190 233 281 330
#     4  11  21  38  59  85 120 152 186 230 290 343
#     4  10  20  34  54  82 111 153 188 230 281 333
#     4  11  22  37  59  86 118 151 186 235 287 340
#     4  10  19  33  51  77 118 143 187 230 281 333
#     4  10  19  32  52  80 109 148 182 235 283 332
#     4  10  20  34  54  79 117 149 189 231 279 335
#
# _framework density 19.595846000000002
#
# number of rings (size 3 to 8) (size 9 to 14) (size 15 to 20)
#    0.000    1.750    3.750    0.750    5.250    2.000 
#    0.000    0.000    0.000    0.750    3.250    2.625 
#    0.000    0.000    0.000    0.000    0.000    0.000 
#
# Total GULP energy -89205.704505 kJ/mol
# GULP energy per Si atom -5575.356532 kJ/mol
# Density = 1.955125 g / cm^3
# Si number density = 19.595846 Si / 1000 Ang^3
#
#
#
# Elastic Constant Matrix: (Units=GPa)
#
#
# Indices 1 2 3 4 5 6 
#
# 1 71.6971 32.1326 14.0102 0.3137 -6.7762 18.9103
# 2 32.1326 90.3470 21.5843 -22.6312 -10.5316 7.9888
# 3 14.0102 21.5843 60.8212 -28.3690 -13.8912 6.9910
# 4 0.3137 -22.6312 -28.3690 38.5611 3.1094 -3.3908
# 5 -6.7762 -10.5316 -13.8912 3.1094 28.7671 -9.7675
# 6 18.9103 7.9888 6.9910 -3.3908 -9.7675 32.5101
#
#
#
# Elastic Compliance Matrix: (Units=1/GPa)
#
#
# Indices 1 2 3 4 5 6 
#
# 1 0.021564 -0.008169 -0.006496 -0.010443 -0.003777 -0.011363
# 2 -0.008169 0.016603 0.001953 0.011107 0.004873 0.002874
# 3 -0.006496 0.001953 0.030373 0.022799 0.012357 0.002858
# 4 -0.010443 0.011107 0.022799 0.049109 0.009485 0.006414
# 5 -0.003777 0.004873 0.012357 0.009485 0.044957 0.012839
# 6 -0.011363 0.002874 0.002858 0.006414 0.012839 0.040575
#
#
# Mechanical properties :
#
#
# Convention : Reuss Voigt Hill
#
# Bulk Modulus (GPa) = 23.19328 39.81328 31.50328
# Shear Modulus (GPa) = 20.57813 30.31021 25.44417
#
# Velocity S-wave (km/s) = 3.24408 3.93716 3.60731
# Velocity P-wave (km/s) = 5.08858 6.40544 5.78460
#
# Compressibility (1/GPa) = 0.04311594
#
# Stress axis : x y z
#
# Youngs Moduli (GPa) = 46.37435 60.22878 32.92411
#
# Poissons Ratio (x) = 0.49200 0.21387
# Poissons Ratio (y) = 0.37883 -0.06429
# Poissons Ratio (z) = 0.30124 -0.11761
#
# Static dielectric constant tensor:
#      x y z
#    x 1.714750 -0.008000 -0.008760 
#    y -0.008000 1.710400 -0.057730 
#    z -0.008760 -0.057730 1.720850 
# 
# From -- ./inp_files/422884.got.cif
#   From: 2010.05.17/outbox.cif.g08.bks.cpg/sg2_212_cif.got.tgz:422884.got - 2010.06.03 11:33:40.
