data_PCOD9081554
_publ_section_title
;
Structure prediction by ZEFSAII (Michael W. Deem and Ramdas Pophale) SiO2 
 PCOD9081554
Probable space group: P -1
;
_chemical_formula_sum "Si O2"
_cell_formula_units_Z 16
_cell_length_a 21.775004
_cell_length_b 10.336117
_cell_length_c 10.790271
_cell_angle_alpha 118.632866
_cell_angle_beta 148.692036
_cell_angle_gamma 39.254887
_cell_volume 664.428513
_symmetry_space_group_name_H-M "P -1"
_symmetry_group_IT_number 2
_symmetry_cell_setting 'triclinic'
loop_
_space_group_symop_operation_xyz
x,y,z
-x,-y,-z
loop_
_atom_site_type_symbol
_atom_site_label
_atom_site_fract_x
_atom_site_fract_y
_atom_site_fract_z
Si Si1 0.541630 0.021160 0.217460
Si Si2 0.187558 0.752319 0.783489
Si Si3 0.501560 0.667963 0.219011
Si Si4 0.859156 0.960114 0.970833
Si Si5 0.461863 0.366457 0.363500
Si Si6 0.811214 0.501394 0.495111
Si Si7 0.338265 0.130660 0.173630
Si Si8 0.154076 0.601132 0.118569
O O1 0.515062 0.224808 0.265846
O O2 0.401751 0.115584 0.136559
O O3 0.743643 0.737229 0.474725
O O4 0.500000 0.000000 0.000000
O O5 0.171381 0.595595 0.652885
O O6 0.157772 0.861745 0.914300
O O7 0.386538 0.630200 0.016808
O O8 0.000000 0.000000 0.500000
O O9 0.627398 0.596412 0.285251
O O10 0.669866 0.513760 0.542679
O O11 0.331560 0.961624 0.075741
O O12 0.006432 0.715566 0.197946
O O13 0.958555 0.859341 0.960159
O O14 0.636625 0.126632 0.643812
O O15 0.500000 0.500000 0.500000
O O16 0.240550 0.560080 0.116599
O O17 0.164758 0.412521 0.045941
O O18 0.500000 0.000000 0.500000
#
# Coordination Sequence:
#
# PCOD9081554 Si02
#       8
#     2   2   2   2   2   2   2   2
#     4  10  22  39  63  97 132 172 212 265 339 391
#     4  10  19  32  51  91 130 157 207 266 326 377
#     4   9  15  31  56  84 120 161 207 258 325 373
#     4  10  21  38  61  96 118 159 226 269 316 378
#     4  11  24  41  65  91 123 176 216 264 326 394
#     4   9  20  36  60  89 127 164 208 274 322 381
#     4   8  16  33  59  88 122 165 213 263 319 380
#     4   9  18  36  58  86 122 154 211 273 310 372
#
# _framework density 24.080843000000002
#
# number of rings (size 3 to 8) (size 9 to 14) (size 15 to 20)
#    0.000    2.500    1.250    1.125    1.750    1.000 
#    4.500    0.000    0.000    3.000    0.000    0.000 
#    0.000    0.000    0.000    0.000    0.000    0.000 
#
# Total GULP energy -89116.658409 kJ/mol
# GULP energy per Si atom -5569.791151 kJ/mol
# Density = 2.402603 g / cm^3
# Si number density = 24.080843 Si / 1000 Ang^3
#
#
#
# Elastic Constant Matrix: (Units=GPa)
#
#
# Indices 1 2 3 4 5 6 
#
# 1 77.4070 37.6626 35.6742 -7.7334 -2.0457 -17.2629
# 2 37.6626 110.5313 4.9989 23.9915 -0.0738 -20.2930
# 3 35.6742 4.9989 70.5779 -8.8882 -4.4741 -13.7088
# 4 -7.7334 23.9915 -8.8882 35.4118 -10.8143 2.6546
# 5 -2.0457 -0.0738 -4.4741 -10.8143 36.4909 -1.6667
# 6 -17.2629 -20.2930 -13.7088 2.6546 -1.6667 45.3081
#
#
#
# Elastic Compliance Matrix: (Units=1/GPa)
#
#
# Indices 1 2 3 4 5 6 
#
# 1 0.023151 -0.009373 -0.009331 0.009922 0.003136 0.001334
# 2 -0.009373 0.016073 0.002574 -0.013913 -0.004069 0.005072
# 3 -0.009331 0.002574 0.019774 0.001699 0.002574 0.003576
# 4 0.009922 -0.013913 0.001699 0.044784 0.013823 -0.004052
# 5 0.003136 -0.004069 0.002574 0.013823 0.032008 0.000519
# 6 0.001334 0.005072 0.003576 -0.004052 0.000519 0.026189
#
#
# Mechanical properties :
#
#
# Convention : Reuss Voigt Hill
#
# Bulk Modulus (GPa) = 37.39762 46.13196 41.76479
# Shear Modulus (GPa) = 24.61218 35.45419 30.03318
#
# Velocity S-wave (km/s) = 3.20044 3.84122 3.53538
# Velocity P-wave (km/s) = 5.40563 6.23474 5.83493
#
# Compressibility (1/GPa) = 0.02673967
#
# Stress axis : x y z
#
# Youngs Moduli (GPa) = 43.19462 62.21597 50.57035
#
# Poissons Ratio (x) = 0.58317 0.47185
# Poissons Ratio (y) = 0.40487 -0.13019
# Poissons Ratio (z) = 0.40303 -0.16017
#
# Static dielectric constant tensor:
#      x y z
#    x 2.093160 0.020070 -0.009940 
#    y 0.020070 1.997540 0.011140 
#    z -0.009940 0.011140 1.911780 
# 
# From -- ./inp_files/474713.got.cif
#   From: 2010.05.17/outbox.cif.g08.bks.cpg/sg2_238_cif.got.tgz:474713.got - 2010.06.03 11:33:40.
