data_PCOD9081869
_publ_section_title
;
Structure prediction by ZEFSAII (Michael W. Deem and Ramdas Pophale) SiO2 
 PCOD9081869
Probable space group: P -1
;
_chemical_formula_sum "Si O2"
_cell_formula_units_Z 14
_cell_length_a 10.292265
_cell_length_b 12.479209
_cell_length_c 11.721715
_cell_angle_alpha 32.079372
_cell_angle_beta 86.078443
_cell_angle_gamma 107.381649
_cell_volume 589.887018
_symmetry_space_group_name_H-M "P -1"
_symmetry_group_IT_number 2
_symmetry_cell_setting 'triclinic'
loop_
_space_group_symop_operation_xyz
x,y,z
-x,-y,-z
loop_
_atom_site_type_symbol
_atom_site_label
_atom_site_fract_x
_atom_site_fract_y
_atom_site_fract_z
Si Si1 0.518650 0.280754 0.695354
Si Si2 0.828326 0.115394 0.070351
Si Si3 0.358097 0.312442 0.326599
Si Si4 0.711106 0.871654 0.759064
Si Si5 0.900408 0.649752 0.619900
Si Si6 0.654808 0.062776 0.783452
Si Si7 0.017018 0.758450 0.278838
O O1 0.500000 0.500000 0.500000
O O2 0.345810 0.029334 0.863828
O O3 0.672119 0.314870 0.591780
O O4 0.509170 0.189533 0.906604
O O5 0.750310 0.917629 0.361824
O O6 0.908240 0.413852 0.834446
O O7 0.955081 0.140428 0.944221
O O8 0.324769 0.176749 0.328959
O O9 0.263338 0.432326 0.227350
O O10 0.568459 0.566045 0.098688
O O11 0.657377 0.026929 0.682432
O O12 0.919378 0.066945 0.595206
O O13 0.886106 0.687695 0.450849
O O14 0.798745 0.053883 0.831466
O O15 0.000000 0.500000 0.500000
#
# Coordination Sequence:
#
# PCOD9081869 Si02
#       7
#     2   2   2   2   2   2   2
#     4  10  19  32  56  87 115 149 195 244 297 357
#     4  10  21  37  60  92 122 156 205 250 306 373
#     4  11  23  40  63  89 123 163 207 258 300 357
#     4  10  22  42  62  88 124 164 208 251 305 361
#     4  10  21  42  64  86 124 165 201 254 310 361
#     4   9  18  35  54  76 116 156 186 240 297 346
#     4   8  17  34  56  83 116 153 195 242 302 361
#
# _framework density 23.733360000000001
#
# number of rings (size 3 to 8) (size 9 to 14) (size 15 to 20)
#    0.000    2.286    0.000    2.143    0.000    5.714 
#    0.000   25.000    0.000    0.000    0.000    0.000 
#    0.000    0.000    0.000    0.000    0.000    0.000 
#
# Total GULP energy -77980.246592 kJ/mol
# GULP energy per Si atom -5570.017614 kJ/mol
# Density = 2.367934 g / cm^3
# Si number density = 23.733360 Si / 1000 Ang^3
#
#
#
# Elastic Constant Matrix: (Units=GPa)
#
#
# Indices 1 2 3 4 5 6 
#
# 1 47.8234 27.4538 22.5227 -0.3703 -8.9890 -16.3867
# 2 27.4538 146.9767 39.2248 14.8551 -10.0539 -18.4194
# 3 22.5227 39.2248 124.2480 -0.1031 -8.3343 9.6716
# 4 -0.3703 14.8551 -0.1031 42.7755 2.4924 -14.0529
# 5 -8.9890 -10.0539 -8.3343 2.4924 41.3764 -6.1533
# 6 -16.3867 -18.4194 9.6716 -14.0529 -6.1533 30.8908
#
#
#
# Elastic Compliance Matrix: (Units=1/GPa)
#
#
# Indices 1 2 3 4 5 6 
#
# 1 0.036388 -0.001743 -0.007480 0.009099 0.009385 0.026614
# 2 -0.001743 0.008748 -0.002686 -0.001598 0.002017 0.004808
# 3 -0.007480 -0.002686 0.010962 -0.002438 -0.001470 -0.010404
# 4 0.009099 -0.001598 -0.002438 0.030032 0.002071 0.018712
# 5 0.009385 0.002017 -0.001470 0.002071 0.028241 0.013209
# 6 0.026614 0.004808 -0.010404 0.018712 0.013209 0.063758
#
#
# Mechanical properties :
#
#
# Convention : Reuss Voigt Hill
#
# Bulk Modulus (GPa) = 30.98030 55.27230 43.12630
# Shear Modulus (GPa) = 23.50653 38.33165 30.91909
#
# Velocity S-wave (km/s) = 3.15054 4.02319 3.61331
# Velocity P-wave (km/s) = 5.12995 6.70230 5.96813
#
# Compressibility (1/GPa) = 0.03227857
#
# Stress axis : x y z
#
# Youngs Moduli (GPa) = 27.48195 114.30918 91.22756
#
# Poissons Ratio (x) = 0.19922 0.68242
# Poissons Ratio (y) = 0.04790 0.24505
# Poissons Ratio (z) = 0.20558 0.30705
#
# Static dielectric constant tensor:
#      x y z
#    x 2.044540 -0.008060 -0.060770 
#    y -0.008060 1.942230 -0.019750 
#    z -0.060770 -0.019750 2.045120 
# 
# From -- ./inp_files/424974.got.cif
#   From: 2010.05.17/outbox.cif.g08.bks.cpg/sg2_213_cif.got.tgz:424974.got - 2010.06.03 11:33:40.
