data_PCOD9081747
_publ_section_title
;
Structure prediction by ZEFSAII (Michael W. Deem and Ramdas Pophale) SiO2 
 PCOD9081747
Probable space group: P -1
;
_chemical_formula_sum "Si O2"
_cell_formula_units_Z 16
_cell_length_a 16.756332
_cell_length_b 11.647170
_cell_length_c 21.304331
_cell_angle_alpha 20.438973
_cell_angle_beta 148.666381
_cell_angle_gamma 149.841441
_cell_volume 706.196151
_symmetry_space_group_name_H-M "P -1"
_symmetry_group_IT_number 2
_symmetry_cell_setting 'triclinic'
loop_
_space_group_symop_operation_xyz
x,y,z
-x,-y,-z
loop_
_atom_site_type_symbol
_atom_site_label
_atom_site_fract_x
_atom_site_fract_y
_atom_site_fract_z
Si Si1 0.848313 0.217922 0.337153
Si Si2 0.683893 0.951824 0.054874
Si Si3 0.616462 0.858785 0.259105
Si Si4 0.899450 0.505569 0.748204
Si Si5 0.163324 0.575516 0.983262
Si Si6 0.416365 0.260412 0.281595
Si Si7 0.652500 0.486943 0.151942
Si Si8 0.381548 0.881244 0.329151
O O1 0.809788 0.482813 0.222038
O O2 0.988061 0.409547 0.282562
O O3 0.683205 0.042352 0.275922
O O4 0.882478 0.881630 0.560154
O O5 0.565555 0.629034 0.183172
O O6 0.699396 0.766767 0.095852
O O7 0.836949 0.202538 0.068272
O O8 0.570812 0.184064 0.849344
O O9 0.640828 0.489951 0.464364
O O10 0.725418 0.123611 0.144780
O O11 0.732429 0.216557 0.759078
O O12 0.992766 0.409042 0.917764
O O13 0.268503 0.319354 0.189864
O O14 0.500000 0.000000 0.500000
O O15 0.345102 0.122746 0.234589
O O16 0.568198 0.097631 0.325133
O O17 0.500000 0.500000 0.000000
#
# Coordination Sequence:
#
# PCOD9081747 Si02
#       8
#     2   2   2   2   2   2   2   2
#     4   9  18  36  58  83 117 151 190 231 283 341
#     4  10  19  33  56  80 113 154 186 234 289 334
#     4   9  16  32  55  84 111 145 191 241 279 328
#     4   9  20  36  59  86 114 153 191 230 283 346
#     4  10  19  33  56  81 118 154 188 231 287 344
#     4  10  19  32  54  87 120 143 191 246 287 325
#     4  11  22  38  56  88 116 149 193 241 288 331
#     4  10  21  34  59  91 114 148 192 240 289 329
#
# _framework density 22.656594999999999
#
# number of rings (size 3 to 8) (size 9 to 14) (size 15 to 20)
#    0.000    2.250    1.250    3.750    1.750    2.500 
#    0.000    0.625    0.000    0.750    0.000    0.000 
#    0.000    0.000    0.000    0.000    0.000    0.000 
#
# Total GULP energy -89366.517755 kJ/mol
# GULP energy per Si atom -5585.407360 kJ/mol
# Density = 2.260503 g / cm^3
# Si number density = 22.656595 Si / 1000 Ang^3
#
#
#
# Elastic Constant Matrix: (Units=GPa)
#
#
# Indices 1 2 3 4 5 6 
#
# 1 50.4880 26.9671 21.5581 1.6512 20.9925 -13.9946
# 2 26.9671 120.0218 41.5662 -2.7308 8.7708 -19.9421
# 3 21.5581 41.5662 83.3120 10.6863 7.5881 -6.5117
# 4 1.6512 -2.7308 10.6863 24.2273 -1.5687 -2.7723
# 5 20.9925 8.7708 7.5881 -1.5687 29.1524 -9.7990
# 6 -13.9946 -19.9421 -6.5117 -2.7723 -9.7990 29.1406
#
#
#
# Elastic Compliance Matrix: (Units=1/GPa)
#
#
# Indices 1 2 3 4 5 6 
#
# 1 0.033651 -0.003623 -0.004438 -0.001384 -0.020114 0.005795
# 2 -0.003623 0.012056 -0.005455 0.004975 0.002939 0.006753
# 3 -0.004438 -0.005455 0.016760 -0.008145 -0.001056 -0.003249
# 4 -0.001384 0.004975 -0.008145 0.046831 0.006704 0.007630
# 5 -0.020114 0.002939 -0.001056 0.006704 0.051977 0.010232
# 6 0.005795 0.006753 -0.003249 0.007630 0.010232 0.045161
#
#
# Mechanical properties :
#
#
# Convention : Reuss Voigt Hill
#
# Bulk Modulus (GPa) = 28.22068 48.22274 38.22171
# Shear Modulus (GPa) = 20.38489 27.41941 23.90215
#
# Velocity S-wave (km/s) = 3.00281 3.48259 3.25156
# Velocity P-wave (km/s) = 4.95029 6.12386 5.56808
#
# Compressibility (1/GPa) = 0.03543501
#
# Stress axis : x y z
#
# Youngs Moduli (GPa) = 29.71647 82.94926 59.66505
#
# Poissons Ratio (x) = 0.30051 0.26478
# Poissons Ratio (y) = 0.10766 0.32550
# Poissons Ratio (z) = 0.13188 0.45252
#
# Static dielectric constant tensor:
#      x y z
#    x 1.902130 -0.030230 -0.035310 
#    y -0.030230 1.837900 0.018150 
#    z -0.035310 0.018150 1.852960 
# 
# From -- ./inp_files/238966.got.cif
#   From: 2010.05.17/outbox.cif.g08.bks.cpg/sg2_120_cif.got.tgz:238966.got - 2010.06.03 11:33:40.
