data_PCOD9081497
_publ_section_title
;
Structure prediction by ZEFSAII (Michael W. Deem and Ramdas Pophale) SiO2 
 PCOD9081497
Probable space group: P -1
;
_chemical_formula_sum "Si O2"
_cell_formula_units_Z 16
_cell_length_a 16.709072
_cell_length_b 29.302169
_cell_length_c 6.730421
_cell_angle_alpha 119.561231
_cell_angle_beta 72.603521
_cell_angle_gamma 159.322282
_cell_volume 858.696231
_symmetry_space_group_name_H-M "P -1"
_symmetry_group_IT_number 2
_symmetry_cell_setting 'triclinic'
loop_
_space_group_symop_operation_xyz
x,y,z
-x,-y,-z
loop_
_atom_site_type_symbol
_atom_site_label
_atom_site_fract_x
_atom_site_fract_y
_atom_site_fract_z
Si Si1 0.686963 0.482870 0.841488
Si Si2 0.515349 0.047914 0.397978
Si Si3 0.165849 0.352589 0.581798
Si Si4 0.383901 0.036638 0.812649
Si Si5 0.191747 0.772892 0.831110
Si Si6 0.544369 0.581872 0.438235
Si Si7 0.158967 0.107914 0.418010
Si Si8 0.069380 0.955318 0.881822
O O1 0.530683 0.437573 0.755177
O O2 0.458925 0.304800 0.666963
O O3 0.906073 0.593142 0.757187
O O4 0.822069 0.589561 0.161999
O O5 0.471536 0.076129 0.605667
O O6 0.500000 0.000000 0.500000
O O7 0.756685 0.195937 0.377362
O O8 0.283348 0.885036 0.083506
O O9 0.288134 0.435973 0.455073
O O10 0.360334 0.421096 0.659173
O O11 0.876497 0.154356 0.365724
O O12 0.288654 0.039816 0.902208
O O13 0.604767 0.147784 0.044538
O O14 0.790801 0.761373 0.733912
O O15 0.004896 0.062080 0.311139
O O16 0.000000 0.000000 0.500000
O O17 0.154904 0.053800 0.168858
#
# Coordination Sequence:
#
# PCOD9081497 Si02
#       8
#     2   2   2   2   2   2   2   2
#     4  11  21  33  55  79 108 139 182 228 268 321
#     4   9  19  34  50  76 113 150 183 211 254 323
#     4  10  19  32  50  79 111 142 173 217 274 323
#     4  10  20  34  55  78 114 147 177 220 265 331
#     4  10  21  33  52  82 111 149 181 215 269 324
#     4   9  20  32  51  78 109 139 174 224 272 324
#     4  10  21  39  61  79 103 140 186 232 277 320
#     4   9  20  39  55  79 106 140 185 226 275 324
#
# _framework density 18.632898999999998
#
# number of rings (size 3 to 8) (size 9 to 14) (size 15 to 20)
#    0.000    2.250    1.250    1.125    5.250    1.000 
#    0.000    0.625    0.000    1.500    0.000    0.000 
#    0.000    0.000    0.000    0.000    0.000    0.000 
#
# Total GULP energy -89154.209967 kJ/mol
# GULP energy per Si atom -5572.138123 kJ/mol
# Density = 1.859049 g / cm^3
# Si number density = 18.632899 Si / 1000 Ang^3
#
#
#
# Elastic Constant Matrix: (Units=GPa)
#
#
# Indices 1 2 3 4 5 6 
#
# 1 92.3026 35.9148 45.1637 -6.9386 -5.3807 5.9163
# 2 35.9148 146.8759 45.2654 -8.5478 -2.6123 -6.1534
# 3 45.1637 45.2654 71.3177 -0.9237 1.5851 -8.4674
# 4 -6.9386 -8.5478 -0.9237 25.0562 -1.0623 -0.7708
# 5 -5.3807 -2.6123 1.5851 -1.0623 16.3785 4.3063
# 6 5.9163 -6.1534 -8.4674 -0.7708 4.3063 21.2431
#
#
#
# Elastic Compliance Matrix: (Units=1/GPa)
#
#
# Indices 1 2 3 4 5 6 
#
# 1 0.019788 -0.000622 -0.013924 0.004833 0.011590 -0.013415
# 2 -0.000622 0.008741 -0.005109 0.002708 0.001752 0.000412
# 3 -0.013924 -0.005109 0.028207 -0.004601 -0.012634 0.016035
# 4 0.004833 0.002708 -0.004601 0.042184 0.005734 -0.002027
# 5 0.011590 0.001752 -0.012634 0.005734 0.072591 -0.022263
# 6 -0.013415 0.000412 0.016035 -0.002027 -0.022263 0.061761
#
#
# Mechanical properties :
#
#
# Convention : Reuss Voigt Hill
#
# Bulk Modulus (GPa) = 57.38567 62.57601 59.98084
# Shear Modulus (GPa) = 17.96037 24.81237 21.38637
#
# Velocity S-wave (km/s) = 3.10805 3.65313 3.39156
# Velocity P-wave (km/s) = 6.61399 7.17289 6.89910
#
# Compressibility (1/GPa) = 0.01742595
#
# Stress axis : x y z
#
# Youngs Moduli (GPa) = 50.53615 114.40144 35.45180
#
# Poissons Ratio (x) = 0.07116 0.49363
# Poissons Ratio (y) = 0.03143 0.18112
# Poissons Ratio (z) = 0.70367 0.58448
#
# Static dielectric constant tensor:
#      x y z
#    x 1.687730 0.027180 0.016720 
#    y 0.027180 1.669290 -0.006590 
#    z 0.016720 -0.006590 1.652810 
# 
# From -- ./inp_files/113388.got.cif
#   From: 2010.05.17/outbox.cif.g08.bks.cpg/sg2_57_cif.got.tgz:113388.got - 2010.06.03 11:33:40.
