data_PCOD9081663
_publ_section_title
;
Structure prediction by ZEFSAII (Michael W. Deem and Ramdas Pophale) SiO2 
 PCOD9081663
Probable space group: P -1
;
_chemical_formula_sum "Si O2"
_cell_formula_units_Z 16
_cell_length_a 14.920973
_cell_length_b 7.886781
_cell_length_c 24.158548
_cell_angle_alpha 62.546327
_cell_angle_beta 158.982465
_cell_angle_gamma 128.746637
_cell_volume 713.935564
_symmetry_space_group_name_H-M "P -1"
_symmetry_group_IT_number 2
_symmetry_cell_setting 'triclinic'
loop_
_space_group_symop_operation_xyz
x,y,z
-x,-y,-z
loop_
_atom_site_type_symbol
_atom_site_label
_atom_site_fract_x
_atom_site_fract_y
_atom_site_fract_z
Si Si1 0.085070 0.467928 0.871840
Si Si2 0.001814 0.815636 0.962296
Si Si3 0.833603 0.950770 0.557478
Si Si4 0.272585 0.832397 0.842053
Si Si5 0.381150 0.009930 0.259862
Si Si6 0.230527 0.445904 0.237694
Si Si7 0.639221 0.739172 0.983084
Si Si8 0.232268 0.029313 0.352711
O O1 0.017032 0.579289 0.765235
O O2 0.392975 0.481407 0.033758
O O3 0.812751 0.185486 0.772533
O O4 0.066825 0.600498 0.893995
O O5 0.845842 0.591836 0.865114
O O6 0.715381 0.815316 0.818901
O O7 0.223947 0.051844 0.015552
O O8 0.213719 0.858542 0.130059
O O9 0.746172 0.121830 0.459590
O O10 0.542837 0.699229 0.399932
O O11 0.805380 0.945487 0.608205
O O12 0.136683 0.963655 0.718955
O O13 0.402386 0.754884 0.880651
O O14 0.500000 0.000000 0.000000
O O15 0.280499 0.251406 0.315208
O O16 0.900990 0.803470 0.170207
O O17 0.500000 0.000000 0.500000
#
# Coordination Sequence:
#
# PCOD9081663 Si02
#       8
#     2   2   2   2   2   2   2   2
#     4  10  20  35  54  81 109 140 187 227 273 325
#     4   9  18  39  59  82 113 138 182 229 281 323
#     4  11  21  32  52  82 111 142 186 224 277 321
#     4  12  22  38  51  75 118 154 182 222 270 337
#     4   9  20  36  60  86 108 140 180 237 274 322
#     4  10  19  32  53  82 107 140 173 236 273 318
#     4  10  21  36  54  79 108 153 183 216 279 328
#     4  11  19  31  53  78 111 136 178 228 278 327
#
# _framework density 22.410986000000001
#
# number of rings (size 3 to 8) (size 9 to 14) (size 15 to 20)
#    0.000    1.750    2.500    4.500    3.500    2.000 
#    0.000    0.625    0.000    0.000    0.000    6.125 
#    0.000    0.000    0.000    0.000    0.000    0.000 
#
# Total GULP energy -89187.201461 kJ/mol
# GULP energy per Si atom -5574.200091 kJ/mol
# Density = 2.235998 g / cm^3
# Si number density = 22.410986 Si / 1000 Ang^3
#
#
#
# Elastic Constant Matrix: (Units=GPa)
#
#
# Indices 1 2 3 4 5 6 
#
# 1 114.6853 19.1700 54.8277 -12.4503 -2.4813 -34.7674
# 2 19.1700 49.7869 16.1780 -15.0835 2.2874 -18.5001
# 3 54.8277 16.1780 115.8123 -40.2964 -1.2789 -14.1109
# 4 -12.4503 -15.0835 -40.2964 35.1630 -12.4720 5.3090
# 5 -2.4813 2.2874 -1.2789 -12.4720 41.9287 -11.2826
# 6 -34.7674 -18.5001 -14.1109 5.3090 -11.2826 38.4313
#
#
#
# Elastic Compliance Matrix: (Units=1/GPa)
#
#
# Indices 1 2 3 4 5 6 
#
# 1 0.015720 -0.000076 -0.006919 -0.003202 0.003282 0.013050
# 2 -0.000076 0.029615 0.004103 0.017868 0.008012 0.015577
# 3 -0.006919 0.004103 0.020516 0.025377 0.008113 0.002124
# 4 -0.003202 0.017868 0.025377 0.070689 0.023943 0.012286
# 5 0.003282 0.008012 0.008113 0.023943 0.035532 0.016929
# 6 0.013050 0.015577 0.002124 0.012286 0.016929 0.049377
#
#
# Mechanical properties :
#
#
# Convention : Reuss Voigt Hill
#
# Bulk Modulus (GPa) = 16.64860 51.18178 33.91519
# Shear Modulus (GPa) = 20.22192 35.77853 28.00022
#
# Velocity S-wave (km/s) = 3.00713 3.99992 3.53852
# Velocity P-wave (km/s) = 4.41610 6.64980 5.64455
#
# Compressibility (1/GPa) = 0.06006512
#
# Stress axis : x y z
#
# Youngs Moduli (GPa) = 63.61480 33.76622 48.74341
#
# Poissons Ratio (x) = 0.00257 0.33727
# Poissons Ratio (y) = 0.00484 -0.19998
# Poissons Ratio (z) = 0.44017 -0.13853
#
# Static dielectric constant tensor:
#      x y z
#    x 1.876960 -0.056200 0.051390 
#    y -0.056200 1.958150 0.015890 
#    z 0.051390 0.015890 1.888560 
# 
# From -- ./inp_files/284935.got.cif
#   From: 2010.05.17/outbox.cif.g08.bks.cpg/sg2_143_cif.got.tgz:284935.got - 2010.06.03 11:33:40.
