data_PCOD9081970
_publ_section_title
;
Structure prediction by ZEFSAII (Michael W. Deem and Ramdas Pophale) SiO2 
 PCOD9081970
Probable space group: P -1
;
_chemical_formula_sum "Si O2"
_cell_formula_units_Z 14
_cell_length_a 11.405657
_cell_length_b 12.345065
_cell_length_c 18.186427
_cell_angle_alpha 152.317260
_cell_angle_beta 29.980955
_cell_angle_gamma 134.142774
_cell_volume 566.329327
_symmetry_space_group_name_H-M "P -1"
_symmetry_group_IT_number 2
_symmetry_cell_setting 'triclinic'
loop_
_space_group_symop_operation_xyz
x,y,z
-x,-y,-z
loop_
_atom_site_type_symbol
_atom_site_label
_atom_site_fract_x
_atom_site_fract_y
_atom_site_fract_z
Si Si1 0.086989 0.747914 0.106341
Si Si2 0.991327 0.428727 0.338868
Si Si3 0.357041 0.382235 0.234885
Si Si4 0.752756 0.651810 0.987177
Si Si5 0.630976 0.182951 0.312086
Si Si6 0.771966 0.330466 0.173377
Si Si7 0.630549 0.160955 0.575376
O O1 0.346570 0.713832 0.985611
O O2 0.153787 0.814676 0.028222
O O3 0.848494 0.972170 0.388770
O O4 0.000000 0.500000 0.000000
O O5 0.203026 0.304371 0.207724
O O6 0.772871 0.625476 0.620338
O O7 0.862580 0.241926 0.260281
O O8 0.121022 0.517037 0.252053
O O9 0.289688 0.671969 0.426959
O O10 0.548982 0.647831 0.155479
O O11 0.635402 0.916898 0.173004
O O12 0.982311 0.649476 0.911396
O O13 0.637672 0.226822 0.247554
O O14 0.397337 0.400623 0.596232
O O15 0.500000 0.000000 0.500000
#
# Coordination Sequence:
#
# PCOD9081970 Si02
#       7
#     2   2   2   2   2   2   2
#     4  12  22  38  62  90 125 156 206 253 298 361
#     4  10  22  41  64  85 131 164 191 257 307 356
#     4  11  24  43  60  91 127 161 203 248 307 364
#     4  11  22  39  63  93 120 159 205 255 298 356
#     4  10  20  36  61  91 120 150 204 252 301 353
#     4  10  19  32  58  91 115 153 198 248 303 342
#     4  12  23  38  64  92 118 162 206 247 306 359
#
# _framework density 24.720597000000001
#
# number of rings (size 3 to 8) (size 9 to 14) (size 15 to 20)
#    0.000    1.143    4.286    3.429    2.000    0.571 
#    0.000    9.286    0.000    0.000    0.000    0.000 
#    0.000    0.000    0.000    0.000    0.000    0.000 
#
# Total GULP energy -78206.727368 kJ/mol
# GULP energy per Si atom -5586.194812 kJ/mol
# Density = 2.466433 g / cm^3
# Si number density = 24.720597 Si / 1000 Ang^3
#
#
#
# Elastic Constant Matrix: (Units=GPa)
#
#
# Indices 1 2 3 4 5 6 
#
# 1 -27.6221 37.8703 9.4487 10.9323 -8.4370 -73.6486
# 2 37.8703 58.3690 22.7890 -4.4193 0.6262 0.2153
# 3 9.4487 22.7890 130.6696 -11.7978 -20.9409 -13.2854
# 4 10.9323 -4.4193 -11.7978 37.1972 -11.7339 18.4473
# 5 -8.4370 0.6262 -20.9409 -11.7339 50.6829 -4.1338
# 6 -73.6486 0.2153 -13.2854 18.4473 -4.1338 0.0722
#
#
#
# Elastic Compliance Matrix: (Units=1/GPa)
#
#
# Indices 1 2 3 4 5 6 
#
# 1 0.001636 -0.000214 -0.000887 0.005991 0.000191 -0.013548
# 2 -0.000214 0.018091 -0.002812 -0.003463 -0.001515 0.008681
# 3 -0.000887 -0.002812 0.009382 0.004318 0.004778 0.000184
# 4 0.005991 -0.003463 0.004318 0.029215 0.009569 -0.000233
# 5 0.000191 -0.001515 0.004778 0.009569 0.023844 -0.001549
# 6 -0.013548 0.008681 0.000184 -0.000233 -0.001549 0.009711
#
#
# Mechanical properties :
#
#
# Convention : Reuss Voigt Hill
#
# Bulk Modulus (GPa) = 46.98619 33.51473 40.25046
# Shear Modulus (GPa) = 46.81618 23.67768 35.24693
#
# Velocity S-wave (km/s) = 4.35652 3.09821 3.78009
# Velocity P-wave (km/s) = 6.65987 5.13667 5.94723
#
# Compressibility (1/GPa) = 0.02128285
#
# Stress axis : x y z
#
# Youngs Moduli (GPa) = 611.20976 55.27585 106.58882
#
# Poissons Ratio (x) = 0.01181 0.09454
# Poissons Ratio (y) = 0.13059 0.29978
# Poissons Ratio (z) = 0.54213 0.15546
#
# Static dielectric constant tensor:
#      x y z
#    x 1.979130 0.015170 0.053140 
#    y 0.015170 1.957840 -0.045040 
#    z 0.053140 -0.045040 2.190980 
# 
# From -- ./inp_files/568852.got.cif
#   From: 2010.05.17/outbox.cif.g08.bks.cpg/sg2_285_cif.got.tgz:568852.got - 2010.06.03 11:33:40.
