data_PCOD9081169
_publ_section_title
;
Structure prediction by ZEFSAII (Michael W. Deem and Ramdas Pophale) SiO2 
 PCOD9081169
Probable space group: P -1
;
_chemical_formula_sum "Si O2"
_cell_formula_units_Z 16
_cell_length_a 10.610738
_cell_length_b 20.804475
_cell_length_c 9.587487
_cell_angle_alpha 152.844972
_cell_angle_beta 144.607895
_cell_angle_gamma 38.119913
_cell_volume 544.159024
_symmetry_space_group_name_H-M "P -1"
_symmetry_group_IT_number 2
_symmetry_cell_setting 'triclinic'
loop_
_space_group_symop_operation_xyz
x,y,z
-x,-y,-z
loop_
_atom_site_type_symbol
_atom_site_label
_atom_site_fract_x
_atom_site_fract_y
_atom_site_fract_z
Si Si1 0.088863 0.848648 0.928640
Si Si2 0.061071 0.343460 0.933761
Si Si3 0.760688 0.698193 0.463327
Si Si4 0.378966 0.924252 0.126615
Si Si5 0.336209 0.425189 0.123953
Si Si6 0.746978 0.254801 0.685211
Si Si7 0.283271 0.472593 0.632720
Si Si8 0.628963 0.041836 0.364471
O O1 0.984034 0.717648 0.629075
O O2 0.858618 0.964075 0.906514
O O3 0.215006 0.913863 0.289935
O O4 0.267624 0.809802 0.888387
O O5 0.864649 0.448137 0.872391
O O6 0.948934 0.240355 0.729165
O O7 0.251887 0.308538 0.920796
O O8 0.163314 0.433291 0.313166
O O9 0.794283 0.597679 0.433091
O O10 0.613783 0.851070 0.674566
O O11 0.596872 0.652923 0.113196
O O12 0.540409 0.909826 0.106785
O O13 0.500000 0.000000 0.500000
O O14 0.500000 0.500000 0.500000
O O15 0.534041 0.367770 0.641974
O O16 0.739008 0.095753 0.427926
O O17 0.756087 0.359852 0.030674
#
# Coordination Sequence:
#
# PCOD9081169 Si02
#       8
#     2   2   2   2   2   2   2   2
#     4   9  16  28  49  71 103 131 168 201 253 316
#     4  11  22  35  52  69  96 143 182 216 261 305
#     4  10  20  34  50  76  99 140 176 214 256 302
#     4   8  15  29  44  73 106 133 152 204 263 307
#     4  11  25  37  47  67 105 141 181 222 261 297
#     4  10  19  31  50  76 101 133 169 215 254 302
#     4  10  20  33  53  73 103 132 179 220 256 297
#     4   9  18  27  50  76 105 129 164 209 261 306
#
# _framework density 29.403171
#
# number of rings (size 3 to 8) (size 9 to 14) (size 15 to 20)
#    0.000    2.250    1.250    1.875    5.250    1.000 
#    0.000    0.000    0.000    0.000    0.000    0.875 
#    0.000  110.000    0.000   22.375    0.000    3.000 
#
# Total GULP energy -89395.996086 kJ/mol
# GULP energy per Si atom -5587.249755 kJ/mol
# Density = 2.933625 g / cm^3
# Si number density = 29.403171 Si / 1000 Ang^3
#
#
#
# Elastic Constant Matrix: (Units=GPa)
#
#
# Indices 1 2 3 4 5 6 
#
# 1 189.5700 50.8507 51.1831 15.9881 40.4203 53.2665
# 2 50.8507 109.9741 65.2270 1.9691 -3.3799 30.8931
# 3 51.1831 65.2270 176.1167 -25.1584 -9.0980 12.0558
# 4 15.9881 1.9691 -25.1584 51.6592 8.2216 6.1076
# 5 40.4203 -3.3799 -9.0980 8.2216 55.8390 5.9772
# 6 53.2665 30.8931 12.0558 6.1076 5.9772 65.4556
#
#
#
# Elastic Compliance Matrix: (Units=1/GPa)
#
#
# Indices 1 2 3 4 5 6 
#
# 1 0.009553 -0.001442 -0.002522 -0.002418 -0.006435 -0.005816
# 2 -0.001442 0.013849 -0.004603 -0.002098 0.001922 -0.004495
# 3 -0.002522 -0.004603 0.008751 0.004652 0.002075 0.001989
# 4 -0.002418 -0.002098 0.004652 0.022594 -0.000954 0.000080
# 5 -0.006435 0.001922 0.002075 -0.000954 0.022954 0.001940
# 6 -0.005816 -0.004495 0.001989 0.000080 0.001940 0.021581
#
#
# Mechanical properties :
#
#
# Convention : Reuss Voigt Hill
#
# Bulk Modulus (GPa) = 66.57917 90.02028 78.29972
# Shear Modulus (GPa) = 41.17874 55.15076 48.16475
#
# Velocity S-wave (km/s) = 3.74637 4.33560 4.05171
# Velocity P-wave (km/s) = 6.43478 7.46630 6.96965
#
# Compressibility (1/GPa) = 0.01501971
#
# Stress axis : x y z
#
# Youngs Moduli (GPa) = 104.68028 72.20674 114.26911
#
# Poissons Ratio (x) = 0.10414 0.28817
# Poissons Ratio (y) = 0.15097 0.52595
# Poissons Ratio (z) = 0.26399 0.33235
#
# Static dielectric constant tensor:
#      x y z
#    x 2.345980 0.012080 0.100000 
#    y 0.012080 2.377960 0.000700 
#    z 0.100000 0.000700 2.298910 
# 
# From -- ./inp_files/283312.got.cif
#   From: 2010.05.17/outbox.cif.g08.bks.cpg/sg2_142_cif.got.tgz:283312.got - 2010.06.03 11:33:40.
