data_PCOD9081908
_publ_section_title
;
Structure prediction by ZEFSAII (Michael W. Deem and Ramdas Pophale) SiO2 
 PCOD9081908
Probable space group: P -1
;
_chemical_formula_sum "Si O2"
_cell_formula_units_Z 16
_cell_length_a 21.774088
_cell_length_b 12.364485
_cell_length_c 9.209175
_cell_angle_alpha 128.831994
_cell_angle_beta 130.586018
_cell_angle_gamma 18.477480
_cell_volume 596.233189
_symmetry_space_group_name_H-M "P -1"
_symmetry_group_IT_number 2
_symmetry_cell_setting 'triclinic'
loop_
_space_group_symop_operation_xyz
x,y,z
-x,-y,-z
loop_
_atom_site_type_symbol
_atom_site_label
_atom_site_fract_x
_atom_site_fract_y
_atom_site_fract_z
Si Si1 0.099218 0.638630 0.028753
Si Si2 0.503238 0.669664 0.864929
Si Si3 0.368103 0.617206 0.728870
Si Si4 0.214719 0.370028 0.307053
Si Si5 0.316558 0.119253 0.719125
Si Si6 0.332090 0.435137 0.722404
Si Si7 0.738808 0.340361 0.689618
Si Si8 0.823515 0.809734 0.712390
O O1 0.251135 0.362843 0.898611
O O2 0.931096 0.788566 0.861536
O O3 0.159328 0.506056 0.175350
O O4 0.081718 0.833694 0.160613
O O5 0.408469 0.717245 0.878717
O O6 0.659796 0.374128 0.732813
O O7 0.322701 0.007537 0.773871
O O8 0.627029 0.593515 0.072540
O O9 0.274423 0.671513 0.755982
O O10 0.252434 0.766467 0.528410
O O11 0.592027 0.211256 0.712886
O O12 0.200302 0.518954 0.525379
O O13 0.106879 0.403583 0.233104
O O14 0.445184 0.962266 0.314500
O O15 0.180616 0.274806 0.512923
O O16 0.546757 0.745568 0.708084
#
# Coordination Sequence:
#
# PCOD9081908 Si02
#       8
#     2   2   2   2   2   2   2   2
#     4  12  19  37  53  81 109 137 172 213 273 311
#     4  10  20  33  59  77 106 135 179 220 257 297
#     4  10  19  38  53  79 105 138 180 216 254 307
#     4  10  20  34  53  80 110 132 177 213 269 306
#     4   9  21  34  54  82 103 138 171 221 261 307
#     4  10  19  32  57  84 100 135 176 227 253 303
#     4   9  20  32  57  79 100 139 173 221 255 300
#     4  10  23  33  55  77 112 141 166 215 263 323
#
# _framework density 26.835137
#
# number of rings (size 3 to 8) (size 9 to 14) (size 15 to 20)
#    0.750    1.250    2.500    1.875    3.500    0.000 
#    0.000    0.625    0.000    0.750    0.000    0.000 
#    0.000    0.000    0.000    0.000    0.000    0.000 
#
# Total GULP energy -89357.936776 kJ/mol
# GULP energy per Si atom -5584.871048 kJ/mol
# Density = 2.677406 g / cm^3
# Si number density = 26.835137 Si / 1000 Ang^3
#
#
#
# Elastic Constant Matrix: (Units=GPa)
#
#
# Indices 1 2 3 4 5 6 
#
# 1 119.3379 31.8521 24.2312 -18.6515 11.5786 19.7185
# 2 31.8521 45.8639 18.7065 -6.0384 4.9285 -6.2409
# 3 24.2312 18.7065 158.9005 -2.2192 7.5921 7.6114
# 4 -18.6515 -6.0384 -2.2192 16.0353 -1.1975 3.9857
# 5 11.5786 4.9285 7.5921 -1.1975 38.6999 -6.1394
# 6 19.7185 -6.2409 7.6114 3.9857 -6.1394 33.7623
#
#
#
# Elastic Compliance Matrix: (Units=1/GPa)
#
#
# Indices 1 2 3 4 5 6 
#
# 1 0.017587 -0.011105 -0.000075 0.019734 -0.005709 -0.015675
# 2 -0.011105 0.031758 -0.002867 -0.004667 0.001901 0.013899
# 3 -0.000075 -0.002867 0.006818 0.000248 -0.001305 -0.002290
# 4 0.019734 -0.004667 0.000248 0.089111 -0.006429 -0.024133
# 5 -0.005709 0.001901 -0.001305 -0.006429 0.028950 0.010003
# 6 -0.015675 0.013899 -0.002290 -0.024133 0.010003 0.046527
#
#
# Mechanical properties :
#
#
# Convention : Reuss Voigt Hill
#
# Bulk Modulus (GPa) = 35.62740 52.63131 44.12935
# Shear Modulus (GPa) = 19.36483 34.32034 26.84258
#
# Velocity S-wave (km/s) = 2.68922 3.58010 3.16615
# Velocity P-wave (km/s) = 4.79038 6.06175 5.46318
#
# Compressibility (1/GPa) = 0.02806829
#
# Stress axis : x y z
#
# Youngs Moduli (GPa) = 56.86051 31.48845 146.67554
#
# Poissons Ratio (x) = 0.34967 0.01106
# Poissons Ratio (y) = 0.63141 0.42053
# Poissons Ratio (z) = 0.00429 0.09028
#
# Static dielectric constant tensor:
#      x y z
#    x 2.103070 -0.048380 -0.002380 
#    y -0.048380 2.189600 0.006960 
#    z -0.002380 0.006960 2.013320 
# 
# From -- ./inp_files/203668.got.cif
#   From: 2010.05.17/outbox.cif.g08.bks.cpg/sg2_102_cif.got.tgz:203668.got - 2010.06.03 11:33:40.
