data_PCOD9081487
_publ_section_title
;
Structure prediction by ZEFSAII (Michael W. Deem and Ramdas Pophale) SiO2 
 PCOD9081487
Probable space group: P -1
;
_chemical_formula_sum "Si O2"
_cell_formula_units_Z 16
_cell_length_a 14.414558
_cell_length_b 14.992567
_cell_length_c 7.595824
_cell_angle_alpha 84.910058
_cell_angle_beta 49.806084
_cell_angle_gamma 126.909612
_cell_volume 627.619061
_symmetry_space_group_name_H-M "P -1"
_symmetry_group_IT_number 2
_symmetry_cell_setting 'triclinic'
loop_
_space_group_symop_operation_xyz
x,y,z
-x,-y,-z
loop_
_atom_site_type_symbol
_atom_site_label
_atom_site_fract_x
_atom_site_fract_y
_atom_site_fract_z
Si Si1 0.064881 0.954031 0.587533
Si Si2 0.436237 0.329769 0.729750
Si Si3 0.381939 0.628734 0.168358
Si Si4 0.519270 0.443814 0.221869
Si Si5 0.701186 0.049169 0.847639
Si Si6 0.513574 0.902333 0.461293
Si Si7 0.304518 0.760980 0.101207
Si Si8 0.991470 0.101845 0.953668
O O1 0.099228 0.900246 0.409590
O O2 0.994135 0.855009 0.870139
O O3 0.332587 0.164933 0.251835
O O4 0.840702 0.880004 0.861246
O O5 0.505322 0.376342 0.432419
O O6 0.412628 0.414684 0.821055
O O7 0.622827 0.399230 0.615914
O O8 0.342236 0.521191 0.104412
O O9 0.233314 0.623060 0.305509
O O10 0.243376 0.281782 0.521345
O O11 0.562652 0.953536 0.846688
O O12 0.813225 0.217228 0.726455
O O13 0.501816 0.894045 0.265972
O O14 0.337148 0.756863 0.857094
O O15 0.500000 0.000000 0.500000
O O16 0.759416 0.003161 0.178403
O O17 0.000000 0.000000 0.000000
#
# Coordination Sequence:
#
# PCOD9081487 Si02
#       8
#     2   2   2   2   2   2   2   2
#     4  10  20  34  55  82 115 138 181 233 273 323
#     4  10  23  36  52  83 107 150 183 214 283 338
#     4  11  19  34  56  80 110 140 179 234 276 319
#     4  10  22  38  53  76 116 147 178 225 274 334
#     4   9  18  31  51  74 113 141 177 221 273 329
#     4  10  19  32  50  76 112 146 175 217 279 331
#     4   9  18  33  48  79 108 140 178 224 273 320
#     4  11  19  34  56  82 110 141 179 232 276 314
#
# _framework density 25.493171
#
# number of rings (size 3 to 8) (size 9 to 14) (size 15 to 20)
#    0.000    2.000    3.750    0.750    1.750    6.000 
#    0.000    0.000    0.000    0.750    3.250    2.625 
#    0.000    0.000    0.000    0.000    0.000    0.000 
#
# Total GULP energy -89215.566804 kJ/mol
# GULP energy per Si atom -5575.972925 kJ/mol
# Density = 2.543515 g / cm^3
# Si number density = 25.493171 Si / 1000 Ang^3
#
#
#
# Elastic Constant Matrix: (Units=GPa)
#
#
# Indices 1 2 3 4 5 6 
#
# 1 131.4893 29.7626 32.4667 9.9576 10.3129 -21.6024
# 2 29.7626 98.4397 13.5893 19.7734 -8.6462 -24.6959
# 3 32.4667 13.5893 46.8532 15.2996 -5.5549 -2.4801
# 4 9.9576 19.7734 15.2996 35.4785 5.6898 -5.6797
# 5 10.3129 -8.6462 -5.5549 5.6898 40.3130 6.0348
# 6 -21.6024 -24.6959 -2.4801 -5.6797 6.0348 31.1394
#
#
#
# Elastic Compliance Matrix: (Units=1/GPa)
#
#
# Indices 1 2 3 4 5 6 
#
# 1 0.011819 -0.001593 -0.009344 0.003937 -0.006429 0.008156
# 2 -0.001593 0.014399 -0.000060 -0.006703 0.003165 0.008473
# 3 -0.009344 -0.000060 0.033442 -0.014799 0.010358 -0.008573
# 4 0.003937 -0.006703 -0.014799 0.039856 -0.010952 0.005628
# 5 -0.006429 0.003165 0.010358 -0.010952 0.031483 -0.009224
# 6 0.008156 0.008473 -0.008573 0.005628 -0.009224 0.046623
#
#
# Mechanical properties :
#
#
# Convention : Reuss Voigt Hill
#
# Bulk Modulus (GPa) = 26.54874 47.60214 37.07544
# Shear Modulus (GPa) = 23.56595 34.78376 29.17485
#
# Velocity S-wave (km/s) = 3.04370 3.69783 3.38660
# Velocity P-wave (km/s) = 4.77376 6.07824 5.46506
#
# Compressibility (1/GPa) = 0.03766657
#
# Stress axis : x y z
#
# Youngs Moduli (GPa) = 84.61029 69.45166 29.90234
#
# Poissons Ratio (x) = 0.11063 0.27940
# Poissons Ratio (y) = 0.13477 0.00179
# Poissons Ratio (z) = 0.79059 0.00415
#
# Static dielectric constant tensor:
#      x y z
#    x 2.158470 0.007260 0.035010 
#    y 0.007260 2.108650 -0.035710 
#    z 0.035010 -0.035710 2.021970 
# 
# From -- ./inp_files/335336.got.cif
#   From: 2010.05.17/outbox.cif.g08.bks.cpg/sg2_168_cif.got.tgz:335336.got - 2010.06.03 11:33:40.
