data_PCOD9081646
_publ_section_title
;
Structure prediction by ZEFSAII (Michael W. Deem and Ramdas Pophale) SiO2 
 PCOD9081646
Probable space group: P -1
;
_chemical_formula_sum "Si O2"
_cell_formula_units_Z 14
_cell_length_a 18.134920
_cell_length_b 8.336014
_cell_length_c 9.859345
_cell_angle_alpha 135.399032
_cell_angle_beta 145.221114
_cell_angle_gamma 41.123838
_cell_volume 541.587446
_symmetry_space_group_name_H-M "P -1"
_symmetry_group_IT_number 2
_symmetry_cell_setting 'triclinic'
loop_
_space_group_symop_operation_xyz
x,y,z
-x,-y,-z
loop_
_atom_site_type_symbol
_atom_site_label
_atom_site_fract_x
_atom_site_fract_y
_atom_site_fract_z
Si Si1 0.783564 0.607714 0.036638
Si Si2 0.691445 0.611019 0.364046
Si Si3 0.861905 0.089021 0.743716
Si Si4 0.515966 0.567472 0.716361
Si Si5 0.625077 0.158483 0.095206
Si Si6 0.921455 0.310120 0.315872
Si Si7 0.714204 0.057660 0.764477
O O1 0.905473 0.479867 0.257112
O O2 0.737090 0.877695 0.063456
O O3 0.649147 0.637318 0.945285
O O4 0.811430 0.388817 0.836758
O O5 0.672104 0.366187 0.234912
O O6 0.834128 0.495439 0.416396
O O7 0.711805 0.789939 0.617716
O O8 0.537060 0.779197 0.160956
O O9 0.749584 0.051524 0.652065
O O10 0.921272 0.919237 0.598858
O O11 0.000000 0.000000 0.000000
O O12 0.500000 0.500000 0.500000
O O13 0.390894 0.786850 0.734919
O O14 0.566864 0.302780 0.714603
O O15 0.827510 0.141951 0.055430
#
# Coordination Sequence:
#
# PCOD9081646 Si02
#       7
#     2   2   2   2   2   2   2
#     4   9  17  33  55  76 103 136 182 225 265 303
#     4  11  22  35  53  79 118 146 174 213 269 335
#     4   7  15  33  58  80 101 133 185 231 262 305
#     4  10  19  32  53  80 106 137 183 228 261 313
#     4  11  22  35  49  83 115 146 175 215 272 322
#     4   9  18  37  59  79 104 141 184 227 265 312
#     4   9  18  33  53  81 103 140 183 217 268 312
#
# _framework density 25.849933
#
# number of rings (size 3 to 8) (size 9 to 14) (size 15 to 20)
#    0.000    3.143    2.857    1.286    2.000    1.143 
#    2.571    0.714    0.000    7.714    0.000    0.000 
#    0.000    0.000    0.000    0.000    0.000    0.000 
#
# Total GULP energy -78094.400692 kJ/mol
# GULP energy per Si atom -5578.171478 kJ/mol
# Density = 2.579110 g / cm^3
# Si number density = 25.849933 Si / 1000 Ang^3
#
#
#
# Elastic Constant Matrix: (Units=GPa)
#
#
# Indices 1 2 3 4 5 6 
#
# 1 58.2841 25.7165 5.7903 -0.7170 3.2824 -22.0809
# 2 25.7165 171.4141 49.2609 48.0204 8.1040 -29.2448
# 3 5.7903 49.2609 56.2642 30.7296 -7.5118 -8.3228
# 4 -0.7170 48.0204 30.7296 54.7199 -7.1644 -3.3597
# 5 3.2824 8.1040 -7.5118 -7.1644 30.1095 3.7822
# 6 -22.0809 -29.2448 -8.3228 -3.3597 3.7822 34.9486
#
#
#
# Elastic Compliance Matrix: (Units=1/GPa)
#
#
# Indices 1 2 3 4 5 6 
#
# 1 0.023405 -0.001342 -0.000953 0.002409 -0.003621 0.014061
# 2 -0.001342 0.011223 -0.005619 -0.007167 -0.006894 0.007262
# 3 -0.000953 -0.005619 0.029573 -0.010849 0.006413 0.000002
# 4 0.002409 -0.007167 -0.010849 0.031312 0.007014 -0.004808
# 5 -0.003621 -0.006894 0.006413 0.007014 0.040011 -0.010185
# 6 0.014061 0.007262 0.000002 -0.004808 -0.010185 0.044214
#
#
# Mechanical properties :
#
#
# Convention : Reuss Voigt Hill
#
# Bulk Modulus (GPa) = 20.67305 49.72198 35.19751
# Shear Modulus (GPa) = 23.61943 37.63525 30.62734
#
# Velocity S-wave (km/s) = 3.02605 3.81978 3.44585
# Velocity P-wave (km/s) = 4.49711 6.22342 5.42931
#
# Compressibility (1/GPa) = 0.04837215
#
# Stress axis : x y z
#
# Youngs Moduli (GPa) = 42.72656 89.10363 33.81459
#
# Poissons Ratio (x) = 0.11960 0.03221
# Poissons Ratio (y) = 0.05735 0.19002
# Poissons Ratio (z) = 0.04070 0.50071
#
# Static dielectric constant tensor:
#      x y z
#    x 2.054020 0.001220 0.086730 
#    y 0.001220 2.171740 -0.160930 
#    z 0.086730 -0.160930 2.420380 
# 
# From -- ./inp_files/306162.got.cif
#   From: 2010.05.17/outbox.cif.g08.bks.cpg/sg2_154_cif.got.tgz:306162.got - 2010.06.03 11:33:40.
