data_PCOD9081977
_publ_section_title
;
Structure prediction by ZEFSAII (Michael W. Deem and Ramdas Pophale) SiO2 
 PCOD9081977
Probable space group: P -1
;
_chemical_formula_sum "Si O2"
_cell_formula_units_Z 15
_cell_length_a 11.484129
_cell_length_b 8.717837
_cell_length_c 12.995370
_cell_angle_alpha 103.975953
_cell_angle_beta 54.281696
_cell_angle_gamma 140.837400
_cell_volume 607.906134
_symmetry_space_group_name_H-M "P -1"
_symmetry_group_IT_number 2
_symmetry_cell_setting 'triclinic'
loop_
_space_group_symop_operation_xyz
x,y,z
-x,-y,-z
loop_
_atom_site_type_symbol
_atom_site_label
_atom_site_fract_x
_atom_site_fract_y
_atom_site_fract_z
Si Si1 0.500000 0.000000 0.000000
Si Si2 0.686795 0.790725 0.573247
Si Si3 0.561835 0.551443 0.162273
Si Si4 0.068397 0.174165 0.283811
Si Si5 0.329555 0.587215 0.554910
Si Si6 0.713017 0.994286 0.279334
Si Si7 0.933182 0.188833 0.834885
Si Si8 0.102730 0.419443 0.011671
O O1 0.349611 0.030387 0.061774
O O2 0.286223 0.716795 0.999331
O O3 0.593257 0.704097 0.723807
O O4 0.502521 0.728122 0.588336
O O5 0.668097 0.590696 0.516769
O O6 0.951993 0.078892 0.444179
O O7 0.355383 0.447385 0.182337
O O8 0.674219 0.792757 0.209503
O O9 0.777311 0.638951 0.020072
O O10 0.018563 0.954551 0.230126
O O11 0.910890 0.151557 0.292914
O O12 0.458179 0.803570 0.435206
O O13 0.064537 0.388575 0.701337
O O14 0.840947 0.215483 0.165278
O O15 0.054091 0.346839 0.905036
#
# Coordination Sequence:
#
# PCOD9081977 Si02
#       8
#     1   2   2   2   2   2   2   2
#     4  12  28  44  60  84 110 162 216 246 276 328
#     4   8  14  28  52  89 125 149 182 226 289 361
#     4  11  18  32  57  91 122 157 184 228 297 354
#     4  10  19  32  58  94 127 150 181 236 297 360
#     4   8  15  33  59  85 116 153 185 233 295 349
#     4  10  22  37  59  95 128 147 177 237 313 363
#     4  11  21  41  64  84 115 157 205 243 278 341
#     4  12  24  41  61  84 120 158 198 243 289 344
#
# _framework density 24.674863999999999
#
# number of rings (size 3 to 8) (size 9 to 14) (size 15 to 20)
#    0.000    1.867    4.000    2.800    0.000    1.600 
#    0.000    0.667    0.000    1.600    0.000    0.000 
#    0.000    0.000    0.000    0.000    0.000    0.000 
#
# Total GULP energy -83555.863219 kJ/mol
# GULP energy per Si atom -5570.390881 kJ/mol
# Density = 2.461870 g / cm^3
# Si number density = 24.674864 Si / 1000 Ang^3
#
#
#
# Elastic Constant Matrix: (Units=GPa)
#
#
# Indices 1 2 3 4 5 6 
#
# 1 25.1680 12.8776 13.3047 -6.4638 -4.5122 14.0421
# 2 12.8776 79.5217 17.5584 -1.6344 6.5242 17.5187
# 3 13.3047 17.5584 76.0617 -15.9308 31.6371 2.7433
# 4 -6.4638 -1.6344 -15.9308 24.3608 11.2414 -14.3529
# 5 -4.5122 6.5242 31.6371 11.2414 19.2907 0.5562
# 6 14.0421 17.5187 2.7433 -14.3529 0.5562 34.0462
#
#
#
# Elastic Compliance Matrix: (Units=1/GPa)
#
#
# Indices 1 2 3 4 5 6 
#
# 1 0.039118 -0.006171 0.013049 0.031501 -0.028514 -0.000264
# 2 -0.006171 0.015252 0.000231 -0.000807 -0.006350 -0.005558
# 3 0.013049 0.000231 -0.008769 -0.028279 0.034333 -0.017277
# 4 0.031501 -0.000807 -0.028279 -0.001712 0.055361 -0.011924
# 5 -0.028514 -0.006350 0.034333 0.055361 -0.042298 0.036291
# 6 -0.000264 -0.005558 -0.017277 -0.011924 0.036291 0.028113
#
#
# Mechanical properties :
#
#
# Convention : Reuss Voigt Hill
#
# Bulk Modulus (GPa) = 16.71678 29.80366 23.26022
# Shear Modulus (GPa) = 141.14019 24.67357 82.90688
#
# Velocity S-wave (km/s) = 7.57127 3.16563 5.80282
# Velocity P-wave (km/s) = 9.12260 5.04642 7.37184
#
# Compressibility (1/GPa) = 0.05982012
#
# Stress axis : x y z
#
# Youngs Moduli (GPa) = 25.56377 65.56367 -114.03705
#
# Poissons Ratio (x) = 0.40459 1.48811
# Poissons Ratio (y) = 0.15775 0.02636
# Poissons Ratio (z) = -0.33359 -0.01515
#
# Static dielectric constant tensor:
#      x y z
#    x 2.935290 -0.220760 -0.048270 
#    y -0.220760 1.971630 -0.004790 
#    z -0.048270 -0.004790 2.069180 
# 
# From -- ./inp_files/531883.got.cif
#   From: 2010.05.17/outbox.cif.g08.bks.cpg/sg2_266_cif.got.tgz:531883.got - 2010.06.03 11:33:40.
