data_PCOD9081933
_publ_section_title
;
Structure prediction by ZEFSAII (Michael W. Deem and Ramdas Pophale) SiO2 
 PCOD9081933
Probable space group: P -1
;
_chemical_formula_sum "Si O2"
_cell_formula_units_Z 14
_cell_length_a 7.529353
_cell_length_b 17.141445
_cell_length_c 5.623843
_cell_angle_alpha 91.904760
_cell_angle_beta 57.882429
_cell_angle_gamma 111.305770
_cell_volume 560.849106
_symmetry_space_group_name_H-M "P -1"
_symmetry_group_IT_number 2
_symmetry_cell_setting 'triclinic'
loop_
_space_group_symop_operation_xyz
x,y,z
-x,-y,-z
loop_
_atom_site_type_symbol
_atom_site_label
_atom_site_fract_x
_atom_site_fract_y
_atom_site_fract_z
Si Si1 0.431869 0.253472 0.952966
Si Si2 0.399881 0.560436 0.200033
Si Si3 0.561662 0.789803 0.550988
Si Si4 0.099112 0.834738 0.649267
Si Si5 0.141323 0.011433 0.649493
Si Si6 0.013656 0.748485 0.197500
Si Si7 0.043308 0.444587 0.760524
O O1 0.546259 0.247823 0.121207
O O2 0.173061 0.181663 0.145555
O O3 0.413149 0.343769 0.946797
O O4 0.553097 0.243806 0.625176
O O5 0.295507 0.509561 0.506648
O O6 0.172066 0.569133 0.260518
O O7 0.500000 0.500000 0.000000
O O8 0.772024 0.759223 0.381374
O O9 0.668913 0.891994 0.481591
O O10 0.119363 0.793996 0.378327
O O11 0.232379 0.936680 0.567776
O O12 0.133344 0.795745 0.872084
O O13 0.000000 0.000000 0.500000
O O14 0.000000 0.000000 0.000000
O O15 0.960551 0.648446 0.207387
O O16 0.000000 0.500000 0.000000
#
# Coordination Sequence:
#
# PCOD9081933 Si02
#       7
#     2   2   2   2   2   2   2
#     4  10  20  34  56  87 123 167 215 266 333 388
#     4  11  26  46  69  96 134 180 230 290 350 408
#     4  10  19  32  57  93 128 171 218 275 324 407
#     4  10  19  33  59  93 127 177 217 275 327 410
#     4  12  16  30  50  95 136 165 220 275 333 393
#     4  10  20  36  57  83 131 166 217 271 332 387
#     4  11  28  45  67 101 133 181 234 288 344 422
#
# _framework density 24.962147999999999
#
# number of rings (size 3 to 8) (size 9 to 14) (size 15 to 20)
#    0.000    1.429    5.714    1.714   10.000    0.571 
#    0.000    0.000    0.000    0.000    0.000   11.000 
#    0.000    0.000    0.000    0.000    0.000    0.143 
#
# Total GULP energy -78209.620152 kJ/mol
# GULP energy per Si atom -5586.401439 kJ/mol
# Density = 2.490533 g / cm^3
# Si number density = 24.962148 Si / 1000 Ang^3
#
#
#
# Elastic Constant Matrix: (Units=GPa)
#
#
# Indices 1 2 3 4 5 6 
#
# 1 93.1920 19.0891 18.8777 0.7870 34.6337 -24.9416
# 2 19.0891 208.3686 82.0256 -14.8053 39.1714 -21.5835
# 3 18.8777 82.0256 218.1990 23.3974 39.4025 -13.3343
# 4 0.7870 -14.8053 23.3974 49.0559 5.6594 5.3077
# 5 34.6337 39.1714 39.4025 5.6594 50.0868 -2.2296
# 6 -24.9416 -21.5835 -13.3343 5.3077 -2.2296 28.1202
#
#
#
# Elastic Compliance Matrix: (Units=1/GPa)
#
#
# Indices 1 2 3 4 5 6 
#
# 1 0.022118 0.002861 0.001569 -0.000489 -0.017766 0.021242
# 2 0.002861 0.007298 -0.001796 0.003074 -0.006344 0.006205
# 3 0.001569 -0.001796 0.006472 -0.003537 -0.004221 0.003416
# 4 -0.000489 0.003074 -0.003537 0.023733 -0.002161 -0.004402
# 5 -0.017766 -0.006344 -0.004221 -0.002161 0.039928 -0.019055
# 6 0.021242 0.006205 0.003416 -0.004402 -0.019055 0.060105
#
#
# Mechanical properties :
#
#
# Convention : Reuss Voigt Hill
#
# Bulk Modulus (GPa) = 24.29616 84.41603 54.35610
# Shear Modulus (GPa) = 29.74349 52.10372 40.92361
#
# Velocity S-wave (km/s) = 3.45562 4.57366 4.05338
# Velocity P-wave (km/s) = 5.06716 7.86017 6.61280
#
# Compressibility (1/GPa) = 0.04115876
#
# Stress axis : x y z
#
# Youngs Moduli (GPa) = 45.21132 137.02971 154.50127
#
# Poissons Ratio (x) = -0.39209 -0.24249
# Poissons Ratio (y) = -0.12936 0.27743
# Poissons Ratio (z) = -0.07096 0.24606
#
# Static dielectric constant tensor:
#      x y z
#    x 2.287120 -0.172670 -0.061560 
#    y -0.172670 1.983450 0.056010 
#    z -0.061560 0.056010 2.029890 
# 
# From -- ./inp_files/38364.got.cif
#   From: 2010.05.17/outbox.cif.g08.bks.cpg/sg2_20_cif.got.tgz:38364.got - 2010.06.03 11:33:40.
