data_PCOD9081150
_publ_section_title
;
Structure prediction by ZEFSAII (Michael W. Deem and Ramdas Pophale) SiO2 
 PCOD9081150
Probable space group: P -1
;
_chemical_formula_sum "Si O2"
_cell_formula_units_Z 14
_cell_length_a 13.403265
_cell_length_b 10.866947
_cell_length_c 7.899400
_cell_angle_alpha 71.194153
_cell_angle_beta 47.110779
_cell_angle_gamma 52.202172
_cell_volume 657.128843
_symmetry_space_group_name_H-M "P -1"
_symmetry_group_IT_number 2
_symmetry_cell_setting 'triclinic'
loop_
_space_group_symop_operation_xyz
x,y,z
-x,-y,-z
loop_
_atom_site_type_symbol
_atom_site_label
_atom_site_fract_x
_atom_site_fract_y
_atom_site_fract_z
Si Si1 0.994375 0.879123 0.828185
Si Si2 0.225541 0.967765 0.643096
Si Si3 0.627823 0.754161 0.029071
Si Si4 0.901508 0.454301 0.014340
Si Si5 0.812097 0.711428 0.493721
Si Si6 0.511752 0.838116 0.583856
Si Si7 0.679885 0.029222 0.918699
O O1 0.129142 0.919692 0.658873
O O2 0.081818 0.694254 0.848153
O O3 0.873655 0.943147 0.775946
O O4 0.878160 0.965104 0.089865
O O5 0.223598 0.115984 0.513071
O O6 0.409752 0.831633 0.552074
O O7 0.718987 0.603887 0.113549
O O8 0.739325 0.688994 0.757250
O O9 0.651752 0.888298 0.011736
O O10 0.434944 0.851026 0.152298
O O11 0.004164 0.394679 0.744229
O O12 0.000000 0.500000 0.000000
O O13 0.700767 0.714718 0.467215
O O14 0.500000 0.000000 0.500000
O O15 0.412343 0.863329 0.858428
#
# Coordination Sequence:
#
# PCOD9081150 Si02
#       7
#     2   2   2   2   2   2   2
#     4   9  16  30  50  74  97 128 165 201 241 290
#     4   8  15  28  51  74  97 124 166 205 239 287
#     4  10  19  31  49  75 102 128 160 205 246 289
#     4  11  20  31  51  74 101 130 162 205 245 289
#     4   9  18  31  49  76  98 129 162 201 249 285
#     4   8  14  26  49  76  94 119 162 208 238 276
#     4   9  17  30  48  72  98 128 165 198 244 284
#
# _framework density 21.304801999999999
#
# number of rings (size 3 to 8) (size 9 to 14) (size 15 to 20)
#    0.000    2.857    1.429    1.286    0.000    0.000 
#    0.000    0.714    0.000   24.000    0.000    0.000 
#    0.000    0.000    0.000    0.000    0.000    0.000 
#
# Total GULP energy -78005.250004 kJ/mol
# GULP energy per Si atom -5571.803572 kJ/mol
# Density = 2.125631 g / cm^3
# Si number density = 21.304802 Si / 1000 Ang^3
#
#
#
# Elastic Constant Matrix: (Units=GPa)
#
#
# Indices 1 2 3 4 5 6 
#
# 1 167.2695 81.2016 27.8883 -8.0149 -27.7766 -34.4581
# 2 81.2016 133.5290 32.5456 15.4041 -17.9566 -39.8455
# 3 27.8883 32.5456 57.3904 8.4481 -0.7105 -11.5583
# 4 -8.0149 15.4041 8.4481 25.4768 -1.4023 -2.0286
# 5 -27.7766 -17.9566 -0.7105 -1.4023 39.6979 8.1515
# 6 -34.4581 -39.8455 -11.5583 -2.0286 8.1515 33.8638
#
#
#
# Elastic Compliance Matrix: (Units=1/GPa)
#
#
# Indices 1 2 3 4 5 6 
#
# 1 0.010816 -0.005211 -0.002761 0.007992 0.004774 0.003261
# 2 -0.005211 0.016095 -0.002792 -0.009451 0.000802 0.011923
# 3 -0.002761 -0.002792 0.021592 -0.006391 -0.003385 0.001707
# 4 0.007992 -0.009451 -0.006391 0.049553 0.003582 -0.003064
# 5 0.004774 0.000802 -0.003385 0.003582 0.029415 -0.002220
# 6 0.003261 0.011923 0.001707 -0.003064 -0.002220 0.047810
#
#
# Mechanical properties :
#
#
# Convention : Reuss Voigt Hill
#
# Bulk Modulus (GPa) = 37.07361 71.27332 54.17347
# Shear Modulus (GPa) = 24.29522 34.24459 29.26990
#
# Velocity S-wave (km/s) = 3.38059 4.01354 3.71059
# Velocity P-wave (km/s) = 5.71639 7.41652 6.62125
#
# Compressibility (1/GPa) = 0.02697337
#
# Stress axis : x y z
#
# Youngs Moduli (GPa) = 92.45479 62.13298 46.31266
#
# Poissons Ratio (x) = 0.32379 0.12788
# Poissons Ratio (y) = 0.48180 0.12932
# Poissons Ratio (z) = 0.25529 0.17350
#
# Static dielectric constant tensor:
#      x y z
#    x 1.801100 -0.043100 0.046460 
#    y -0.043100 1.763320 0.028470 
#    z 0.046460 0.028470 1.843180 
# 
# From -- ./inp_files/203248.got.cif
#   From: 2010.05.17/outbox.cif.g08.bks.cpg/sg2_102_cif.got.tgz:203248.got - 2010.06.03 11:33:40.
