data_PCOD9081845
_publ_section_title
;
Structure prediction by ZEFSAII (Michael W. Deem and Ramdas Pophale) SiO2 
 PCOD9081845
Probable space group: P -1
;
_chemical_formula_sum "Si O2"
_cell_formula_units_Z 14
_cell_length_a 7.129710
_cell_length_b 26.274029
_cell_length_c 12.969966
_cell_angle_alpha 20.285474
_cell_angle_beta 116.499656
_cell_angle_gamma 130.516358
_cell_volume 502.879027
_symmetry_space_group_name_H-M "P -1"
_symmetry_group_IT_number 2
_symmetry_cell_setting 'triclinic'
loop_
_space_group_symop_operation_xyz
x,y,z
-x,-y,-z
loop_
_atom_site_type_symbol
_atom_site_label
_atom_site_fract_x
_atom_site_fract_y
_atom_site_fract_z
Si Si1 0.544484 0.317456 0.527495
Si Si2 0.056072 0.745839 0.330882
Si Si3 0.903236 0.002994 0.306671
Si Si4 0.963073 0.169572 0.597888
Si Si5 0.395669 0.831628 0.636513
Si Si6 0.463305 0.802209 0.943877
Si Si7 0.329628 0.438656 0.716918
O O1 0.768669 0.312903 0.542135
O O2 0.718053 0.525726 0.247050
O O3 0.308388 0.279940 0.465092
O O4 0.295461 0.097569 0.957967
O O5 0.081300 0.792188 0.369691
O O6 0.192068 0.944252 0.912960
O O7 0.687639 0.568592 0.553064
O O8 0.118198 0.206306 0.053921
O O9 0.586865 0.810515 0.658402
O O10 0.153306 0.012409 0.315430
O O11 0.891555 0.260244 0.327214
O O12 0.357613 0.770332 0.861643
O O13 0.604775 0.090167 0.209588
O O14 0.317406 0.580017 0.376685
#
# Coordination Sequence:
#
# PCOD9081845 Si02
#       7
#     2   2   2   2   2   2   2
#     4  10  19  33  55  81 113 145 185 235 275 317
#     4  10  19  32  56  82 111 145 181 234 281 315
#     4  11  22  36  58  87 114 144 185 230 278 333
#     4  10  20  33  51  84 113 143 186 234 272 329
#     4  11  22  36  56  84 118 147 180 228 286 327
#     4  10  21  37  54  82 116 149 184 224 277 335
#     4  10  21  37  57  87 114 141 189 229 273 335
#
# _framework density 27.839697999999999
#
# number of rings (size 3 to 8) (size 9 to 14) (size 15 to 20)
#    0.000    1.714    2.857    2.571    2.000    3.429 
#    0.000    0.000    0.000    7.714    0.000   21.000 
#    0.000    0.000    0.000    0.000    0.000    0.000 
#
# Total GULP energy -78549.848681 kJ/mol
# GULP energy per Si atom -5610.703477 kJ/mol
# Density = 2.777633 g / cm^3
# Si number density = 27.839698 Si / 1000 Ang^3
#
#
#
# Elastic Constant Matrix: (Units=GPa)
#
#
# Indices 1 2 3 4 5 6 
#
# 1 200.5912 42.1416 -1.3601 5.1073 16.6882 13.7611
# 2 42.1416 153.9912 14.4523 31.0262 5.4879 13.2232
# 3 -1.3601 14.4523 64.4540 10.3990 4.4511 5.2289
# 4 5.1073 31.0262 10.3990 39.1157 -6.6639 14.9616
# 5 16.6882 5.4879 4.4511 -6.6639 28.3568 -11.4779
# 6 13.7611 13.2232 5.2289 14.9616 -11.4779 39.2840
#
#
#
# Elastic Compliance Matrix: (Units=1/GPa)
#
#
# Indices 1 2 3 4 5 6 
#
# 1 0.005862 -0.001360 0.000916 0.000541 -0.004516 -0.003243
# 2 -0.001360 0.008369 -0.000645 -0.006520 -0.002448 -0.000487
# 3 0.000916 -0.000645 0.016857 -0.004074 -0.004922 -0.002234
# 4 0.000541 -0.006520 -0.004074 0.036455 0.006307 -0.009494
# 5 -0.004516 -0.002448 -0.004922 0.006307 0.046406 0.014217
# 6 -0.003243 -0.000487 -0.002234 -0.009494 0.014217 0.034823
#
#
# Mechanical properties :
#
#
# Convention : Reuss Voigt Hill
#
# Bulk Modulus (GPa) = 34.58798 58.83377 46.71088
# Shear Modulus (GPa) = 31.13612 45.60482 38.37047
#
# Velocity S-wave (km/s) = 3.34789 4.05176 3.71653
# Velocity P-wave (km/s) = 5.23406 6.56262 5.93563
#
# Compressibility (1/GPa) = 0.02891178
#
# Stress axis : x y z
#
# Youngs Moduli (GPa) = 170.60463 119.48602 59.32157
#
# Poissons Ratio (x) = 0.16245 -0.05435
# Poissons Ratio (y) = 0.23195 0.03825
# Poissons Ratio (z) = -0.15632 0.07704
#
# Static dielectric constant tensor:
#      x y z
#    x 2.125300 0.029480 -0.027870 
#    y 0.029480 2.169600 -0.036280 
#    z -0.027870 -0.036280 2.208360 
# 
# From -- ./inp_files/509140.got.cif
#   From: 2010.05.17/outbox.cif.g08.bks.cpg/sg2_255_cif.got.tgz:509140.got - 2010.06.03 11:33:40.
