data_PCOD9081702
_publ_section_title
;
Structure prediction by ZEFSAII (Michael W. Deem and Ramdas Pophale) SiO2 
 PCOD9081702
Probable space group: P -1
;
_chemical_formula_sum "Si O2"
_cell_formula_units_Z 16
_cell_length_a 9.102102
_cell_length_b 8.044521
_cell_length_c 12.429327
_cell_angle_alpha 122.202454
_cell_angle_beta 57.351411
_cell_angle_gamma 96.119794
_cell_volume 627.173695
_symmetry_space_group_name_H-M "P -1"
_symmetry_group_IT_number 2
_symmetry_cell_setting 'triclinic'
loop_
_space_group_symop_operation_xyz
x,y,z
-x,-y,-z
loop_
_atom_site_type_symbol
_atom_site_label
_atom_site_fract_x
_atom_site_fract_y
_atom_site_fract_z
Si Si1 0.435280 0.188914 0.504037
Si Si2 0.270850 0.157169 0.228305
Si Si3 0.296142 0.916116 0.327723
Si Si4 0.116169 0.751492 0.518832
Si Si5 0.373372 0.443835 0.941547
Si Si6 0.185833 0.888362 0.756622
Si Si7 0.510108 0.435719 0.272442
Si Si8 0.874295 0.758543 0.921946
O O1 0.288517 0.124242 0.466384
O O2 0.601991 0.193357 0.361375
O O3 0.395866 0.414939 0.645292
O O4 0.500000 0.000000 0.500000
O O5 0.279330 0.951325 0.219798
O O6 0.446029 0.227123 0.222234
O O7 0.247757 0.168751 0.112251
O O8 0.076990 0.287958 0.396025
O O9 0.149779 0.820745 0.409529
O O10 0.498252 0.775861 0.221615
O O11 0.125537 0.918124 0.665812
O O12 0.303173 0.580887 0.402029
O O13 0.369105 0.582568 0.888860
O O14 0.500000 0.500000 0.000000
O O15 0.191515 0.422614 0.060538
O O16 0.075402 0.733529 0.790685
O O17 0.146077 0.076501 0.917783
#
# Coordination Sequence:
#
# PCOD9081702 Si02
#       8
#     2   2   2   2   2   2   2   2
#     4  11  17  35  58  79 104 141 192 223 258 320
#     4  11  22  35  51  87 118 138 171 227 286 322
#     4  11  22  35  58  79 111 147 177 224 278 324
#     4   9  19  36  59  79 107 145 184 221 265 322
#     4  11  20  36  54  80 106 142 187 219 264 325
#     4   9  17  32  55  83  97 136 189 226 249 310
#     4  10  20  34  58  82 104 144 186 229 260 312
#     4  10  19  32  54  79 108 137 178 226 263 314
#
# _framework density 25.511275000000001
#
# number of rings (size 3 to 8) (size 9 to 14) (size 15 to 20)
#    0.000    1.750    6.250    0.750    0.000    1.000 
#    0.000    0.000    0.000    0.000    0.000    3.500 
#    0.000    0.000    0.000    0.000    0.000    0.000 
#
# Total GULP energy -89144.833168 kJ/mol
# GULP energy per Si atom -5571.552073 kJ/mol
# Density = 2.545321 g / cm^3
# Si number density = 25.511275 Si / 1000 Ang^3
#
#
#
# Elastic Constant Matrix: (Units=GPa)
#
#
# Indices 1 2 3 4 5 6 
#
# 1 52.3902 22.9610 13.0605 3.2616 8.9924 11.8394
# 2 22.9610 71.5684 53.9319 -14.8281 0.7588 36.1150
# 3 13.0605 53.9319 118.1877 -25.0562 11.7427 14.8914
# 4 3.2616 -14.8281 -25.0562 39.1526 14.0960 -9.3347
# 5 8.9924 0.7588 11.7427 14.0960 35.6052 -4.4708
# 6 11.8394 36.1150 14.8914 -9.3347 -4.4708 44.5795
#
#
#
# Elastic Compliance Matrix: (Units=1/GPa)
#
#
# Indices 1 2 3 4 5 6 
#
# 1 0.023870 -0.008919 0.001495 -0.002644 -0.005373 -0.000705
# 2 -0.008919 0.040684 -0.014833 -0.000600 0.003322 -0.025428
# 3 0.001495 -0.014833 0.017201 0.010151 -0.008860 0.007111
# 4 -0.002644 -0.000600 0.010151 0.039438 -0.017744 0.004276
# 5 -0.005373 0.003322 -0.008860 -0.017744 0.039564 0.001948
# 6 -0.000705 -0.025428 0.007111 0.004276 0.001948 0.041934
#
#
# Mechanical properties :
#
#
# Convention : Reuss Voigt Hill
#
# Bulk Modulus (GPa) = 26.85278 46.89478 36.87378
# Shear Modulus (GPa) = 19.25899 34.01366 26.63632
#
# Velocity S-wave (km/s) = 2.75056 3.65537 3.23476
# Velocity P-wave (km/s) = 4.54270 6.01976 5.33262
#
# Compressibility (1/GPa) = 0.03724010
#
# Stress axis : x y z
#
# Youngs Moduli (GPa) = 41.89311 24.57997 58.13626
#
# Poissons Ratio (x) = 0.21923 -0.08689
# Poissons Ratio (y) = 0.37365 0.86232
# Poissons Ratio (z) = -0.06261 0.36459
#
# Static dielectric constant tensor:
#      x y z
#    x 2.074210 -0.111590 0.052640 
#    y -0.111590 2.149750 0.019840 
#    z 0.052640 0.019840 2.076250 
# 
# From -- ./inp_files/252448.got.cif
#   From: 2010.05.17/outbox.cif.g08.bks.cpg/sg2_127_cif.got.tgz:252448.got - 2010.06.03 11:33:40.
