data_PCOD9081147
_publ_section_title
;
Structure prediction by ZEFSAII (Michael W. Deem and Ramdas Pophale) SiO2 
 PCOD9081147
Probable space group: P -1
;
_chemical_formula_sum "Si O2"
_cell_formula_units_Z 16
_cell_length_a 8.671416
_cell_length_b 18.041649
_cell_length_c 7.752467
_cell_angle_alpha 122.534863
_cell_angle_beta 91.101982
_cell_angle_gamma 121.200002
_cell_volume 796.536560
_symmetry_space_group_name_H-M "P -1"
_symmetry_group_IT_number 2
_symmetry_cell_setting 'triclinic'
loop_
_space_group_symop_operation_xyz
x,y,z
-x,-y,-z
loop_
_atom_site_type_symbol
_atom_site_label
_atom_site_fract_x
_atom_site_fract_y
_atom_site_fract_z
Si Si1 0.918860 0.344897 0.747188
Si Si2 0.763689 0.651702 0.053044
Si Si3 0.970731 0.092512 0.641891
Si Si4 0.984943 0.674102 0.739995
Si Si5 0.293692 0.912530 0.656783
Si Si6 0.381742 0.496282 0.657752
Si Si7 0.248294 0.924788 0.052230
Si Si8 0.876225 0.437712 0.197756
O O1 0.791886 0.217325 0.519801
O O2 0.127966 0.377269 0.853712
O O3 0.964313 0.437796 0.727542
O O4 0.825599 0.356760 0.931154
O O5 0.837153 0.778350 0.243322
O O6 0.868947 0.669582 0.895871
O O7 0.535125 0.548968 0.884162
O O8 0.798205 0.069384 0.485155
O O9 0.899849 0.082362 0.825415
O O10 0.000000 0.000000 0.500000
O O11 0.830738 0.628645 0.522348
O O12 0.035932 0.593921 0.694693
O O13 0.183233 0.799708 0.889048
O O14 0.529926 0.988845 0.765655
O O15 0.236046 0.942636 0.871093
O O16 0.500000 0.500000 0.500000
O O17 0.307821 0.571055 0.748203
#
# Coordination Sequence:
#
# PCOD9081147 Si02
#       8
#     2   2   2   2   2   2   2   2
#     4   9  19  36  54  78 110 142 182 231 277 323
#     4   8  18  34  51  76 109 147 183 217 276 338
#     4  10  21  37  58  83 115 150 185 233 282 331
#     4   9  18  34  54  79 110 143 183 230 273 320
#     4  10  21  38  60  83 112 149 189 234 280 331
#     4  10  19  31  49  74 107 142 178 221 270 327
#     4  10  21  38  61  85 111 149 191 230 281 336
#     4  10  19  32  55  80 108 144 184 228 275 329
#
# _framework density 20.086963999999998
#
# number of rings (size 3 to 8) (size 9 to 14) (size 15 to 20)
#    0.000    2.500    0.000    2.250    0.000    3.000 
#    0.000    1.250    0.000   10.500    0.000    0.000 
#    0.000    0.000    0.000    0.000    0.000    0.000 
#
# Total GULP energy -89079.173565 kJ/mol
# GULP energy per Si atom -5567.448348 kJ/mol
# Density = 2.004124 g / cm^3
# Si number density = 20.086964 Si / 1000 Ang^3
#
#
#
# Elastic Constant Matrix: (Units=GPa)
#
#
# Indices 1 2 3 4 5 6 
#
# 1 80.1101 23.8845 56.9242 10.2613 -7.5082 0.8051
# 2 23.8845 55.2433 37.1061 -4.1342 -1.6183 -0.7257
# 3 56.9242 37.1061 128.7666 10.1334 5.6539 0.1864
# 4 10.2613 -4.1342 10.1334 40.9407 8.3594 -6.3186
# 5 -7.5082 -1.6183 5.6539 8.3594 51.8795 1.7176
# 6 0.8051 -0.7257 0.1864 -6.3186 1.7176 23.4791
#
#
#
# Elastic Compliance Matrix: (Units=1/GPa)
#
#
# Indices 1 2 3 4 5 6 
#
# 1 0.020076 -0.003851 -0.007579 -0.004823 0.004467 -0.002372
# 2 -0.003851 0.023941 -0.005600 0.005147 -0.000106 0.002309
# 3 -0.007579 -0.005600 0.012948 -0.001404 -0.002449 -0.000215
# 4 -0.004823 0.005147 -0.001404 0.028901 -0.005323 0.008503
# 5 0.004467 -0.000106 -0.002449 -0.005323 0.021146 -0.003116
# 6 -0.002372 0.002309 -0.000215 0.008503 -0.003116 0.045262
#
#
# Mechanical properties :
#
#
# Convention : Reuss Voigt Hill
#
# Bulk Modulus (GPa) = 43.65670 55.54995 49.60332
# Shear Modulus (GPa) = 25.77723 33.00685 29.39204
#
# Velocity S-wave (km/s) = 3.58618 4.05804 3.82938
# Velocity P-wave (km/s) = 6.23928 7.04781 6.65583
#
# Compressibility (1/GPa) = 0.02290599
#
# Stress axis : x y z
#
# Youngs Moduli (GPa) = 49.80950 41.76988 77.22917
#
# Poissons Ratio (x) = 0.16085 0.58530
# Poissons Ratio (y) = 0.19181 0.43250
# Poissons Ratio (z) = 0.37749 0.23392
#
# Static dielectric constant tensor:
#      x y z
#    x 1.683730 0.026440 -0.009680 
#    y 0.026440 1.783250 -0.040270 
#    z -0.009680 -0.040270 1.803800 
# 
# From -- ./inp_files/215891.got.cif
#   From: 2010.05.17/outbox.cif.g08.bks.cpg/sg2_108_cif.got.tgz:215891.got - 2010.06.03 11:33:40.
