data_PCOD9081439
_publ_section_title
;
Structure prediction by ZEFSAII (Michael W. Deem and Ramdas Pophale) SiO2 
 PCOD9081439
Probable space group: P -1
;
_chemical_formula_sum "Si O2"
_cell_formula_units_Z 16
_cell_length_a 5.690883
_cell_length_b 12.288462
_cell_length_c 8.751720
_cell_angle_alpha 111.162146
_cell_angle_beta 80.998422
_cell_angle_gamma 85.817134
_cell_volume 558.131228
_symmetry_space_group_name_H-M "P -1"
_symmetry_group_IT_number 2
_symmetry_cell_setting 'triclinic'
loop_
_space_group_symop_operation_xyz
x,y,z
-x,-y,-z
loop_
_atom_site_type_symbol
_atom_site_label
_atom_site_fract_x
_atom_site_fract_y
_atom_site_fract_z
Si Si1 0.278743 0.479306 0.117084
Si Si2 0.766913 0.682620 0.223983
Si Si3 0.081847 0.767488 0.897127
Si Si4 0.215658 0.747908 0.320728
Si Si5 0.417351 0.245128 0.116926
Si Si6 0.573717 0.960904 0.796030
Si Si7 0.772089 0.491903 0.404326
Si Si8 0.890766 0.066291 0.306589
O O1 0.749778 0.594822 0.327625
O O2 0.496893 0.746061 0.253526
O O3 0.142855 0.404619 0.971299
O O4 0.359373 0.384940 0.190888
O O5 0.961486 0.771748 0.268756
O O6 0.500000 0.500000 0.000000
O O7 0.150118 0.638537 0.746716
O O8 0.095356 0.870611 0.826152
O O9 0.311402 0.778063 0.983941
O O10 0.802052 0.791281 0.975961
O O11 0.207337 0.606392 0.260679
O O12 0.166439 0.830517 0.513003
O O13 0.394314 0.182322 0.250490
O O14 0.352173 0.991961 0.719533
O O15 0.830763 0.992475 0.729842
O O16 0.500000 0.000000 0.000000
O O17 0.500000 0.500000 0.500000
O O18 0.000000 0.500000 0.500000
#
# Coordination Sequence:
#
# PCOD9081439 Si02
#       8
#     2   2   2   2   2   2   2   2
#     4  10  22  38  55  80 117 161 201 233 271 334
#     4  11  22  35  52  75 109 158 198 228 267 323
#     4  10  19  32  47  73 107 138 180 231 271 327
#     4  11  21  36  54  79 116 154 192 233 276 336
#     4  10  21  36  55  80 111 148 191 230 279 336
#     4  10  21  39  61  87 115 145 188 247 301 346
#     4  12  22  32  48  72 106 147 186 223 269 321
#     4  10  20  34  57  86 114 147 186 233 297 353
#
# _framework density 28.667096000000001
#
# number of rings (size 3 to 8) (size 9 to 14) (size 15 to 20)
#    0.000    1.500    0.000    6.750    0.000    4.000 
#    0.000    3.750    0.000    0.000    0.000   12.250 
#    0.000    0.000    0.000    0.000    0.000    0.000 
#
# Total GULP energy -89307.104525 kJ/mol
# GULP energy per Si atom -5581.694033 kJ/mol
# Density = 2.860185 g / cm^3
# Si number density = 28.667096 Si / 1000 Ang^3
#
#
#
# Elastic Constant Matrix: (Units=GPa)
#
#
# Indices 1 2 3 4 5 6 
#
# 1 348.9712 44.6103 82.5931 -2.0596 21.4278 -18.0830
# 2 44.6103 71.5262 25.5134 -3.1047 4.0545 -2.7622
# 3 82.5931 25.5134 161.5519 34.1875 13.5040 -25.7668
# 4 -2.0596 -3.1047 34.1875 28.3212 -18.9855 -0.8423
# 5 21.4278 4.0545 13.5040 -18.9855 55.2619 -12.1076
# 6 -18.0830 -2.7622 -25.7668 -0.8423 -12.1076 37.4504
#
#
#
# Elastic Compliance Matrix: (Units=1/GPa)
#
#
# Indices 1 2 3 4 5 6 
#
# 1 0.003579 -0.001292 -0.002287 0.003162 0.000410 0.000263
# 2 -0.001292 0.016484 -0.004293 0.008995 0.003183 -0.001130
# 3 -0.002287 -0.004293 0.015094 -0.025492 -0.010123 0.005118
# 4 0.003162 0.008995 -0.025492 0.090766 0.035097 -0.001960
# 5 0.000410 0.003183 -0.010123 0.035097 0.033338 0.005035
# 6 0.000263 -0.001130 0.005118 -0.001960 0.005035 0.031851
#
#
# Mechanical properties :
#
#
# Convention : Reuss Voigt Hill
#
# Bulk Modulus (GPa) = 51.51036 98.60922 75.05979
# Shear Modulus (GPa) = 23.43805 52.82886 38.13346
#
# Velocity S-wave (km/s) = 2.86246 4.29749 3.65117
# Velocity P-wave (km/s) = 5.37888 7.68747 6.63437
#
# Compressibility (1/GPa) = 0.01941357
#
# Stress axis : x y z
#
# Youngs Moduli (GPa) = 279.38910 60.66355 66.25012
#
# Poissons Ratio (x) = 0.07839 0.15154
# Poissons Ratio (y) = 0.36104 0.28438
# Poissons Ratio (z) = 0.63907 0.26040
#
# Static dielectric constant tensor:
#      x y z
#    x 2.409760 -0.083890 -0.009350 
#    y -0.083890 2.449350 0.099890 
#    z -0.009350 0.099890 2.344210 
# 
# From -- ./inp_files/369877.got.cif
#   From: 2010.05.17/outbox.cif.g08.bks.cpg/sg2_185_cif.got.tgz:369877.got - 2010.06.03 11:33:40.
