data_PCOD9081061
_publ_section_title
;
Structure prediction by ZEFSAII (Michael W. Deem and Ramdas Pophale) SiO2 
 PCOD9081061
Probable space group: P -1
;
_chemical_formula_sum "Si O2"
_cell_formula_units_Z 16
_cell_length_a 24.965087
_cell_length_b 7.720514
_cell_length_c 7.999830
_cell_angle_alpha 138.941581
_cell_angle_beta 130.592420
_cell_angle_gamma 44.607738
_cell_volume 689.213858
_symmetry_space_group_name_H-M "P -1"
_symmetry_group_IT_number 2
_symmetry_cell_setting 'triclinic'
loop_
_space_group_symop_operation_xyz
x,y,z
-x,-y,-z
loop_
_atom_site_type_symbol
_atom_site_label
_atom_site_fract_x
_atom_site_fract_y
_atom_site_fract_z
Si Si1 0.477095 0.145381 0.818164
Si Si2 0.245469 0.117256 0.879103
Si Si3 0.047634 0.050978 0.284825
Si Si4 0.704235 0.389504 0.650995
Si Si5 0.572875 0.551744 0.746252
Si Si6 0.946834 0.525224 0.654387
Si Si7 0.889131 0.553133 0.909610
Si Si8 0.394223 0.016962 0.292935
O O1 0.416754 0.027351 0.537748
O O2 0.547715 0.889351 0.879582
O O3 0.525529 0.175370 0.782383
O O4 0.431524 0.420735 0.043964
O O5 0.246667 0.430437 0.061248
O O6 0.172964 0.199692 0.918303
O O7 0.323348 0.960813 0.038753
O O8 0.254232 0.906857 0.587886
O O9 0.077282 0.265515 0.406323
O O10 0.982980 0.204595 0.410294
O O11 0.113648 0.753666 0.278231
O O12 0.000000 0.000000 0.000000
O O13 0.655008 0.356272 0.682375
O O14 0.638737 0.636405 0.577588
O O15 0.500000 0.500000 0.500000
O O16 0.886224 0.602342 0.740223
O O17 0.024932 0.512815 0.893162
#
# Coordination Sequence:
#
# PCOD9081061 Si02
#       8
#     2   2   2   2   2   2   2   2
#     4   9  17  33  54  83 103 144 191 242 292 339
#     4  10  21  38  59  79 115 155 199 233 296 367
#     4   9  18  35  57  88 121 146 188 256 297 349
#     4   9  21  37  57  78 114 151 194 237 288 362
#     4  10  19  30  57  81 110 143 194 246 294 350
#     4   9  19  35  60  92 116 145 208 247 292 358
#     4  10  20  34  63  85 113 164 197 244 302 355
#     4   8  18  34  56  78 111 145 193 237 291 348
#
# _framework density 23.214855
#
# number of rings (size 3 to 8) (size 9 to 14) (size 15 to 20)
#    0.750    2.000    0.000    1.125    3.500    1.000 
#    0.000    3.750   13.750    0.000    0.000    0.000 
#    0.000    0.000    0.000    0.000    0.000    0.000 
#
# Total GULP energy -89123.244804 kJ/mol
# GULP energy per Si atom -5570.202800 kJ/mol
# Density = 2.316202 g / cm^3
# Si number density = 23.214855 Si / 1000 Ang^3
#
#
#
# Elastic Constant Matrix: (Units=GPa)
#
#
# Indices 1 2 3 4 5 6 
#
# 1 131.2041 20.2227 59.7480 13.9177 -39.5170 -11.6076
# 2 20.2227 29.8233 13.2101 8.5156 -8.2860 -3.9308
# 3 59.7480 13.2101 141.8872 25.9193 -39.4460 -10.1343
# 4 13.9177 8.5156 25.9193 28.6246 -8.4455 -8.5813
# 5 -39.5170 -8.2860 -39.4460 -8.4455 44.0659 1.8368
# 6 -11.6076 -3.9308 -10.1343 -8.5813 1.8368 23.9513
#
#
#
# Elastic Compliance Matrix: (Units=1/GPa)
#
#
# Indices 1 2 3 4 5 6 
#
# 1 0.012006 -0.004748 -0.002386 0.001196 0.007806 0.003859
# 2 -0.004748 0.039788 0.000586 -0.009172 0.001947 0.001041
# 3 -0.002386 0.000586 0.011150 -0.006970 0.006588 0.000655
# 4 0.001196 -0.009172 -0.006970 0.047841 0.001730 0.013133
# 5 0.007806 0.001947 0.006588 0.001730 0.036091 0.004742
# 6 0.003859 0.001041 0.000655 0.013133 0.004742 0.048411
#
#
# Mechanical properties :
#
#
# Convention : Reuss Voigt Hill
#
# Bulk Modulus (GPa) = 20.06118 54.36403 37.21261
# Shear Modulus (GPa) = 22.22239 33.31060 27.76649
#
# Velocity S-wave (km/s) = 3.09730 3.79209 3.46217
# Velocity P-wave (km/s) = 4.63156 6.53008 5.66097
#
# Compressibility (1/GPa) = 0.04984751
#
# Stress axis : x y z
#
# Youngs Moduli (GPa) = 83.29310 25.13318 89.68919
#
# Poissons Ratio (x) = 0.11933 0.21402
# Poissons Ratio (y) = 0.39548 -0.05258
# Poissons Ratio (z) = 0.19876 -0.01473
#
# Static dielectric constant tensor:
#      x y z
#    x 2.004370 0.091090 0.073230 
#    y 0.091090 1.937700 0.068540 
#    z 0.073230 0.068540 1.936630 
# 
# From -- ./inp_files/351922.got.cif
#   From: 2010.05.17/outbox.cif.g08.bks.cpg/sg2_176_cif.got.tgz:351922.got - 2010.06.03 11:33:40.
