data_PCOD9081284
_publ_section_title
;
Structure prediction by ZEFSAII (Michael W. Deem and Ramdas Pophale) SiO2 
 PCOD9081284
Probable space group: P -1
;
_chemical_formula_sum "Si O2"
_cell_formula_units_Z 16
_cell_length_a 9.154594
_cell_length_b 16.104532
_cell_length_c 24.457223
_cell_angle_alpha 163.503859
_cell_angle_beta 130.584126
_cell_angle_gamma 45.890276
_cell_volume 732.628057
_symmetry_space_group_name_H-M "P -1"
_symmetry_group_IT_number 2
_symmetry_cell_setting 'triclinic'
loop_
_space_group_symop_operation_xyz
x,y,z
-x,-y,-z
loop_
_atom_site_type_symbol
_atom_site_label
_atom_site_fract_x
_atom_site_fract_y
_atom_site_fract_z
Si Si1 0.446514 0.883708 0.695104
Si Si2 0.870100 0.326021 0.148049
Si Si3 0.488587 0.521185 0.919050
Si Si4 0.225366 0.504982 0.552971
Si Si5 0.413436 0.947913 0.576041
Si Si6 0.790152 0.387791 0.609900
Si Si7 0.586357 0.026240 0.125820
Si Si8 0.445037 0.614955 0.270146
O O1 0.655229 0.660430 0.577439
O O2 0.276218 0.742785 0.544602
O O3 0.446715 0.923492 0.785001
O O4 0.413242 0.225842 0.878934
O O5 0.735626 0.285628 0.038247
O O6 0.691088 0.501047 0.256922
O O7 0.006639 0.531905 0.295502
O O8 0.000000 0.000000 0.000000
O O9 0.609597 0.352163 0.786745
O O10 0.452682 0.272912 0.793903
O O11 0.378344 0.308682 0.513164
O O12 0.233785 0.852906 0.773293
O O13 0.000000 0.500000 0.500000
O O14 0.238241 0.862670 0.512368
O O15 0.372250 0.902736 0.473840
O O16 0.616134 0.723617 0.791114
O O17 0.613996 0.669610 0.898749
#
# Coordination Sequence:
#
# PCOD9081284 Si02
#       8
#     2   2   2   2   2   2   2   2
#     4   9  18  36  60  73 107 149 180 223 267 327
#     4  10  19  34  55  86 105 133 192 225 258 323
#     4   9  20  36  59  77 106 152 190 210 265 334
#     4  10  22  34  53  86 110 136 180 229 283 315
#     4  10  21  36  55  76 115 149 173 224 279 325
#     4  10  19  31  53  85 109 137 181 224 281 312
#     4   9  17  35  54  78 106 144 182 220 270 329
#     4   9  19  34  58  76 107 146 183 221 267 323
#
# _framework density 21.839186000000002
#
# number of rings (size 3 to 8) (size 9 to 14) (size 15 to 20)
#    0.750    2.000    1.250    1.875    0.000    7.500 
#    2.250    0.000    2.750    2.250    0.000    0.000 
#    0.000    0.000    0.000    0.000    0.000    0.000 
#
# Total GULP energy -89165.796402 kJ/mol
# GULP energy per Si atom -5572.862275 kJ/mol
# Density = 2.178948 g / cm^3
# Si number density = 21.839186 Si / 1000 Ang^3
#
#
#
# Elastic Constant Matrix: (Units=GPa)
#
#
# Indices 1 2 3 4 5 6 
#
# 1 60.0371 13.5964 12.7522 -1.8551 33.0706 -5.5090
# 2 13.5964 43.7950 1.2951 8.9896 4.8905 10.1511
# 3 12.7522 1.2951 101.1486 11.5161 40.7809 4.0099
# 4 -1.8551 8.9896 11.5161 30.0627 8.0454 15.3838
# 5 33.0706 4.8905 40.7809 8.0454 43.4283 -2.6343
# 6 -5.5090 10.1511 4.0099 15.3838 -2.6343 25.1224
#
#
#
# Elastic Compliance Matrix: (Units=1/GPa)
#
#
# Indices 1 2 3 4 5 6 
#
# 1 0.040102 -0.010586 0.010397 0.013403 -0.041663 -0.001164
# 2 -0.010586 0.028992 -0.000176 -0.005558 0.005382 -0.010040
# 3 0.010397 -0.000176 0.019296 0.003420 -0.026994 -0.005654
# 4 0.013403 -0.005558 0.003420 0.058747 -0.025739 -0.034034
# 5 -0.041663 0.005382 -0.026994 -0.025739 0.085338 0.017708
# 6 -0.001164 -0.010040 -0.005654 -0.034034 0.017708 0.067207
#
#
# Mechanical properties :
#
#
# Convention : Reuss Voigt Hill
#
# Bulk Modulus (GPa) = 11.40749 28.91866 20.16308
# Shear Modulus (GPa) = 15.16844 31.54516 23.35680
#
# Velocity S-wave (km/s) = 2.63829 3.80469 3.27385
# Velocity P-wave (km/s) = 3.80993 5.70712 4.85215
#
# Compressibility (1/GPa) = 0.08766168
#
# Stress axis : x y z
#
# Youngs Moduli (GPa) = 24.93640 34.49170 51.82402
#
# Poissons Ratio (x) = 0.36514 -0.53884
# Poissons Ratio (y) = 0.26398 0.00910
# Poissons Ratio (z) = -0.25927 0.00606
#
# Static dielectric constant tensor:
#      x y z
#    x 1.804530 0.035780 0.003790 
#    y 0.035780 1.856180 0.001950 
#    z 0.003790 0.001950 1.835920 
# 
# From -- ./inp_files/607992.got.cif
#   From: 2010.05.17/outbox.cif.g08.bks.cpg/sg2_304_cif.got.tgz:607992.got - 2010.06.03 11:33:40.
