data_PCOD9081499
_publ_section_title
;
Structure prediction by ZEFSAII (Michael W. Deem and Ramdas Pophale) SiO2 
 PCOD9081499
Probable space group: P -1
;
_chemical_formula_sum "Si O2"
_cell_formula_units_Z 16
_cell_length_a 11.550646
_cell_length_b 12.554364
_cell_length_c 8.745244
_cell_angle_alpha 74.462148
_cell_angle_beta 64.481146
_cell_angle_gamma 51.131055
_cell_volume 891.036349
_symmetry_space_group_name_H-M "P -1"
_symmetry_group_IT_number 2
_symmetry_cell_setting 'triclinic'
loop_
_space_group_symop_operation_xyz
x,y,z
-x,-y,-z
loop_
_atom_site_type_symbol
_atom_site_label
_atom_site_fract_x
_atom_site_fract_y
_atom_site_fract_z
Si Si1 0.730651 0.843420 0.985740
Si Si2 0.055418 0.587747 0.364314
Si Si3 0.585228 0.565068 0.735311
Si Si4 0.853985 0.558720 0.950255
Si Si5 0.534898 0.615333 0.110023
Si Si6 0.453627 0.850978 0.546285
Si Si7 0.608944 0.101543 0.785678
Si Si8 0.242955 0.145703 0.682842
O O1 0.554615 0.884995 0.104529
O O2 0.800160 0.819706 0.126334
O O3 0.802033 0.711134 0.889473
O O4 0.732613 0.957607 0.851806
O O5 0.224389 0.535582 0.360709
O O6 0.096013 0.535060 0.187844
O O7 0.000000 0.500000 0.500000
O O8 0.911147 0.748340 0.373272
O O9 0.512035 0.482652 0.773699
O O10 0.501492 0.707245 0.638392
O O11 0.556467 0.602235 0.918865
O O12 0.701474 0.573851 0.100903
O O13 0.000000 0.500000 0.000000
O O14 0.409566 0.772548 0.167582
O O15 0.378351 0.885624 0.406708
O O16 0.619359 0.835362 0.445664
O O17 0.330266 0.984195 0.667489
#
# Coordination Sequence:
#
# PCOD9081499 Si02
#       8
#     2   2   2   2   2   2   2   2
#     4   9  17  31  51  75 106 134 171 219 264 311
#     4  11  21  32  54  81 112 138 173 220 272 309
#     4  10  20  37  55  78 107 145 179 216 258 322
#     4  10  19  33  55  81 106 135 177 220 266 312
#     4   9  20  35  57  75 106 141 182 212 260 318
#     4  10  20  31  53  79 109 139 176 217 268 315
#     4   9  18  31  51  78 101 135 177 218 261 309
#     4  10  19  32  50  80 109 138 173 219 268 316
#
# _framework density 17.956617999999999
#
# number of rings (size 3 to 8) (size 9 to 14) (size 15 to 20)
#    0.000    2.250    2.500    0.750    1.750    3.500 
#    0.000    0.000    2.750    3.750    0.000    0.000 
#    0.000    0.000    0.000    0.000    0.000    0.000 
#
# Total GULP energy -89110.578555 kJ/mol
# GULP energy per Si atom -5569.411160 kJ/mol
# Density = 1.791575 g / cm^3
# Si number density = 17.956618 Si / 1000 Ang^3
#
#
#
# Elastic Constant Matrix: (Units=GPa)
#
#
# Indices 1 2 3 4 5 6 
#
# 1 68.7370 52.2587 17.3634 -15.3484 -10.2421 6.0410
# 2 52.2587 136.3012 35.4828 -24.7714 -11.9048 2.7121
# 3 17.3634 35.4828 35.8677 -18.0140 -6.8946 -0.6259
# 4 -15.3484 -24.7714 -18.0140 32.9390 3.1499 0.2654
# 5 -10.2421 -11.9048 -6.8946 3.1499 14.4457 -2.6603
# 6 6.0410 2.7121 -0.6259 0.2654 -2.6603 26.4031
#
#
#
# Elastic Compliance Matrix: (Units=1/GPa)
#
#
# Indices 1 2 3 4 5 6 
#
# 1 0.022429 -0.006936 -0.000272 0.004308 0.008451 -0.003617
# 2 -0.006936 0.012460 -0.007858 0.001718 0.001268 0.000231
# 3 -0.000272 -0.007858 0.047712 0.018831 0.012564 0.003077
# 4 0.004308 0.001718 0.018831 0.043599 0.003809 -0.000770
# 5 0.008451 0.001268 0.012564 0.003809 0.082629 0.006521
# 6 -0.003617 0.000231 0.003077 -0.000770 0.006521 0.039416
#
#
# Mechanical properties :
#
#
# Convention : Reuss Voigt Hill
#
# Bulk Modulus (GPa) = 19.05858 50.12394 34.59126
# Shear Modulus (GPa) = 16.89962 23.81096 20.35529
#
# Velocity S-wave (km/s) = 3.07112 3.64542 3.37052
# Velocity P-wave (km/s) = 4.81793 6.75968 5.86965
#
# Compressibility (1/GPa) = 0.05246982
#
# Stress axis : x y z
#
# Youngs Moduli (GPa) = 44.58539 80.25744 20.95924
#
# Poissons Ratio (x) = 0.55664 0.00569
# Poissons Ratio (y) = 0.30923 0.16470
# Poissons Ratio (z) = 0.01211 0.63066
#
# Static dielectric constant tensor:
#      x y z
#    x 1.618710 -0.026780 0.006010 
#    y -0.026780 1.653540 0.031600 
#    z 0.006010 0.031600 1.645720 
# 
# From -- ./inp_files/252125.got.cif
#   From: 2010.05.17/outbox.cif.g08.bks.cpg/sg2_127_cif.got.tgz:252125.got - 2010.06.03 11:33:40.
