data_PCOD9081429
_publ_section_title
;
Structure prediction by ZEFSAII (Michael W. Deem and Ramdas Pophale) SiO2 
 PCOD9081429
Probable space group: P -1
;
_chemical_formula_sum "Si O2"
_cell_formula_units_Z 14
_cell_length_a 11.598229
_cell_length_b 11.678844
_cell_length_c 8.122816
_cell_angle_alpha 111.999860
_cell_angle_beta 105.430456
_cell_angle_gamma 128.480664
_cell_volume 579.751539
_symmetry_space_group_name_H-M "P -1"
_symmetry_group_IT_number 2
_symmetry_cell_setting 'triclinic'
loop_
_space_group_symop_operation_xyz
x,y,z
-x,-y,-z
loop_
_atom_site_type_symbol
_atom_site_label
_atom_site_fract_x
_atom_site_fract_y
_atom_site_fract_z
Si Si1 0.618033 0.411441 0.957860
Si Si2 0.760335 0.794908 0.150560
Si Si3 0.579399 0.390469 0.300344
Si Si4 0.045767 0.142309 0.226883
Si Si5 0.154406 0.764190 0.856232
Si Si6 0.241524 0.722926 0.198795
Si Si7 0.283535 0.738881 0.578409
O O1 0.383947 0.263526 0.796962
O O2 0.672728 0.425977 0.176784
O O3 0.749898 0.639769 0.080069
O O4 0.659000 0.327701 0.819717
O O5 0.628480 0.722088 0.898494
O O6 0.977078 0.033199 0.321388
O O7 0.576869 0.264985 0.339133
O O8 0.725985 0.616436 0.551005
O O9 0.914243 0.153132 0.141581
O O10 0.000000 0.000000 0.000000
O O11 0.279879 0.828913 0.778084
O O12 0.943480 0.510656 0.642114
O O13 0.266004 0.825281 0.101028
O O14 0.309867 0.826132 0.459258
O O15 0.000000 0.500000 0.000000
#
# Coordination Sequence:
#
# PCOD9081429 Si02
#       7
#     2   2   2   2   2   2   2
#     4   9  19  40  60  91 124 164 207 254 316 364
#     4   9  21  40  61  89 127 168 199 258 315 365
#     4   9  19  40  62  87 121 165 203 249 314 362
#     4  11  24  37  60  95 123 166 210 250 313 378
#     4   9  18  36  54  88 125 152 205 255 309 360
#     4  10  19  31  63  93 118 160 213 259 299 371
#     4   9  17  32  61  89 115 163 205 250 307 364
#
# _framework density 24.148278000000001
#
# number of rings (size 3 to 8) (size 9 to 14) (size 15 to 20)
#    0.857    1.714    1.429    0.000    8.000    1.143 
#    0.000    4.286    0.000    1.714    0.000    0.000 
#    0.000    0.000    0.000    0.000    0.000    0.000 
#
# Total GULP energy -78266.315356 kJ/mol
# GULP energy per Si atom -5590.451097 kJ/mol
# Density = 2.409332 g / cm^3
# Si number density = 24.148278 Si / 1000 Ang^3
#
#
#
# Elastic Constant Matrix: (Units=GPa)
#
#
# Indices 1 2 3 4 5 6 
#
# 1 70.9003 41.6017 23.8201 8.4337 -13.9016 -1.6845
# 2 41.6017 115.2668 39.7537 -20.8835 -15.7026 -15.5253
# 3 23.8201 39.7537 80.5873 -6.6917 -1.0677 8.0488
# 4 8.4337 -20.8835 -6.6917 47.1952 3.8471 2.8583
# 5 -13.9016 -15.7026 -1.0677 3.8471 36.5095 -5.4586
# 6 -1.6845 -15.5253 8.0488 2.8583 -5.4586 23.9436
#
#
#
# Elastic Compliance Matrix: (Units=1/GPa)
#
#
# Indices 1 2 3 4 5 6 
#
# 1 0.021631 -0.007229 -0.003448 -0.008054 0.005920 0.000304
# 2 -0.007229 0.017790 -0.007404 0.006765 0.006076 0.014093
# 3 -0.003448 -0.007404 0.018373 0.001204 -0.005990 -0.012729
# 4 -0.008054 0.006765 0.001204 0.026052 -0.002921 -0.000361
# 5 0.005920 0.006076 -0.005990 -0.002921 0.034573 0.014601
# 6 0.000304 0.014093 -0.012729 -0.000361 0.014601 0.058575
#
#
# Mechanical properties :
#
#
# Convention : Reuss Voigt Hill
#
# Bulk Modulus (GPa) = 46.23258 53.01169 49.62214
# Shear Modulus (GPa) = 22.68934 32.30160 27.49547
#
# Velocity S-wave (km/s) = 3.06859 3.66134 3.37799
# Velocity P-wave (km/s) = 5.63399 6.31459 5.98398
#
# Compressibility (1/GPa) = 0.02162977
#
# Stress axis : x y z
#
# Youngs Moduli (GPa) = 46.23032 56.21119 54.42890
#
# Poissons Ratio (x) = 0.40637 0.18768
# Poissons Ratio (y) = 0.33422 0.40301
# Poissons Ratio (z) = 0.15941 0.41620
#
# Static dielectric constant tensor:
#      x y z
#    x 1.902690 0.098380 0.052770 
#    y 0.098380 1.973010 -0.009620 
#    z 0.052770 -0.009620 1.974170 
# 
# From -- ./inp_files/250412.got.cif
#   From: 2010.05.17/outbox.cif.g08.bks.cpg/sg2_126_cif.got.tgz:250412.got - 2010.06.03 11:33:40.
