data_PCOD9081958
_publ_section_title
;
Structure prediction by ZEFSAII (Michael W. Deem and Ramdas Pophale) SiO2 
 PCOD9081958
Probable space group: P -1
;
_chemical_formula_sum "Si O2"
_cell_formula_units_Z 16
_cell_length_a 21.729374
_cell_length_b 7.287045
_cell_length_c 7.565232
_cell_angle_alpha 122.979149
_cell_angle_beta 118.519220
_cell_angle_gamma 40.514932
_cell_volume 648.352296
_symmetry_space_group_name_H-M "P -1"
_symmetry_group_IT_number 2
_symmetry_cell_setting 'triclinic'
loop_
_space_group_symop_operation_xyz
x,y,z
-x,-y,-z
loop_
_atom_site_type_symbol
_atom_site_label
_atom_site_fract_x
_atom_site_fract_y
_atom_site_fract_z
Si Si1 0.793424 0.638491 0.767662
Si Si2 0.146790 0.151650 0.318962
Si Si3 0.968156 0.393014 0.051990
Si Si4 0.731925 0.493975 0.044470
Si Si5 0.395974 0.378241 0.735203
Si Si6 0.610234 0.937610 0.776778
Si Si7 0.793528 0.124412 0.387734
Si Si8 0.917569 0.112075 0.302281
O O1 0.841801 0.653012 0.675476
O O2 0.857397 0.571353 0.986657
O O3 0.684875 0.947361 0.797285
O O4 0.794409 0.375716 0.596813
O O5 0.180089 0.085607 0.528430
O O6 0.035689 0.319697 0.264072
O O7 0.212960 0.833733 0.138217
O O8 0.016973 0.070904 0.872788
O O9 0.000000 0.500000 0.000000
O O10 0.651926 0.622604 0.154921
O O11 0.820398 0.414050 0.234332
O O12 0.671788 0.722729 0.917608
O O13 0.401191 0.209346 0.480052
O O14 0.311376 0.717260 0.737040
O O15 0.503534 0.228028 0.835595
O O16 0.868791 0.000900 0.270391
O O17 0.000000 0.000000 0.500000
#
# Coordination Sequence:
#
# PCOD9081958 Si02
#       8
#     2   2   2   2   2   2   2   2
#     4  10  19  34  56  79 114 147 191 234 279 341
#     4  10  20  35  56  83 112 153 185 227 293 342
#     4   9  19  34  54  80 119 152 182 239 287 333
#     4  10  19  34  59  82 112 153 187 232 293 344
#     4   9  19  34  60  82 114 144 191 242 285 339
#     4  10  19  36  59  84 109 153 188 237 295 332
#     4  10  19  36  58  80 113 153 185 237 288 333
#     4  10  19  32  58  87 114 150 199 239 275 347
#
# _framework density 24.677942999999999
#
# number of rings (size 3 to 8) (size 9 to 14) (size 15 to 20)
#    0.000    2.250    3.750    0.375    0.000    1.500 
#    0.000    3.750   33.000    0.000    0.000    0.000 
#    0.000    0.000    0.000    0.000    0.000    0.000 
#
# Total GULP energy -89096.235389 kJ/mol
# GULP energy per Si atom -5568.514712 kJ/mol
# Density = 2.462177 g / cm^3
# Si number density = 24.677943 Si / 1000 Ang^3
#
#
#
# Elastic Constant Matrix: (Units=GPa)
#
#
# Indices 1 2 3 4 5 6 
#
# 1 93.9665 72.7996 47.3280 -30.5028 3.4577 -27.0553
# 2 72.7996 104.1305 57.2967 -27.2305 18.7716 -44.5130
# 3 47.3280 57.2967 131.4193 -22.1175 -13.0839 -12.8579
# 4 -30.5028 -27.2305 -22.1175 47.6151 -4.6622 15.4761
# 5 3.4577 18.7716 -13.0839 -4.6622 46.2044 -17.4903
# 6 -27.0553 -44.5130 -12.8579 15.4761 -17.4903 59.3064
#
#
#
# Elastic Compliance Matrix: (Units=1/GPa)
#
#
# Indices 1 2 3 4 5 6 
#
# 1 0.026718 -0.018682 0.000176 0.007767 0.005603 -0.002170
# 2 -0.018682 0.033939 -0.008070 -0.001386 -0.010046 0.012600
# 3 0.000176 -0.008070 0.011830 0.002310 0.005999 -0.002245
# 4 0.007767 -0.001386 0.002310 0.027629 0.002062 -0.003598
# 5 0.005603 -0.010046 0.005999 0.002062 0.028832 0.004282
# 6 -0.002170 0.012600 -0.002245 -0.003598 0.004282 0.027044
#
#
# Mechanical properties :
#
#
# Convention : Reuss Voigt Hill
#
# Bulk Modulus (GPa) = 51.71710 76.04052 63.87881
# Shear Modulus (GPa) = 23.19222 40.76464 31.97843
#
# Velocity S-wave (km/s) = 3.06893 4.06872 3.60367
# Velocity P-wave (km/s) = 5.79311 7.27686 6.57696
#
# Compressibility (1/GPa) = 0.01933596
#
# Stress axis : x y z
#
# Youngs Moduli (GPa) = 37.42856 29.46431 84.52787
#
# Poissons Ratio (x) = 0.55045 -0.01487
# Poissons Ratio (y) = 0.69924 0.68211
# Poissons Ratio (z) = -0.00659 0.23777
#
# Static dielectric constant tensor:
#      x y z
#    x 1.949780 0.025670 0.018980 
#    y 0.025670 2.198240 0.161130 
#    z 0.018980 0.161130 2.070210 
# 
# From -- ./inp_files/351474.got.cif
#   From: 2010.05.17/outbox.cif.g08.bks.cpg/sg2_176_cif.got.tgz:351474.got - 2010.06.03 11:33:40.
