data_PCOD9081769
_publ_section_title
;
Structure prediction by ZEFSAII (Michael W. Deem and Ramdas Pophale) SiO2 
 PCOD9081769
Probable space group: P -1
;
_chemical_formula_sum "Si O2"
_cell_formula_units_Z 14
_cell_length_a 8.674964
_cell_length_b 15.792270
_cell_length_c 19.469220
_cell_angle_alpha 161.200109
_cell_angle_beta 57.878067
_cell_angle_gamma 121.812088
_cell_volume 725.202589
_symmetry_space_group_name_H-M "P -1"
_symmetry_group_IT_number 2
_symmetry_cell_setting 'triclinic'
loop_
_space_group_symop_operation_xyz
x,y,z
-x,-y,-z
loop_
_atom_site_type_symbol
_atom_site_label
_atom_site_fract_x
_atom_site_fract_y
_atom_site_fract_z
Si Si1 0.813666 0.363443 0.787307
Si Si2 0.329765 0.713872 0.091823
Si Si3 0.299501 0.106983 0.629245
Si Si4 0.719525 0.789042 0.023303
Si Si5 0.115346 0.269328 0.202906
Si Si6 0.025846 0.829622 0.154202
Si Si7 0.949572 0.803064 0.690901
O O1 0.678988 0.310493 0.842842
O O2 0.744422 0.550323 0.887310
O O3 0.826475 0.080102 0.534466
O O4 0.990206 0.533187 0.905637
O O5 0.153647 0.828035 0.188679
O O6 0.324821 0.410852 0.835548
O O7 0.515821 0.867360 0.141176
O O8 0.178555 0.097985 0.720998
O O9 0.500000 0.000000 0.500000
O O10 0.749417 0.689620 0.862221
O O11 0.867494 0.027469 0.193337
O O12 0.998221 0.521728 0.433993
O O13 0.178432 0.228972 0.235826
O O14 0.000000 0.000000 0.000000
O O15 0.110628 0.022624 0.223849
#
# Coordination Sequence:
#
# PCOD9081769 Si02
#       7
#     2   2   2   2   2   2   2
#     4  10  20  35  54  76 109 151 185 219 258 312
#     4  11  23  35  50  83 118 145 179 224 268 317
#     4  11  21  33  56  79 106 151 192 219 255 315
#     4  10  19  32  55  80 105 140 183 224 259 320
#     4   9  18  35  58  85  99 128 186 229 264 318
#     4  10  23  37  52  80 116 145 178 223 274 320
#     4   9  19  35  59  78 104 139 177 225 274 316
#
# _framework density 19.304949000000001
#
# number of rings (size 3 to 8) (size 9 to 14) (size 15 to 20)
#    0.000    2.000    1.429    3.000    4.000    2.286 
#    0.000    0.714    0.000    7.714    0.000    0.000 
#    0.000    0.000    0.000    0.000    0.000    0.000 
#
# Total GULP energy -77972.430422 kJ/mol
# GULP energy per Si atom -5569.459316 kJ/mol
# Density = 1.926101 g / cm^3
# Si number density = 19.304949 Si / 1000 Ang^3
#
#
#
# Elastic Constant Matrix: (Units=GPa)
#
#
# Indices 1 2 3 4 5 6 
#
# 1 48.9521 38.1128 8.1484 -9.1668 -8.9542 -2.3184
# 2 38.1128 126.1092 22.5305 -21.1835 -4.2821 -19.8248
# 3 8.1484 22.5305 97.5296 -7.3355 14.7179 -7.3099
# 4 -9.1668 -21.1835 -7.3355 20.2196 0.4324 2.2786
# 5 -8.9542 -4.2821 14.7179 0.4324 21.7306 0.8193
# 6 -2.3184 -19.8248 -7.3099 2.2786 0.8193 10.3962
#
#
#
# Elastic Compliance Matrix: (Units=1/GPa)
#
#
# Indices 1 2 3 4 5 6 
#
# 1 0.031625 -0.010620 -0.003291 0.003685 0.013751 -0.017404
# 2 -0.010620 0.017216 0.000170 0.010117 -0.002376 0.028550
# 3 -0.003291 0.000170 0.012935 0.002594 -0.010472 0.008941
# 4 0.003685 0.010117 0.002594 0.061717 0.000210 0.008395
# 5 0.013751 -0.002376 -0.010472 0.000210 0.058813 -0.013509
# 6 -0.017404 0.028550 0.008941 0.008395 -0.013509 0.152263
#
#
# Mechanical properties :
#
#
# Convention : Reuss Voigt Hill
#
# Bulk Modulus (GPa) = 29.16095 45.57491 37.36793
# Shear Modulus (GPa) = 13.38747 24.05590 18.72169
#
# Velocity S-wave (km/s) = 2.63625 3.53384 3.11752
# Velocity P-wave (km/s) = 4.94010 6.34901 5.68834
#
# Compressibility (1/GPa) = 0.03429243
#
# Stress axis : x y z
#
# Youngs Moduli (GPa) = 31.62019 58.08597 77.31162
#
# Poissons Ratio (x) = 0.61687 0.25445
# Poissons Ratio (y) = 0.33581 -0.01311
# Poissons Ratio (z) = 0.10407 -0.00985
#
# Static dielectric constant tensor:
#      x y z
#    x 1.681670 -0.007490 0.017170 
#    y -0.007490 1.735730 -0.011650 
#    z 0.017170 -0.011650 1.690330 
# 
# From -- ./inp_files/74657.got.cif
#   From: 2010.05.17/outbox.cif.g08.bks.cpg/sg2_38_cif.got.tgz:74657.got - 2010.06.03 11:33:40.
