data_PCOD9081626
_publ_section_title
;
Structure prediction by ZEFSAII (Michael W. Deem and Ramdas Pophale) SiO2 
 PCOD9081626
Probable space group: P -1
;
_chemical_formula_sum "Si O2"
_cell_formula_units_Z 16
_cell_length_a 9.609957
_cell_length_b 17.350859
_cell_length_c 11.779306
_cell_angle_alpha 31.764709
_cell_angle_beta 109.805199
_cell_angle_gamma 130.334538
_cell_volume 669.834975
_symmetry_space_group_name_H-M "P -1"
_symmetry_group_IT_number 2
_symmetry_cell_setting 'triclinic'
loop_
_space_group_symop_operation_xyz
x,y,z
-x,-y,-z
loop_
_atom_site_type_symbol
_atom_site_label
_atom_site_fract_x
_atom_site_fract_y
_atom_site_fract_z
Si Si1 0.451300 0.836216 0.780262
Si Si2 0.373126 0.272965 0.193599
Si Si3 0.686922 0.818138 0.241505
Si Si4 0.380305 0.963034 0.194356
Si Si5 0.184207 0.369281 0.612908
Si Si6 0.533859 0.761724 0.503341
Si Si7 0.867289 0.715734 0.035267
Si Si8 0.146498 0.639033 0.145482
O O1 0.485055 0.710782 0.880025
O O2 0.623555 0.983117 0.744990
O O3 0.500000 0.000000 0.500000
O O4 0.228812 0.677931 0.989277
O O5 0.359100 0.156046 0.446505
O O6 0.500000 0.500000 0.000000
O O7 0.152456 0.160451 0.210364
O O8 0.436105 0.598317 0.416576
O O9 0.812740 0.765348 0.302961
O O10 0.702510 0.867915 0.315898
O O11 0.737146 0.001576 0.956435
O O12 0.372535 0.783106 0.414520
O O13 0.632437 0.159801 0.981689
O O14 0.108187 0.260543 0.852104
O O15 0.078521 0.437511 0.438727
O O16 0.382060 0.514341 0.754556
O O17 0.999286 0.674403 0.073390
#
# Coordination Sequence:
#
# PCOD9081626 Si02
#       8
#     2   2   2   2   2   2   2   2
#     4  10  19  36  57  77 107 143 183 217 268 321
#     4  10  20  33  54  79 107 144 183 221 258 319
#     4   9  17  29  53  83 101 138 187 222 254 323
#     4   9  18  33  55  77 104 142 180 219 266 322
#     4   9  17  31  54  79 108 134 180 226 268 313
#     4  10  19  32  53  77 111 142 180 222 263 319
#     4  10  20  34  54  84 108 136 180 227 272 311
#     4   9  20  33  57  80 106 139 175 226 275 317
#
# _framework density 23.886479999999999
#
# number of rings (size 3 to 8) (size 9 to 14) (size 15 to 20)
#    0.750    1.750    1.250    1.500    5.250    0.000 
#    0.000    5.000    0.000    4.500    0.000    0.000 
#    0.000    0.000    0.000    0.000    0.000    0.000 
#
# Total GULP energy -89195.779220 kJ/mol
# GULP energy per Si atom -5574.736201 kJ/mol
# Density = 2.383211 g / cm^3
# Si number density = 23.886480 Si / 1000 Ang^3
#
#
#
# Elastic Constant Matrix: (Units=GPa)
#
#
# Indices 1 2 3 4 5 6 
#
# 1 125.8340 46.6525 48.2397 28.8294 29.2267 -37.3152
# 2 46.6525 102.6567 40.7824 33.3650 12.1703 -36.5375
# 3 48.2397 40.7824 94.0712 30.5536 23.7961 -8.4464
# 4 28.8294 33.3650 30.5536 53.5283 6.0689 -0.2018
# 5 29.2267 12.1703 23.7961 6.0689 37.3374 -4.6298
# 6 -37.3152 -36.5375 -8.4464 -0.2018 -4.6298 50.0341
#
#
#
# Elastic Compliance Matrix: (Units=1/GPa)
#
#
# Indices 1 2 3 4 5 6 
#
# 1 0.015268 0.001236 -0.003415 -0.006115 -0.007824 0.010964
# 2 0.001236 0.019306 -0.004124 -0.010153 -0.001225 0.014170
# 3 -0.003415 -0.004124 0.016996 -0.004569 -0.006482 -0.003307
# 4 -0.006115 -0.010153 -0.004569 0.030349 0.004563 -0.012202
# 5 -0.007824 -0.001225 -0.006482 0.004563 0.036143 -0.004461
# 6 0.010964 0.014170 -0.003307 -0.012202 -0.004461 0.037490
#
#
# Mechanical properties :
#
#
# Convention : Reuss Voigt Hill
#
# Bulk Modulus (GPa) = 25.66504 65.99012 45.82758
# Shear Modulus (GPa) = 27.60212 40.63912 34.12062
#
# Velocity S-wave (km/s) = 3.40303 4.12921 3.78358
# Velocity P-wave (km/s) = 5.11945 7.10073 6.18988
#
# Compressibility (1/GPa) = 0.03896351
#
# Stress axis : x y z
#
# Youngs Moduli (GPa) = 65.49840 51.79654 58.83748
#
# Poissons Ratio (x) = -0.06400 0.20094
# Poissons Ratio (y) = -0.08094 0.24262
# Poissons Ratio (z) = 0.22369 0.21359
#
# Static dielectric constant tensor:
#      x y z
#    x 1.934740 0.085760 -0.032650 
#    y 0.085760 1.937240 0.022410 
#    z -0.032650 0.022410 2.075880 
# 
# From -- ./inp_files/401696.got.cif
#   From: 2010.05.17/outbox.cif.g08.bks.cpg/sg2_201_cif.got.tgz:401696.got - 2010.06.03 11:33:40.
