data_PCOD9081459
_publ_section_title
;
Structure prediction by ZEFSAII (Michael W. Deem and Ramdas Pophale) SiO2 
 PCOD9081459
Probable space group: P -1
;
_chemical_formula_sum "Si O2"
_cell_formula_units_Z 14
_cell_length_a 17.346372
_cell_length_b 26.595949
_cell_length_c 26.609776
_cell_angle_alpha 169.346510
_cell_angle_beta 19.686425
_cell_angle_gamma 160.332059
_cell_volume 737.752009
_symmetry_space_group_name_H-M "P -1"
_symmetry_group_IT_number 2
_symmetry_cell_setting 'triclinic'
loop_
_space_group_symop_operation_xyz
x,y,z
-x,-y,-z
loop_
_atom_site_type_symbol
_atom_site_label
_atom_site_fract_x
_atom_site_fract_y
_atom_site_fract_z
Si Si1 0.646145 0.573149 0.187727
Si Si2 0.977021 0.746598 0.828097
Si Si3 0.584661 0.793628 0.708901
Si Si4 0.604478 0.812533 0.947707
Si Si5 0.573391 0.722716 0.533865
Si Si6 0.965247 0.162096 0.581834
Si Si7 0.257791 0.812174 0.613326
O O1 0.468960 0.367343 0.132972
O O2 0.495068 0.717210 0.384675
O O3 0.814208 0.850277 0.382729
O O4 0.807164 0.374450 0.874841
O O5 0.890105 0.411403 0.555851
O O6 0.121180 0.780372 0.719810
O O7 0.750839 0.876556 0.090618
O O8 0.153726 0.945115 0.953408
O O9 0.500000 0.500000 0.500000
O O10 0.481749 0.775435 0.697551
O O11 0.866139 0.871657 0.601387
O O12 0.500000 0.000000 0.000000
O O13 0.578618 0.567055 0.681449
O O14 0.428888 0.003649 0.228463
O O15 0.841558 0.706615 0.364791
#
# Coordination Sequence:
#
# PCOD9081459 Si02
#       7
#     2   2   2   2   2   2   2
#     4  12  21  33  50  75 114 148 173 206 250 300
#     4  10  19  32  49  70  99 144 190 218 243 280
#     4  10  20  40  59  72  99 132 168 230 274 292
#     4  12  21  33  50  75 114 148 173 206 250 300
#     4  10  23  35  51  79 103 139 176 217 242 327
#     4  10  23  35  51  79 103 139 176 217 242 327
#     4  10  19  32  49  70  99 144 190 218 243 280
#
# _framework density 18.976566999999999
#
# number of rings (size 3 to 8) (size 9 to 14) (size 15 to 20)
#    0.857    0.571    0.000    9.429    0.000    3.429 
#    0.000    0.000    0.000    0.000    0.000    0.000 
#    0.000   80.000    0.000    0.000    0.000    0.000 
#
# Total GULP energy -77966.251464 kJ/mol
# GULP energy per Si atom -5569.017962 kJ/mol
# Density = 1.893338 g / cm^3
# Si number density = 18.976567 Si / 1000 Ang^3
#
#
#
# Elastic Constant Matrix: (Units=GPa)
#
#
# Indices 1 2 3 4 5 6 
#
# 1 38.9159 31.5655 33.2263 -4.6984 16.4200 20.5573
# 2 31.5655 19.3879 26.2299 0.0102 2.3519 6.0451
# 3 33.2263 26.2299 161.6222 -6.7857 10.1057 11.9220
# 4 -4.6984 0.0102 -6.7857 37.7520 8.7443 0.4144
# 5 16.4200 2.3519 10.1057 8.7443 40.7350 3.1194
# 6 20.5573 6.0451 11.9220 0.4144 3.1194 25.0481
#
#
#
# Elastic Compliance Matrix: (Units=1/GPa)
#
#
# Indices 1 2 3 4 5 6 
#
# 1 -0.041629 0.066942 -0.005022 -0.009739 0.014819 0.018716
# 2 0.066942 -0.038240 -0.002388 0.013923 -0.023970 -0.041820
# 3 -0.005022 -0.002388 0.007554 0.000709 0.000053 0.001084
# 4 -0.009739 0.013923 0.000709 0.026041 -0.002968 0.004234
# 5 0.014819 -0.023970 0.000053 -0.002968 0.021273 -0.009002
# 6 0.018716 -0.041820 0.001084 0.004234 -0.009002 0.035191
#
#
# Mechanical properties :
#
#
# Convention : Reuss Voigt Hill
#
# Bulk Modulus (GPa) = 21.39049 44.66327 33.02688
# Shear Modulus (GPa) = -53.59545 29.30065 -12.14740
#
# Velocity S-wave (km/s) = -5.32018 3.93370 -2.53282
# Velocity P-wave (km/s) = 5.14223 6.64974 2.98132
#
# Compressibility (1/GPa) = 0.04674975
#
# Stress axis : x y z
#
# Youngs Moduli (GPa) = -24.02185 -26.15058 132.38537
#
# Poissons Ratio (x) = 1.75058 0.66486
# Poissons Ratio (y) = 1.60808 0.31611
# Poissons Ratio (z) = -0.12064 -0.06244
#
# Static dielectric constant tensor:
#      x y z
#    x 1.717960 0.061260 -0.011680 
#    y 0.061260 1.689640 -0.015400 
#    z -0.011680 -0.015400 1.655510 
# 
# From -- ./inp_files/620538.got.cif
#   From: 2010.05.17/outbox.cif.g08.bks.cpg/sg2_311_cif.got.tgz:620538.got - 2010.06.03 11:33:40.
