data_PCOD9081057
_publ_section_title
;
Structure prediction by ZEFSAII (Michael W. Deem and Ramdas Pophale) SiO2 
 PCOD9081057
Probable space group: P -1
;
_chemical_formula_sum "Si O2"
_cell_formula_units_Z 16
_cell_length_a 11.404044
_cell_length_b 12.584981
_cell_length_c 18.890200
_cell_angle_alpha 28.670974
_cell_angle_beta 131.044420
_cell_angle_gamma 114.208609
_cell_volume 871.593933
_symmetry_space_group_name_H-M "P -1"
_symmetry_group_IT_number 2
_symmetry_cell_setting 'triclinic'
loop_
_space_group_symop_operation_xyz
x,y,z
-x,-y,-z
loop_
_atom_site_type_symbol
_atom_site_label
_atom_site_fract_x
_atom_site_fract_y
_atom_site_fract_z
Si Si1 0.624855 0.648179 0.120837
Si Si2 0.835695 0.579943 0.101617
Si Si3 0.086176 0.968859 0.158976
Si Si4 0.840689 0.432215 0.463402
Si Si5 0.360050 0.655597 0.912500
Si Si6 0.579351 0.789383 0.259655
Si Si7 0.214589 0.238631 0.510217
Si Si8 0.724888 0.311481 0.744548
O O1 0.703843 0.673833 0.061488
O O2 0.777616 0.452997 0.345096
O O3 0.463246 0.597811 0.061758
O O4 0.540243 0.916621 0.967564
O O5 0.783066 0.440291 0.101566
O O6 0.015779 0.382842 0.323550
O O7 0.854720 0.814958 0.942555
O O8 0.108948 0.824447 0.325377
O O9 0.199329 0.777031 0.253271
O O10 0.883093 0.105867 0.974390
O O11 0.666763 0.631795 0.317833
O O12 0.000000 0.500000 0.500000
O O13 0.290724 0.946548 0.696106
O O14 0.500000 0.500000 0.000000
O O15 0.741508 0.756067 0.393018
O O16 0.452800 0.699113 0.302334
O O17 0.294567 0.414025 0.407169
#
# Coordination Sequence:
#
# PCOD9081057 Si02
#       8
#     2   2   2   2   2   2   2   2
#     4  10  21  36  53  81 114 148 188 229 279 328
#     4  10  19  38  59  79 108 149 193 237 269 322
#     4  10  21  35  58  81 115 149 185 226 281 333
#     4  12  24  35  52  84 119 154 180 221 287 346
#     4   9  20  35  55  79 109 145 193 239 271 314
#     4  11  20  33  54  82 117 150 179 226 278 344
#     4  10  19  30  56  88 109 139 183 236 281 321
#     4  10  19  34  56  85 116 144 184 231 278 331
#
# _framework density 18.357171999999998
#
# number of rings (size 3 to 8) (size 9 to 14) (size 15 to 20)
#    0.000    1.750    2.500    2.625    1.750    0.000 
#    0.000    0.625    0.000    0.000    0.000   16.625 
#    0.000    0.000    0.000    0.000    0.000    0.000 
#
# Total GULP energy -89154.996944 kJ/mol
# GULP energy per Si atom -5572.187309 kJ/mol
# Density = 1.831539 g / cm^3
# Si number density = 18.357172 Si / 1000 Ang^3
#
#
#
# Elastic Constant Matrix: (Units=GPa)
#
#
# Indices 1 2 3 4 5 6 
#
# 1 54.2199 24.3291 28.3167 4.7439 -0.3951 13.4449
# 2 24.3291 75.0506 50.4256 -4.4573 -6.8143 26.8480
# 3 28.3167 50.4256 120.1105 3.6115 -17.8824 15.5332
# 4 4.7439 -4.4573 3.6115 39.0532 -4.2803 6.0192
# 5 -0.3951 -6.8143 -17.8824 -4.2803 27.0046 4.4159
# 6 13.4449 26.8480 15.5332 6.0192 4.4159 23.0851
#
#
#
# Elastic Compliance Matrix: (Units=1/GPa)
#
#
# Indices 1 2 3 4 5 6 
#
# 1 0.023567 -0.003099 -0.003628 -0.002067 -0.002064 -0.006747
# 2 -0.003099 0.035808 -0.007570 0.012789 0.012627 -0.040496
# 3 -0.003628 -0.007570 0.013209 -0.001108 0.006430 0.001088
# 4 -0.002067 0.012789 -0.001108 0.032299 0.011431 -0.023532
# 5 -0.002064 0.012627 0.006430 0.011431 0.051260 -0.030596
# 6 -0.006747 -0.040496 0.001088 -0.023532 -0.030596 0.105601
#
#
# Mechanical properties :
#
#
# Convention : Reuss Voigt Hill
#
# Bulk Modulus (GPa) = 22.73197 50.61378 36.67287
# Shear Modulus (GPa) = 16.39334 27.58255 21.98795
#
# Velocity S-wave (km/s) = 2.99159 3.88048 3.46466
# Velocity P-wave (km/s) = 4.93385 6.90717 6.00216
#
# Compressibility (1/GPa) = 0.04399091
#
# Stress axis : x y z
#
# Youngs Moduli (GPa) = 42.43147 27.92680 75.70589
#
# Poissons Ratio (x) = 0.08655 0.27463
# Poissons Ratio (y) = 0.13150 0.57309
# Poissons Ratio (z) = 0.15393 0.21141
#
# Static dielectric constant tensor:
#      x y z
#    x 1.651180 0.022500 0.010670 
#    y 0.022500 1.659960 0.018710 
#    z 0.010670 0.018710 1.678980 
# 
# From -- ./inp_files/181481.got.cif
#   From: 2010.05.17/outbox.cif.g08.bks.cpg/sg2_91_cif.got.tgz:181481.got - 2010.06.03 11:33:40.
