data_PCOD9081621
_publ_section_title
;
Structure prediction by ZEFSAII (Michael W. Deem and Ramdas Pophale) SiO2 
 PCOD9081621
Probable space group: P -1
;
_chemical_formula_sum "Si O2"
_cell_formula_units_Z 14
_cell_length_a 8.712355
_cell_length_b 8.435189
_cell_length_c 19.563110
_cell_angle_alpha 56.198110
_cell_angle_beta 43.902119
_cell_angle_gamma 91.401631
_cell_volume 558.929945
_symmetry_space_group_name_H-M "P -1"
_symmetry_group_IT_number 2
_symmetry_cell_setting 'triclinic'
loop_
_space_group_symop_operation_xyz
x,y,z
-x,-y,-z
loop_
_atom_site_type_symbol
_atom_site_label
_atom_site_fract_x
_atom_site_fract_y
_atom_site_fract_z
Si Si1 0.575877 0.068057 0.186478
Si Si2 0.211167 0.115522 0.631053
Si Si3 0.080104 0.357919 0.076691
Si Si4 0.218653 0.635830 0.702337
Si Si5 0.225208 0.553220 0.513615
Si Si6 0.848540 0.034435 0.983561
Si Si7 0.323450 0.684365 0.147484
O O1 0.623767 0.030330 0.102784
O O2 0.886064 0.218320 0.100999
O O3 0.304948 0.759979 0.381041
O O4 0.593433 0.309031 0.119652
O O5 0.139477 0.280963 0.586992
O O6 0.461678 0.273427 0.577734
O O7 0.420119 0.130634 0.503647
O O8 0.904327 0.816232 0.837188
O O9 0.829719 0.330735 0.211948
O O10 0.902891 0.526253 0.791049
O O11 0.127516 0.351110 0.789053
O O12 0.944362 0.457531 0.674148
O O13 0.631864 0.778445 0.060832
O O14 0.000000 0.000000 0.000000
O O15 0.500000 0.000000 0.000000
#
# Coordination Sequence:
#
# PCOD9081621 Si02
#       7
#     2   2   2   2   2   2   2
#     4   9  18  31  48  76 107 136 169 206 259 309
#     4   9  16  28  51  78 102 135 177 211 245 300
#     4   9  17  29  49  76 107 141 170 204 251 309
#     4   9  17  31  50  75 106 137 173 212 255 303
#     4   9  17  30  49  76 105 133 171 217 255 298
#     4  10  19  32  53  77 102 134 173 218 262 308
#     4   9  19  33  51  76 104 133 170 220 266 299
#
# _framework density 25.04786
#
# number of rings (size 3 to 8) (size 9 to 14) (size 15 to 20)
#    0.000    2.857    0.000    1.286    0.000    4.000 
#    0.000    0.000    0.000   17.143    0.000   71.000 
#    0.000    0.000    0.000    0.000    0.000    0.000 
#
# Total GULP energy -78052.193534 kJ/mol
# GULP energy per Si atom -5575.156681 kJ/mol
# Density = 2.499085 g / cm^3
# Si number density = 25.047860 Si / 1000 Ang^3
#
#
#
# Elastic Constant Matrix: (Units=GPa)
#
#
# Indices 1 2 3 4 5 6 
#
# 1 91.3799 19.6556 31.9626 -15.5852 -1.0356 11.3562
# 2 19.6556 64.4788 28.3826 -5.5465 7.7487 12.2612
# 3 31.9626 28.3826 132.4282 -20.4689 43.4215 0.9212
# 4 -15.5852 -5.5465 -20.4689 48.0015 -0.2841 10.0946
# 5 -1.0356 7.7487 43.4215 -0.2841 39.9343 -7.0690
# 6 11.3562 12.2612 0.9212 10.0946 -7.0690 38.5965
#
#
#
# Elastic Compliance Matrix: (Units=1/GPa)
#
#
# Indices 1 2 3 4 5 6 
#
# 1 0.013739 -0.002133 -0.003694 0.003377 0.004211 -0.003388
# 2 -0.002133 0.018830 -0.002576 0.001653 -0.001974 -0.006087
# 3 -0.003694 -0.002576 0.015403 0.005605 -0.016837 -0.003012
# 4 0.003377 0.001653 0.005605 0.026577 -0.007918 -0.010054
# 5 0.004211 -0.001974 -0.016837 -0.007918 0.045592 0.010211
# 6 -0.003388 -0.006087 -0.003012 -0.010054 0.010211 0.033411
#
#
# Mechanical properties :
#
#
# Convention : Reuss Voigt Hill
#
# Bulk Modulus (GPa) = 32.08677 49.80984 40.94830
# Shear Modulus (GPa) = 27.66292 39.19220 33.42756
#
# Velocity S-wave (km/s) = 3.32686 3.95991 3.65711
# Velocity P-wave (km/s) = 5.25313 6.39038 5.84945
#
# Compressibility (1/GPa) = 0.03116550
#
# Stress axis : x y z
#
# Youngs Moduli (GPa) = 72.78544 53.10700 64.92283
#
# Poissons Ratio (x) = 0.11330 0.23983
# Poissons Ratio (y) = 0.15528 0.16722
# Poissons Ratio (z) = 0.26888 0.13679
#
# Static dielectric constant tensor:
#      x y z
#    x 2.053340 -0.125470 -0.022310 
#    y -0.125470 2.283620 -0.067750 
#    z -0.022310 -0.067750 2.034510 
# 
# From -- ./inp_files/260801.got.cif
#   From: 2010.05.17/outbox.cif.g08.bks.cpg/sg2_131_cif.got.tgz:260801.got - 2010.06.03 11:33:40.
