data_PCOD9081713
_publ_section_title
;
Structure prediction by ZEFSAII (Michael W. Deem and Ramdas Pophale) SiO2 
 PCOD9081713
Probable space group: P -1
;
_chemical_formula_sum "Si O2"
_cell_formula_units_Z 16
_cell_length_a 12.010012
_cell_length_b 11.135971
_cell_length_c 8.967757
_cell_angle_alpha 74.247446
_cell_angle_beta 57.330381
_cell_angle_gamma 42.846996
_cell_volume 670.217459
_symmetry_space_group_name_H-M "P -1"
_symmetry_group_IT_number 2
_symmetry_cell_setting 'triclinic'
loop_
_space_group_symop_operation_xyz
x,y,z
-x,-y,-z
loop_
_atom_site_type_symbol
_atom_site_label
_atom_site_fract_x
_atom_site_fract_y
_atom_site_fract_z
Si Si1 0.979179 0.321782 0.972675
Si Si2 0.671361 0.960212 0.811669
Si Si3 0.655746 0.592703 0.661523
Si Si4 0.290853 0.934911 0.945692
Si Si5 0.647363 0.234698 0.604263
Si Si6 0.285063 0.683852 0.151385
Si Si7 0.668316 0.358015 0.277749
Si Si8 0.988002 0.436889 0.261110
O O1 0.818934 0.325011 0.075137
O O2 0.970188 0.383218 0.128673
O O3 0.955771 0.459083 0.843797
O O4 0.175835 0.112188 0.870580
O O5 0.841417 0.752041 0.714539
O O6 0.626071 0.100533 0.678406
O O7 0.500000 0.000000 0.000000
O O8 0.742326 0.990837 0.891029
O O9 0.517257 0.774214 0.799245
O O10 0.784931 0.406907 0.726582
O O11 0.490719 0.624150 0.684802
O O12 0.793743 0.561151 0.453397
O O13 0.216462 0.843348 0.041435
O O14 0.709999 0.252317 0.710304
O O15 0.767083 0.210014 0.388035
O O16 0.445560 0.441357 0.650719
O O17 0.500000 0.500000 0.000000
#
# Coordination Sequence:
#
# PCOD9081713 Si02
#       8
#     2   2   2   2   2   2   2   2
#     4  10  20  35  53  79 111 146 183 219 265 322
#     4  10  20  36  57  79 108 144 180 220 269 326
#     4  10  20  36  56  81 111 142 177 223 271 319
#     4   9  20  35  55  80 108 142 180 221 270 320
#     4   9  17  30  51  79 104 135 178 222 261 310
#     4   8  15  30  51  74 103 138 174 216 266 313
#     4  10  19  32  54  81 111 142 178 223 269 315
#     4  10  21  35  55  80 109 143 181 224 269 316
#
# _framework density 23.872848999999999
#
# number of rings (size 3 to 8) (size 9 to 14) (size 15 to 20)
#    0.000    2.500    0.000    3.000    0.000    4.000 
#    0.000    6.250    0.000    1.500    0.000    0.000 
#    0.000    0.000    0.000    0.000    0.000    0.000 
#
# Total GULP energy -89121.554640 kJ/mol
# GULP energy per Si atom -5570.097165 kJ/mol
# Density = 2.381851 g / cm^3
# Si number density = 23.872849 Si / 1000 Ang^3
#
#
#
# Elastic Constant Matrix: (Units=GPa)
#
#
# Indices 1 2 3 4 5 6 
#
# 1 59.7720 10.4371 12.8650 -11.3352 -9.2118 15.6424
# 2 10.4371 166.1606 62.7587 -28.9174 -9.4232 12.8945
# 3 12.8650 62.7587 137.2709 -23.0179 -15.5871 7.9856
# 4 -11.3352 -28.9174 -23.0179 37.1545 4.1384 -5.6545
# 5 -9.2118 -9.4232 -15.5871 4.1384 26.2823 -1.8460
# 6 15.6424 12.8945 7.9856 -5.6545 -1.8460 13.8264
#
#
#
# Elastic Compliance Matrix: (Units=1/GPa)
#
#
# Indices 1 2 3 4 5 6 
#
# 1 0.025589 0.001686 -0.000080 0.004052 0.006929 -0.027894
# 2 0.001686 0.008203 -0.002761 0.004162 0.000807 -0.006153
# 3 -0.000080 -0.002761 0.009613 0.003166 0.004111 -0.001044
# 4 0.004052 0.004162 0.003166 0.033924 -0.000303 0.003539
# 5 0.006929 0.000807 0.004111 -0.000303 0.042876 -0.005365
# 6 -0.027894 -0.006153 -0.001044 0.003539 -0.005365 0.110954
#
#
# Mechanical properties :
#
#
# Convention : Reuss Voigt Hill
#
# Bulk Modulus (GPa) = 24.33398 59.48057 41.90727
# Shear Modulus (GPa) = 20.22929 33.92881 27.07905
#
# Velocity S-wave (km/s) = 2.91413 3.77401 3.37160
# Velocity P-wave (km/s) = 4.64092 6.63027 5.72270
#
# Compressibility (1/GPa) = 0.04109480
#
# Stress axis : x y z
#
# Youngs Moduli (GPa) = 39.07893 121.91228 104.02704
#
# Poissons Ratio (x) = -0.20550 0.00831
# Poissons Ratio (y) = -0.06587 0.28719
# Poissons Ratio (z) = 0.00312 0.33656
#
# Static dielectric constant tensor:
#      x y z
#    x 2.016450 -0.022900 0.038330 
#    y -0.022900 1.974150 -0.013270 
#    z 0.038330 -0.013270 1.992280 
# 
# From -- ./inp_files/452177.got.cif
#   From: 2010.05.17/outbox.cif.g08.bks.cpg/sg2_227_cif.got.tgz:452177.got - 2010.06.03 11:33:40.
