data_PCOD9081198
_publ_section_title
;
Structure prediction by ZEFSAII (Michael W. Deem and Ramdas Pophale) SiO2 
 PCOD9081198
Probable space group: P -1
;
_chemical_formula_sum "Si O2"
_cell_formula_units_Z 16
_cell_length_a 11.685238
_cell_length_b 10.615334
_cell_length_c 10.624832
_cell_angle_alpha 121.821929
_cell_angle_beta 38.787779
_cell_angle_gamma 133.537043
_cell_volume 598.368687
_symmetry_space_group_name_H-M "P -1"
_symmetry_group_IT_number 2
_symmetry_cell_setting 'triclinic'
loop_
_space_group_symop_operation_xyz
x,y,z
-x,-y,-z
loop_
_atom_site_type_symbol
_atom_site_label
_atom_site_fract_x
_atom_site_fract_y
_atom_site_fract_z
Si Si1 0.927962 0.276722 0.536939
Si Si2 0.360066 0.579424 0.204981
Si Si3 0.416013 0.083404 0.417997
Si Si4 0.930306 0.493955 0.912912
Si Si5 0.705735 0.947705 0.053988
Si Si6 0.457393 0.212817 0.169158
Si Si7 0.173508 0.234033 0.796512
Si Si8 0.191325 0.352440 0.555619
O O1 0.162026 0.419907 0.362851
O O2 0.991608 0.208769 0.569687
O O3 0.787517 0.366820 0.720439
O O4 0.778892 0.112720 0.491538
O O5 0.558821 0.773651 0.168338
O O6 0.500000 0.500000 0.000000
O O7 0.394532 0.115666 0.305290
O O8 0.377220 0.211536 0.602800
O O9 0.631706 0.079429 0.232232
O O10 0.132731 0.502363 0.675847
O O11 0.711787 0.307645 0.995727
O O12 0.862920 0.634934 0.019027
O O13 0.000000 0.500000 0.000000
O O14 0.643738 0.890124 0.928644
O O15 0.959198 0.046708 0.900186
O O16 0.396508 0.360780 0.323678
O O17 0.177256 0.299403 0.684216
#
# Coordination Sequence:
#
# PCOD9081198 Si02
#       8
#     2   2   2   2   2   2   2   2
#     4  10  20  34  52  81 107 136 176 224 272 311
#     4  10  20  33  52  76 108 139 174 221 271 319
#     4  10  19  31  51  77 110 138 169 215 260 312
#     4  10  21  35  50  76 112 149 181 211 256 317
#     4  11  21  34  55  82 108 138 178 222 266 315
#     4  11  21  33  55  82 110 145 178 212 265 320
#     4  10  21  34  53  80 112 145 175 212 265 316
#     4  10  20  34  54  77 109 142 178 220 259 315
#
# _framework density 26.739366
#
# number of rings (size 3 to 8) (size 9 to 14) (size 15 to 20)
#    0.000    1.750    0.000    6.375    0.000    7.500 
#    0.000    0.000    0.000    0.750    0.000   35.875 
#    0.000    0.000    0.000    0.000    0.000    0.000 
#
# Total GULP energy -89196.351592 kJ/mol
# GULP energy per Si atom -5574.771974 kJ/mol
# Density = 2.667851 g / cm^3
# Si number density = 26.739366 Si / 1000 Ang^3
#
#
#
# Elastic Constant Matrix: (Units=GPa)
#
#
# Indices 1 2 3 4 5 6 
#
# 1 42.5841 0.8382 23.5697 -2.0892 -2.0569 -9.7144
# 2 0.8382 80.9732 57.9965 -2.8506 -5.1472 -13.2242
# 3 23.5697 57.9965 225.7649 19.7210 -33.8284 -7.6967
# 4 -2.0892 -2.8506 19.7210 49.8243 -13.9857 -16.9591
# 5 -2.0569 -5.1472 -33.8284 -13.9857 29.3516 0.3014
# 6 -9.7144 -13.2242 -7.6967 -16.9591 0.3014 20.1964
#
#
#
# Elastic Compliance Matrix: (Units=1/GPa)
#
#
# Indices 1 2 3 4 5 6 
#
# 1 0.037254 0.011865 -0.006345 0.020308 0.006643 0.040224
# 2 0.011865 0.023402 -0.006915 0.016996 0.004729 0.032596
# 3 -0.006345 -0.006915 0.007740 -0.005615 0.004684 -0.009415
# 4 0.020308 0.016996 -0.005615 0.051056 0.021630 0.061306
# 5 0.006643 0.004729 0.004684 0.021630 0.050808 0.025481
# 6 0.040224 0.032596 -0.009415 0.061306 0.025481 0.137716
#
#
# Mechanical properties :
#
#
# Convention : Reuss Voigt Hill
#
# Bulk Modulus (GPa) = 15.24243 57.12569 36.18406
# Shear Modulus (GPa) = 15.03155 37.66899 26.35027
#
# Velocity S-wave (km/s) = 2.37354 3.75740 3.14259
# Velocity P-wave (km/s) = 3.63653 6.34305 5.17004
#
# Compressibility (1/GPa) = 0.06560636
#
# Stress axis : x y z
#
# Youngs Moduli (GPa) = 26.84259 42.73070 129.20614
#
# Poissons Ratio (x) = -0.50700 0.81977
# Poissons Ratio (y) = -0.31849 0.89350
# Poissons Ratio (z) = 0.17031 0.29550
#
# Static dielectric constant tensor:
#      x y z
#    x 2.187380 0.015960 0.059310 
#    y 0.015960 2.180650 0.061790 
#    z 0.059310 0.061790 2.087000 
# 
# From -- ./inp_files/532657.got.cif
#   From: 2010.05.17/outbox.cif.g08.bks.cpg/sg2_267_cif.got.tgz:532657.got - 2010.06.03 11:33:40.
