data_PCOD9081215
_publ_section_title
;
Structure prediction by ZEFSAII (Michael W. Deem and Ramdas Pophale) SiO2 
 PCOD9081215
Probable space group: P -1
;
_chemical_formula_sum "Si O2"
_cell_formula_units_Z 14
_cell_length_a 6.999469
_cell_length_b 9.386278
_cell_length_c 12.275912
_cell_angle_alpha 75.642826
_cell_angle_beta 110.995172
_cell_angle_gamma 61.839726
_cell_volume 572.317048
_symmetry_space_group_name_H-M "P -1"
_symmetry_group_IT_number 2
_symmetry_cell_setting 'triclinic'
loop_
_space_group_symop_operation_xyz
x,y,z
-x,-y,-z
loop_
_atom_site_type_symbol
_atom_site_label
_atom_site_fract_x
_atom_site_fract_y
_atom_site_fract_z
Si Si1 0.153345 0.554777 0.587034
Si Si2 0.340591 0.788884 0.225020
Si Si3 0.903929 0.187416 0.133674
Si Si4 0.858012 0.434399 0.826918
Si Si5 0.507187 0.319128 0.468121
Si Si6 0.865939 0.934874 0.557554
Si Si7 0.332092 0.383370 0.026312
O O1 0.370463 0.368066 0.736700
O O2 0.309872 0.624560 0.547430
O O3 0.000000 0.500000 0.500000
O O4 0.929099 0.747483 0.562676
O O5 0.186741 0.719732 0.156688
O O6 0.427292 0.728272 0.381875
O O7 0.142119 0.014616 0.143417
O O8 0.618078 0.239816 0.060919
O O9 0.004616 0.115456 0.288935
O O10 0.819859 0.395234 0.070576
O O11 0.771954 0.518935 0.671907
O O12 0.665696 0.602687 0.843296
O O13 0.141180 0.347697 0.944805
O O14 0.579737 0.128404 0.469622
O O15 0.000000 0.000000 0.500000
#
# Coordination Sequence:
#
# PCOD9081215 Si02
#       7
#     2   2   2   2   2   2   2
#     4  10  19  31  51  82 111 136 171 220 276 324
#     4  10  21  37  58  81 110 141 180 233 278 320
#     4  10  21  38  56  82 109 144 189 227 271 318
#     4  10  20  38  58  81 111 148 185 221 272 328
#     4   9  19  37  58  80 109 143 178 223 279 330
#     4   9  18  34  57  78 108 145 176 221 277 330
#     4  10  22  37  57  79 111 152 187 220 263 330
#
# _framework density 24.461967000000001
#
# number of rings (size 3 to 8) (size 9 to 14) (size 15 to 20)
#    0.000    2.286    0.000    4.286    0.000    4.571 
#    0.000    5.714    0.000    0.000    0.000    0.000 
#    0.000    0.000    0.000    0.000    0.000    0.000 
#
# Total GULP energy -78000.364797 kJ/mol
# GULP energy per Si atom -5571.454628 kJ/mol
# Density = 2.440629 g / cm^3
# Si number density = 24.461967 Si / 1000 Ang^3
#
#
#
# Elastic Constant Matrix: (Units=GPa)
#
#
# Indices 1 2 3 4 5 6 
#
# 1 62.7736 20.3281 17.8586 -4.9440 12.5853 4.3439
# 2 20.3281 171.8523 45.0436 -19.5291 34.7380 -1.1488
# 3 17.8586 45.0436 130.2399 -6.1350 -0.6622 10.5763
# 4 -4.9440 -19.5291 -6.1350 44.4829 -6.2960 16.7655
# 5 12.5853 34.7380 -0.6622 -6.2960 28.4661 4.7826
# 6 4.3439 -1.1488 10.5763 16.7655 4.7826 27.0592
#
#
#
# Elastic Compliance Matrix: (Units=1/GPa)
#
#
# Indices 1 2 3 4 5 6 
#
# 1 0.018338 0.000206 -0.002469 0.001143 -0.007950 -0.001273
# 2 0.000206 0.009207 -0.003526 0.000595 -0.011859 0.003463
# 3 -0.002469 -0.003526 0.009998 0.003266 0.007528 -0.007015
# 4 0.001143 0.000595 0.003266 0.033966 0.010444 -0.024325
# 5 -0.007950 -0.011859 0.007528 0.010444 0.058799 -0.019033
# 6 -0.001273 0.003463 -0.007015 -0.024325 -0.019033 0.058485
#
#
# Mechanical properties :
#
#
# Convention : Reuss Voigt Hill
#
# Bulk Modulus (GPa) = 38.51325 59.03626 48.77476
# Shear Modulus (GPa) = 23.92075 38.77734 31.34905
#
# Velocity S-wave (km/s) = 3.13049 3.98579 3.58375
# Velocity P-wave (km/s) = 5.37075 6.73560 6.09152
#
# Compressibility (1/GPa) = 0.02596509
#
# Stress axis : x y z
#
# Youngs Moduli (GPa) = 54.53206 108.61882 100.02071
#
# Poissons Ratio (x) = -0.02242 0.24696
# Poissons Ratio (y) = -0.01126 0.35266
# Poissons Ratio (z) = 0.13465 0.38298
#
# Static dielectric constant tensor:
#      x y z
#    x 2.129470 -0.154790 -0.061890 
#    y -0.154790 1.956560 0.042210 
#    z -0.061890 0.042210 1.891990 
# 
# From -- ./inp_files/494958.got.cif
#   From: 2010.05.17/outbox.cif.g08.bks.cpg/sg2_248_cif.got.tgz:494958.got - 2010.06.03 11:33:40.
