data_PCOD9081039
_publ_section_title
;
Structure prediction by ZEFSAII (Michael W. Deem and Ramdas Pophale) SiO2 
 PCOD9081039
Probable space group: P -1
;
_chemical_formula_sum "Si O2"
_cell_formula_units_Z 16
_cell_length_a 10.003688
_cell_length_b 17.013278
_cell_length_c 17.677594
_cell_angle_alpha 33.817904
_cell_angle_beta 42.376321
_cell_angle_gamma 31.291125
_cell_volume 865.382676
_symmetry_space_group_name_H-M "P -1"
_symmetry_group_IT_number 2
_symmetry_cell_setting 'triclinic'
loop_
_space_group_symop_operation_xyz
x,y,z
-x,-y,-z
loop_
_atom_site_type_symbol
_atom_site_label
_atom_site_fract_x
_atom_site_fract_y
_atom_site_fract_z
Si Si1 0.325034 0.653314 0.888335
Si Si2 0.716227 0.975153 0.877767
Si Si3 0.471275 0.460300 0.413809
Si Si4 0.338435 0.476888 0.866414
Si Si5 0.305766 0.909610 0.454131
Si Si6 0.628356 0.082384 0.408962
Si Si7 0.212965 0.737944 0.414358
Si Si8 0.265350 0.198515 0.149104
O O1 0.357892 0.557520 0.870951
O O2 0.432372 0.761071 0.745439
O O3 0.016009 0.809514 0.910635
O O4 0.500000 0.500000 0.000000
O O5 0.708117 0.905619 0.854671
O O6 0.660485 0.168898 0.737372
O O7 0.500000 0.000000 0.000000
O O8 0.519238 0.524775 0.265219
O O9 0.521503 0.275127 0.520120
O O10 0.216853 0.631207 0.426341
O O11 0.670330 0.390497 0.457008
O O12 0.035022 0.625484 0.853176
O O13 0.406726 0.283170 0.011085
O O14 0.408430 0.852154 0.542072
O O15 0.336059 0.057285 0.298138
O O16 0.000000 0.000000 0.500000
O O17 0.500000 0.000000 0.500000
O O18 0.931722 0.914952 0.412852
#
# Coordination Sequence:
#
# PCOD9081039 Si02
#       8
#     2   2   2   2   2   2   2   2
#     4  10  22  40  58  85 120 158 201 247 294 364
#     4  10  19  37  59  86 122 153 192 251 305 347
#     4  11  19  35  61  87 114 153 194 248 305 343
#     4  10  19  33  55  82 114 152 191 246 294 351
#     4  12  18  37  61  85 115 154 200 251 298 347
#     4  11  23  40  62  86 120 162 200 243 302 365
#     4  10  21  36  59  90 123 152 195 251 304 354
#     4  10  19  30  54  88 110 141 201 244 289 350
#
# _framework density 18.48893
#
# number of rings (size 3 to 8) (size 9 to 14) (size 15 to 20)
#    0.000    1.500    5.000    1.500    1.750    0.000 
#    6.750    0.625    2.750    2.250    0.000    0.000 
#    0.000    0.000    0.000    0.000    0.000    0.000 
#
# Total GULP energy -89118.398737 kJ/mol
# GULP energy per Si atom -5569.899921 kJ/mol
# Density = 1.844685 g / cm^3
# Si number density = 18.488930 Si / 1000 Ang^3
#
#
#
# Elastic Constant Matrix: (Units=GPa)
#
#
# Indices 1 2 3 4 5 6 
#
# 1 50.6473 5.8094 33.4536 -0.5469 0.7755 8.5960
# 2 5.8094 55.8582 16.4311 -5.1659 8.0768 25.8327
# 3 33.4536 16.4311 127.1687 -14.7273 4.7581 -5.4518
# 4 -0.5469 -5.1659 -14.7273 29.8281 9.0929 -1.2727
# 5 0.7755 8.0768 4.7581 9.0929 31.0458 -5.1145
# 6 8.5960 25.8327 -5.4518 -1.2727 -5.1145 21.1574
#
#
#
# Elastic Compliance Matrix: (Units=1/GPa)
#
#
# Indices 1 2 3 4 5 6 
#
# 1 0.038078 0.033943 -0.016367 0.001326 -0.018454 -0.065514
# 2 0.033943 0.108742 -0.025971 0.017081 -0.057529 -0.166134
# 3 -0.016367 -0.025971 0.017317 0.002231 0.011388 0.045709
# 4 0.001326 0.017081 0.002231 0.043103 -0.021294 -0.023374
# 5 -0.018454 -0.057529 0.011388 -0.021294 0.067913 0.095810
# 6 -0.065514 -0.166134 0.045709 -0.023374 0.095810 0.310261
#
#
# Mechanical properties :
#
#
# Convention : Reuss Voigt Hill
#
# Bulk Modulus (GPa) = 6.78674 38.34026 22.56350
# Shear Modulus (GPa) = 7.67674 28.27160 17.97417
#
# Velocity S-wave (km/s) = 2.03987 3.91463 3.12133
# Velocity P-wave (km/s) = 3.03756 6.41983 5.02200
#
# Compressibility (1/GPa) = 0.14734620
#
# Stress axis : x y z
#
# Youngs Moduli (GPa) = 26.26193 9.19611 57.74765
#
# Poissons Ratio (x) = -0.31215 0.94517
# Poissons Ratio (y) = -0.89142 1.49978
# Poissons Ratio (z) = 0.42984 0.23883
#
# Static dielectric constant tensor:
#      x y z
#    x 1.599390 0.021950 0.018580 
#    y 0.021950 1.653170 -0.048530 
#    z 0.018580 -0.048530 1.683200 
# 
# From -- ./inp_files/271528.got.cif
#   From: 2010.05.17/outbox.cif.g08.bks.cpg/sg2_136_cif.got.tgz:271528.got - 2010.06.03 11:33:40.
