data_PCOD9081731
_publ_section_title
;
Structure prediction by ZEFSAII (Michael W. Deem and Ramdas Pophale) SiO2 
 PCOD9081731
Probable space group: P -1
;
_chemical_formula_sum "Si O2"
_cell_formula_units_Z 16
_cell_length_a 21.126167
_cell_length_b 11.427425
_cell_length_c 9.649101
_cell_angle_alpha 38.951723
_cell_angle_beta 128.777196
_cell_angle_gamma 147.599673
_cell_volume 781.515708
_symmetry_space_group_name_H-M "P -1"
_symmetry_group_IT_number 2
_symmetry_cell_setting 'triclinic'
loop_
_space_group_symop_operation_xyz
x,y,z
-x,-y,-z
loop_
_atom_site_type_symbol
_atom_site_label
_atom_site_fract_x
_atom_site_fract_y
_atom_site_fract_z
Si Si1 0.167662 0.072691 0.896631
Si Si2 0.732398 0.576912 0.014244
Si Si3 0.722025 0.472293 0.580667
Si Si4 0.904514 0.542187 0.270971
Si Si5 0.460178 0.008999 0.588458
Si Si6 0.756794 0.203040 0.651208
Si Si7 0.127527 0.920141 0.401497
Si Si8 0.064846 0.140143 0.312801
O O1 0.224986 0.288920 0.899149
O O2 0.227654 0.256825 0.671419
O O3 0.026536 0.875411 0.876029
O O4 0.204616 0.923551 0.109899
O O5 0.830707 0.596813 0.071694
O O6 0.612285 0.263875 0.168802
O O7 0.746658 0.781499 0.748149
O O8 0.581521 0.260975 0.600006
O O9 0.744443 0.341563 0.622831
O O10 0.803568 0.570914 0.734752
O O11 0.852267 0.416784 0.469656
O O12 0.876790 0.306581 0.367621
O O13 0.041852 0.800313 0.259069
O O14 0.500000 0.000000 0.500000
O O15 0.365056 0.006413 0.413470
O O16 0.076486 0.964113 0.411476
O O17 0.000000 0.000000 0.500000
#
# Coordination Sequence:
#
# PCOD9081731 Si02
#       8
#     2   2   2   2   2   2   2   2
#     4  11  19  33  58  87 111 142 183 234 284 328
#     4  11  19  34  55  87 112 137 186 242 284 310
#     4  10  20  40  54  78 120 156 184 221 277 332
#     4  10  19  32  54  84 117 135 178 234 288 329
#     4   9  18  36  58  81 114 147 185 237 275 318
#     4  10  19  33  57  89 108 141 188 237 279 319
#     4  11  21  33  55  85 110 147 183 230 281 331
#     4  10  22  38  57  77 119 155 179 219 280 349
#
# _framework density 20.473037999999999
#
# number of rings (size 3 to 8) (size 9 to 14) (size 15 to 20)
#    0.000    1.750    6.250    1.125    0.000    1.000 
#    0.000    3.125    0.000    3.000    0.000    0.000 
#    0.000    0.000    0.000    0.000    0.000    0.000 
#
# Total GULP energy -89240.644373 kJ/mol
# GULP energy per Si atom -5577.540273 kJ/mol
# Density = 2.042644 g / cm^3
# Si number density = 20.473038 Si / 1000 Ang^3
#
#
#
# Elastic Constant Matrix: (Units=GPa)
#
#
# Indices 1 2 3 4 5 6 
#
# 1 59.6029 11.6001 14.3652 -5.3125 11.0762 -13.9638
# 2 11.6001 109.0498 16.6978 3.0160 9.4182 14.0352
# 3 14.3652 16.6978 60.1222 -8.4267 13.9647 -8.0481
# 4 -5.3125 3.0160 -8.4267 29.1277 1.4954 -4.1742
# 5 11.0762 9.4182 13.9647 1.4954 30.2577 -7.0897
# 6 -13.9638 14.0352 -8.0481 -4.1742 -7.0897 33.6622
#
#
#
# Elastic Compliance Matrix: (Units=1/GPa)
#
#
# Indices 1 2 3 4 5 6 
#
# 1 0.021181 -0.003086 -0.001167 0.005436 -0.004282 0.009567
# 2 -0.003086 0.011340 -0.003402 -0.003713 -0.002475 -0.007803
# 3 -0.001167 -0.003402 0.021364 0.007477 -0.007479 0.005394
# 4 0.005436 -0.003713 0.007477 0.039457 -0.003975 0.009646
# 5 -0.004282 -0.002475 -0.007479 -0.003975 0.040316 0.005466
# 6 0.009567 -0.007803 0.005394 0.009646 0.005466 0.040566
#
#
# Mechanical properties :
#
#
# Convention : Reuss Voigt Hill
#
# Bulk Modulus (GPa) = 25.92385 34.90011 30.41198
# Shear Modulus (GPa) = 24.70448 31.01698 27.86073
#
# Velocity S-wave (km/s) = 3.47750 3.89654 3.69297
# Velocity P-wave (km/s) = 5.36786 6.10966 5.75074
#
# Compressibility (1/GPa) = 0.03857451
#
# Stress axis : x y z
#
# Youngs Moduli (GPa) = 47.21214 88.18254 46.80820
#
# Poissons Ratio (x) = 0.27216 0.05461
# Poissons Ratio (y) = 0.14571 0.15925
# Poissons Ratio (z) = 0.05508 0.30002
#
# Static dielectric constant tensor:
#      x y z
#    x 1.763820 0.027130 -0.016430 
#    y 0.027130 1.771940 -0.005270 
#    z -0.016430 -0.005270 1.786750 
# 
# From -- ./inp_files/353354.got.cif
#   From: 2010.05.17/outbox.cif.g08.bks.cpg/sg2_177_cif.got.tgz:353354.got - 2010.06.03 11:33:40.
