data_PCOD9081901
_publ_section_title
;
Structure prediction by ZEFSAII (Michael W. Deem and Ramdas Pophale) SiO2 
 PCOD9081901
Probable space group: P -1
;
_chemical_formula_sum "Si O2"
_cell_formula_units_Z 14
_cell_length_a 18.994417
_cell_length_b 9.545761
_cell_length_c 9.420569
_cell_angle_alpha 148.865277
_cell_angle_beta 52.572868
_cell_angle_gamma 137.690388
_cell_volume 592.933628
_symmetry_space_group_name_H-M "P -1"
_symmetry_group_IT_number 2
_symmetry_cell_setting 'triclinic'
loop_
_space_group_symop_operation_xyz
x,y,z
-x,-y,-z
loop_
_atom_site_type_symbol
_atom_site_label
_atom_site_fract_x
_atom_site_fract_y
_atom_site_fract_z
Si Si1 0.273579 0.543500 0.115162
Si Si2 0.503674 0.208561 0.805100
Si Si3 0.000365 0.512183 0.339340
Si Si4 0.877589 0.839888 0.782102
Si Si5 0.072734 0.852823 0.281649
Si Si6 0.672218 0.790910 0.448464
Si Si7 0.547803 0.812855 0.860877
O O1 0.387892 0.674064 0.148690
O O2 0.198091 0.292348 0.105635
O O3 0.267241 0.855573 0.385182
O O4 0.271928 0.390189 0.831942
O O5 0.500000 0.000000 0.500000
O O6 0.500000 0.500000 0.000000
O O7 0.422795 0.054369 0.900780
O O8 0.907710 0.579732 0.484826
O O9 0.000000 0.500000 0.500000
O O10 0.091824 0.787852 0.364101
O O11 0.975290 0.174660 0.014944
O O12 0.844098 0.934754 0.759320
O O13 0.000000 0.000000 0.500000
O O14 0.000000 0.500000 0.000000
O O15 0.644517 0.831961 0.678018
O O16 0.550040 0.560213 0.342366
O O17 0.500000 0.000000 0.000000
#
# Coordination Sequence:
#
# PCOD9081901 Si02
#       7
#     2   2   2   2   2   2   2
#     4  11  21  36  56  82 113 148 193 230 283 340
#     4  11  23  35  55  82 110 141 190 242 283 319
#     4  10  19  34  59  90 112 140 183 231 270 322
#     4  10  20  35  58  81 111 153 182 221 276 338
#     4   8  16  31  53  80 105 141 185 208 252 333
#     4  10  19  32  57  81 100 140 193 238 262 329
#     4  10  19  35  59  79 101 143 198 236 274 336
#
# _framework density 23.611412000000001
#
# number of rings (size 3 to 8) (size 9 to 14) (size 15 to 20)
#    0.000    2.000    2.857    3.000    2.000    0.000 
#    0.000    0.000    9.429    0.000    0.000    0.000 
#    0.000    0.000    0.000    0.000    0.000    0.000 
#
# Total GULP energy -78012.992658 kJ/mol
# GULP energy per Si atom -5572.356618 kJ/mol
# Density = 2.355767 g / cm^3
# Si number density = 23.611412 Si / 1000 Ang^3
#
#
#
# Elastic Constant Matrix: (Units=GPa)
#
#
# Indices 1 2 3 4 5 6 
#
# 1 37.7133 8.4070 11.9072 0.5794 1.5768 -23.5529
# 2 8.4070 183.5781 35.4525 -22.5063 9.6281 -29.0456
# 3 11.9072 35.4525 155.9190 -8.2319 -7.7508 -14.0298
# 4 0.5794 -22.5063 -8.2319 49.2529 -8.7098 0.0516
# 5 1.5768 9.6281 -7.7508 -8.7098 21.5429 -6.9955
# 6 -23.5529 -29.0456 -14.0298 0.0516 -6.9955 31.6363
#
#
#
# Elastic Compliance Matrix: (Units=1/GPa)
#
#
# Indices 1 2 3 4 5 6 
#
# 1 0.054566 0.004910 -0.000337 0.003333 0.010389 0.047273
# 2 0.004910 0.007374 -0.000937 0.003254 0.000616 0.010141
# 3 -0.000337 -0.000937 0.007257 0.001623 0.004733 0.003151
# 4 0.003333 0.003254 0.001623 0.024032 0.011418 0.008674
# 5 0.010389 0.000616 0.004733 0.011418 0.059334 0.023501
# 6 0.047273 0.010141 0.003151 0.008674 0.023501 0.082694
#
#
# Mechanical properties :
#
#
# Convention : Reuss Voigt Hill
#
# Bulk Modulus (GPa) = 13.07734 54.30486 33.69110
# Shear Modulus (GPa) = 19.72574 41.91601 30.82088
#
# Velocity S-wave (km/s) = 2.89352 4.21794 3.61687
# Velocity P-wave (km/s) = 4.08826 6.83891 5.63403
#
# Compressibility (1/GPa) = 0.07646817
#
# Stress axis : x y z
#
# Youngs Moduli (GPa) = 18.32650 135.60262 137.80095
#
# Poissons Ratio (x) = -0.66576 0.04648
# Poissons Ratio (y) = -0.08998 0.12909
# Poissons Ratio (z) = 0.00618 0.12703
#
# Static dielectric constant tensor:
#      x y z
#    x 1.899700 -0.038000 0.031920 
#    y -0.038000 1.954280 -0.107930 
#    z 0.031920 -0.107930 1.949060 
# 
# From -- ./inp_files/115444.got.cif
#   From: 2010.05.17/outbox.cif.g08.bks.cpg/sg2_58_cif.got.tgz:115444.got - 2010.06.03 11:33:40.
