data_PCOD9081243
_publ_section_title
;
Structure prediction by ZEFSAII (Michael W. Deem and Ramdas Pophale) SiO2 
 PCOD9081243
Probable space group: P -1
;
_chemical_formula_sum "Si O2"
_cell_formula_units_Z 16
_cell_length_a 14.070859
_cell_length_b 8.265962
_cell_length_c 19.235928
_cell_angle_alpha 41.806235
_cell_angle_beta 26.018257
_cell_angle_gamma 37.397705
_cell_volume 591.881558
_symmetry_space_group_name_H-M "P -1"
_symmetry_group_IT_number 2
_symmetry_cell_setting 'triclinic'
loop_
_space_group_symop_operation_xyz
x,y,z
-x,-y,-z
loop_
_atom_site_type_symbol
_atom_site_label
_atom_site_fract_x
_atom_site_fract_y
_atom_site_fract_z
Si Si1 0.598168 0.529975 0.746186
Si Si2 0.722963 0.995410 0.291637
Si Si3 0.373960 0.797295 0.555293
Si Si4 0.188812 0.842064 0.090136
Si Si5 0.027593 0.985302 0.587729
Si Si6 0.284069 0.281674 0.076004
Si Si7 0.292596 0.257494 0.263685
Si Si8 0.955417 0.391374 0.135512
O O1 0.442346 0.724193 0.725756
O O2 0.707420 0.684338 0.672636
O O3 0.808163 0.268726 0.660591
O O4 0.436605 0.451963 0.932157
O O5 0.696934 0.016649 0.386838
O O6 0.639093 0.781869 0.380706
O O7 0.999513 0.935203 0.121531
O O8 0.322480 0.543945 0.692557
O O9 0.215106 0.879877 0.563376
O O10 0.190777 0.558642 0.202047
O O11 0.084716 0.066034 0.147045
O O12 0.436604 0.857340 0.904946
O O13 0.170245 0.051883 0.410906
O O14 0.887248 0.791918 0.737265
O O15 0.101838 0.442326 0.083535
O O16 0.500000 0.000000 0.000000
O O17 0.000000 0.500000 0.000000
#
# Coordination Sequence:
#
# PCOD9081243 Si02
#       8
#     2   2   2   2   2   2   2   2
#     4  11  20  32  60  86 111 142 187 235 281 319
#     4  10  19  31  52  83 108 136 179 241 274 314
#     4   9  18  31  51  82 108 137 181 232 275 318
#     4  10  23  38  56  79 114 151 189 223 278 341
#     4  10  20  34  55  83 111 149 190 227 276 328
#     4   9  18  32  53  83 108 137 179 235 271 321
#     4  11  22  38  58  80 114 156 182 227 277 337
#     4  10  19  36  57  78 111 146 185 228 280 331
#
# _framework density 27.032435
#
# number of rings (size 3 to 8) (size 9 to 14) (size 15 to 20)
#    0.000    2.000    1.250    4.875    5.250    0.500 
#    0.000    0.000    2.750    6.750    0.000    0.000 
#    0.000    0.000    0.000    0.000    0.000    0.000 
#
# Total GULP energy -89313.467362 kJ/mol
# GULP energy per Si atom -5582.091710 kJ/mol
# Density = 2.697091 g / cm^3
# Si number density = 27.032435 Si / 1000 Ang^3
#
#
#
# Elastic Constant Matrix: (Units=GPa)
#
#
# Indices 1 2 3 4 5 6 
#
# 1 76.6375 18.8483 46.3707 -6.5168 -7.2940 -19.2227
# 2 18.8483 69.0518 36.4410 11.1249 4.6698 -16.6884
# 3 46.3707 36.4410 195.7719 -35.6596 -15.3120 -17.0661
# 4 -6.5168 11.1249 -35.6596 43.6684 -1.6998 1.2814
# 5 -7.2940 4.6698 -15.3120 -1.6998 55.8235 -9.9373
# 6 -19.2227 -16.6884 -17.0661 1.2814 -9.9373 41.4850
#
#
#
# Elastic Compliance Matrix: (Units=1/GPa)
#
#
# Indices 1 2 3 4 5 6 
#
# 1 0.017225 -0.001910 -0.002787 0.000695 0.002865 0.006731
# 2 -0.001910 0.020594 -0.004948 -0.009825 -0.002736 0.005012
# 3 -0.002787 -0.004948 0.008361 0.007760 0.002679 0.000560
# 4 0.000695 -0.009825 0.007760 0.032011 0.003930 -0.000485
# 5 0.002865 -0.002736 0.002679 0.003930 0.020459 0.006108
# 6 0.006731 0.005012 0.000560 -0.000485 0.006108 0.030949
#
#
# Mechanical properties :
#
#
# Convention : Reuss Voigt Hill
#
# Bulk Modulus (GPa) = 37.18811 60.53125 48.85968
# Shear Modulus (GPa) = 31.67577 44.18213 37.92895
#
# Velocity S-wave (km/s) = 3.42682 4.04717 3.74985
# Velocity P-wave (km/s) = 5.42625 6.65433 6.07142
#
# Compressibility (1/GPa) = 0.02689032
#
# Stress axis : x y z
#
# Youngs Moduli (GPa) = 58.05654 48.55891 119.60553
#
# Poissons Ratio (x) = 0.09274 0.33331
# Poissons Ratio (y) = 0.11088 0.59177
# Poissons Ratio (z) = 0.16179 0.24025
#
# Static dielectric constant tensor:
#      x y z
#    x 2.107960 -0.009320 -0.004990 
#    y -0.009320 2.159600 0.062440 
#    z -0.004990 0.062440 2.314110 
# 
# From -- ./inp_files/607460.got.cif
#   From: 2010.05.17/outbox.cif.g08.bks.cpg/sg2_304_cif.got.tgz:607460.got - 2010.06.03 11:33:40.
