data_PCOD9081111
_publ_section_title
;
Structure prediction by ZEFSAII (Michael W. Deem and Ramdas Pophale) SiO2 
 PCOD9081111
Probable space group: P -1
;
_chemical_formula_sum "Si O2"
_cell_formula_units_Z 16
_cell_length_a 20.558958
_cell_length_b 5.092497
_cell_length_c 6.419127
_cell_angle_alpha 89.991804
_cell_angle_beta 89.540954
_cell_angle_gamma 105.955353
_cell_volume 646.146733
_symmetry_space_group_name_H-M "P -1"
_symmetry_group_IT_number 2
_symmetry_cell_setting 'triclinic'
loop_
_space_group_symop_operation_xyz
x,y,z
-x,-y,-z
loop_
_atom_site_type_symbol
_atom_site_label
_atom_site_fract_x
_atom_site_fract_y
_atom_site_fract_z
Si Si1 0.382376 0.503498 0.229335
Si Si2 0.215398 0.679021 0.603061
Si Si3 0.918180 0.716482 0.514129
Si Si4 0.241730 0.468570 0.019617
Si Si5 0.485059 0.234100 0.647000
Si Si6 0.961933 0.266824 0.253901
Si Si7 0.357430 0.973288 0.482716
Si Si8 0.841925 0.125512 0.006680
O O1 0.459829 0.671433 0.170338
O O2 0.370806 0.684526 0.427171
O O3 0.378219 0.195401 0.296517
O O4 0.317546 0.505243 0.094496
O O5 0.159616 0.453864 0.481602
O O6 0.246348 0.511184 0.770748
O O7 0.277506 0.899032 0.503451
O O8 0.177354 0.845224 0.750518
O O9 0.949981 0.543841 0.346723
O O10 0.958599 0.712493 0.727127
O O11 0.931938 0.017075 0.418226
O O12 0.192147 0.174618 0.070210
O O13 0.201170 0.684929 0.090182
O O14 0.500000 0.500000 0.500000
O O15 0.500000 0.000000 0.500000
O O16 0.404065 0.116269 0.677091
O O17 0.922959 0.204165 0.033831
#
# Coordination Sequence:
#
# PCOD9081111 Si02
#       8
#     2   2   2   2   2   2   2   2
#     4  10  20  34  51  72  93 127 165 193 225 287
#     4   9  20  30  49  74 102 119 152 200 249 275
#     4   9  16  24  43  65  99 115 153 193 237 265
#     4  10  19  31  48  69 100 126 154 196 234 281
#     4   8  16  32  49  68  90 121 160 196 225 272
#     4   9  14  26  40  67  92 123 153 190 229 271
#     4  10  20  32  54  72  95 123 159 198 241 274
#     4   9  17  29  47  68 100 124 154 192 240 275
#
# _framework density 24.762174999999999
#
# number of rings (size 3 to 8) (size 9 to 14) (size 15 to 20)
#    0.750    2.000    1.250    0.750    1.750    0.000 
#    0.000    0.625    0.000    0.750    0.000    5.250 
#    0.000    0.000    0.000    0.000    0.000    0.000 
#
# Total GULP energy -89118.080674 kJ/mol
# GULP energy per Si atom -5569.880042 kJ/mol
# Density = 2.470581 g / cm^3
# Si number density = 24.762175 Si / 1000 Ang^3
#
#
#
# Elastic Constant Matrix: (Units=GPa)
#
#
# Indices 1 2 3 4 5 6 
#
# 1 111.1273 45.4093 40.8903 20.2736 59.1580 25.8344
# 2 45.4093 135.8794 28.1550 17.3270 19.2868 -1.9141
# 3 40.8903 28.1550 68.4819 5.9721 42.8396 20.2215
# 4 20.2736 17.3270 5.9721 27.7242 8.9507 15.8624
# 5 59.1580 19.2868 42.8396 8.9507 61.2685 20.4533
# 6 25.8344 -1.9141 20.2215 15.8624 20.4533 65.7077
#
#
#
# Elastic Compliance Matrix: (Units=1/GPa)
#
#
# Indices 1 2 3 4 5 6 
#
# 1 0.022229 -0.004181 0.002068 -0.006669 -0.020071 -0.001640
# 2 -0.004181 0.009875 -0.004378 -0.005303 0.003618 0.003433
# 3 0.002068 -0.004378 0.028380 0.004029 -0.019525 -0.004569
# 4 -0.006669 -0.005303 0.004029 0.049222 0.001850 -0.011231
# 5 -0.020071 0.003618 -0.019525 0.001850 0.048452 -0.001523
# 6 -0.001640 0.003433 -0.004569 -0.011231 -0.001523 0.020555
#
#
# Mechanical properties :
#
#
# Convention : Reuss Voigt Hill
#
# Bulk Modulus (GPa) = 21.05228 60.48864 40.77046
# Shear Modulus (GPa) = 24.09297 44.34235 34.21766
#
# Velocity S-wave (km/s) = 3.12264 4.23629 3.72136
# Velocity P-wave (km/s) = 4.63912 6.95766 5.91314
#
# Compressibility (1/GPa) = 0.04750079
#
# Stress axis : x y z
#
# Youngs Moduli (GPa) = 44.98620 101.26689 35.23651
#
# Poissons Ratio (x) = 0.42338 -0.07286
# Poissons Ratio (y) = 0.18808 0.15427
# Poissons Ratio (z) = -0.09302 0.44336
#
# Static dielectric constant tensor:
#      x y z
#    x 2.138350 0.069930 0.057450 
#    y 0.069930 1.922340 0.005960 
#    z 0.057450 0.005960 2.041430 
# 
# From -- ./inp_files/116217.got.cif
#   From: 2010.05.17/outbox.cif.g08.bks.cpg/sg2_59_cif.got.tgz:116217.got - 2010.06.03 11:33:40.
