data_PCOD9081249
_publ_section_title
;
Structure prediction by ZEFSAII (Michael W. Deem and Ramdas Pophale) SiO2 
 PCOD9081249
Probable space group: P -1
;
_chemical_formula_sum "Si O2"
_cell_formula_units_Z 16
_cell_length_a 12.085024
_cell_length_b 20.029032
_cell_length_c 10.956871
_cell_angle_alpha 36.241541
_cell_angle_beta 43.923354
_cell_angle_gamma 69.788566
_cell_volume 890.569127
_symmetry_space_group_name_H-M "P -1"
_symmetry_group_IT_number 2
_symmetry_cell_setting 'triclinic'
loop_
_space_group_symop_operation_xyz
x,y,z
-x,-y,-z
loop_
_atom_site_type_symbol
_atom_site_label
_atom_site_fract_x
_atom_site_fract_y
_atom_site_fract_z
Si Si1 0.797244 0.918974 0.211525
Si Si2 0.347373 0.225958 0.808113
Si Si3 0.334191 0.363434 0.399440
Si Si4 0.728501 0.041342 0.862443
Si Si5 0.446455 0.847610 0.767750
Si Si6 0.949832 0.348447 0.777558
Si Si7 0.466315 0.131527 0.055189
Si Si8 0.915953 0.152688 0.292849
O O1 0.745404 0.781749 0.387474
O O2 0.616745 0.862467 0.529640
O O3 0.817625 0.027417 0.936076
O O4 0.000000 0.000000 0.000000
O O5 0.420201 0.354268 0.473551
O O6 0.452845 0.241887 0.827135
O O7 0.121516 0.170791 0.089229
O O8 0.365162 0.111871 0.893433
O O9 0.144217 0.362763 0.562546
O O10 0.500000 0.500000 0.000000
O O11 0.860049 0.136128 0.504768
O O12 0.589826 0.085593 0.953159
O O13 0.455787 0.816470 0.947780
O O14 0.500000 0.000000 0.500000
O O15 0.239061 0.748486 0.013504
O O16 0.000000 0.500000 0.500000
O O17 0.911513 0.272624 0.051834
O O18 0.247750 0.989904 0.435142
#
# Coordination Sequence:
#
# PCOD9081249 Si02
#       8
#     2   2   2   2   2   2   2   2
#     4  11  23  35  58  88 120 150 189 239 290 340
#     4   9  20  33  55  84 114 151 191 233 286 335
#     4  10  22  40  62  84 112 153 200 235 282 347
#     4  10  19  31  52  84 114 147 190 229 286 332
#     4  12  22  37  58  89 121 151 190 240 297 333
#     4  11  23  40  62  84 116 155 195 237 288 350
#     4  11  20  32  56  84 121 146 186 238 287 337
#     4  10  19  34  56  83 113 151 191 236 280 341
#
# _framework density 17.966038999999999
#
# number of rings (size 3 to 8) (size 9 to 14) (size 15 to 20)
#    0.000    1.500    2.500    4.500    5.250    3.000 
#    0.000    0.000    2.750    3.750    0.000    0.000 
#    0.000    0.000    0.000    0.000    0.000    0.000 
#
# Total GULP energy -89160.124473 kJ/mol
# GULP energy per Si atom -5572.507780 kJ/mol
# Density = 1.792515 g / cm^3
# Si number density = 17.966039 Si / 1000 Ang^3
#
#
#
# Elastic Constant Matrix: (Units=GPa)
#
#
# Indices 1 2 3 4 5 6 
#
# 1 195.1686 53.4770 76.7967 6.6203 27.1664 -11.6693
# 2 53.4770 86.5636 33.3308 3.2820 17.5434 -14.6641
# 3 76.7967 33.3308 115.5229 2.4222 23.1557 -7.5665
# 4 6.6203 3.2820 2.4222 26.6563 3.6351 6.3979
# 5 27.1664 17.5434 23.1557 3.6351 29.3885 -1.5299
# 6 -11.6693 -14.6641 -7.5665 6.3979 -1.5299 24.8557
#
#
#
# Elastic Compliance Matrix: (Units=1/GPa)
#
#
# Indices 1 2 3 4 5 6 
#
# 1 0.007796 -0.002613 -0.003848 -0.001202 -0.002408 0.001108
# 2 -0.002613 0.016275 -0.001245 -0.002470 -0.005582 0.008288
# 3 -0.003848 -0.001245 0.012779 0.000532 -0.005790 0.000856
# 4 -0.001202 -0.002470 0.000532 0.041639 -0.003650 -0.012802
# 5 -0.002408 -0.005582 -0.005790 -0.003650 0.044468 -0.002509
# 6 0.001108 0.008288 0.000856 -0.012802 -0.002509 0.049043
#
#
# Mechanical properties :
#
#
# Convention : Reuss Voigt Hill
#
# Bulk Modulus (GPa) = 46.64783 80.49601 63.57192
# Shear Modulus (GPa) = 25.69906 31.75683 28.72794
#
# Velocity S-wave (km/s) = 3.78620 4.20885 4.00311
# Velocity P-wave (km/s) = 6.71823 8.27774 7.53842
#
# Compressibility (1/GPa) = 0.02143722
#
# Stress axis : x y z
#
# Youngs Moduli (GPa) = 128.26509 61.44476 78.25247
#
# Poissons Ratio (x) = 0.16057 0.30114
# Poissons Ratio (y) = 0.33518 0.09742
# Poissons Ratio (z) = 0.49360 0.07650
#
# Static dielectric constant tensor:
#      x y z
#    x 2.026420 0.249850 0.145390 
#    y 0.249850 1.756610 0.100430 
#    z 0.145390 0.100430 1.635910 
# 
# From -- ./inp_files/283277.got.cif
#   From: 2010.05.17/outbox.cif.g08.bks.cpg/sg2_142_cif.got.tgz:283277.got - 2010.06.03 11:33:40.
