data_PCOD9081879
_publ_section_title
;
Structure prediction by ZEFSAII (Michael W. Deem and Ramdas Pophale) SiO2 
 PCOD9081879
Probable space group: P -1
;
_chemical_formula_sum "Si O2"
_cell_formula_units_Z 16
_cell_length_a 8.109515
_cell_length_b 8.223381
_cell_length_c 15.862688
_cell_angle_alpha 101.026723
_cell_angle_beta 62.444825
_cell_angle_gamma 57.590228
_cell_volume 641.114546
_symmetry_space_group_name_H-M "P -1"
_symmetry_group_IT_number 2
_symmetry_cell_setting 'triclinic'
loop_
_space_group_symop_operation_xyz
x,y,z
-x,-y,-z
loop_
_atom_site_type_symbol
_atom_site_label
_atom_site_fract_x
_atom_site_fract_y
_atom_site_fract_z
Si Si1 0.440132 0.300764 0.392969
Si Si2 0.080101 0.700009 0.648227
Si Si3 0.579624 0.810603 0.784934
Si Si4 0.272439 0.455376 0.748317
Si Si5 0.981849 0.117904 0.698782
Si Si6 0.686803 0.666775 0.099210
Si Si7 0.303349 0.060463 0.478837
Si Si8 0.274083 0.416790 0.105284
O O1 0.288399 0.534876 0.507387
O O2 0.471032 0.292363 0.284805
O O3 0.728172 0.083690 0.344648
O O4 0.276228 0.233016 0.440680
O O5 0.207824 0.623526 0.704455
O O6 0.906374 0.973959 0.698092
O O7 0.889969 0.662764 0.693201
O O8 0.533802 0.785427 0.889393
O O9 0.425206 0.078769 0.828056
O O10 0.338169 0.448610 0.829854
O O11 0.528393 0.190915 0.629137
O O12 0.006915 0.507314 0.820745
O O13 0.043263 0.157707 0.596900
O O14 0.805316 0.352338 0.818919
O O15 0.602764 0.667149 0.025114
O O16 0.000000 0.500000 0.000000
O O17 0.500000 0.000000 0.500000
#
# Coordination Sequence:
#
# PCOD9081879 Si02
#       8
#     2   2   2   2   2   2   2   2
#     4  11  19  36  59  87 117 162 193 235 276 353
#     4  11  23  35  55  92 127 154 184 239 300 344
#     4  11  22  38  59  88 121 147 193 244 300 341
#     4  10  17  34  58  87 111 153 196 239 282 341
#     4  11  21  37  59  86 123 159 197 229 281 353
#     4  10  20  37  65  88 105 148 207 250 279 340
#     4  10  15  30  59  80 115 149 196 232 277 328
#     4  10  20  37  58  86 115 153 195 246 288 333
#
# _framework density 24.956538999999999
#
# number of rings (size 3 to 8) (size 9 to 14) (size 15 to 20)
#    0.000    1.500    6.250    2.625    0.000    0.000 
#    0.000    5.000    0.000    0.000    0.000    0.000 
#    0.000    0.000    0.000    0.000    0.000    0.000 
#
# Total GULP energy -89472.022618 kJ/mol
# GULP energy per Si atom -5592.001414 kJ/mol
# Density = 2.489974 g / cm^3
# Si number density = 24.956539 Si / 1000 Ang^3
#
#
#
# Elastic Constant Matrix: (Units=GPa)
#
#
# Indices 1 2 3 4 5 6 
#
# 1 50.7464 9.2184 10.2103 -12.7681 7.7748 -2.2717
# 2 9.2184 100.7788 26.6044 -13.6728 8.1179 -4.8298
# 3 10.2103 26.6044 120.8883 -26.6530 12.5393 -4.9009
# 4 -12.7681 -13.6728 -26.6530 46.7688 -9.9690 7.5500
# 5 7.7748 8.1179 12.5393 -9.9690 21.1298 -4.6898
# 6 -2.2717 -4.8298 -4.9009 7.5500 -4.6898 35.1239
#
#
#
# Elastic Compliance Matrix: (Units=1/GPa)
#
#
# Indices 1 2 3 4 5 6 
#
# 1 0.021870 -0.000935 -0.000080 0.004530 -0.005603 -0.000447
# 2 -0.000935 0.010854 -0.001774 0.001384 -0.001982 0.000622
# 3 -0.000080 -0.001774 0.009981 0.004519 -0.003135 -0.000246
# 4 0.004530 0.001384 0.004519 0.027796 0.007373 -0.003876
# 5 -0.005603 -0.001982 -0.003135 0.007373 0.056576 0.004897
# 6 -0.000447 0.000622 -0.000246 -0.003876 0.004897 0.029980
#
#
# Mechanical properties :
#
#
# Convention : Reuss Voigt Hill
#
# Bulk Modulus (GPa) = 26.93413 40.49776 33.71594
# Shear Modulus (GPa) = 28.57006 35.69652 32.13329
#
# Velocity S-wave (km/s) = 3.38715 3.78610 3.59217
# Velocity P-wave (km/s) = 5.11008 5.94771 5.54473
#
# Compressibility (1/GPa) = 0.03712761
#
# Stress axis : x y z
#
# Youngs Moduli (GPa) = 45.72516 92.13412 100.19325
#
# Poissons Ratio (x) = 0.08615 0.00798
# Poissons Ratio (y) = 0.04275 0.17771
# Poissons Ratio (z) = 0.00364 0.16342
#
# Static dielectric constant tensor:
#      x y z
#    x 2.039040 0.014590 -0.001010 
#    y 0.014590 1.987280 -0.040220 
#    z -0.001010 -0.040220 1.966980 
# 
# From -- ./inp_files/176103.got.cif
#   From: 2010.05.17/outbox.cif.g08.bks.cpg/sg2_89_cif.got.tgz:176103.got - 2010.06.03 11:33:40.
