data_PCOD9081254
_publ_section_title
;
Structure prediction by ZEFSAII (Michael W. Deem and Ramdas Pophale) SiO2 
 PCOD9081254
Probable space group: P -1
;
_chemical_formula_sum "Si O2"
_cell_formula_units_Z 16
_cell_length_a 14.018974
_cell_length_b 9.262787
_cell_length_c 9.840725
_cell_angle_alpha 111.059702
_cell_angle_beta 143.421914
_cell_angle_gamma 59.466861
_cell_volume 652.957987
_symmetry_space_group_name_H-M "P -1"
_symmetry_group_IT_number 2
_symmetry_cell_setting 'triclinic'
loop_
_space_group_symop_operation_xyz
x,y,z
-x,-y,-z
loop_
_atom_site_type_symbol
_atom_site_label
_atom_site_fract_x
_atom_site_fract_y
_atom_site_fract_z
Si Si1 0.415117 0.129889 0.328103
Si Si2 0.916223 0.195962 0.007723
Si Si3 0.824972 0.590028 0.417557
Si Si4 0.933716 0.878140 0.580530
Si Si5 0.688872 0.225170 0.523022
Si Si6 0.524372 0.723095 0.941388
Si Si7 0.132734 0.401758 0.234665
Si Si8 0.260087 0.080240 0.877636
O O1 0.570061 0.133260 0.414827
O O2 0.317599 0.310579 0.345864
O O3 0.500000 0.000000 0.500000
O O4 0.275565 0.091862 0.061180
O O5 0.754602 0.288314 0.753448
O O6 0.900735 0.207020 0.158479
O O7 0.059422 0.264498 0.150777
O O8 0.000000 0.000000 0.000000
O O9 0.808491 0.784716 0.457755
O O10 0.651476 0.592496 0.149244
O O11 0.854479 0.518146 0.579247
O O12 0.000000 0.500000 0.500000
O O13 0.917645 0.869263 0.396081
O O14 0.852304 0.074761 0.591323
O O15 0.575912 0.337319 0.308510
O O16 0.655119 0.790874 0.034190
O O17 0.384204 0.890420 0.909767
O O18 0.000000 0.500000 0.000000
#
# Coordination Sequence:
#
# PCOD9081254 Si02
#       8
#     2   2   2   2   2   2   2   2
#     4  11  19  31  54  82 115 146 187 237 297 326
#     4   9  17  36  59  81 112 155 191 224 276 351
#     4  10  19  31  53  73 108 154 189 218 266 350
#     4   8  15  29  50  81 103 133 195 232 260 314
#     4   9  17  30  59  80 103 141 190 237 270 333
#     4   8  14  27  47  78  98 128 198 231 257 306
#     4  11  25  37  54  90 125 141 182 247 300 325
#     4   8  14  25  48  74 104 135 176 245 268 314
#
# _framework density 24.503872999999999
#
# number of rings (size 3 to 8) (size 9 to 14) (size 15 to 20)
#    0.000    2.750    0.000    5.250    5.250    0.000 
#    0.000    0.625    0.000   14.250    0.000    0.000 
#    0.000    0.000    0.000    0.000    0.000    0.000 
#
# Total GULP energy -89151.276907 kJ/mol
# GULP energy per Si atom -5571.954807 kJ/mol
# Density = 2.444810 g / cm^3
# Si number density = 24.503873 Si / 1000 Ang^3
#
#
#
# Elastic Constant Matrix: (Units=GPa)
#
#
# Indices 1 2 3 4 5 6 
#
# 1 44.0924 17.1932 37.2030 1.0222 -22.0319 -5.7440
# 2 17.1932 33.0876 21.2735 -6.5066 -2.1561 -7.6597
# 3 37.2030 21.2735 246.6588 16.1307 -63.0702 -24.4446
# 4 1.0222 -6.5066 16.1307 24.7658 -0.1451 2.7126
# 5 -22.0319 -2.1561 -63.0702 -0.1451 40.6354 9.1460
# 6 -5.7440 -7.6597 -24.4446 2.7126 9.1460 27.5311
#
#
#
# Elastic Compliance Matrix: (Units=1/GPa)
#
#
# Indices 1 2 3 4 5 6 
#
# 1 0.043844 -0.025709 0.003031 -0.009981 0.027886 -0.003594
# 2 -0.025709 0.052280 -0.007108 0.018288 -0.024181 0.009101
# 3 0.003031 -0.007108 0.008502 -0.007706 0.013908 0.002343
# 4 -0.009981 0.018288 -0.007706 0.050934 -0.015376 -0.003747
# 5 0.027886 -0.024181 0.013908 -0.015376 0.061673 -0.007534
# 6 -0.003594 0.009101 0.002343 -0.003747 -0.007534 0.043057
#
#
# Mechanical properties :
#
#
# Convention : Reuss Voigt Hill
#
# Bulk Modulus (GPa) = 22.19583 52.79759 37.49671
# Shear Modulus (GPa) = 14.93066 35.13105 25.03085
#
# Velocity S-wave (km/s) = 2.47112 3.79052 3.19957
# Velocity P-wave (km/s) = 4.14965 6.38364 5.38379
#
# Compressibility (1/GPa) = 0.04505351
#
# Stress axis : x y z
#
# Youngs Moduli (GPa) = 22.80814 19.12783 117.61254
#
# Poissons Ratio (x) = 0.49176 -0.35653
# Poissons Ratio (y) = 0.58638 0.83604
# Poissons Ratio (z) = -0.06914 0.13597
#
# Static dielectric constant tensor:
#      x y z
#    x 1.936930 0.046350 -0.058550 
#    y 0.046350 1.871610 0.044740 
#    z -0.058550 0.044740 2.110160 
# 
# From -- ./inp_files/305473.got.cif
#   From: 2010.05.17/outbox.cif.g08.bks.cpg/sg2_153_cif.got.tgz:305473.got - 2010.06.03 11:33:40.
