data_PCOD9081018
_publ_section_title
;
Structure prediction by ZEFSAII (Michael W. Deem and Ramdas Pophale) SiO2 
 PCOD9081018
Probable space group: P -1
;
_chemical_formula_sum "Si O2"
_cell_formula_units_Z 16
_cell_length_a 20.663611
_cell_length_b 8.220686
_cell_length_c 12.726469
_cell_angle_alpha 105.865841
_cell_angle_beta 37.756324
_cell_angle_gamma 77.978057
_cell_volume 882.795656
_symmetry_space_group_name_H-M "P -1"
_symmetry_group_IT_number 2
_symmetry_cell_setting 'triclinic'
loop_
_space_group_symop_operation_xyz
x,y,z
-x,-y,-z
loop_
_atom_site_type_symbol
_atom_site_label
_atom_site_fract_x
_atom_site_fract_y
_atom_site_fract_z
Si Si1 0.495764 0.603282 0.358980
Si Si2 0.397024 0.331950 0.488180
Si Si3 0.836058 0.772440 0.745573
Si Si4 0.578421 0.402916 0.994521
Si Si5 0.210865 0.542622 0.951217
Si Si6 0.086430 0.016553 0.473679
Si Si7 0.677035 0.946419 0.194576
Si Si8 0.541696 0.060008 0.057498
O O1 0.462022 0.448474 0.410571
O O2 0.660945 0.478889 0.166524
O O3 0.367403 0.869213 0.624940
O O4 0.504562 0.593799 0.219305
O O5 0.240488 0.516495 0.784124
O O6 0.407930 0.226150 0.344977
O O7 0.513620 0.101991 0.376493
O O8 0.863139 0.887231 0.647419
O O9 0.000000 0.500000 0.500000
O O10 0.778224 0.895317 0.957193
O O11 0.695221 0.830598 0.884149
O O12 0.757553 0.240987 0.728096
O O13 0.500000 0.500000 0.000000
O O14 0.564816 0.224501 0.017566
O O15 0.248894 0.311401 0.904968
O O16 0.040130 0.786426 0.244640
O O17 0.000000 0.000000 0.500000
O O18 0.500000 0.000000 0.000000
#
# Coordination Sequence:
#
# PCOD9081018 Si02
#       8
#     2   2   2   2   2   2   2   2
#     4  10  19  34  54  80 110 145 183 226 269 324
#     4   9  19  32  53  81 111 144 182 224 271 322
#     4  10  20  36  53  84 115 138 176 230 276 322
#     4  10  22  38  57  79 109 146 188 226 268 330
#     4  11  19  31  54  83 114 139 180 227 277 325
#     4  11  22  35  56  85 113 143 183 227 281 322
#     4  10  19  30  52  82 111 140 180 220 275 323
#     4   9  20  36  58  77 106 146 187 220 267 326
#
# _framework density 18.124237999999998
#
# number of rings (size 3 to 8) (size 9 to 14) (size 15 to 20)
#    0.000    2.000    2.500    3.750    1.750    4.000 
#    0.000    0.000    2.750    3.750    0.000    0.000 
#    0.000    0.000    0.000    0.000    0.000    0.000 
#
# Total GULP energy -89130.592461 kJ/mol
# GULP energy per Si atom -5570.662029 kJ/mol
# Density = 1.808299 g / cm^3
# Si number density = 18.124238 Si / 1000 Ang^3
#
#
#
# Elastic Constant Matrix: (Units=GPa)
#
#
# Indices 1 2 3 4 5 6 
#
# 1 118.6565 17.8753 69.9010 5.3119 30.1151 -14.6058
# 2 17.8753 29.2546 31.1550 2.7273 6.5976 -16.0474
# 3 69.9010 31.1550 176.4776 -6.6232 32.6243 -15.7750
# 4 5.3119 2.7273 -6.6232 27.3606 -3.1336 0.2676
# 5 30.1151 6.5976 32.6243 -3.1336 32.1755 -0.5008
# 6 -14.6058 -16.0474 -15.7750 0.2676 -0.5008 25.3773
#
#
#
# Elastic Compliance Matrix: (Units=1/GPa)
#
#
# Indices 1 2 3 4 5 6 
#
# 1 0.013856 0.001693 -0.003495 -0.004933 -0.010147 0.006724
# 2 0.001693 0.063997 -0.007721 -0.009766 -0.007260 0.036603
# 3 -0.003495 -0.007721 0.009189 0.003208 -0.004171 -0.001298
# 4 -0.004933 -0.009766 0.003208 0.040148 0.007163 -0.007303
# 5 -0.010147 -0.007260 -0.004171 0.007163 0.046803 -0.012176
# 6 0.006724 0.036603 -0.001298 -0.007303 -0.012176 0.065451
#
#
# Mechanical properties :
#
#
# Convention : Reuss Voigt Hill
#
# Bulk Modulus (GPa) = 14.70690 62.47237 38.58964
# Shear Modulus (GPa) = 17.78373 30.67983 24.23178
#
# Velocity S-wave (km/s) = 3.13583 4.11877 3.66044
# Velocity P-wave (km/s) = 4.60905 7.56061 6.26124
#
# Compressibility (1/GPa) = 0.06799527
#
# Stress axis : x y z
#
# Youngs Moduli (GPa) = 72.17321 15.62573 108.82277
#
# Poissons Ratio (x) = -0.02645 0.38035
# Poissons Ratio (y) = -0.12217 0.84022
# Poissons Ratio (z) = 0.25225 0.12065
#
# Static dielectric constant tensor:
#      x y z
#    x 1.638690 0.004480 0.029420 
#    y 0.004480 1.655910 -0.000600 
#    z 0.029420 -0.000600 1.694650 
# 
# From -- ./inp_files/333133.got.cif
#   From: 2010.05.17/outbox.cif.g08.bks.cpg/sg2_167_cif.got.tgz:333133.got - 2010.06.03 11:33:40.
