data_PCOD9081597
_publ_section_title
;
Structure prediction by ZEFSAII (Michael W. Deem and Ramdas Pophale) SiO2 
 PCOD9081597
Probable space group: P -1
;
_chemical_formula_sum "Si O2"
_cell_formula_units_Z 16
_cell_length_a 11.181219
_cell_length_b 8.826351
_cell_length_c 11.215095
_cell_angle_alpha 120.827548
_cell_angle_beta 53.966195
_cell_angle_gamma 124.548127
_cell_volume 710.128385
_symmetry_space_group_name_H-M "P -1"
_symmetry_group_IT_number 2
_symmetry_cell_setting 'triclinic'
loop_
_space_group_symop_operation_xyz
x,y,z
-x,-y,-z
loop_
_atom_site_type_symbol
_atom_site_label
_atom_site_fract_x
_atom_site_fract_y
_atom_site_fract_z
Si Si1 0.696510 0.085580 0.126203
Si Si2 0.396052 0.262529 0.110875
Si Si3 0.655104 0.922071 0.669892
Si Si4 0.273327 0.418180 0.619840
Si Si5 0.280180 0.584990 0.922812
Si Si6 0.250054 0.507322 0.414107
Si Si7 0.983252 0.410226 0.173752
Si Si8 0.104973 0.692201 0.410765
O O1 0.518181 0.072497 0.258916
O O2 0.742443 0.230678 0.044139
O O3 0.840811 0.203262 0.176915
O O4 0.684111 0.880174 0.006670
O O5 0.356734 0.145586 0.212754
O O6 0.587445 0.341580 0.023246
O O7 0.347471 0.439936 0.234847
O O8 0.703446 0.774826 0.501827
O O9 0.795013 0.126308 0.651180
O O10 0.348868 0.506304 0.737518
O O11 0.327485 0.536910 0.512151
O O12 0.101333 0.437810 0.744054
O O13 0.117532 0.432254 0.007013
O O14 0.208092 0.680188 0.459196
O O15 0.075583 0.331751 0.461581
O O16 0.072211 0.496413 0.278226
#
# Coordination Sequence:
#
# PCOD9081597 Si02
#       8
#     2   2   2   2   2   2   2   2
#     4  10  19  32  52  82 114 141 176 229 276 316
#     4  10  20  35  57  82 110 143 184 226 270 323
#     4  10  20  33  56  84 108 139 184 231 269 317
#     4   9  19  33  56  85 109 140 180 225 272 320
#     4  10  19  33  56  85 114 140 178 230 274 321
#     4   9  21  36  56  80 110 148 181 219 272 331
#     4  10  20  33  55  82 113 145 180 225 274 321
#     4  10  20  38  57  79 111 147 182 221 271 326
#
# _framework density 22.531139
#
# number of rings (size 3 to 8) (size 9 to 14) (size 15 to 20)
#    0.000    2.250    0.000    4.500    0.000   16.500 
#    0.000    3.125    0.000   30.000    0.000    0.875 
#    0.000    0.000    0.000    0.000    0.000    0.000 
#
# Total GULP energy -89195.230051 kJ/mol
# GULP energy per Si atom -5574.701878 kJ/mol
# Density = 2.247986 g / cm^3
# Si number density = 22.531139 Si / 1000 Ang^3
#
#
#
# Elastic Constant Matrix: (Units=GPa)
#
#
# Indices 1 2 3 4 5 6 
#
# 1 46.2343 14.1800 12.3875 -2.8065 7.0472 15.9283
# 2 14.1800 34.2951 13.3000 0.7399 1.7531 22.5653
# 3 12.3875 13.3000 90.0515 20.4236 6.6091 9.8942
# 4 -2.8065 0.7399 20.4236 30.2857 15.9939 4.0503
# 5 7.0472 1.7531 6.6091 15.9939 28.0311 4.1862
# 6 15.9283 22.5653 9.8942 4.0503 4.1862 24.8093
#
#
#
# Elastic Compliance Matrix: (Units=1/GPa)
#
#
# Indices 1 2 3 4 5 6 
#
# 1 0.032825 0.003994 -0.005381 0.016684 -0.013312 -0.023039
# 2 0.003994 0.077622 -0.007037 0.013466 -0.001074 -0.072376
# 3 -0.005381 -0.007037 0.015111 -0.014124 0.005511 0.005204
# 4 0.016684 0.013466 -0.014124 0.065650 -0.035881 -0.021990
# 5 -0.013312 -0.001074 0.005511 -0.035881 0.057749 0.003439
# 6 -0.023039 -0.072376 0.005204 -0.021990 0.003439 0.121863
#
#
# Mechanical properties :
#
#
# Convention : Reuss Voigt Hill
#
# Bulk Modulus (GPa) = 9.19866 27.81288 18.50577
# Shear Modulus (GPa) = 11.79514 25.33944 18.56729
#
# Velocity S-wave (km/s) = 2.29050 3.35720 2.87378
# Velocity P-wave (km/s) = 3.32967 5.23438 4.38665
#
# Compressibility (1/GPa) = 0.10871151
#
# Stress axis : x y z
#
# Youngs Moduli (GPa) = 30.46479 12.88297 66.17616
#
# Poissons Ratio (x) = -0.05146 0.35609
# Poissons Ratio (y) = -0.12169 0.46566
# Poissons Ratio (z) = 0.16393 0.09065
#
# Static dielectric constant tensor:
#      x y z
#    x 1.905360 0.021690 0.031810 
#    y 0.021690 1.809090 0.013320 
#    z 0.031810 0.013320 1.878700 
# 
# From -- ./inp_files/418037.got.cif
#   From: 2010.05.17/outbox.cif.g08.bks.cpg/sg2_210_cif.got.tgz:418037.got - 2010.06.03 11:33:40.
