data_PCOD9081252
_publ_section_title
;
Structure prediction by ZEFSAII (Michael W. Deem and Ramdas Pophale) SiO2 
 PCOD9081252
Probable space group: P -1
;
_chemical_formula_sum "Si O2"
_cell_formula_units_Z 16
_cell_length_a 12.221700
_cell_length_b 11.733999
_cell_length_c 16.613702
_cell_angle_alpha 122.208530
_cell_angle_beta 151.332979
_cell_angle_gamma 78.143778
_cell_volume 738.198113
_symmetry_space_group_name_H-M "P -1"
_symmetry_group_IT_number 2
_symmetry_cell_setting 'triclinic'
loop_
_space_group_symop_operation_xyz
x,y,z
-x,-y,-z
loop_
_atom_site_type_symbol
_atom_site_label
_atom_site_fract_x
_atom_site_fract_y
_atom_site_fract_z
Si Si1 0.785976 0.285024 0.782301
Si Si2 0.888613 0.631850 0.711661
Si Si3 0.699514 0.879060 0.110033
Si Si4 0.142279 0.554640 0.701899
Si Si5 0.135445 0.983656 0.296929
Si Si6 0.440667 0.671477 0.494274
Si Si7 0.263185 0.017162 0.087125
Si Si8 0.760063 0.174388 0.342116
O O1 0.913247 0.183466 0.835988
O O2 0.665019 0.248261 0.599424
O O3 0.480598 0.162884 0.591548
O O4 0.000000 0.500000 0.000000
O O5 0.585694 0.607051 0.510166
O O6 0.815996 0.489692 0.676530
O O7 0.986594 0.605441 0.679565
O O8 0.143284 0.833676 0.977941
O O9 0.965105 0.913802 0.245313
O O10 0.823311 0.051439 0.304520
O O11 0.490045 0.713892 0.971938
O O12 0.468671 0.847796 0.880520
O O13 0.000000 0.500000 0.500000
O O14 0.050132 0.376640 0.611098
O O15 0.971286 0.029301 0.150949
O O16 0.689935 0.835375 0.772038
O O17 0.576381 0.107333 0.280228
#
# Coordination Sequence:
#
# PCOD9081252 Si02
#       8
#     2   2   2   2   2   2   2   2
#     4  11  26  43  61  86 125 167 205 256 303 369
#     4  11  22  35  59  96 128 158 200 252 318 361
#     4   9  18  32  54  83 120 156 193 253 301 353
#     4  10  19  31  52  90 129 156 192 249 307 364
#     4  10  24  40  62  91 121 159 215 247 308 365
#     4  11  25  38  62  93 127 165 199 255 313 368
#     4  11  20  38  63  92 126 153 199 260 302 366
#     4   9  17  29  52  87 122 151 190 244 308 351
#
# _framework density 21.674398
#
# number of rings (size 3 to 8) (size 9 to 14) (size 15 to 20)
#    0.000    1.750    3.750    0.375    5.250    2.000 
#    0.000    0.000    0.000    1.500    0.000    0.000 
#    0.000    0.000    0.000    0.000    0.000    0.000 
#
# Total GULP energy -89213.292132 kJ/mol
# GULP energy per Si atom -5575.830758 kJ/mol
# Density = 2.162507 g / cm^3
# Si number density = 21.674398 Si / 1000 Ang^3
#
#
#
# Elastic Constant Matrix: (Units=GPa)
#
#
# Indices 1 2 3 4 5 6 
#
# 1 139.1468 29.1442 57.4233 23.2270 29.9250 -16.3524
# 2 29.1442 54.3577 40.6740 34.3499 16.3002 0.4981
# 3 57.4233 40.6740 88.9183 51.0702 33.0998 -9.5367
# 4 23.2270 34.3499 51.0702 44.0711 12.5508 -1.7528
# 5 29.9250 16.3002 33.0998 12.5508 28.1568 6.9009
# 6 -16.3524 0.4981 -9.5367 -1.7528 6.9009 31.7842
#
#
#
# Elastic Compliance Matrix: (Units=1/GPa)
#
#
# Indices 1 2 3 4 5 6 
#
# 1 0.011717 -0.002910 -0.004682 0.004314 -0.008860 0.006830
# 2 -0.002910 0.042103 0.018245 -0.045354 -0.023990 0.006025
# 3 -0.004682 0.018245 0.109744 -0.109546 -0.096848 0.045220
# 4 0.004314 -0.045354 -0.109546 0.155025 0.091455 -0.041246
# 5 -0.008860 -0.023990 -0.096848 0.091455 0.146618 -0.060031
# 6 0.006830 0.006025 0.045220 -0.041246 -0.060031 0.059209
#
#
# Mechanical properties :
#
#
# Convention : Reuss Voigt Hill
#
# Bulk Modulus (GPa) = 5.40922 59.65620 32.53271
# Shear Modulus (GPa) = 8.85376 31.14783 20.00080
#
# Velocity S-wave (km/s) = 2.02330 3.79500 3.04103
# Velocity P-wave (km/s) = 2.82125 6.84005 5.23190
#
# Compressibility (1/GPa) = 0.18486950
#
# Stress axis : x y z
#
# Youngs Moduli (GPa) = 85.34926 23.75109 9.11215
#
# Poissons Ratio (x) = 0.06912 0.04267
# Poissons Ratio (y) = 0.24837 -0.16625
# Poissons Ratio (z) = 0.39963 -0.43335
#
# Static dielectric constant tensor:
#      x y z
#    x 1.988690 -0.096510 -0.041280 
#    y -0.096510 1.844710 0.024530 
#    z -0.041280 0.024530 1.845220 
# 
# From -- ./inp_files/436393.got.cif
#   From: 2010.05.17/outbox.cif.g08.bks.cpg/sg2_219_cif.got.tgz:436393.got - 2010.06.03 11:33:40.
