data_PCOD9081087
_publ_section_title
;
Structure prediction by ZEFSAII (Michael W. Deem and Ramdas Pophale) SiO2 
 PCOD9081087
Probable space group: P -1
;
_chemical_formula_sum "Si O2"
_cell_formula_units_Z 16
_cell_length_a 7.955814
_cell_length_b 11.384003
_cell_length_c 18.707150
_cell_angle_alpha 140.440801
_cell_angle_beta 115.898683
_cell_angle_gamma 38.934456
_cell_volume 619.378420
_symmetry_space_group_name_H-M "P -1"
_symmetry_group_IT_number 2
_symmetry_cell_setting 'triclinic'
loop_
_space_group_symop_operation_xyz
x,y,z
-x,-y,-z
loop_
_atom_site_type_symbol
_atom_site_label
_atom_site_fract_x
_atom_site_fract_y
_atom_site_fract_z
Si Si1 0.587072 0.439723 0.161211
Si Si2 0.342431 0.399900 0.391525
Si Si3 0.158731 0.211711 0.347940
Si Si4 0.136676 0.145057 0.022468
Si Si5 0.775382 0.533888 0.749670
Si Si6 0.198205 0.764595 0.113508
Si Si7 0.620083 0.795882 0.361444
Si Si8 0.923118 0.035033 0.417351
O O1 0.857197 0.306606 0.097326
O O2 0.299980 0.649765 0.158126
O O3 0.592885 0.606241 0.294048
O O4 0.662842 0.184014 0.083913
O O5 0.243079 0.265909 0.319773
O O6 0.434907 0.358490 0.306022
O O7 0.598374 0.225381 0.417023
O O8 0.092301 0.748793 0.520426
O O9 0.000000 0.500000 0.500000
O O10 0.075328 0.069571 0.236279
O O11 0.425532 0.958862 0.330723
O O12 0.271971 0.235029 0.113006
O O13 0.020986 0.213961 0.952710
O O14 0.074718 0.352593 0.676659
O O15 0.864442 0.301923 0.711030
O O16 0.500000 0.500000 0.000000
O O17 0.500000 0.000000 0.500000
O O18 0.000000 0.000000 0.500000
#
# Coordination Sequence:
#
# PCOD9081087 Si02
#       8
#     2   2   2   2   2   2   2   2
#     4   8  17  28  39  63  93 133 172 202 245 302
#     4  10  20  33  54  75 107 141 177 228 270 316
#     4  11  22  33  51  82 114 147 181 211 270 333
#     4   9  17  27  46  67  97 134 168 208 256 307
#     4  10  19  31  51  77 102 137 178 221 267 312
#     4   9  19  31  46  69 109 144 175 215 252 316
#     4  10  19  31  45  68 109 143 171 210 256 318
#     4   9  19  36  52  74 104 137 184 230 274 308
#
# _framework density 25.832350000000002
#
# number of rings (size 3 to 8) (size 9 to 14) (size 15 to 20)
#    0.000    2.500    1.250    1.500    8.750    0.000 
#    0.000    0.000    0.000    0.000    0.000    0.875 
#    3.750   18.250    0.000    1.125    0.000    0.000 
#
# Total GULP energy -89214.857932 kJ/mol
# GULP energy per Si atom -5575.928621 kJ/mol
# Density = 2.577355 g / cm^3
# Si number density = 25.832350 Si / 1000 Ang^3
#
#
#
# Elastic Constant Matrix: (Units=GPa)
#
#
# Indices 1 2 3 4 5 6 
#
# 1 79.9519 23.7453 32.1137 -1.1126 14.5682 10.9426
# 2 23.7453 158.0979 51.9450 0.6356 18.9151 14.5232
# 3 32.1137 51.9450 205.3430 -0.3511 22.2324 1.3197
# 4 -1.1126 0.6356 -0.3511 46.2175 4.1015 11.3882
# 5 14.5682 18.9151 22.2324 4.1015 46.3241 0.9655
# 6 10.9426 14.5232 1.3197 11.3882 0.9655 29.3611
#
#
#
# Elastic Compliance Matrix: (Units=1/GPa)
#
#
# Indices 1 2 3 4 5 6 
#
# 1 0.014897 -0.000713 -0.001715 0.002113 -0.003637 -0.005822
# 2 -0.000713 0.007526 -0.001538 0.000966 -0.002120 -0.003693
# 3 -0.001715 -0.001538 0.005689 -0.000146 -0.001577 0.001252
# 4 0.002113 0.000966 -0.000146 0.024569 -0.002941 -0.010691
# 5 -0.003637 -0.002120 -0.001577 -0.002941 0.024555 0.002808
# 6 -0.005822 -0.003693 0.001252 -0.010691 0.002808 0.042053
#
#
# Mechanical properties :
#
#
# Convention : Reuss Voigt Hill
#
# Bulk Modulus (GPa) = 49.54705 73.22232 61.38469
# Shear Modulus (GPa) = 37.32827 46.75315 42.04071
#
# Velocity S-wave (km/s) = 3.80547 4.25887 4.03854
# Velocity P-wave (km/s) = 6.20731 7.25194 6.74986
#
# Compressibility (1/GPa) = 0.02018284
#
# Stress axis : x y z
#
# Youngs Moduli (GPa) = 67.12866 132.86582 175.76443
#
# Poissons Ratio (x) = 0.09468 0.30138
# Poissons Ratio (y) = 0.04783 0.27026
# Poissons Ratio (z) = 0.11510 0.20430
#
# Static dielectric constant tensor:
#      x y z
#    x 1.966040 -0.008380 -0.245240 
#    y -0.008380 2.044180 0.005890 
#    z -0.245240 0.005890 2.147600 
# 
# From -- ./inp_files/535647.got.cif
#   From: 2010.05.17/outbox.cif.g08.bks.cpg/sg2_268_cif.got.tgz:535647.got - 2010.06.03 11:33:40.
