data_PCOD9081230
_publ_section_title
;
Structure prediction by ZEFSAII (Michael W. Deem and Ramdas Pophale) SiO2 
 PCOD9081230
Probable space group: P -1
;
_chemical_formula_sum "Si O2"
_cell_formula_units_Z 12
_cell_length_a 31.294051
_cell_length_b 15.759045
_cell_length_c 25.361660
_cell_angle_alpha 160.957494
_cell_angle_beta 8.698848
_cell_angle_gamma 162.053525
_cell_volume 579.669802
_symmetry_space_group_name_H-M "P -1"
_symmetry_group_IT_number 2
_symmetry_cell_setting 'triclinic'
loop_
_space_group_symop_operation_xyz
x,y,z
-x,-y,-z
loop_
_atom_site_type_symbol
_atom_site_label
_atom_site_fract_x
_atom_site_fract_y
_atom_site_fract_z
Si Si1 0.613500 0.095415 0.616974
Si Si2 0.774381 0.383505 0.256642
Si Si3 0.426395 0.121771 0.017611
Si Si4 0.757686 0.804419 0.369000
Si Si5 0.811488 0.671607 0.662528
Si Si6 0.775451 0.840741 0.603240
O O1 0.797376 0.388465 0.539530
O O2 0.510451 0.853184 0.558048
O O3 0.764598 0.980822 0.411973
O O4 0.320138 0.150659 0.032513
O O5 0.707625 0.619240 0.509810
O O6 0.000000 0.500000 0.000000
O O7 0.942303 0.245750 0.011078
O O8 0.413111 0.359059 0.132072
O O9 0.432378 0.206941 0.120528
O O10 0.106128 0.882817 0.251773
O O11 0.672782 0.985963 0.624192
O O12 0.500000 0.500000 0.500000
O O13 0.136956 0.857386 0.353183
#
# Coordination Sequence:
#
# PCOD9081230 Si02
#       6
#     2   2   2   2   2   2
#     4  10  19  31  52  78 106 128 169 215 252 294
#     4  12  19  32  55  81  98 130 177 214 246 297
#     4   8  16  32  53  75 100 139 171 199 251 313
#     4  11  18  32  54  80 100 131 173 213 249 294
#     4   8  15  32  52  72 103 142 158 205 265 295
#     4   9  16  31  58  72  99 143 166 202 259 300
#
# _framework density 20.701442
#
# number of rings (size 3 to 8) (size 9 to 14) (size 15 to 20)
#    1.000    1.333    5.000    0.000    0.000    0.000 
#    0.000    9.167    0.000    4.000    0.000    0.000 
#    0.000    0.000    0.000    0.000    0.000    0.000 
#
# Total GULP energy -66890.821802 kJ/mol
# GULP energy per Si atom -5574.235150 kJ/mol
# Density = 2.065432 g / cm^3
# Si number density = 20.701442 Si / 1000 Ang^3
#
#
#
# Elastic Constant Matrix: (Units=GPa)
#
#
# Indices 1 2 3 4 5 6 
#
# 1 123.7333 72.3271 33.2656 22.0635 23.3022 -2.8148
# 2 72.3271 98.4567 24.8723 26.6207 14.1776 -22.1821
# 3 33.2656 24.8723 34.5916 16.1443 4.1684 -6.1004
# 4 22.0635 26.6207 16.1443 17.5853 1.0909 -4.2577
# 5 23.3022 14.1776 4.1684 1.0909 29.7038 9.3189
# 6 -2.8148 -22.1821 -6.1004 -4.2577 9.3189 37.8395
#
#
#
# Elastic Compliance Matrix: (Units=1/GPa)
#
#
# Indices 1 2 3 4 5 6 
#
# 1 0.018560 -0.012939 -0.011818 0.005956 -0.004997 -0.006209
# 2 -0.012939 0.033505 0.011814 -0.039977 -0.012005 0.019042
# 3 -0.011818 0.011814 0.060335 -0.055373 -0.006280 0.011090
# 4 0.005956 -0.039977 -0.055373 0.154447 0.022833 -0.020164
# 5 -0.004997 -0.012005 -0.006280 0.022833 0.048979 -0.017915
# 6 -0.006209 0.019042 0.011090 -0.020164 -0.017915 0.041059
#
#
# Mechanical properties :
#
#
# Convention : Reuss Voigt Hill
#
# Bulk Modulus (GPa) = 11.55872 57.52352 34.54112
# Shear Modulus (GPa) = 12.14751 25.44682 18.79716
#
# Velocity S-wave (km/s) = 2.42501 3.50984 3.01659
# Velocity P-wave (km/s) = 3.66559 6.65378 5.37166
#
# Compressibility (1/GPa) = 0.08651478
#
# Stress axis : x y z
#
# Youngs Moduli (GPa) = 53.87941 29.84653 16.57424
#
# Poissons Ratio (x) = 0.38617 0.19587
# Poissons Ratio (y) = 0.69712 -0.19581
# Poissons Ratio (z) = 0.63675 -0.35261
#
# Static dielectric constant tensor:
#      x y z
#    x 1.755860 -0.014460 -0.021490 
#    y -0.014460 1.744230 -0.049520 
#    z -0.021490 -0.049520 1.739670 
# 
# From -- ./inp_files/358676.got.cif
#   From: 2010.05.17/outbox.cif.g08.bks.cpg/sg2_180_cif.got.tgz:358676.got - 2010.06.03 11:33:40.
