data_PCOD9081319
_publ_section_title
;
Structure prediction by ZEFSAII (Michael W. Deem and Ramdas Pophale) SiO2 
 PCOD9081319
Probable space group: P -1
;
_chemical_formula_sum "Si O2"
_cell_formula_units_Z 14
_cell_length_a 18.246092
_cell_length_b 12.830903
_cell_length_c 10.566810
_cell_angle_alpha 33.550950
_cell_angle_beta 34.949538
_cell_angle_gamma 28.384142
_cell_volume 613.762476
_symmetry_space_group_name_H-M "P -1"
_symmetry_group_IT_number 2
_symmetry_cell_setting 'triclinic'
loop_
_space_group_symop_operation_xyz
x,y,z
-x,-y,-z
loop_
_atom_site_type_symbol
_atom_site_label
_atom_site_fract_x
_atom_site_fract_y
_atom_site_fract_z
Si Si1 0.647197 0.122115 0.719972
Si Si2 0.471101 0.163336 0.259130
Si Si3 0.950958 0.902913 0.358867
Si Si4 0.121416 0.418733 0.526607
Si Si5 0.560778 0.451040 0.746874
Si Si6 0.599708 0.785195 0.242784
Si Si7 0.216682 0.920633 0.861412
O O1 0.561250 0.332534 0.733727
O O2 0.518852 0.193472 0.717892
O O3 0.807629 0.076336 0.484250
O O4 0.700208 0.864909 0.956922
O O5 0.280954 0.395914 0.289888
O O6 0.500000 0.000000 0.500000
O O7 0.495699 0.006897 0.262415
O O8 0.583146 0.247871 0.011663
O O9 0.018376 0.629387 0.560038
O O10 0.870755 0.989054 0.245242
O O11 0.109147 0.888048 0.138359
O O12 0.000000 0.500000 0.500000
O O13 0.192161 0.149433 0.724411
O O14 0.666381 0.542313 0.472037
O O15 0.397069 0.691553 0.795422
#
# Coordination Sequence:
#
# PCOD9081319 Si02
#       7
#     2   2   2   2   2   2   2
#     4  10  21  33  57  88 125 155 191 248 308 354
#     4  11  23  38  58  88 122 159 202 248 298 354
#     4  10  19  32  50  85 120 150 184 237 301 354
#     4  10  19  34  56  82 120 149 188 247 300 343
#     4  11  20  36  59  85 122 156 200 247 299 359
#     4  10  20  36  54  83 120 157 198 239 297 356
#     4  10  19  31  54  83 117 152 189 241 295 351
#
# _framework density 22.810127999999999
#
# number of rings (size 3 to 8) (size 9 to 14) (size 15 to 20)
#    0.000    1.714    4.286    1.286    0.000    1.714 
#    0.000    0.000    0.000    3.429    0.000    6.000 
#    0.000    0.000    0.000    0.000    0.000    0.000 
#
# Total GULP energy -77939.789950 kJ/mol
# GULP energy per Si atom -5567.127854 kJ/mol
# Density = 2.275821 g / cm^3
# Si number density = 22.810128 Si / 1000 Ang^3
#
#
#
# Elastic Constant Matrix: (Units=GPa)
#
#
# Indices 1 2 3 4 5 6 
#
# 1 29.4374 32.9766 8.2820 5.3156 -1.8966 -0.2874
# 2 32.9766 98.6090 41.1713 0.3379 3.1281 27.1924
# 3 8.2820 41.1713 150.5013 -15.5880 -8.3461 0.7977
# 4 5.3156 0.3379 -15.5880 49.3316 6.9376 -0.4063
# 5 -1.8966 3.1281 -8.3461 6.9376 24.9062 -0.7843
# 6 -0.2874 27.1924 0.7977 -0.4063 -0.7843 28.2209
#
#
#
# Elastic Compliance Matrix: (Units=1/GPa)
#
#
# Indices 1 2 3 4 5 6 
#
# 1 0.083430 -0.043141 0.007084 -0.008621 0.017888 0.042591
# 2 -0.043141 0.039036 -0.008497 0.003230 -0.013136 -0.038131
# 3 0.007084 -0.008497 0.008943 0.001566 0.004424 0.008152
# 4 -0.008621 0.003230 0.001566 0.022622 -0.006937 -0.003111
# 5 0.017888 -0.013136 0.004424 -0.006937 0.047016 0.013921
# 6 0.042591 -0.038131 0.008152 -0.003111 0.013921 0.072722
#
#
# Mechanical properties :
#
#
# Convention : Reuss Voigt Hill
#
# Bulk Modulus (GPa) = 23.63933 49.26750 36.45342
# Shear Modulus (GPa) = 13.26340 33.56624 23.41482
#
# Velocity S-wave (km/s) = 2.41398 3.84024 3.20739
# Velocity P-wave (km/s) = 4.26096 6.42722 5.45275
#
# Compressibility (1/GPa) = 0.04230238
#
# Stress axis : x y z
#
# Youngs Moduli (GPa) = 11.98611 25.61714 111.81559
#
# Poissons Ratio (x) = 1.10515 -0.79209
# Poissons Ratio (y) = 0.51709 0.95006
# Poissons Ratio (z) = -0.08491 0.21766
#
# Static dielectric constant tensor:
#      x y z
#    x 1.590150 0.017650 -0.233840 
#    y 0.017650 1.803410 -0.001020 
#    z -0.233840 -0.001020 1.795200 
# 
# From -- ./inp_files/281738.got.cif
#   From: 2010.05.17/outbox.cif.g08.bks.cpg/sg2_141_cif.got.tgz:281738.got - 2010.06.03 11:33:40.
