data_PCOD9081458
_publ_section_title
;
Structure prediction by ZEFSAII (Michael W. Deem and Ramdas Pophale) SiO2 
 PCOD9081458
Probable space group: P -1
;
_chemical_formula_sum "Si O2"
_cell_formula_units_Z 16
_cell_length_a 14.771431
_cell_length_b 13.443317
_cell_length_c 21.626764
_cell_angle_alpha 39.880839
_cell_angle_beta 34.401184
_cell_angle_gamma 20.142094
_cell_volume 834.936852
_symmetry_space_group_name_H-M "P -1"
_symmetry_group_IT_number 2
_symmetry_cell_setting 'triclinic'
loop_
_space_group_symop_operation_xyz
x,y,z
-x,-y,-z
loop_
_atom_site_type_symbol
_atom_site_label
_atom_site_fract_x
_atom_site_fract_y
_atom_site_fract_z
Si Si1 0.417317 0.758442 0.858567
Si Si2 0.724841 0.089721 0.418243
Si Si3 0.840543 0.236266 0.565406
Si Si4 0.146746 0.253425 0.580180
Si Si5 0.897114 0.577020 0.214479
Si Si6 0.747775 0.990142 0.671196
Si Si7 0.770407 0.414989 0.949034
Si Si8 0.656317 0.881591 0.336327
O O1 0.599186 0.616303 0.888294
O O2 0.482820 0.835666 0.733825
O O3 0.417129 0.579155 0.922959
O O4 0.080617 0.084928 0.909857
O O5 0.430263 0.435453 0.414851
O O6 0.601470 0.031582 0.546148
O O7 0.881988 0.896079 0.360265
O O8 0.955973 0.974208 0.390669
O O9 0.057382 0.145256 0.436910
O O10 0.717846 0.184941 0.624353
O O11 0.110774 0.295717 0.653956
O O12 0.000000 0.500000 0.500000
O O13 0.500000 0.000000 0.500000
O O14 0.818285 0.683490 0.279142
O O15 0.062196 0.278338 0.264367
O O16 0.125170 0.530182 0.091610
O O17 0.574780 0.823343 0.247265
#
# Coordination Sequence:
#
# PCOD9081458 Si02
#       8
#     2   2   2   2   2   2   2   2
#     4   9  18  30  46  67  98 125 160 192 233 286
#     4  11  20  33  49  66  95 131 164 200 239 275
#     4  11  21  34  47  66  94 125 167 205 243 270
#     4  10  22  33  48  70  96 126 170 205 232 279
#     4  11  19  30  50  69  97 127 161 188 242 295
#     4  11  21  32  47  70  92 125 166 202 233 295
#     4   9  18  30  45  70  95 127 155 196 235 287
#     4  10  19  32  49  70  96 133 161 189 236 292
#
# _framework density 19.163125999999998
#
# number of rings (size 3 to 8) (size 9 to 14) (size 15 to 20)
#    0.000    1.750    2.500    3.750    0.000    5.000 
#    0.000    0.000    0.000    0.000    0.000    0.000 
#    0.000    6.000    0.000    0.000    0.000    0.000 
#
# Total GULP energy -89132.869431 kJ/mol
# GULP energy per Si atom -5570.804339 kJ/mol
# Density = 1.911951 g / cm^3
# Si number density = 19.163126 Si / 1000 Ang^3
#
#
#
# Elastic Constant Matrix: (Units=GPa)
#
#
# Indices 1 2 3 4 5 6 
#
# 1 73.9352 19.5971 8.1162 -0.5358 -10.1405 -8.9597
# 2 19.5971 108.6167 7.3507 -14.0168 -2.2119 -25.4727
# 3 8.1162 7.3507 51.9456 -15.8733 -17.8501 -4.3721
# 4 -0.5358 -14.0168 -15.8733 20.9465 -3.1809 -1.9025
# 5 -10.1405 -2.2119 -17.8501 -3.1809 28.7794 -1.6151
# 6 -8.9597 -25.4727 -4.3721 -1.9025 -1.6151 32.3881
#
#
#
# Elastic Compliance Matrix: (Units=1/GPa)
#
#
# Indices 1 2 3 4 5 6 
#
# 1 0.015127 -0.001871 0.000153 0.000360 0.005491 0.003029
# 2 -0.001871 0.014661 0.007514 0.017874 0.007859 0.013469
# 3 0.000153 0.007514 0.045943 0.046709 0.035224 0.016654
# 4 0.000360 0.017874 0.046709 0.104344 0.043619 0.028767
# 5 0.005491 0.007859 0.035224 0.043619 0.064979 0.018258
# 6 0.003029 0.013469 0.016654 0.028767 0.018258 0.047155
#
#
# Mechanical properties :
#
#
# Convention : Reuss Voigt Hill
#
# Bulk Modulus (GPa) = 11.45178 33.84727 22.64953
# Shear Modulus (GPa) = 16.14333 29.71837 22.93085
#
# Velocity S-wave (km/s) = 2.90559 3.94230 3.46296
# Velocity P-wave (km/s) = 4.15277 6.19866 5.27584
#
# Compressibility (1/GPa) = 0.08732265
#
# Stress axis : x y z
#
# Youngs Moduli (GPa) = 66.10584 68.20692 21.76620
#
# Poissons Ratio (x) = 0.12763 -0.00333
# Poissons Ratio (y) = 0.12370 -0.16355
# Poissons Ratio (z) = -0.01010 -0.51251
#
# Static dielectric constant tensor:
#      x y z
#    x 1.719220 -0.014250 -0.038790 
#    y -0.014250 1.537380 -0.182110 
#    z -0.038790 -0.182110 1.534490 
# 
# From -- ./inp_files/612032.got.cif
#   From: 2010.05.17/outbox.cif.g08.bks.cpg/sg2_307_cif.got.tgz:612032.got - 2010.06.03 11:33:40.
