data_PCOD9081741
_publ_section_title
;
Structure prediction by ZEFSAII (Michael W. Deem and Ramdas Pophale) SiO2 
 PCOD9081741
Probable space group: P -1
;
_chemical_formula_sum "Si O2"
_cell_formula_units_Z 16
_cell_length_a 8.404459
_cell_length_b 14.284616
_cell_length_c 10.766047
_cell_angle_alpha 52.657979
_cell_angle_beta 139.235191
_cell_angle_gamma 106.963864
_cell_volume 635.015031
_symmetry_space_group_name_H-M "P -1"
_symmetry_group_IT_number 2
_symmetry_cell_setting 'triclinic'
loop_
_space_group_symop_operation_xyz
x,y,z
-x,-y,-z
loop_
_atom_site_type_symbol
_atom_site_label
_atom_site_fract_x
_atom_site_fract_y
_atom_site_fract_z
Si Si1 0.804803 0.345927 0.374578
Si Si2 0.596573 0.850796 0.896082
Si Si3 0.440349 0.396598 0.898891
Si Si4 0.136679 0.161554 0.200897
Si Si5 0.258336 0.587178 0.149069
Si Si6 0.960458 0.083511 0.603530
Si Si7 0.284745 0.362536 0.486151
Si Si8 0.413421 0.101177 0.677425
O O1 0.733857 0.460542 0.335923
O O2 0.887643 0.198158 0.566486
O O3 0.033485 0.361986 0.411890
O O4 0.534879 0.373765 0.116106
O O5 0.721908 0.850876 0.836420
O O6 0.290532 0.884053 0.661776
O O7 0.620579 0.964045 0.902080
O O8 0.678562 0.712677 0.113001
O O9 0.706534 0.375886 0.999793
O O10 0.319575 0.134276 0.452916
O O11 0.005919 0.053254 0.216468
O O12 0.948535 0.300924 0.994238
O O13 0.219233 0.456244 0.255798
O O14 0.539390 0.582949 0.368115
O O15 0.193078 0.085792 0.651201
O O16 0.453931 0.224813 0.654888
#
# Coordination Sequence:
#
# PCOD9081741 Si02
#       8
#     2   2   2   2   2   2   2   2
#     4   9  19  36  57  85 109 136 176 222 263 317
#     4  10  19  32  54  86 113 136 173 223 270 311
#     4  10  20  35  59  83 109 138 178 221 264 316
#     4  11  20  33  57  82 110 141 178 219 264 316
#     4  11  23  38  54  76 108 146 179 221 267 315
#     4   9  17  32  54  83 113 136 169 219 270 312
#     4  10  23  39  54  76 109 142 180 221 269 317
#     4  10  19  35  58  81 108 141 177 220 267 318
#
# _framework density 25.196252999999999
#
# number of rings (size 3 to 8) (size 9 to 14) (size 15 to 20)
#    0.000    2.000    0.000    6.750    0.000    6.500 
#    0.000    6.250    0.000    0.000    0.000    0.000 
#    0.000    0.000    0.000    0.000    0.000    0.000 
#
# Total GULP energy -89460.933471 kJ/mol
# GULP energy per Si atom -5591.308342 kJ/mol
# Density = 2.513891 g / cm^3
# Si number density = 25.196253 Si / 1000 Ang^3
#
#
#
# Elastic Constant Matrix: (Units=GPa)
#
#
# Indices 1 2 3 4 5 6 
#
# 1 98.0120 37.6668 13.6488 -24.0761 -8.9389 -14.0635
# 2 37.6668 155.9863 27.1236 -49.1216 3.8789 -8.4337
# 3 13.6488 27.1236 76.1083 -20.0288 6.1619 0.3628
# 4 -24.0761 -49.1216 -20.0288 53.1763 -3.9646 4.4055
# 5 -8.9389 3.8789 6.1619 -3.9646 23.1429 -17.4693
# 6 -14.0635 -8.4337 0.3628 4.4055 -17.4693 39.1908
#
#
#
# Elastic Compliance Matrix: (Units=1/GPa)
#
#
# Indices 1 2 3 4 5 6 
#
# 1 0.015728 -0.001549 -0.002396 0.005041 0.017232 0.012447
# 2 -0.001549 0.009363 -0.001077 0.007482 -0.000189 0.000543
# 3 -0.002396 -0.001077 0.015605 0.003621 -0.008319 -0.005351
# 4 0.005041 0.007482 0.003621 0.029634 0.007304 0.003310
# 5 0.017232 -0.000189 -0.008319 0.007304 0.086566 0.043985
# 6 0.012447 0.000543 -0.005351 0.003310 0.043985 0.049384
#
#
# Mechanical properties :
#
#
# Convention : Reuss Voigt Hill
#
# Bulk Modulus (GPa) = 32.62688 54.10945 43.36817
# Shear Modulus (GPa) = 22.07120 39.87983 30.97552
#
# Velocity S-wave (km/s) = 2.96289 3.98272 3.51004
# Velocity P-wave (km/s) = 4.96812 6.53232 5.80316
#
# Compressibility (1/GPa) = 0.03064957
#
# Stress axis : x y z
#
# Youngs Moduli (GPa) = 63.58209 106.80781 64.08364
#
# Poissons Ratio (x) = 0.16548 0.15356
# Poissons Ratio (y) = 0.09851 0.06902
# Poissons Ratio (z) = 0.15236 0.11503
#
# Static dielectric constant tensor:
#      x y z
#    x 1.935340 -0.017950 -0.057380 
#    y -0.017950 2.046570 0.030920 
#    z -0.057380 0.030920 2.082650 
# 
# From -- ./inp_files/179048.got.cif
#   From: 2010.05.17/outbox.cif.g08.bks.cpg/sg2_90_cif.got.tgz:179048.got - 2010.06.03 11:33:40.
