data_PCOD9081186
_publ_section_title
;
Structure prediction by ZEFSAII (Michael W. Deem and Ramdas Pophale) SiO2 
 PCOD9081186
Probable space group: P -1
;
_chemical_formula_sum "Si O2"
_cell_formula_units_Z 16
_cell_length_a 14.378576
_cell_length_b 9.302512
_cell_length_c 10.521022
_cell_angle_alpha 135.231056
_cell_angle_beta 72.439229
_cell_angle_gamma 73.402497
_cell_volume 630.863893
_symmetry_space_group_name_H-M "P -1"
_symmetry_group_IT_number 2
_symmetry_cell_setting 'triclinic'
loop_
_space_group_symop_operation_xyz
x,y,z
-x,-y,-z
loop_
_atom_site_type_symbol
_atom_site_label
_atom_site_fract_x
_atom_site_fract_y
_atom_site_fract_z
Si Si1 0.146793 0.230094 0.121287
Si Si2 0.008282 0.068115 0.184213
Si Si3 0.331780 0.881286 0.356375
Si Si4 0.953095 0.837990 0.427150
Si Si5 0.437972 0.161132 0.763773
Si Si6 0.726743 0.277904 0.468228
Si Si7 0.466152 0.787227 0.736714
Si Si8 0.834816 0.482521 0.057203
O O1 0.207331 0.993651 0.828879
O O2 0.297550 0.061268 0.019942
O O3 0.051403 0.232224 0.249604
O O4 0.046781 0.562889 0.315041
O O5 0.856709 0.234189 0.413013
O O6 0.133322 0.760546 0.019960
O O7 0.000000 0.000000 0.000000
O O8 0.241705 0.229426 0.644529
O O9 0.218547 0.940862 0.348597
O O10 0.490302 0.731518 0.163889
O O11 0.330996 0.755854 0.408653
O O12 0.012601 0.677325 0.163327
O O13 0.000000 0.000000 0.500000
O O14 0.267845 0.409418 0.953818
O O15 0.500000 0.000000 0.500000
O O16 0.478348 0.930108 0.706912
O O17 0.592809 0.616780 0.679804
O O18 0.500000 0.500000 0.500000
#
# Coordination Sequence:
#
# PCOD9081186 Si02
#       8
#     2   2   2   2   2   2   2   2
#     4  10  20  35  53  83 116 154 184 237 295 349
#     4  10  21  30  55  88 117 148 186 236 299 349
#     4  11  21  36  61  89 120 148 196 250 295 347
#     4  12  24  41  61  82 116 165 205 243 287 343
#     4  10  21  31  56  90 120 149 188 239 300 348
#     4  10  19  32  54  88 119 143 184 240 303 344
#     4  10  19  31  50  84 126 145 180 233 301 353
#     4  11  20  39  60  88 120 150 196 249 291 350
#
# _framework density 25.362047
#
# number of rings (size 3 to 8) (size 9 to 14) (size 15 to 20)
#    0.000    1.500    3.750    4.125   14.000    0.000 
#    0.000    1.250    0.000    0.750    0.000    0.000 
#    0.000    0.000    0.000    0.000    0.000    0.000 
#
# Total GULP energy -89508.311013 kJ/mol
# GULP energy per Si atom -5594.269438 kJ/mol
# Density = 2.530432 g / cm^3
# Si number density = 25.362047 Si / 1000 Ang^3
#
#
#
# Elastic Constant Matrix: (Units=GPa)
#
#
# Indices 1 2 3 4 5 6 
#
# 1 137.6824 73.0402 55.2431 22.8804 -24.6537 26.6680
# 2 73.0402 190.9350 52.9611 61.8498 -14.6091 31.3866
# 3 55.2431 52.9611 88.2130 31.9593 -23.2118 3.1699
# 4 22.8804 61.8498 31.9593 56.7271 -12.6397 -5.7102
# 5 -24.6537 -14.6091 -23.2118 -12.6397 49.4158 -3.0470
# 6 26.6680 31.3866 3.1699 -5.7102 -3.0470 44.6857
#
#
#
# Elastic Compliance Matrix: (Units=1/GPa)
#
#
# Indices 1 2 3 4 5 6 
#
# 1 0.011995 -0.002376 -0.005587 0.001002 0.002619 -0.004786
# 2 -0.002376 0.011789 -0.001299 -0.012470 -0.002024 -0.008501
# 3 -0.005587 -0.001299 0.018714 -0.005659 0.004325 0.002491
# 4 0.001002 -0.012470 -0.005659 0.036319 0.004277 0.013495
# 5 0.002619 -0.002024 0.004325 0.004277 0.024178 0.001747
# 6 -0.004786 -0.008501 0.002491 0.013495 0.001747 0.032873
#
#
# Mechanical properties :
#
#
# Convention : Reuss Voigt Hill
#
# Bulk Modulus (GPa) = 41.71428 86.59101 64.15264
# Shear Modulus (GPa) = 30.79139 45.87147 38.33143
#
# Velocity S-wave (km/s) = 3.48814 4.25746 3.89185
# Velocity P-wave (km/s) = 5.71892 7.64094 6.74870
#
# Compressibility (1/GPa) = 0.02397261
#
# Stress axis : x y z
#
# Youngs Moduli (GPa) = 83.36881 84.82765 53.43667
#
# Poissons Ratio (x) = 0.20157 0.29856
# Poissons Ratio (y) = 0.19810 0.06941
# Poissons Ratio (z) = 0.46580 0.11018
#
# Static dielectric constant tensor:
#      x y z
#    x 2.157830 -0.022670 -0.012560 
#    y -0.022670 1.930070 -0.048730 
#    z -0.012560 -0.048730 2.145530 
# 
# From -- ./inp_files/404810.got.cif
#   From: 2010.05.17/outbox.cif.g08.bks.cpg/sg2_203_cif.got.tgz:404810.got - 2010.06.03 11:33:40.
