data_PCOD9081017
_publ_section_title
;
Structure prediction by ZEFSAII (Michael W. Deem and Ramdas Pophale) SiO2 
 PCOD9081017
Probable space group: P -1
;
_chemical_formula_sum "Si O2"
_cell_formula_units_Z 14
_cell_length_a 12.685926
_cell_length_b 5.017874
_cell_length_c 23.549409
_cell_angle_alpha 62.984537
_cell_angle_beta 34.714116
_cell_angle_gamma 76.696639
_cell_volume 729.585682
_symmetry_space_group_name_H-M "P -1"
_symmetry_group_IT_number 2
_symmetry_cell_setting 'triclinic'
loop_
_space_group_symop_operation_xyz
x,y,z
-x,-y,-z
loop_
_atom_site_type_symbol
_atom_site_label
_atom_site_fract_x
_atom_site_fract_y
_atom_site_fract_z
Si Si1 0.090964 0.099562 0.152336
Si Si2 0.707160 0.005526 0.532123
Si Si3 0.759094 0.094602 0.786995
Si Si4 0.079740 0.509939 0.526832
Si Si5 0.515548 0.469115 0.927331
Si Si6 0.216300 0.478687 0.648567
Si Si7 0.694254 0.129440 0.323259
O O1 0.918245 0.234767 0.195206
O O2 0.116970 0.076108 0.211581
O O3 0.297911 0.300210 0.019795
O O4 0.999233 0.728540 0.216586
O O5 0.802959 0.154355 0.533856
O O6 0.777621 0.277867 0.427194
O O7 0.781893 0.715116 0.510281
O O8 0.475383 0.910721 0.642252
O O9 0.639646 0.250792 0.868405
O O10 0.901207 0.360767 0.661912
O O11 0.622860 0.831139 0.832266
O O12 0.000000 0.500000 0.500000
O O13 0.500000 0.500000 0.000000
O O14 0.324077 0.648431 0.639404
O O15 0.312519 0.208656 0.614882
#
# Coordination Sequence:
#
# PCOD9081017 Si02
#       7
#     2   2   2   2   2   2   2
#     4   9  20  30  53  83 122 142 178 208 276 352
#     4  12  21  39  56  81 113 150 188 240 285 331
#     4  11  21  36  54  79 116 153 187 230 278 321
#     4  12  26  42  60  79 107 152 206 249 280 317
#     4  10  21  32  54  83 117 155 180 216 273 348
#     4  10  19  30  52  81 123 147 177 205 283 345
#     4  10  21  30  54  83 118 152 178 215 278 355
#
# _framework density 19.188974999999999
#
# number of rings (size 3 to 8) (size 9 to 14) (size 15 to 20)
#    0.857    0.571    1.429    6.429    6.000    0.000 
#    0.000    0.000    0.000    0.000    0.000    6.000 
#    0.000    0.000    0.000    0.000    0.000    0.000 
#
# Total GULP energy -77981.210601 kJ/mol
# GULP energy per Si atom -5570.086472 kJ/mol
# Density = 1.914530 g / cm^3
# Si number density = 19.188975 Si / 1000 Ang^3
#
#
#
# Elastic Constant Matrix: (Units=GPa)
#
#
# Indices 1 2 3 4 5 6 
#
# 1 72.3300 1.7352 42.5609 1.8256 -22.1050 14.1327
# 2 1.7352 68.3312 26.3479 12.2515 -13.8827 18.5828
# 3 42.5609 26.3479 92.3316 14.5662 -35.6658 2.9339
# 4 1.8256 12.2515 14.5662 23.6616 1.4603 -7.7764
# 5 -22.1050 -13.8827 -35.6658 1.4603 29.2275 -5.1815
# 6 14.1327 18.5828 2.9339 -7.7764 -5.1815 29.9503
#
#
#
# Elastic Compliance Matrix: (Units=1/GPa)
#
#
# Indices 1 2 3 4 5 6 
#
# 1 0.026700 0.012609 -0.008824 -0.010544 0.012368 -0.020156
# 2 0.012609 0.031453 -0.003520 -0.025613 0.016330 -0.028946
# 3 -0.008824 -0.003520 0.029703 -0.016176 0.029478 0.004338
# 4 -0.010544 -0.025613 -0.016176 0.080747 -0.037363 0.036953
# 5 0.012368 0.016330 0.029478 -0.037363 0.086762 -0.013547
# 6 -0.020156 -0.028946 0.004338 0.036953 -0.013547 0.067685
#
#
# Mechanical properties :
#
#
# Convention : Reuss Voigt Hill
#
# Bulk Modulus (GPa) = 11.31383 41.58678 26.45030
# Shear Modulus (GPa) = 14.20529 27.39114 20.79822
#
# Velocity S-wave (km/s) = 2.72377 3.78225 3.29578
# Velocity P-wave (km/s) = 3.97501 6.38695 5.31948
#
# Compressibility (1/GPa) = 0.08838743
#
# Stress axis : x y z
#
# Youngs Moduli (GPa) = 37.45365 31.79312 33.66626
#
# Poissons Ratio (x) = -0.40089 0.29708
# Poissons Ratio (y) = -0.47226 0.11849
# Poissons Ratio (z) = 0.33050 0.11190
#
# Static dielectric constant tensor:
#      x y z
#    x 1.678130 0.021510 -0.066370 
#    y 0.021510 1.709770 -0.006250 
#    z -0.066370 -0.006250 1.753250 
# 
# From -- ./inp_files/585516.got.cif
#   From: 2010.05.17/outbox.cif.g08.bks.cpg/sg2_293_cif.got.tgz:585516.got - 2010.06.03 11:33:40.
