data_PCOD9081868
_publ_section_title
;
Structure prediction by ZEFSAII (Michael W. Deem and Ramdas Pophale) SiO2 
 PCOD9081868
Probable space group: P -1
;
_chemical_formula_sum "Si O2"
_cell_formula_units_Z 14
_cell_length_a 12.636773
_cell_length_b 16.388383
_cell_length_c 12.131510
_cell_angle_alpha 37.445636
_cell_angle_beta 135.507833
_cell_angle_gamma 153.976969
_cell_volume 670.187625
_symmetry_space_group_name_H-M "P -1"
_symmetry_group_IT_number 2
_symmetry_cell_setting 'triclinic'
loop_
_space_group_symop_operation_xyz
x,y,z
-x,-y,-z
loop_
_atom_site_type_symbol
_atom_site_label
_atom_site_fract_x
_atom_site_fract_y
_atom_site_fract_z
Si Si1 0.582556 0.698921 0.737256
Si Si2 0.507061 0.734994 0.306100
Si Si3 0.086266 0.855602 0.554013
Si Si4 0.739926 0.758483 0.035803
Si Si5 0.623199 0.622091 0.325419
Si Si6 0.031772 0.219043 0.193852
Si Si7 0.986696 0.488927 0.869545
O O1 0.322371 0.445377 0.804859
O O2 0.785174 0.744277 0.780143
O O3 0.656075 0.893564 0.533747
O O4 0.640245 0.745968 0.860804
O O5 0.482593 0.618737 0.308506
O O6 0.480620 0.601295 0.522778
O O7 0.285568 0.682085 0.194085
O O8 0.760656 0.982515 0.220235
O O9 0.979999 0.800200 0.659273
O O10 0.891312 0.786637 0.399062
O O11 0.109140 0.715502 0.688542
O O12 0.610388 0.691677 0.127569
O O13 0.000000 0.000000 0.000000
O O14 0.072738 0.401595 0.994743
O O15 0.000000 0.500000 0.000000
#
# Coordination Sequence:
#
# PCOD9081868 Si02
#       7
#     2   2   2   2   2   2   2
#     4  11  23  35  60  86 110 151 192 233 283 326
#     4  10  19  32  56  87 115 147 184 230 289 334
#     4  10  19  36  55  87 116 146 183 233 285 335
#     4  11  22  38  54  85 116 146 189 243 279 329
#     4  10  20  32  57  88 112 148 184 236 287 325
#     4  11  20  35  55  88 118 143 188 232 277 347
#     4   9  21  33  52  82 120 152 177 222 292 338
#
# _framework density 20.889673999999999
#
# number of rings (size 3 to 8) (size 9 to 14) (size 15 to 20)
#    0.000    1.714    2.857    1.714    8.000    0.000 
#    0.000    0.000    0.000    6.857    3.714    0.000 
#    0.000    0.000    0.000    0.000    0.000    0.000 
#
# Total GULP energy -77953.594134 kJ/mol
# GULP energy per Si atom -5568.113867 kJ/mol
# Density = 2.084213 g / cm^3
# Si number density = 20.889674 Si / 1000 Ang^3
#
#
#
# Elastic Constant Matrix: (Units=GPa)
#
#
# Indices 1 2 3 4 5 6 
#
# 1 40.7164 10.4611 40.5429 7.4125 -2.9440 -10.2924
# 2 10.4611 144.5350 33.7735 -27.4357 7.5401 -8.1594
# 3 40.5429 33.7735 88.2142 -14.0083 1.9150 -0.1420
# 4 7.4125 -27.4357 -14.0083 38.6128 -8.2719 -0.8737
# 5 -2.9440 7.5401 1.9150 -8.2719 34.2131 1.5280
# 6 -10.2924 -8.1594 -0.1420 -0.8737 1.5280 21.2726
#
#
#
# Elastic Compliance Matrix: (Units=1/GPa)
#
#
# Indices 1 2 3 4 5 6 
#
# 1 0.081920 0.000479 -0.042523 -0.029862 0.000394 0.038281
# 2 0.000479 0.008736 -0.002740 0.005063 -0.000677 0.003821
# 3 -0.042523 -0.002740 0.034819 0.018462 0.000382 -0.020662
# 4 -0.029862 0.005063 0.018462 0.042998 0.006171 -0.011060
# 5 0.000394 -0.000677 0.000382 0.006171 0.030973 -0.002038
# 6 0.038281 0.003821 -0.020662 -0.011060 -0.002038 0.066551
#
#
# Mechanical properties :
#
#
# Convention : Reuss Voigt Hill
#
# Bulk Modulus (GPa) = 27.84901 49.22453 38.53677
# Shear Modulus (GPa) = 13.60420 31.39890 22.50155
#
# Velocity S-wave (km/s) = 2.55471 3.88117 3.28557
# Velocity P-wave (km/s) = 4.69707 6.61058 5.73421
#
# Compressibility (1/GPa) = 0.03590792
#
# Stress axis : x y z
#
# Youngs Moduli (GPa) = 12.20700 114.46315 28.72023
#
# Poissons Ratio (x) = -0.05485 1.22126
# Poissons Ratio (y) = -0.00585 0.07870
# Poissons Ratio (z) = 0.51907 0.31366
#
# Static dielectric constant tensor:
#      x y z
#    x 1.743880 -0.005580 -0.046130 
#    y -0.005580 1.897300 -0.034610 
#    z -0.046130 -0.034610 1.847300 
# 
# From -- ./inp_files/432482.got.cif
#   From: 2010.05.17/outbox.cif.g08.bks.cpg/sg2_217_cif.got.tgz:432482.got - 2010.06.03 11:33:40.
