data_PCOD9081386
_publ_section_title
;
Structure prediction by ZEFSAII (Michael W. Deem and Ramdas Pophale) SiO2 
 PCOD9081386
Probable space group: P -1
;
_chemical_formula_sum "Si O2"
_cell_formula_units_Z 16
_cell_length_a 13.219857
_cell_length_b 5.035981
_cell_length_c 12.866851
_cell_angle_alpha 64.135344
_cell_angle_beta 89.379656
_cell_angle_gamma 67.676813
_cell_volume 700.583498
_symmetry_space_group_name_H-M "P -1"
_symmetry_group_IT_number 2
_symmetry_cell_setting 'triclinic'
loop_
_space_group_symop_operation_xyz
x,y,z
-x,-y,-z
loop_
_atom_site_type_symbol
_atom_site_label
_atom_site_fract_x
_atom_site_fract_y
_atom_site_fract_z
Si Si1 0.741878 0.256010 0.152713
Si Si2 0.297660 0.352377 0.704737
Si Si3 0.398652 0.326325 0.485771
Si Si4 0.557317 0.744791 0.954082
Si Si5 0.960434 0.334609 0.383579
Si Si6 0.240303 0.534934 0.265130
Si Si7 0.367128 0.903587 0.258665
Si Si8 0.997940 0.939723 0.253313
O O1 0.701234 0.417488 0.239673
O O2 0.694464 0.983742 0.189821
O O3 0.685608 0.530819 0.020702
O O4 0.876243 0.092430 0.174756
O O5 0.370182 0.318959 0.607432
O O6 0.171746 0.509709 0.636881
O O7 0.286583 0.396687 0.404603
O O8 0.500000 0.000000 0.500000
O O9 0.583254 0.357411 0.605504
O O10 0.552752 0.954458 0.817113
O O11 0.500000 0.500000 0.000000
O O12 0.500000 0.000000 0.000000
O O13 0.000403 0.612679 0.364548
O O14 0.000000 0.000000 0.500000
O O15 0.996492 0.214800 0.285469
O O16 0.266428 0.217700 0.251695
O O17 0.113935 0.793549 0.216392
O O18 0.321542 0.715748 0.209665
#
# Coordination Sequence:
#
# PCOD9081386 Si02
#       8
#     2   2   2   2   2   2   2   2
#     4  10  24  42  64 100 129 166 222 267 319 385
#     4  10  22  38  62  95 133 171 208 267 326 372
#     4  10  25  41  65  92 138 174 218 264 321 396
#     4  12  26  47  75  92 125 171 221 281 325 381
#     4  10  19  31  56  89 128 173 218 250 307 385
#     4  10  22  40  65  94 136 173 214 261 326 393
#     4  10  25  44  65  98 125 173 225 265 329 389
#     4  10  20  37  60  90 133 168 208 266 316 383
#
# _framework density 22.838107000000001
#
# number of rings (size 3 to 8) (size 9 to 14) (size 15 to 20)
#    0.750    1.000    0.000    3.375    5.250    2.500 
#    0.000    1.250    0.000    0.000    0.000    0.000 
#    0.000    0.000    0.000    0.000    0.000    0.000 
#
# Total GULP energy -89327.078160 kJ/mol
# GULP energy per Si atom -5582.942385 kJ/mol
# Density = 2.278613 g / cm^3
# Si number density = 22.838107 Si / 1000 Ang^3
#
#
#
# Elastic Constant Matrix: (Units=GPa)
#
#
# Indices 1 2 3 4 5 6 
#
# 1 75.3448 45.1388 22.0981 -10.6263 -3.9865 -4.6712
# 2 45.1388 143.2159 21.8049 -10.5267 -7.8804 -4.7039
# 3 22.0981 21.8049 79.3451 -26.0256 -10.8280 -10.4852
# 4 -10.6263 -10.5267 -26.0256 32.7677 -1.8313 1.5711
# 5 -3.9865 -7.8804 -10.8280 -1.8313 20.8975 -2.9716
# 6 -4.6712 -4.7039 -10.4852 1.5711 -2.9716 41.7218
#
#
#
# Elastic Compliance Matrix: (Units=1/GPa)
#
#
# Indices 1 2 3 4 5 6 
#
# 1 0.017310 -0.004863 -0.002750 0.001852 0.000298 0.000650
# 2 -0.004863 0.008792 -0.000301 0.001118 0.002401 0.000500
# 3 -0.002750 -0.000301 0.021203 0.016300 0.012525 0.005265
# 4 0.001852 0.001118 0.016300 0.045011 0.013692 0.003710
# 5 0.000298 0.002401 0.012525 0.013692 0.057505 0.007032
# 6 0.000650 0.000500 0.005265 0.003710 0.007032 0.025782
#
#
# Mechanical properties :
#
#
# Convention : Reuss Voigt Hill
#
# Bulk Modulus (GPa) = 31.77072 52.88770 42.32921
# Shear Modulus (GPa) = 24.76191 33.00166 28.88178
#
# Velocity S-wave (km/s) = 3.29635 3.80547 3.56002
# Velocity P-wave (km/s) = 5.33192 6.52049 5.95593
#
# Compressibility (1/GPa) = 0.03147552
#
# Stress axis : x y z
#
# Youngs Moduli (GPa) = 57.77113 113.74275 47.16242
#
# Poissons Ratio (x) = 0.55314 0.12971
# Poissons Ratio (y) = 0.28094 0.01421
# Poissons Ratio (z) = 0.15889 0.03426
#
# Static dielectric constant tensor:
#      x y z
#    x 1.902370 -0.009080 0.038220 
#    y -0.009080 1.845070 -0.033610 
#    z 0.038220 -0.033610 1.905840 
# 
# From -- ./inp_files/409327.got.cif
#   From: 2010.05.17/outbox.cif.g08.bks.cpg/sg2_205_cif.got.tgz:409327.got - 2010.06.03 11:33:40.
