data_PCOD9081915
_publ_section_title
;
Structure prediction by ZEFSAII (Michael W. Deem and Ramdas Pophale) SiO2 
 PCOD9081915
Probable space group: P -1
;
_chemical_formula_sum "Si O2"
_cell_formula_units_Z 16
_cell_length_a 15.564005
_cell_length_b 11.839903
_cell_length_c 29.009408
_cell_angle_alpha 29.263337
_cell_angle_beta 19.927222
_cell_angle_gamma 28.324160
_cell_volume 830.598752
_symmetry_space_group_name_H-M "P -1"
_symmetry_group_IT_number 2
_symmetry_cell_setting 'triclinic'
loop_
_space_group_symop_operation_xyz
x,y,z
-x,-y,-z
loop_
_atom_site_type_symbol
_atom_site_label
_atom_site_fract_x
_atom_site_fract_y
_atom_site_fract_z
Si Si1 0.600577 0.515445 0.666924
Si Si2 0.038954 0.703729 0.346119
Si Si3 0.817317 0.836605 0.892428
Si Si4 0.504776 0.662243 0.814815
Si Si5 0.875767 0.315967 0.086985
Si Si6 0.443057 0.104006 0.842494
Si Si7 0.233408 0.120696 0.839004
Si Si8 0.193088 0.379436 0.125373
O O1 0.791544 0.369173 0.665293
O O2 0.322390 0.677946 0.773831
O O3 0.546321 0.318847 0.730635
O O4 0.756760 0.670804 0.508210
O O5 0.216821 0.507414 0.288551
O O6 0.029337 0.976563 0.242222
O O7 0.865485 0.739035 0.850353
O O8 0.879587 0.593359 0.978929
O O9 0.500000 0.000000 0.000000
O O10 0.279982 0.721106 0.866869
O O11 0.474550 0.925794 0.757784
O O12 0.411496 0.502588 0.956203
O O13 0.182618 0.129588 0.996778
O O14 0.334517 0.138898 0.832961
O O15 0.672361 0.838813 0.829248
O O16 0.075508 0.398694 0.802046
O O17 0.000000 0.000000 0.000000
#
# Coordination Sequence:
#
# PCOD9081915 Si02
#       8
#     2   2   2   2   2   2   2   2
#     4  10  21  32  53  91 113 153 185 233 291 339
#     4  10  19  35  58  81 121 152 186 229 292 346
#     4  11  15  32  57  83 108 150 184 224 286 337
#     4   9  18  36  56  79 112 155 182 231 289 330
#     4  10  19  34  56  83 121 143 188 238 285 335
#     4  12  20  34  59  85 115 146 195 237 279 341
#     4  10  20  37  54  84 117 145 191 241 280 331
#     4  10  19  32  57  86 110 146 186 235 287 326
#
# _framework density 19.263213
#
# number of rings (size 3 to 8) (size 9 to 14) (size 15 to 20)
#    0.000    1.750    8.750    0.375    0.000    2.000 
#    0.000    1.250    0.000    0.750    0.000    0.000 
#    0.000    0.000    0.000    0.000    0.000    0.000 
#
# Total GULP energy -89322.522546 kJ/mol
# GULP energy per Si atom -5582.657659 kJ/mol
# Density = 1.921937 g / cm^3
# Si number density = 19.263213 Si / 1000 Ang^3
#
#
#
# Elastic Constant Matrix: (Units=GPa)
#
#
# Indices 1 2 3 4 5 6 
#
# 1 55.7659 27.6156 25.4346 -2.1847 -10.8339 3.3973
# 2 27.6156 119.8931 35.6943 -5.9327 0.7737 7.6940
# 3 25.4346 35.6943 103.0110 -2.7964 -1.4729 7.1173
# 4 -2.1847 -5.9327 -2.7964 12.1498 -0.1104 0.6593
# 5 -10.8339 0.7737 -1.4729 -0.1104 18.2370 -0.2523
# 6 3.3973 7.6940 7.1173 0.6593 -0.2523 33.3495
#
#
#
# Elastic Compliance Matrix: (Units=1/GPa)
#
#
# Indices 1 2 3 4 5 6 
#
# 1 0.025087 -0.004469 -0.004359 0.001487 0.014743 -0.000512
# 2 -0.004469 0.010370 -0.002328 0.003778 -0.003281 -0.001540
# 3 -0.004359 -0.002328 0.011698 0.000841 -0.001562 -0.001544
# 4 0.001487 0.003778 0.000841 0.084779 0.001265 -0.002869
# 5 0.014743 -0.003281 -0.001562 0.001265 0.063613 0.000045
# 6 -0.000512 -0.001540 -0.001544 -0.002869 0.000045 0.030779
#
#
# Mechanical properties :
#
#
# Convention : Reuss Voigt Hill
#
# Bulk Modulus (GPa) = 40.25333 50.68433 45.46883
# Shear Modulus (GPa) = 19.46132 25.40896 22.43514
#
# Velocity S-wave (km/s) = 3.18195 3.63580 3.41642
# Velocity P-wave (km/s) = 5.86869 6.63279 6.26241
#
# Compressibility (1/GPa) = 0.02484267
#
# Stress axis : x y z
#
# Youngs Moduli (GPa) = 39.86107 96.43025 85.48632
#
# Poissons Ratio (x) = 0.43098 0.37264
# Poissons Ratio (y) = 0.17815 0.19899
# Poissons Ratio (z) = 0.17376 0.22447
#
# Static dielectric constant tensor:
#      x y z
#    x 1.717070 0.005470 -0.002560 
#    y 0.005470 1.700910 0.006900 
#    z -0.002560 0.006900 1.654240 
# 
# From -- ./inp_files/598000.got.cif
#   From: 2010.05.17/outbox.cif.g08.bks.cpg/sg2_299_cif.got.tgz:598000.got - 2010.06.03 11:33:40.
