data_PCOD9081179
_publ_section_title
;
Structure prediction by ZEFSAII (Michael W. Deem and Ramdas Pophale) SiO2 
 PCOD9081179
Probable space group: P -1
;
_chemical_formula_sum "Si O2"
_cell_formula_units_Z 16
_cell_length_a 9.638014
_cell_length_b 15.854190
_cell_length_c 10.016896
_cell_angle_alpha 45.525824
_cell_angle_beta 108.077962
_cell_angle_gamma 138.146882
_cell_volume 652.864352
_symmetry_space_group_name_H-M "P -1"
_symmetry_group_IT_number 2
_symmetry_cell_setting 'triclinic'
loop_
_space_group_symop_operation_xyz
x,y,z
-x,-y,-z
loop_
_atom_site_type_symbol
_atom_site_label
_atom_site_fract_x
_atom_site_fract_y
_atom_site_fract_z
Si Si1 0.998387 0.528103 0.621690
Si Si2 0.730382 0.843019 0.553977
Si Si3 0.336808 0.209546 0.723835
Si Si4 0.237079 0.639024 0.823771
Si Si5 0.480608 0.898012 0.984806
Si Si6 0.301356 0.920346 0.654290
Si Si7 0.195392 0.362474 0.527977
Si Si8 0.752842 0.597944 0.819725
O O1 0.756426 0.327050 0.828474
O O2 0.013478 0.679272 0.465136
O O3 0.000000 0.500000 0.500000
O O4 0.177508 0.581018 0.715414
O O5 0.704066 0.847728 0.380691
O O6 0.639894 0.652429 0.765190
O O7 0.642573 0.904793 0.535904
O O8 0.000000 0.000000 0.500000
O O9 0.337340 0.092700 0.943402
O O10 0.169909 0.209440 0.724193
O O11 0.586078 0.436465 0.556812
O O12 0.316338 0.824494 0.656990
O O13 0.358515 0.598806 0.962730
O O14 0.000000 0.500000 0.000000
O O15 0.444561 0.954398 0.781480
O O16 0.500000 0.000000 0.000000
O O17 0.018861 0.754806 0.780566
O O18 0.233911 0.387758 0.352513
#
# Coordination Sequence:
#
# PCOD9081179 Si02
#       8
#     2   2   2   2   2   2   2   2
#     4  11  21  33  53  82 112 141 176 224 278 326
#     4   9  17  25  40  74 106 131 159 227 281 305
#     4   9  17  27  45  75 106 134 169 231 267 303
#     4  10  15  29  51  75 100 129 184 226 248 303
#     4  11  19  31  52  82 111 138 179 226 269 317
#     4  10  16  27  46  77 104 128 178 227 260 306
#     4   9  16  30  48  75 103 133 177 224 265 314
#     4   9  15  27  47  71 102 125 177 228 261 301
#
# _framework density 24.507387999999999
#
# number of rings (size 3 to 8) (size 9 to 14) (size 15 to 20)
#    0.000    2.250    6.250    0.750    0.000    0.000 
#    0.000    0.000    0.000    1.500    0.000   28.000 
#    0.000    0.000    0.000    0.000    0.000    0.000 
#
# Total GULP energy -89235.493928 kJ/mol
# GULP energy per Si atom -5577.218370 kJ/mol
# Density = 2.445161 g / cm^3
# Si number density = 24.507388 Si / 1000 Ang^3
#
#
#
# Elastic Constant Matrix: (Units=GPa)
#
#
# Indices 1 2 3 4 5 6 
#
# 1 114.8333 32.5043 53.4911 -7.6239 50.5647 -39.5757
# 2 32.5043 101.1839 47.4979 15.3759 14.6037 -12.1423
# 3 53.4911 47.4979 142.3671 -5.0933 52.8992 -14.1706
# 4 -7.6239 15.3759 -5.0933 54.9623 -6.1731 10.7248
# 5 50.5647 14.6037 52.8992 -6.1731 51.7721 -18.2783
# 6 -39.5757 -12.1423 -14.1706 10.7248 -18.2783 56.1974
#
#
#
# Elastic Compliance Matrix: (Units=1/GPa)
#
#
# Indices 1 2 3 4 5 6 
#
# 1 0.018686 -0.003150 0.000382 0.000333 -0.015020 0.007626
# 2 -0.003150 0.013469 -0.004930 -0.004508 0.004390 0.001737
# 3 0.000382 -0.004930 0.013213 0.001586 -0.012999 -0.001995
# 4 0.000333 -0.004508 0.001586 0.020493 0.000303 -0.004151
# 5 -0.015020 0.004390 -0.012999 0.000303 0.046869 0.002280
# 6 0.007626 0.001737 -0.001995 -0.004151 0.002280 0.024571
#
#
# Mechanical properties :
#
#
# Convention : Reuss Voigt Hill
#
# Bulk Modulus (GPa) = 33.36305 69.48565 51.42435
# Shear Modulus (GPa) = 30.73386 47.57909 39.15647
#
# Velocity S-wave (km/s) = 3.54512 4.41093 4.00151
# Velocity P-wave (km/s) = 5.51364 7.37267 6.50986
#
# Compressibility (1/GPa) = 0.02997328
#
# Stress axis : x y z
#
# Youngs Moduli (GPa) = 53.51602 74.24624 75.68107
#
# Poissons Ratio (x) = 0.23385 -0.02890
# Poissons Ratio (y) = 0.16856 0.37308
# Poissons Ratio (z) = -0.02044 0.36600
#
# Static dielectric constant tensor:
#      x y z
#    x 2.142240 0.102090 -0.076440 
#    y 0.102090 2.044000 -0.123220 
#    z -0.076440 -0.123220 2.011610 
# 
# From -- ./inp_files/266859.got.cif
#   From: 2010.05.17/outbox.cif.g08.bks.cpg/sg2_134_cif.got.tgz:266859.got - 2010.06.03 11:33:40.
