data_PCOD9081867
_publ_section_title
;
Structure prediction by ZEFSAII (Michael W. Deem and Ramdas Pophale) SiO2 
 PCOD9081867
Probable space group: P -1
;
_chemical_formula_sum "Si O2"
_cell_formula_units_Z 16
_cell_length_a 8.045542
_cell_length_b 11.438008
_cell_length_c 13.860471
_cell_angle_alpha 128.362696
_cell_angle_beta 125.496409
_cell_angle_gamma 61.542457
_cell_volume 800.665750
_symmetry_space_group_name_H-M "P -1"
_symmetry_group_IT_number 2
_symmetry_cell_setting 'triclinic'
loop_
_space_group_symop_operation_xyz
x,y,z
-x,-y,-z
loop_
_atom_site_type_symbol
_atom_site_label
_atom_site_fract_x
_atom_site_fract_y
_atom_site_fract_z
Si Si1 0.965148 0.266878 0.308591
Si Si2 0.292007 0.945839 0.935793
Si Si3 0.931731 0.750199 0.889167
Si Si4 0.012016 0.654665 0.145242
Si Si5 0.674367 0.353683 0.900308
Si Si6 0.750790 0.474189 0.663777
Si Si7 0.287095 0.454204 0.534052
Si Si8 0.444271 0.288172 0.955367
O O1 0.846741 0.130294 0.225610
O O2 0.798623 0.418986 0.351628
O O3 0.025448 0.237753 0.202636
O O4 0.177057 0.310637 0.444597
O O5 0.383097 0.815380 0.976756
O O6 0.500000 0.000000 0.000000
O O7 0.144755 0.087896 0.007106
O O8 0.754443 0.647109 0.786764
O O9 0.139252 0.663484 0.966694
O O10 0.200668 0.713935 0.186564
O O11 0.072920 0.620386 0.258760
O O12 0.780575 0.748281 0.112451
O O13 0.000000 0.500000 0.000000
O O14 0.505824 0.273789 0.855727
O O15 0.576968 0.530390 0.940047
O O16 0.533726 0.426475 0.592515
O O17 0.785980 0.476294 0.561680
#
# Coordination Sequence:
#
# PCOD9081867 Si02
#       8
#     2   2   2   2   2   2   2   2
#     4  10  21  37  54  84 124 154 215 239 298 367
#     4  12  24  34  59  91 130 162 186 250 323 370
#     4  11  20  36  58  89 129 154 184 260 312 368
#     4  10  19  32  56  86 122 147 187 260 305 357
#     4  10  20  33  56  83 124 159 189 238 315 358
#     4  10  19  37  58  88 125 144 213 247 304 358
#     4   9  21  35  58  82 116 172 195 259 287 333
#     4  10  21  35  50  89 123 156 195 229 317 365
#
# _framework density 19.983371000000002
#
# number of rings (size 3 to 8) (size 9 to 14) (size 15 to 20)
#    0.000    1.750    3.750    1.875    5.250    0.000 
#    2.250    0.000    0.000    0.000    0.000   26.250 
#    0.000    0.000    0.000    0.000    0.000    0.000 
#
# Total GULP energy -89107.977822 kJ/mol
# GULP energy per Si atom -5569.248614 kJ/mol
# Density = 1.993789 g / cm^3
# Si number density = 19.983371 Si / 1000 Ang^3
#
#
#
# Elastic Constant Matrix: (Units=GPa)
#
#
# Indices 1 2 3 4 5 6 
#
# 1 107.4218 13.0850 18.7599 16.2260 16.8752 0.5223
# 2 13.0850 55.3456 15.9293 2.7550 5.0689 -8.0059
# 3 18.7599 15.9293 71.9184 17.4917 10.5302 -4.4522
# 4 16.2260 2.7550 17.4917 27.8881 5.9497 1.2329
# 5 16.8752 5.0689 10.5302 5.9497 28.0747 3.5405
# 6 0.5223 -8.0059 -4.4522 1.2329 3.5405 24.6690
#
#
#
# Elastic Compliance Matrix: (Units=1/GPa)
#
#
# Indices 1 2 3 4 5 6 
#
# 1 0.011168 -0.001747 -0.000584 -0.004862 -0.005157 0.000074
# 2 -0.001747 0.020615 -0.003749 0.001563 -0.002394 0.006316
# 3 -0.000584 -0.003749 0.018084 -0.009907 -0.004051 0.003136
# 4 -0.004862 0.001563 -0.009907 0.045499 -0.002903 -0.003035
# 5 -0.005157 -0.002394 -0.004051 -0.002903 0.042208 -0.007311
# 6 0.000074 0.006316 0.003136 -0.003035 -0.007311 0.044352
#
#
# Mechanical properties :
#
#
# Convention : Reuss Voigt Hill
#
# Bulk Modulus (GPa) = 26.51998 36.69269 31.60633
# Shear Modulus (GPa) = 24.19469 28.58713 26.39091
#
# Velocity S-wave (km/s) = 3.48335 3.78636 3.63801
# Velocity P-wave (km/s) = 5.42937 6.12510 5.78770
#
# Compressibility (1/GPa) = 0.03770741
#
# Stress axis : x y z
#
# Youngs Moduli (GPa) = 89.54038 48.50728 55.29703
#
# Poissons Ratio (x) = 0.08475 0.03229
# Poissons Ratio (y) = 0.15645 0.20731
# Poissons Ratio (z) = 0.05229 0.18185
#
# Static dielectric constant tensor:
#      x y z
#    x 1.803600 0.061930 0.038850 
#    y 0.061930 1.707110 0.002000 
#    z 0.038850 0.002000 1.731040 
# 
# From -- ./inp_files/499487.got.cif
#   From: 2010.05.17/outbox.cif.g08.bks.cpg/sg2_250_cif.got.tgz:499487.got - 2010.06.03 11:33:40.
