data_PCOD9081104
_publ_section_title
;
Structure prediction by ZEFSAII (Michael W. Deem and Ramdas Pophale) SiO2 
 PCOD9081104
Probable space group: P -1
;
_chemical_formula_sum "Si O2"
_cell_formula_units_Z 16
_cell_length_a 9.408426
_cell_length_b 12.556726
_cell_length_c 19.320271
_cell_angle_alpha 148.927827
_cell_angle_beta 144.330976
_cell_angle_gamma 33.573050
_cell_volume 611.201853
_symmetry_space_group_name_H-M "P -1"
_symmetry_group_IT_number 2
_symmetry_cell_setting 'triclinic'
loop_
_space_group_symop_operation_xyz
x,y,z
-x,-y,-z
loop_
_atom_site_type_symbol
_atom_site_label
_atom_site_fract_x
_atom_site_fract_y
_atom_site_fract_z
Si Si1 0.918214 0.729172 0.354293
Si Si2 0.678485 0.409916 0.321537
Si Si3 0.745664 0.748030 0.965321
Si Si4 0.468947 0.741277 0.269723
Si Si5 0.649207 0.160417 0.404731
Si Si6 0.033160 0.052116 0.728064
Si Si7 0.267493 0.513585 0.966853
Si Si8 0.199509 0.217009 0.341893
O O1 0.779613 0.688056 0.345131
O O2 0.825936 0.649611 0.204026
O O3 0.242457 0.645918 0.438936
O O4 0.772724 0.004829 0.436151
O O5 0.384002 0.424910 0.196890
O O6 0.829420 0.189994 0.309912
O O7 0.702381 0.623909 0.485080
O O8 0.872802 0.337489 0.290328
O O9 0.968419 0.718378 0.978994
O O10 0.500000 0.000000 0.000000
O O11 0.878170 0.764565 0.099877
O O12 0.312003 0.957395 0.273287
O O13 0.414870 0.526598 0.104021
O O14 0.294393 0.846668 0.329390
O O15 0.810700 0.022890 0.324349
O O16 0.335030 0.211289 0.317428
O O17 0.500000 0.500000 0.000000
#
# Coordination Sequence:
#
# PCOD9081104 Si02
#       8
#     2   2   2   2   2   2   2   2
#     4   9  18  31  50  71  94 132 167 199 248 303
#     4   9  17  31  52  70  92 133 170 197 242 303
#     4   9  17  31  51  74  98 131 168 200 245 301
#     4   8  16  31  49  69  94 126 163 202 247 294
#     4  10  19  31  47  72 102 127 161 210 255 291
#     4   9  18  31  48  72 100 127 161 209 251 290
#     4   9  16  30  53  76  96 126 173 210 239 290
#     4   9  17  30  49  70  96 128 163 204 246 293
#
# _framework density 26.177931999999998
#
# number of rings (size 3 to 8) (size 9 to 14) (size 15 to 20)
#    0.000    3.000    0.000    1.500    0.000    1.000 
#    0.000    3.125    0.000   18.000    0.000    0.000 
#    0.000    0.000    0.000    0.000    0.000    0.000 
#
# Total GULP energy -89109.667466 kJ/mol
# GULP energy per Si atom -5569.354217 kJ/mol
# Density = 2.611835 g / cm^3
# Si number density = 26.177932 Si / 1000 Ang^3
#
#
#
# Elastic Constant Matrix: (Units=GPa)
#
#
# Indices 1 2 3 4 5 6 
#
# 1 221.6316 52.8684 39.5352 -4.5667 6.0778 -45.0493
# 2 52.8684 54.5157 16.5543 -4.8837 5.4174 -17.1709
# 3 39.5352 16.5543 138.3589 -2.3938 13.3734 -13.4451
# 4 -4.5667 -4.8837 -2.3938 31.0166 -9.2258 12.6124
# 5 6.0778 5.4174 13.3734 -9.2258 46.7369 0.2769
# 6 -45.0493 -17.1709 -13.4451 12.6124 0.2769 60.1402
#
#
#
# Elastic Compliance Matrix: (Units=1/GPa)
#
#
# Indices 1 2 3 4 5 6 
#
# 1 0.006599 -0.005087 -0.000923 -0.001454 -0.000313 0.003590
# 2 -0.005087 0.024748 -0.001061 0.001477 -0.001628 0.002716
# 3 -0.000923 -0.001061 0.007906 -0.000717 -0.002166 0.000934
# 4 -0.001454 0.001477 -0.000717 0.038127 0.007802 -0.008859
# 5 -0.000313 -0.001628 -0.002166 0.007802 0.023803 -0.002929
# 6 0.003590 0.002716 0.000934 -0.008859 -0.002929 0.022173
#
#
# Mechanical properties :
#
#
# Convention : Reuss Voigt Hill
#
# Bulk Modulus (GPa) = 39.82236 70.26910 55.04573
# Shear Modulus (GPa) = 34.27767 47.94863 41.11315
#
# Velocity S-wave (km/s) = 3.62250 4.28441 3.96729
# Velocity P-wave (km/s) = 5.72206 7.16771 6.48529
#
# Compressibility (1/GPa) = 0.02511152
#
# Stress axis : x y z
#
# Youngs Moduli (GPa) = 151.54922 40.40650 126.48793
#
# Poissons Ratio (x) = 0.20556 0.11673
# Poissons Ratio (y) = 0.77097 0.13415
# Poissons Ratio (z) = 0.13986 0.04286
#
# Static dielectric constant tensor:
#      x y z
#    x 2.074910 -0.039300 0.030930 
#    y -0.039300 2.098930 -0.003290 
#    z 0.030930 -0.003290 2.180570 
# 
# From -- ./inp_files/189398.got.cif
#   From: 2010.05.17/outbox.cif.g08.bks.cpg/sg2_95_cif.got.tgz:189398.got - 2010.06.03 11:33:40.
