data_PCOD9081563
_publ_section_title
;
Structure prediction by ZEFSAII (Michael W. Deem and Ramdas Pophale) SiO2 
 PCOD9081563
Probable space group: P -1
;
_chemical_formula_sum "Si O2"
_cell_formula_units_Z 16
_cell_length_a 13.254197
_cell_length_b 9.564242
_cell_length_c 8.706873
_cell_angle_alpha 51.008970
_cell_angle_beta 79.822802
_cell_angle_gamma 48.506204
_cell_volume 585.341847
_symmetry_space_group_name_H-M "P -1"
_symmetry_group_IT_number 2
_symmetry_cell_setting 'triclinic'
loop_
_space_group_symop_operation_xyz
x,y,z
-x,-y,-z
loop_
_atom_site_type_symbol
_atom_site_label
_atom_site_fract_x
_atom_site_fract_y
_atom_site_fract_z
Si Si1 0.911290 0.294543 0.295528
Si Si2 0.860264 0.950642 0.833755
Si Si3 0.261670 0.638019 0.202052
Si Si4 0.654970 0.140256 0.195395
Si Si5 0.482242 0.203111 0.700875
Si Si6 0.649067 0.380112 0.331755
Si Si7 0.214023 0.277342 0.761457
Si Si8 0.390918 0.221191 0.245360
O O1 0.750278 0.418718 0.218938
O O2 0.902875 0.423757 0.362424
O O3 0.000000 0.000000 0.500000
O O4 0.993733 0.280433 0.141772
O O5 0.869888 0.114190 0.830312
O O6 0.738537 0.165784 0.592541
O O7 0.811589 0.846500 0.022984
O O8 0.388898 0.418623 0.440460
O O9 0.254017 0.478878 0.197820
O O10 0.312834 0.738757 0.013112
O O11 0.648017 0.233790 0.300281
O O12 0.495786 0.250269 0.135910
O O13 0.774234 0.835072 0.329147
O O14 0.485979 0.347251 0.734322
O O15 0.369664 0.186666 0.795581
O O16 0.617733 0.926386 0.775798
O O17 0.500000 0.000000 0.500000
#
# Coordination Sequence:
#
# PCOD9081563 Si02
#       8
#     2   2   2   2   2   2   2   2
#     4   9  17  32  53  71  96 134 165 193 240 300
#     4   9  17  31  52  72  96 134 169 195 236 298
#     4   9  17  31  51  72  96 131 168 195 237 296
#     4  10  19  32  52  77 100 123 162 212 245 278
#     4   8  16  32  51  70  98 132 164 196 239 296
#     4   9  18  33  50  76 102 124 160 211 249 276
#     4   9  17  31  51  72  95 130 167 195 236 298
#     4   9  17  32  52  72  96 134 167 193 238 302
#
# _framework density 27.334454999999998
#
# number of rings (size 3 to 8) (size 9 to 14) (size 15 to 20)
#    0.000    3.000    0.000    1.500    0.000    0.000 
#    0.000   18.750    0.000    0.000    0.000    0.000 
#    0.000    0.000    0.000    0.000    0.000    0.000 
#
# Total GULP energy -89457.530434 kJ/mol
# GULP energy per Si atom -5591.095652 kJ/mol
# Density = 2.727224 g / cm^3
# Si number density = 27.334455 Si / 1000 Ang^3
#
#
#
# Elastic Constant Matrix: (Units=GPa)
#
#
# Indices 1 2 3 4 5 6 
#
# 1 51.7969 54.4727 24.1828 8.7119 -11.4744 17.1377
# 2 54.4727 339.3757 28.5141 -9.7188 -2.7277 46.8389
# 3 24.1828 28.5141 96.8892 7.4868 -27.5783 7.7496
# 4 8.7119 -9.7188 7.4868 45.7003 -0.3640 -2.8585
# 5 -11.4744 -2.7277 -27.5783 -0.3640 41.6323 12.2888
# 6 17.1377 46.8389 7.7496 -2.8585 12.2888 47.6197
#
#
#
# Elastic Compliance Matrix: (Units=1/GPa)
#
#
# Indices 1 2 3 4 5 6 
#
# 1 0.030689 -0.003430 -0.002656 -0.006699 0.009386 -0.010062
# 2 -0.003430 0.003892 -0.000230 0.001366 -0.000109 -0.002447
# 3 -0.002656 -0.000230 0.014317 -0.002048 0.009843 -0.003811
# 4 -0.006699 0.001366 -0.002048 0.023996 -0.004051 0.003887
# 5 0.009386 -0.000109 0.009843 -0.004051 0.037447 -0.014780
# 6 -0.010062 -0.002447 -0.003811 0.003887 -0.014780 0.031695
#
#
# Mechanical properties :
#
#
# Convention : Reuss Voigt Hill
#
# Bulk Modulus (GPa) = 27.57501 78.04455 52.80978
# Shear Modulus (GPa) = 29.98369 52.38328 41.18349
#
# Velocity S-wave (km/s) = 3.31557 4.38240 3.88577
# Velocity P-wave (km/s) = 4.97667 7.36349 6.28443
#
# Compressibility (1/GPa) = 0.03626472
#
# Stress axis : x y z
#
# Youngs Moduli (GPa) = 32.58496 256.91005 69.84874
#
# Poissons Ratio (x) = 0.88128 0.18553
# Poissons Ratio (y) = 0.11178 0.01607
# Poissons Ratio (z) = 0.08655 0.05912
#
# Static dielectric constant tensor:
#      x y z
#    x 2.158980 -0.038940 0.005240 
#    y -0.038940 2.146170 -0.002610 
#    z 0.005240 -0.002610 2.272350 
# 
# From -- ./inp_files/195835.got.cif
#   From: 2010.05.17/outbox.cif.g08.bks.cpg/sg2_98_cif.got.tgz:195835.got - 2010.06.03 11:33:40.
