data_PCOD9081539
_publ_section_title
;
Structure prediction by ZEFSAII (Michael W. Deem and Ramdas Pophale) SiO2 
 PCOD9081539
Probable space group: P -1
;
_chemical_formula_sum "Si O2"
_cell_formula_units_Z 14
_cell_length_a 5.490249
_cell_length_b 21.140925
_cell_length_c 12.517255
_cell_angle_alpha 143.312863
_cell_angle_beta 133.434616
_cell_angle_gamma 57.380215
_cell_volume 630.059116
_symmetry_space_group_name_H-M "P -1"
_symmetry_group_IT_number 2
_symmetry_cell_setting 'triclinic'
loop_
_space_group_symop_operation_xyz
x,y,z
-x,-y,-z
loop_
_atom_site_type_symbol
_atom_site_label
_atom_site_fract_x
_atom_site_fract_y
_atom_site_fract_z
Si Si1 0.443375 0.288619 0.997582
Si Si2 0.840569 0.613702 0.737796
Si Si3 0.554038 0.729710 0.621393
Si Si4 0.197991 0.917192 0.818517
Si Si5 0.804424 0.111033 0.968503
Si Si6 0.777668 0.593529 0.103118
Si Si7 0.170810 0.433186 0.681555
O O1 0.260584 0.341062 0.115115
O O2 0.518347 0.168862 0.894255
O O3 0.808098 0.342219 0.149962
O O4 0.234287 0.313257 0.861021
O O5 0.566602 0.655497 0.628860
O O6 0.891224 0.488247 0.598841
O O7 0.252069 0.810064 0.625680
O O8 0.638032 0.654168 0.446231
O O9 0.864844 0.814186 0.846480
O O10 0.237683 0.886420 0.913007
O O11 0.500000 0.000000 0.000000
O O12 0.874694 0.988333 0.797703
O O13 0.902368 0.614284 0.288477
O O14 0.408776 0.536753 0.919183
O O15 0.000000 0.500000 0.000000
#
# Coordination Sequence:
#
# PCOD9081539 Si02
#       7
#     2   2   2   2   2   2   2
#     4  10  19  34  56  75 108 141 181 216 262 315
#     4  10  19  34  51  81 110 142 171 218 265 322
#     4  10  19  32  51  80 110 139 170 218 271 318
#     4   9  17  31  51  75 107 133 169 210 272 324
#     4   9  18  32  51  79 104 136 170 217 267 323
#     4  10  20  36  51  71 103 147 187 216 251 305
#     4  10  21  34  51  75 109 143 181 218 257 310
#
# _framework density 22.220137999999999
#
# number of rings (size 3 to 8) (size 9 to 14) (size 15 to 20)
#    0.000    2.286    2.857    0.429    0.000    1.143 
#    0.000    2.857    0.000    0.857    0.000   10.000 
#    0.000    0.000    0.000    0.000    0.000    0.000 
#
# Total GULP energy -78061.966971 kJ/mol
# GULP energy per Si atom -5575.854784 kJ/mol
# Density = 2.216956 g / cm^3
# Si number density = 22.220138 Si / 1000 Ang^3
#
#
#
# Elastic Constant Matrix: (Units=GPa)
#
#
# Indices 1 2 3 4 5 6 
#
# 1 88.6544 51.6691 29.4643 12.3336 -28.6478 8.9107
# 2 51.6691 233.1535 65.9751 17.4496 -47.2227 3.7288
# 3 29.4643 65.9751 74.8368 10.2671 -31.1113 -3.9802
# 4 12.3336 17.4496 10.2671 33.7967 -6.5424 -8.4762
# 5 -28.6478 -47.2227 -31.1113 -6.5424 51.3076 4.3048
# 6 8.9107 3.7288 -3.9802 -8.4762 4.3048 39.0522
#
#
#
# Elastic Compliance Matrix: (Units=1/GPa)
#
#
# Indices 1 2 3 4 5 6 
#
# 1 0.015962 -0.001179 -0.002270 -0.004677 0.006314 -0.005472
# 2 -0.001179 0.006327 -0.003833 -0.001476 0.002766 -0.001351
# 3 -0.002270 -0.003833 0.021147 -0.001675 0.007660 0.001831
# 4 -0.004677 -0.001476 -0.001675 0.034485 -0.001315 0.008667
# 5 0.006314 0.002766 0.007660 -0.001315 0.030422 -0.004563
# 6 -0.005472 -0.001351 0.001831 0.008667 -0.004563 0.029555
#
#
# Mechanical properties :
#
#
# Convention : Reuss Voigt Hill
#
# Bulk Modulus (GPa) = 34.63490 76.76242 55.69866
# Shear Modulus (GPa) = 30.84760 41.46705 36.15732
#
# Velocity S-wave (km/s) = 3.72999 4.32463 4.03827
# Velocity P-wave (km/s) = 5.84564 7.71738 6.84578
#
# Compressibility (1/GPa) = 0.02887261
#
# Stress axis : x y z
#
# Youngs Moduli (GPa) = 62.64848 158.04637 47.28737
#
# Poissons Ratio (x) = 0.18628 0.10734
# Poissons Ratio (y) = 0.07384 0.18127
# Poissons Ratio (z) = 0.14221 0.60586
#
# Static dielectric constant tensor:
#      x y z
#    x 1.981780 -0.042600 0.070440 
#    y -0.042600 1.895700 -0.009530 
#    z 0.070440 -0.009530 1.824200 
# 
# From -- ./inp_files/34463.got.cif
#   From: 2010.05.17/outbox.cif.g08.bks.cpg/sg2_18_cif.got.tgz:34463.got - 2010.06.03 11:33:40.
