data_PCOD9081826
_publ_section_title
;
Structure prediction by ZEFSAII (Michael W. Deem and Ramdas Pophale) SiO2 
 PCOD9081826
Probable space group: P -1
;
_chemical_formula_sum "Si O2"
_cell_formula_units_Z 16
_cell_length_a 11.842018
_cell_length_b 8.349175
_cell_length_c 9.889332
_cell_angle_alpha 72.478825
_cell_angle_beta 97.787726
_cell_angle_gamma 134.986228
_cell_volume 655.120706
_symmetry_space_group_name_H-M "P -1"
_symmetry_group_IT_number 2
_symmetry_cell_setting 'triclinic'
loop_
_space_group_symop_operation_xyz
x,y,z
-x,-y,-z
loop_
_atom_site_type_symbol
_atom_site_label
_atom_site_fract_x
_atom_site_fract_y
_atom_site_fract_z
Si Si1 0.625474 0.186890 0.786954
Si Si2 0.550223 0.736260 0.398683
Si Si3 0.381343 0.471800 0.891655
Si Si4 0.266870 0.686372 0.937971
Si Si5 0.368979 0.077136 0.364787
Si Si6 0.090155 0.781243 0.733267
Si Si7 0.032641 0.874517 0.438862
Si Si8 0.927831 0.953666 0.148807
O O1 0.588476 0.340314 0.702768
O O2 0.445115 0.938357 0.860391
O O3 0.679000 0.126541 0.686750
O O4 0.738361 0.286438 0.909639
O O5 0.500000 0.500000 0.500000
O O6 0.557685 0.878735 0.487064
O O7 0.734953 0.944951 0.329003
O O8 0.279476 0.506270 0.944869
O O9 0.490870 0.676935 0.748808
O O10 0.259047 0.216112 0.871607
O O11 0.500000 0.500000 0.000000
O O12 0.135582 0.651244 0.839586
O O13 0.214304 0.033702 0.376627
O O14 0.008876 0.701078 0.591516
O O15 0.006380 0.815382 0.820319
O O16 0.940363 0.816175 0.297841
O O17 0.000000 0.000000 0.500000
O O18 0.000000 0.000000 0.000000
#
# Coordination Sequence:
#
# PCOD9081826 Si02
#       8
#     2   2   2   2   2   2   2   2
#     4   9  19  33  56  87 125 166 203 252 318 370
#     4  10  19  32  55  92 128 157 202 264 316 362
#     4  11  24  37  61  95 126 155 210 269 308 363
#     4   9  20  36  58  86 126 162 204 258 316 365
#     4  10  20  36  62  88 122 163 215 253 309 374
#     4   9  20  39  62  83 122 170 206 246 314 376
#     4   9  20  40  62  89 123 165 206 249 311 374
#     4  11  23  39  64  91 124 165 210 255 314 376
#
# _framework density 24.422979999999999
#
# number of rings (size 3 to 8) (size 9 to 14) (size 15 to 20)
#    0.000    2.250    0.000    1.875   10.500    1.000 
#    0.000    1.250    0.000    0.000    0.000    0.000 
#    0.000    0.000    0.000    0.000    0.000    0.000 
#
# Total GULP energy -89334.937286 kJ/mol
# GULP energy per Si atom -5583.433580 kJ/mol
# Density = 2.436739 g / cm^3
# Si number density = 24.422980 Si / 1000 Ang^3
#
#
#
# Elastic Constant Matrix: (Units=GPa)
#
#
# Indices 1 2 3 4 5 6 
#
# 1 97.1995 15.4667 56.7074 5.4452 1.0013 -0.6793
# 2 15.4667 65.5056 22.3033 0.2650 -5.5067 2.5129
# 3 56.7074 22.3033 161.7648 36.9062 1.3076 -3.8104
# 4 5.4452 0.2650 36.9062 27.7544 4.5175 0.7212
# 5 1.0013 -5.5067 1.3076 4.5175 54.8984 8.6791
# 6 -0.6793 2.5129 -3.8104 0.7212 8.6791 34.6228
#
#
#
# Elastic Compliance Matrix: (Units=1/GPa)
#
#
# Indices 1 2 3 4 5 6 
#
# 1 0.013562 -0.001315 -0.005732 0.005082 -0.000626 -0.000218
# 2 -0.001315 0.016709 -0.002689 0.003434 0.001807 -0.002059
# 3 -0.005732 -0.002689 0.012003 -0.014938 0.000528 0.001583
# 4 0.005082 0.003434 -0.014938 0.055509 -0.003638 -0.002038
# 5 -0.000626 0.001807 0.000528 -0.003638 0.019468 -0.004890
# 6 -0.000218 -0.002059 0.001583 -0.002038 -0.004890 0.030470
#
#
# Mechanical properties :
#
#
# Convention : Reuss Voigt Hill
#
# Bulk Modulus (GPa) = 43.85890 57.04722 50.45306
# Shear Modulus (GPa) = 28.60486 38.78794 33.69640
#
# Velocity S-wave (km/s) = 3.42603 3.98951 3.71846
# Velocity P-wave (km/s) = 5.80063 6.68059 6.25610
#
# Compressibility (1/GPa) = 0.02280039
#
# Stress axis : x y z
#
# Youngs Moduli (GPa) = 73.73543 59.84785 83.31140
#
# Poissons Ratio (x) = 0.07871 0.47758
# Poissons Ratio (y) = 0.09698 0.22404
# Poissons Ratio (z) = 0.42268 0.16094
#
# Static dielectric constant tensor:
#      x y z
#    x 1.954080 -0.026950 -0.023910 
#    y -0.026950 2.038530 -0.012910 
#    z -0.023910 -0.012910 1.962270 
# 
# From -- ./inp_files/243553.got.cif
#   From: 2010.05.17/outbox.cif.g08.bks.cpg/sg2_122_cif.got.tgz:243553.got - 2010.06.03 11:33:40.
