data_PCOD9081433
_publ_section_title
;
Structure prediction by ZEFSAII (Michael W. Deem and Ramdas Pophale) SiO2 
 PCOD9081433
Probable space group: P -1
;
_chemical_formula_sum "Si O2"
_cell_formula_units_Z 16
_cell_length_a 9.167189
_cell_length_b 8.027434
_cell_length_c 11.846184
_cell_angle_alpha 91.338271
_cell_angle_beta 113.989081
_cell_angle_gamma 115.842595
_cell_volume 695.147647
_symmetry_space_group_name_H-M "P -1"
_symmetry_group_IT_number 2
_symmetry_cell_setting 'triclinic'
loop_
_space_group_symop_operation_xyz
x,y,z
-x,-y,-z
loop_
_atom_site_type_symbol
_atom_site_label
_atom_site_fract_x
_atom_site_fract_y
_atom_site_fract_z
Si Si1 0.053421 0.329436 0.135143
Si Si2 0.425504 0.911353 0.804045
Si Si3 0.327111 0.593298 0.481101
Si Si4 0.724053 0.271301 0.776928
Si Si5 0.072494 0.545791 0.669631
Si Si6 0.270874 0.058178 0.961258
Si Si7 0.721786 0.781843 0.637376
Si Si8 0.020271 0.187684 0.757951
O O1 0.176467 0.531611 0.116126
O O2 0.191145 0.260140 0.225772
O O3 0.974490 0.388087 0.221597
O O4 0.882629 0.139161 0.032216
O O5 0.250762 0.736146 0.691866
O O6 0.552239 0.094132 0.772886
O O7 0.348781 0.992653 0.879560
O O8 0.558570 0.839885 0.900150
O O9 0.338844 0.674201 0.359121
O O10 0.518832 0.746136 0.598321
O O11 0.313558 0.385626 0.464722
O O12 0.123235 0.537977 0.454662
O O13 0.878376 0.217424 0.790900
O O14 0.106516 0.369048 0.705142
O O15 0.168035 0.165060 0.879235
O O16 0.880875 0.987144 0.650682
#
# Coordination Sequence:
#
# PCOD9081433 Si02
#       8
#     2   2   2   2   2   2   2   2
#     4   7  14  30  47  67  90 117 154 190 223 267
#     4  10  19  32  46  66  95 126 153 185 230 275
#     4   8  15  29  50  70  90 121 152 188 226 268
#     4   9  18  29  46  70  98 118 146 196 236 258
#     4   8  16  28  43  63  94 123 146 179 229 276
#     4   9  18  32  51  65  86 127 162 184 222 278
#     4   8  13  26  52  72  86 114 162 189 213 270
#     4   9  17  31  49  69  89 117 157 193 221 269
#
# _framework density 23.016693
#
# number of rings (size 3 to 8) (size 9 to 14) (size 15 to 20)
#    0.000    4.000    0.000    0.750    0.000    3.500 
#    0.000    3.750    0.000   30.000    0.000    0.000 
#    0.000    0.000    0.000    0.000    0.000    0.000 
#
# Total GULP energy -89197.095160 kJ/mol
# GULP energy per Si atom -5574.818447 kJ/mol
# Density = 2.296431 g / cm^3
# Si number density = 23.016693 Si / 1000 Ang^3
#
#
#
# Elastic Constant Matrix: (Units=GPa)
#
#
# Indices 1 2 3 4 5 6 
#
# 1 46.5218 51.9865 38.7033 -14.6487 19.2112 15.3914
# 2 51.9865 104.2886 11.8331 16.0427 30.1184 18.4951
# 3 38.7033 11.8331 67.8753 27.2029 29.0161 -1.5529
# 4 -14.6487 16.0427 27.2029 13.9525 -5.3451 14.2528
# 5 19.2112 30.1184 29.0161 -5.3451 26.8402 3.1889
# 6 15.3914 18.4951 -1.5529 14.2528 3.1889 36.4253
#
#
#
# Elastic Compliance Matrix: (Units=1/GPa)
#
#
# Indices 1 2 3 4 5 6 
#
# 1 0.016072 0.001454 0.010429 -0.018942 -0.028518 0.002824
# 2 0.001454 0.010453 -0.006191 0.011072 -0.002650 -0.010286
# 3 0.010429 -0.006191 0.004872 0.014380 -0.002149 -0.006494
# 4 -0.018942 0.011072 0.014380 0.001876 -0.014458 0.003527
# 5 -0.028518 -0.002650 -0.002149 -0.014458 0.058442 0.013845
# 6 0.002824 -0.010286 -0.006494 0.003527 0.013845 0.028614
#
#
# Mechanical properties :
#
#
# Convention : Reuss Voigt Hill
#
# Bulk Modulus (GPa) = 23.37513 47.08128 35.22820
# Shear Modulus (GPa) = 40.58301 23.18779 31.88540
#
# Velocity S-wave (km/s) = 4.20360 3.17745 3.72602
# Velocity P-wave (km/s) = 5.80845 5.82763 5.81805
#
# Compressibility (1/GPa) = 0.04278051
#
# Stress axis : x y z
#
# Youngs Moduli (GPa) = 62.22184 95.66950 205.24446
#
# Poissons Ratio (x) = -0.13911 -2.14059
# Poissons Ratio (y) = -0.09047 1.27077
# Poissons Ratio (z) = -0.64894 0.59234
#
# Static dielectric constant tensor:
#      x y z
#    x 1.926090 -0.001590 -0.054030 
#    y -0.001590 1.896880 0.011300 
#    z -0.054030 0.011300 1.949410 
# 
# From -- ./inp_files/334859.got.cif
#   From: 2010.05.17/outbox.cif.g08.bks.cpg/sg2_168_cif.got.tgz:334859.got - 2010.06.03 11:33:40.
