data_PCOD9081570
_publ_section_title
;
Structure prediction by ZEFSAII (Michael W. Deem and Ramdas Pophale) SiO2 
 PCOD9081570
Probable space group: P -1
;
_chemical_formula_sum "Si O2"
_cell_formula_units_Z 14
_cell_length_a 16.216622
_cell_length_b 16.020981
_cell_length_c 9.620177
_cell_angle_alpha 88.889889
_cell_angle_beta 77.729823
_cell_angle_gamma 160.596974
_cell_volume 597.013268
_symmetry_space_group_name_H-M "P -1"
_symmetry_group_IT_number 2
_symmetry_cell_setting 'triclinic'
loop_
_space_group_symop_operation_xyz
x,y,z
-x,-y,-z
loop_
_atom_site_type_symbol
_atom_site_label
_atom_site_fract_x
_atom_site_fract_y
_atom_site_fract_z
Si Si1 0.358811 0.974498 0.221998
Si Si2 0.818815 0.205191 0.417045
Si Si3 0.241560 0.334866 0.775253
Si Si4 0.689581 0.874151 0.788441
Si Si5 0.885467 0.692050 0.747914
Si Si6 0.654680 0.757463 0.247218
Si Si7 0.903516 0.452430 0.210632
O O1 0.125647 0.717591 0.443021
O O2 0.241983 0.827102 0.120977
O O3 0.322475 0.038870 0.238118
O O4 0.738434 0.307276 0.122307
O O5 0.908619 0.365386 0.275962
O O6 0.997685 0.290686 0.314744
O O7 0.404379 0.797130 0.581837
O O8 0.543402 0.682109 0.717290
O O9 0.366852 0.360823 0.707532
O O10 0.047441 0.186034 0.715939
O O11 0.945968 0.045903 0.011350
O O12 0.407572 0.588383 0.019664
O O13 0.697636 0.545999 0.682683
O O14 0.193214 0.043670 0.686374
#
# Coordination Sequence:
#
# PCOD9081570 Si02
#       7
#     2   2   2   2   2   2   2
#     4  10  19  34  53  74  99 131 172 197 243 306
#     4   9  21  34  56  72 101 128 173 204 244 288
#     4   9  17  32  51  72 103 135 164 199 239 307
#     4  10  19  32  52  78 101 129 165 203 252 289
#     4  10  20  31  52  79 102 124 164 217 246 281
#     4   9  18  31  50  76 101 131 167 201 248 286
#     4   9  20  34  56  72  94 137 174 196 236 305
#
# _framework density 23.450064000000001
#
# number of rings (size 3 to 8) (size 9 to 14) (size 15 to 20)
#    0.857    1.714    0.000    2.143    2.000    3.429 
#    0.000    1.429    0.000    5.143    0.000    0.000 
#    0.000    0.000    0.000    0.000    0.000    0.000 
#
# Total GULP energy -78243.951386 kJ/mol
# GULP energy per Si atom -5588.853670 kJ/mol
# Density = 2.339669 g / cm^3
# Si number density = 23.450064 Si / 1000 Ang^3
#
#
#
# Elastic Constant Matrix: (Units=GPa)
#
#
# Indices 1 2 3 4 5 6 
#
# 1 189.7768 84.7958 -7.2774 -8.7265 -3.0156 38.1622
# 2 84.7958 187.3337 9.8626 -2.7306 8.2679 36.2542
# 3 -7.2774 9.8626 67.7557 4.6113 6.5058 15.3464
# 4 -8.7265 -2.7306 4.6113 26.9080 11.6689 5.6544
# 5 -3.0156 8.2679 6.5058 11.6689 35.4064 0.4398
# 6 38.1622 36.2542 15.3464 5.6544 0.4398 33.4611
#
#
#
# Elastic Compliance Matrix: (Units=1/GPa)
#
#
# Indices 1 2 3 4 5 6 
#
# 1 0.008398 -0.002030 0.003129 0.004277 -0.000677 -0.009528
# 2 -0.002030 0.007667 0.000228 0.002664 -0.002802 -0.006510
# 3 0.003129 0.000228 0.018081 0.002136 -0.003659 -0.012422
# 4 0.004277 0.002664 0.002136 0.049220 -0.016663 -0.016842
# 5 -0.000677 -0.002802 -0.003659 -0.016663 0.034907 0.007843
# 6 -0.009528 -0.006510 -0.012422 -0.016842 0.007843 0.056245
#
#
# Mechanical properties :
#
#
# Convention : Reuss Voigt Hill
#
# Bulk Modulus (GPa) = 27.17252 68.84756 48.01004
# Shear Modulus (GPa) = 27.15455 42.98746 35.07100
#
# Velocity S-wave (km/s) = 3.40659 4.28617 3.87144
# Velocity P-wave (km/s) = 5.20439 7.34289 6.36411
#
# Compressibility (1/GPa) = 0.03680188
#
# Stress axis : x y z
#
# Youngs Moduli (GPa) = 119.07186 130.42321 55.30593
#
# Poissons Ratio (x) = 0.26477 -0.17308
# Poissons Ratio (y) = 0.24173 -0.01262
# Poissons Ratio (z) = -0.37263 -0.02976
#
# Static dielectric constant tensor:
#      x y z
#    x 1.792480 0.023050 -0.005050 
#    y 0.023050 1.886250 0.017990 
#    z -0.005050 0.017990 1.961510 
# 
# From -- ./inp_files/67287.got.cif
#   From: 2010.05.17/outbox.cif.g08.bks.cpg/sg2_34_cif.got.tgz:67287.got - 2010.06.03 11:33:40.
