data_PCOD9081721
_publ_section_title
;
Structure prediction by ZEFSAII (Michael W. Deem and Ramdas Pophale) SiO2 
 PCOD9081721
Probable space group: P -1
;
_chemical_formula_sum "Si O2"
_cell_formula_units_Z 16
_cell_length_a 9.497967
_cell_length_b 15.447531
_cell_length_c 9.358295
_cell_angle_alpha 62.084213
_cell_angle_beta 119.313596
_cell_angle_gamma 135.821263
_cell_volume 818.725873
_symmetry_space_group_name_H-M "P -1"
_symmetry_group_IT_number 2
_symmetry_cell_setting 'triclinic'
loop_
_space_group_symop_operation_xyz
x,y,z
-x,-y,-z
loop_
_atom_site_type_symbol
_atom_site_label
_atom_site_fract_x
_atom_site_fract_y
_atom_site_fract_z
Si Si1 0.603167 0.473591 0.692676
Si Si2 0.723265 0.077425 0.476832
Si Si3 0.885582 0.523618 0.126252
Si Si4 0.007460 0.373770 0.411654
Si Si5 0.056284 0.913970 0.153916
Si Si6 0.690068 0.314194 0.942688
Si Si7 0.507863 0.965244 0.870129
Si Si8 0.257832 0.383768 0.793168
O O1 0.500000 0.500000 0.500000
O O2 0.847419 0.577733 0.696336
O O3 0.559788 0.340327 0.760009
O O4 0.492875 0.465177 0.789391
O O5 0.868739 0.063126 0.658786
O O6 0.653796 0.036087 0.309629
O O7 0.831381 0.224881 0.425164
O O8 0.500000 0.000000 0.500000
O O9 0.772415 0.568495 0.113833
O O10 0.929246 0.454173 0.315522
O O11 0.107567 0.641969 0.079343
O O12 0.767596 0.417439 0.026133
O O13 0.137856 0.396378 0.598316
O O14 0.859482 0.766151 0.146798
O O15 0.257643 0.946783 0.144864
O O16 0.000000 0.000000 0.000000
O O17 0.567458 0.176514 0.051118
O O18 0.500000 0.000000 0.000000
#
# Coordination Sequence:
#
# PCOD9081721 Si02
#       8
#     2   2   2   2   2   2   2   2
#     4   9  19  34  53  78 112 149 176 221 284 344
#     4   9  19  36  60  85 111 152 195 233 285 342
#     4  10  19  32  54  83 110 138 182 231 278 331
#     4   9  17  34  56  80 112 144 179 230 286 335
#     4  10  21  38  60  82 118 158 186 233 290 343
#     4  10  20  34  55  77 110 146 179 230 291 329
#     4  11  21  37  62  85 110 149 201 242 280 340
#     4  10  19  33  55  84 111 142 189 224 276 343
#
# _framework density 19.542560999999999
#
# number of rings (size 3 to 8) (size 9 to 14) (size 15 to 20)
#    0.000    2.250    1.250    1.875    0.000    0.500 
#    0.000    0.625    2.750    0.000    0.000    0.000 
#    0.000    0.000    0.000    0.000    0.000    0.000 
#
# Total GULP energy -89115.523947 kJ/mol
# GULP energy per Si atom -5569.720247 kJ/mol
# Density = 1.949808 g / cm^3
# Si number density = 19.542561 Si / 1000 Ang^3
#
#
#
# Elastic Constant Matrix: (Units=GPa)
#
#
# Indices 1 2 3 4 5 6 
#
# 1 100.6295 33.5942 29.9066 1.9099 -17.7867 -3.2298
# 2 33.5942 72.5219 34.6694 -9.7775 -9.7025 8.8695
# 3 29.9066 34.6694 125.3856 0.0580 6.4200 -13.0738
# 4 1.9099 -9.7775 0.0580 33.2513 -5.3033 -5.0585
# 5 -17.7867 -9.7025 6.4200 -5.3033 36.6897 -5.8239
# 6 -3.2298 8.8695 -13.0738 -5.0585 -5.8239 20.0178
#
#
#
# Elastic Compliance Matrix: (Units=1/GPa)
#
#
# Indices 1 2 3 4 5 6 
#
# 1 0.013442 -0.005431 -0.001470 -0.000601 0.006081 0.005233
# 2 -0.005431 0.021931 -0.006221 0.005372 0.003062 -0.012408
# 3 -0.001470 -0.006221 0.011105 -0.000938 -0.003064 0.008643
# 4 -0.000601 0.005372 -0.000938 0.034043 0.007433 0.007675
# 5 0.006081 0.003062 -0.003064 0.007433 0.034121 0.009428
# 6 0.005233 -0.012408 0.008643 0.007675 0.009428 0.066625
#
#
# Mechanical properties :
#
#
# Convention : Reuss Voigt Hill
#
# Bulk Modulus (GPa) = 49.42676 54.98636 52.20656
# Shear Modulus (GPa) = 23.33669 31.34952 27.34311
#
# Velocity S-wave (km/s) = 3.45939 4.00955 3.74459
# Velocity P-wave (km/s) = 6.42676 7.04508 6.74301
#
# Compressibility (1/GPa) = 0.02023196
#
# Stress axis : x y z
#
# Youngs Moduli (GPa) = 74.39574 45.59843 90.05122
#
# Poissons Ratio (x) = 0.24766 0.13235
# Poissons Ratio (y) = 0.40407 0.56025
# Poissons Ratio (z) = 0.10934 0.28369
#
# Static dielectric constant tensor:
#      x y z
#    x 1.709720 0.034760 0.017350 
#    y 0.034760 1.670800 -0.009970 
#    z 0.017350 -0.009970 1.846010 
# 
# From -- ./inp_files/206480.got.cif
#   From: 2010.05.17/outbox.cif.g08.bks.cpg/sg2_104_cif.got.tgz:206480.got - 2010.06.03 11:33:40.
