data_PCOD9081622
_publ_section_title
;
Structure prediction by ZEFSAII (Michael W. Deem and Ramdas Pophale) SiO2 
 PCOD9081622
Probable space group: P -1
;
_chemical_formula_sum "Si O2"
_cell_formula_units_Z 16
_cell_length_a 8.577417
_cell_length_b 11.641195
_cell_length_c 10.731654
_cell_angle_alpha 73.812183
_cell_angle_beta 110.315169
_cell_angle_gamma 130.772262
_cell_volume 758.986829
_symmetry_space_group_name_H-M "P -1"
_symmetry_group_IT_number 2
_symmetry_cell_setting 'triclinic'
loop_
_space_group_symop_operation_xyz
x,y,z
-x,-y,-z
loop_
_atom_site_type_symbol
_atom_site_label
_atom_site_fract_x
_atom_site_fract_y
_atom_site_fract_z
Si Si1 0.364005 0.067569 0.237513
Si Si2 0.636116 0.640089 0.090149
Si Si3 0.487693 0.835521 0.028188
Si Si4 0.052524 0.225979 0.657751
Si Si5 0.971299 0.364779 0.107408
Si Si6 0.153934 0.210909 0.128513
Si Si7 0.202792 0.033268 0.724741
Si Si8 0.836933 0.217899 0.368750
O O1 0.391218 0.070861 0.093403
O O2 0.334330 0.196570 0.218821
O O3 0.587025 0.128478 0.340124
O O4 0.160879 0.909059 0.285609
O O5 0.758118 0.641505 0.241929
O O6 0.500000 0.500000 0.000000
O O7 0.500041 0.696409 0.067021
O O8 0.831423 0.772871 0.019535
O O9 0.252889 0.781093 0.964512
O O10 0.572356 0.894701 0.172678
O O11 0.971391 0.278072 0.512894
O O12 0.154702 0.149966 0.648270
O O13 0.148540 0.343044 0.139813
O O14 0.926974 0.347282 0.248240
O O15 0.000000 0.500000 0.000000
O O16 0.946871 0.058207 0.170657
O O17 0.147738 0.910754 0.644048
#
# Coordination Sequence:
#
# PCOD9081622 Si02
#       8
#     2   2   2   2   2   2   2   2
#     4   9  18  32  52  81 110 134 171 218 270 321
#     4  10  19  32  53  77 104 141 183 219 257 309
#     4   9  18  32  52  78 104 132 177 227 263 307
#     4  10  19  33  53  79 112 143 171 215 270 320
#     4  10  20  34  54  76 103 141 185 222 257 308
#     4   9  18  32  53  77 100 133 175 224 267 305
#     4   9  18  32  53  79 106 136 173 219 272 318
#     4  10  20  33  53  79 111 143 173 216 268 321
#
# _framework density 21.080734
#
# number of rings (size 3 to 8) (size 9 to 14) (size 15 to 20)
#    0.000    2.500    0.000    2.250    0.000    8.500 
#    0.000    0.000    0.000   28.500    0.000    0.000 
#    0.000    0.000    0.000    0.000    0.000    0.000 
#
# Total GULP energy -89101.269689 kJ/mol
# GULP energy per Si atom -5568.829356 kJ/mol
# Density = 2.103275 g / cm^3
# Si number density = 21.080734 Si / 1000 Ang^3
#
#
#
# Elastic Constant Matrix: (Units=GPa)
#
#
# Indices 1 2 3 4 5 6 
#
# 1 80.4668 17.1930 24.0515 3.7881 17.7497 1.9971
# 2 17.1930 50.4215 39.1946 -2.3504 4.0377 -10.4459
# 3 24.0515 39.1946 149.8747 15.2425 29.6642 4.4444
# 4 3.7881 -2.3504 15.2425 29.0246 1.3964 -0.7582
# 5 17.7497 4.0377 29.6642 1.3964 21.4010 -0.4510
# 6 1.9971 -10.4459 4.4444 -0.7582 -0.4510 19.0387
#
#
#
# Elastic Compliance Matrix: (Units=1/GPa)
#
#
# Indices 1 2 3 4 5 6 
#
# 1 0.017819 -0.009834 0.004106 -0.004619 -0.018500 -0.008846
# 2 -0.009834 0.039213 -0.014886 0.011963 0.021180 0.026999
# 3 0.004106 -0.014886 0.015551 -0.009201 -0.021829 -0.013112
# 4 -0.004619 0.011963 -0.009201 0.040574 0.011914 0.011094
# 5 -0.018500 0.021180 -0.021829 0.011914 0.088002 0.021216
# 6 -0.008846 0.026999 -0.013112 0.011094 0.021216 0.072271
#
#
# Mechanical properties :
#
#
# Convention : Reuss Voigt Hill
#
# Bulk Modulus (GPa) = 31.89320 49.07122 40.48221
# Shear Modulus (GPa) = 15.37944 27.24779 21.31362
#
# Velocity S-wave (km/s) = 2.70395 3.59910 3.18315
# Velocity P-wave (km/s) = 4.99103 6.37178 5.72320
#
# Compressibility (1/GPa) = 0.03135465
#
# Stress axis : x y z
#
# Youngs Moduli (GPa) = 56.11901 25.50205 64.30348
#
# Poissons Ratio (x) = 0.25079 -0.26403
# Poissons Ratio (y) = 0.55189 0.95722
# Poissons Ratio (z) = -0.23042 0.37962
#
# Static dielectric constant tensor:
#      x y z
#    x 1.795610 0.002800 0.003600 
#    y 0.002800 1.861780 -0.011370 
#    z 0.003600 -0.011370 1.759950 
# 
# From -- ./inp_files/204238.got.cif
#   From: 2010.05.17/outbox.cif.g08.bks.cpg/sg2_103_cif.got.tgz:204238.got - 2010.06.03 11:33:40.
