data_PCOD9081239
_publ_section_title
;
Structure prediction by ZEFSAII (Michael W. Deem and Ramdas Pophale) SiO2 
 PCOD9081239
Probable space group: P -1
;
_chemical_formula_sum "Si O2"
_cell_formula_units_Z 16
_cell_length_a 18.948910
_cell_length_b 12.300150
_cell_length_c 25.422302
_cell_angle_alpha 25.541010
_cell_angle_beta 163.516782
_cell_angle_gamma 148.780071
_cell_volume 722.433356
_symmetry_space_group_name_H-M "P -1"
_symmetry_group_IT_number 2
_symmetry_cell_setting 'triclinic'
loop_
_space_group_symop_operation_xyz
x,y,z
-x,-y,-z
loop_
_atom_site_type_symbol
_atom_site_label
_atom_site_fract_x
_atom_site_fract_y
_atom_site_fract_z
Si Si1 0.821602 0.225371 0.797351
Si Si2 0.455278 0.702987 0.602104
Si Si3 0.762401 0.860061 0.588911
Si Si4 0.019392 0.839287 0.299757
Si Si5 0.846289 0.307643 0.901964
Si Si6 0.768949 0.277863 0.066920
Si Si7 0.337238 0.364458 0.567457
Si Si8 0.490964 0.079497 0.047746
O O1 0.530607 0.161944 0.615511
O O2 0.872255 0.268441 0.875675
O O3 0.858159 0.470569 0.680205
O O4 0.000000 0.000000 0.000000
O O5 0.200920 0.659433 0.471754
O O6 0.426890 0.571764 0.582821
O O7 0.500000 0.000000 0.500000
O O8 0.679646 0.553435 0.859384
O O9 0.876462 0.597555 0.812216
O O10 0.941207 0.833772 0.677154
O O11 0.826036 0.095112 0.566738
O O12 0.988733 0.094513 0.131514
O O13 0.739503 0.789688 0.139618
O O14 0.557742 0.282639 0.720455
O O15 0.641875 0.255450 0.042197
O O16 0.645539 0.097708 0.014090
O O17 0.321517 0.110534 0.701013
#
# Coordination Sequence:
#
# PCOD9081239 Si02
#       8
#     2   2   2   2   2   2   2   2
#     4  11  22  35  53  79 110 137 169 222 280 322
#     4  11  19  28  48  83 116 135 165 220 276 307
#     4  10  19  33  53  77 103 140 182 214 258 316
#     4  10  19  31  52  80 111 137 172 223 263 309
#     4  10  19  34  53  75 107 143 176 211 263 324
#     4   9  18  32  52  75 106 143 180 218 254 315
#     4   9  18  33  53  73 101 143 180 211 253 322
#     4   8  17  34  52  74 103 144 185 214 257 306
#
# _framework density 22.147372000000001
#
# number of rings (size 3 to 8) (size 9 to 14) (size 15 to 20)
#    0.000    2.250    0.000    5.625    0.000    2.500 
#    0.000    0.000    0.000    7.500    0.000    0.000 
#    0.000    1.000    0.000    0.000    0.000    0.000 
#
# Total GULP energy -89205.791449 kJ/mol
# GULP energy per Si atom -5575.361966 kJ/mol
# Density = 2.209696 g / cm^3
# Si number density = 22.147372 Si / 1000 Ang^3
#
#
#
# Elastic Constant Matrix: (Units=GPa)
#
#
# Indices 1 2 3 4 5 6 
#
# 1 154.8148 26.0998 57.5902 4.4180 12.4753 -5.6195
# 2 26.0998 33.1120 22.2603 7.3245 -1.1518 -3.5307
# 3 57.5902 22.2603 112.3986 7.2522 26.0934 2.5577
# 4 4.4180 7.3245 7.2522 16.9098 4.6835 5.8665
# 5 12.4753 -1.1518 26.0934 4.6835 37.3922 -1.2928
# 6 -5.6195 -3.5307 2.5577 5.8665 -1.2928 26.8262
#
#
#
# Elastic Compliance Matrix: (Units=1/GPa)
#
#
# Indices 1 2 3 4 5 6 
#
# 1 0.008575 -0.004555 -0.003422 0.000945 -0.000687 0.001283
# 2 -0.004555 0.046006 -0.008372 -0.022412 0.011979 0.011378
# 3 -0.003422 -0.008372 0.014494 0.002443 -0.009682 -0.004202
# 4 0.000945 -0.022412 0.002443 0.078428 -0.013253 -0.020775
# 5 -0.000687 0.011979 -0.009682 -0.013253 0.036000 0.006989
# 6 0.001283 0.011378 -0.004202 -0.020775 0.006989 0.044324
#
#
# Mechanical properties :
#
#
# Convention : Reuss Voigt Hill
#
# Bulk Modulus (GPa) = 27.48894 56.91401 42.20148
# Shear Modulus (GPa) = 18.33851 29.18397 23.76124
#
# Velocity S-wave (km/s) = 2.88066 3.63398 3.27902
# Velocity P-wave (km/s) = 4.84799 6.58493 5.78206
#
# Compressibility (1/GPa) = 0.03637826
#
# Stress axis : x y z
#
# Youngs Moduli (GPa) = 116.61436 21.73624 68.99417
#
# Poissons Ratio (x) = 0.09900 0.23613
# Poissons Ratio (y) = 0.53113 0.57759
# Poissons Ratio (z) = 0.39910 0.18197
#
# Static dielectric constant tensor:
#      x y z
#    x 1.860740 0.068560 0.007430 
#    y 0.068560 1.853610 0.019320 
#    z 0.007430 0.019320 1.861310 
# 
# From -- ./inp_files/277694.got.cif
#   From: 2010.05.17/outbox.cif.g08.bks.cpg/sg2_139_cif.got.tgz:277694.got - 2010.06.03 11:33:40.
