data_PCOD9081918
_publ_section_title
;
Structure prediction by ZEFSAII (Michael W. Deem and Ramdas Pophale) SiO2 
 PCOD9081918
Probable space group: P -1
;
_chemical_formula_sum "Si O2"
_cell_formula_units_Z 16
_cell_length_a 8.327824
_cell_length_b 7.690983
_cell_length_c 14.948127
_cell_angle_alpha 90.593138
_cell_angle_beta 63.338200
_cell_angle_gamma 120.026091
_cell_volume 711.839500
_symmetry_space_group_name_H-M "P -1"
_symmetry_group_IT_number 2
_symmetry_cell_setting 'triclinic'
loop_
_space_group_symop_operation_xyz
x,y,z
-x,-y,-z
loop_
_atom_site_type_symbol
_atom_site_label
_atom_site_fract_x
_atom_site_fract_y
_atom_site_fract_z
Si Si1 0.871310 0.947091 0.623752
Si Si2 0.286792 0.240451 0.801722
Si Si3 0.600968 0.139025 0.663616
Si Si4 0.881587 0.058213 0.802796
Si Si5 0.102016 0.540461 0.269435
Si Si6 0.651768 0.305647 0.461265
Si Si7 0.577231 0.572293 0.880858
Si Si8 0.402581 0.415693 0.403802
O O1 0.996687 0.044433 0.683607
O O2 0.735132 0.699759 0.649813
O O3 0.691391 0.000923 0.665471
O O4 0.000000 0.000000 0.500000
O O5 0.389619 0.102242 0.765282
O O6 0.386783 0.402275 0.860244
O O7 0.382346 0.384774 0.688982
O O8 0.031031 0.104621 0.851497
O O9 0.786621 0.360765 0.661667
O O10 0.587790 0.149083 0.559464
O O11 0.667655 0.820628 0.854981
O O12 0.867353 0.258526 0.790316
O O13 0.224746 0.453724 0.187674
O O14 0.854137 0.360528 0.351281
O O15 0.465185 0.280450 0.444536
O O16 0.717090 0.516999 0.500366
O O17 0.500000 0.500000 0.000000
#
# Coordination Sequence:
#
# PCOD9081918 Si02
#       8
#     2   2   2   2   2   2   2   2
#     4  11  23  34  54  93 125 174 221 239 301 381
#     4  10  21  44  63  89 129 161 205 265 317 379
#     4   9  21  33  56  86 130 173 200 253 306 360
#     4  11  23  43  68  92 129 169 206 260 322 377
#     4  10  21  40  62  93 128 167 210 258 315 375
#     4  10  19  32  57  87 128 172 205 248 306 361
#     4  11  26  46  70  95 119 160 217 273 329 377
#     4  10  19  34  57  87 131 166 202 256 298 367
#
# _framework density 22.476977000000002
#
# number of rings (size 3 to 8) (size 9 to 14) (size 15 to 20)
#    0.000    1.750    2.500    1.875    5.250    2.500 
#    0.000    0.625    0.000    0.000    0.000    0.000 
#    0.000    0.000    0.000    0.000    0.000    0.000 
#
# Total GULP energy -89214.090868 kJ/mol
# GULP energy per Si atom -5575.880679 kJ/mol
# Density = 2.242582 g / cm^3
# Si number density = 22.476977 Si / 1000 Ang^3
#
#
#
# Elastic Constant Matrix: (Units=GPa)
#
#
# Indices 1 2 3 4 5 6 
#
# 1 90.2208 32.6567 27.9866 12.5836 11.9453 -1.7725
# 2 32.6567 91.7226 23.5384 7.6089 9.8707 -5.6085
# 3 27.9866 23.5384 94.9046 6.3059 14.4597 -1.3491
# 4 12.5836 7.6089 6.3059 22.5183 0.2575 9.3556
# 5 11.9453 9.8707 14.4597 0.2575 19.9011 2.9930
# 6 -1.7725 -5.6085 -1.3491 9.3556 2.9930 32.8904
#
#
#
# Elastic Compliance Matrix: (Units=1/GPa)
#
#
# Indices 1 2 3 4 5 6 
#
# 1 0.014867 -0.003277 -0.002081 -0.007762 -0.006125 0.002922
# 2 -0.003277 0.013398 -0.001436 -0.003689 -0.004109 0.003473
# 3 -0.002081 -0.001436 0.012851 -0.002519 -0.007581 0.001577
# 4 -0.007762 -0.003689 -0.002519 0.058345 0.010375 -0.018691
# 5 -0.006125 -0.004109 -0.007581 0.010375 0.062843 -0.010012
# 6 0.002922 0.003473 0.001577 -0.018691 -0.010012 0.037446
#
#
# Mechanical properties :
#
#
# Convention : Reuss Voigt Hill
#
# Bulk Modulus (GPa) = 36.32616 49.46793 42.89705
# Shear Modulus (GPa) = 22.47044 27.90637 25.18840
#
# Velocity S-wave (km/s) = 3.16525 3.52739 3.35121
# Velocity P-wave (km/s) = 5.43645 6.21659 5.83956
#
# Compressibility (1/GPa) = 0.02752837
#
# Stress axis : x y z
#
# Youngs Moduli (GPa) = 67.26487 74.63529 77.81208
#
# Poissons Ratio (x) = 0.24461 0.16190
# Poissons Ratio (y) = 0.22046 0.11174
# Poissons Ratio (z) = 0.13996 0.10718
#
# Static dielectric constant tensor:
#      x y z
#    x 1.917830 0.018990 -0.043610 
#    y 0.018990 1.949160 -0.082320 
#    z -0.043610 -0.082320 1.929850 
# 
# From -- ./inp_files/491018.got.cif
#   From: 2010.05.17/outbox.cif.g08.bks.cpg/sg2_246_cif.got.tgz:491018.got - 2010.06.03 11:33:40.
