data_PCOD9081668
_publ_section_title
;
Structure prediction by ZEFSAII (Michael W. Deem and Ramdas Pophale) SiO2 
 PCOD9081668
Probable space group: P -1
;
_chemical_formula_sum "Si O2"
_cell_formula_units_Z 16
_cell_length_a 11.034118
_cell_length_b 14.050937
_cell_length_c 19.817127
_cell_angle_alpha 151.176320
_cell_angle_beta 150.247984
_cell_angle_gamma 37.744800
_cell_volume 729.226694
_symmetry_space_group_name_H-M "P -1"
_symmetry_group_IT_number 2
_symmetry_cell_setting 'triclinic'
loop_
_space_group_symop_operation_xyz
x,y,z
-x,-y,-z
loop_
_atom_site_type_symbol
_atom_site_label
_atom_site_fract_x
_atom_site_fract_y
_atom_site_fract_z
Si Si1 0.541438 0.596701 0.454013
Si Si2 0.858638 0.823843 0.242119
Si Si3 0.163886 0.885129 0.103488
Si Si4 0.687602 0.984267 0.398816
Si Si5 0.578350 0.846018 0.999176
Si Si6 0.906818 0.623076 0.921103
Si Si7 0.722816 0.497900 0.341816
Si Si8 0.940488 0.325045 0.216343
O O1 0.421274 0.804050 0.555274
O O2 0.352877 0.435502 0.271114
O O3 0.566467 0.634800 0.407526
O O4 0.814194 0.562502 0.595328
O O5 0.080999 0.949610 0.408210
O O6 0.930132 0.588003 0.121172
O O7 0.796660 0.848451 0.306038
O O8 0.628192 0.907272 0.136815
O O9 0.452601 0.902287 0.267037
O O10 0.144951 0.749094 0.942898
O O11 0.030663 0.111235 0.164950
O O12 0.032474 0.775378 0.030519
O O13 0.830681 0.723749 0.018122
O O14 0.366509 0.708619 0.811354
O O15 0.500000 0.000000 0.000000
O O16 0.740119 0.475309 0.254849
O O17 0.000000 0.500000 0.500000
#
# Coordination Sequence:
#
# PCOD9081668 Si02
#       8
#     2   2   2   2   2   2   2   2
#     4   8  17  32  52  77 109 148 185 224 273 328
#     4  10  21  40  60  78 109 150 187 226 274 328
#     4  10  19  32  53  83 113 143 186 229 273 326
#     4   9  19  37  58  77 106 150 188 223 271 330
#     4  11  22  37  59  85 112 144 184 228 277 330
#     4  10  21  36  55  82 113 143 182 228 273 329
#     4   9  17  33  53  78 110 142 178 223 275 322
#     4   9  17  31  53  80 114 150 180 225 279 325
#
# _framework density 21.941050000000001
#
# number of rings (size 3 to 8) (size 9 to 14) (size 15 to 20)
#    0.000    2.500    0.000    1.875    0.000    3.000 
#    0.000   11.875    0.000    0.000    0.000    0.000 
#    0.000    0.000    0.000    0.000    0.000    0.000 
#
# Total GULP energy -89073.238868 kJ/mol
# GULP energy per Si atom -5567.077429 kJ/mol
# Density = 2.189111 g / cm^3
# Si number density = 21.941050 Si / 1000 Ang^3
#
#
#
# Elastic Constant Matrix: (Units=GPa)
#
#
# Indices 1 2 3 4 5 6 
#
# 1 66.7283 6.1005 31.5695 5.6785 23.9934 -7.1506
# 2 6.1005 32.4881 11.5800 -2.7071 3.0076 -0.4985
# 3 31.5695 11.5800 105.3091 -6.7974 32.6797 18.5700
# 4 5.6785 -2.7071 -6.7974 6.6985 -8.3344 -5.0012
# 5 23.9934 3.0076 32.6797 -8.3344 47.5690 9.0798
# 6 -7.1506 -0.4985 18.5700 -5.0012 9.0798 26.4381
#
#
#
# Elastic Compliance Matrix: (Units=1/GPa)
#
#
# Indices 1 2 3 4 5 6 
#
# 1 0.034962 -0.006385 -0.008194 -0.062631 -0.024821 0.011768
# 2 -0.006385 0.034820 -0.003053 0.028474 0.007354 0.003935
# 3 -0.008194 -0.003053 0.015587 0.010649 -0.002544 -0.010334
# 4 -0.062631 0.028474 0.010649 0.330806 0.078172 0.011848
# 5 -0.024821 0.007354 -0.002544 0.078172 0.049882 -0.007131
# 6 0.011768 0.003935 -0.010334 0.011848 -0.007131 0.053030
#
#
# Mechanical properties :
#
#
# Convention : Reuss Voigt Hill
#
# Bulk Modulus (GPa) = 19.95782 33.66951 26.81366
# Shear Modulus (GPa) = 8.75576 26.49281 17.62429
#
# Velocity S-wave (km/s) = 1.99981 3.47861 2.83725
# Velocity P-wave (km/s) = 3.80108 5.61365 4.79381
#
# Compressibility (1/GPa) = 0.05010568
#
# Stress axis : x y z
#
# Youngs Moduli (GPa) = 28.60215 28.71933 64.15589
#
# Poissons Ratio (x) = 0.18337 0.52570
# Poissons Ratio (y) = 0.18262 0.19586
# Poissons Ratio (z) = 0.23437 0.08768
#
# Static dielectric constant tensor:
#      x y z
#    x 2.246680 0.108050 -0.047300 
#    y 0.108050 1.903200 -0.030010 
#    z -0.047300 -0.030010 1.842900 
# 
# From -- ./inp_files/595557.got.cif
#   From: 2010.05.17/outbox.cif.g08.bks.cpg/sg2_298_cif.got.tgz:595557.got - 2010.06.03 11:33:40.
