data_PCOD9081984
_publ_section_title
;
Structure prediction by ZEFSAII (Michael W. Deem and Ramdas Pophale) SiO2 
 PCOD9081984
Probable space group: P -1
;
_chemical_formula_sum "Si O2"
_cell_formula_units_Z 16
_cell_length_a 8.958134
_cell_length_b 13.469703
_cell_length_c 12.662432
_cell_angle_alpha 66.404519
_cell_angle_beta 33.987434
_cell_angle_gamma 52.403455
_cell_volume 657.220725
_symmetry_space_group_name_H-M "P -1"
_symmetry_group_IT_number 2
_symmetry_cell_setting 'triclinic'
loop_
_space_group_symop_operation_xyz
x,y,z
-x,-y,-z
loop_
_atom_site_type_symbol
_atom_site_label
_atom_site_fract_x
_atom_site_fract_y
_atom_site_fract_z
Si Si1 0.169307 0.274741 0.679869
Si Si2 0.137286 0.687045 0.575496
Si Si3 0.272665 0.791916 0.125127
Si Si4 0.628048 0.712239 0.732958
Si Si5 0.147381 0.677756 0.937766
Si Si6 0.149729 0.455254 0.762331
Si Si7 0.687775 0.068433 0.338165
Si Si8 0.723403 0.846937 0.925720
O O1 0.103175 0.413532 0.689466
O O2 0.532706 0.176592 0.475374
O O3 0.951781 0.264780 0.723398
O O4 0.061026 0.245248 0.867482
O O5 0.148573 0.583088 0.695609
O O6 0.490679 0.652841 0.369971
O O7 0.980295 0.677020 0.564870
O O8 0.899174 0.817888 0.721478
O O9 0.498250 0.722026 0.922519
O O10 0.505315 0.785620 0.080980
O O11 0.044244 0.946958 0.176603
O O12 0.424697 0.852045 0.737478
O O13 0.507425 0.636416 0.767198
O O14 0.098013 0.558504 0.016239
O O15 0.981104 0.774776 0.897702
O O16 0.500000 0.000000 0.500000
O O17 0.500000 0.000000 0.000000
#
# Coordination Sequence:
#
# PCOD9081984 Si02
#       8
#     2   2   2   2   2   2   2   2
#     4   8  19  37  57  81 114 157 197 238 288 346
#     4  10  23  41  64  85 118 158 200 245 299 352
#     4   9  19  36  55  87 119 157 195 239 294 353
#     4  10  20  37  58  90 114 153 203 242 298 348
#     4   9  21  38  61  85 122 154 195 244 298 348
#     4   9  21  43  63  81 121 157 201 246 294 347
#     4  10  19  32  59  83 121 158 193 238 290 355
#     4  11  23  36  60  93 122 153 194 247 299 355
#
# _framework density 24.344942
#
# number of rings (size 3 to 8) (size 9 to 14) (size 15 to 20)
#    0.750    1.750    0.000    1.125    3.500    8.000 
#    0.000    1.875    0.000    0.000    0.000    0.000 
#    0.000    0.000    0.000    0.000    0.000    0.000 
#
# Total GULP energy -89128.406154 kJ/mol
# GULP energy per Si atom -5570.525385 kJ/mol
# Density = 2.428953 g / cm^3
# Si number density = 24.344942 Si / 1000 Ang^3
#
#
#
# Elastic Constant Matrix: (Units=GPa)
#
#
# Indices 1 2 3 4 5 6 
#
# 1 123.2011 10.2227 37.8244 -9.5987 -33.6410 -0.4670
# 2 10.2227 39.3386 8.1647 -4.8370 6.9376 12.2812
# 3 37.8244 8.1647 45.5303 -3.8480 -22.0718 8.4791
# 4 -9.5987 -4.8370 -3.8480 31.5610 3.5336 2.3558
# 5 -33.6410 6.9376 -22.0718 3.5336 45.9851 -1.8577
# 6 -0.4670 12.2812 8.4791 2.3558 -1.8577 30.6495
#
#
#
# Elastic Compliance Matrix: (Units=1/GPa)
#
#
# Indices 1 2 3 4 5 6 
#
# 1 0.012527 -0.003979 -0.007270 0.001299 0.006340 0.004081
# 2 -0.003979 0.034645 -0.005635 0.005748 -0.011831 -0.013543
# 3 -0.007270 -0.005635 0.036591 0.000498 0.012764 -0.007240
# 4 0.001299 0.005748 0.000498 0.033684 -0.002474 -0.005160
# 5 0.006340 -0.011831 0.012764 -0.002474 0.034631 0.003595
# 6 0.004081 -0.013543 -0.007240 -0.005160 0.003595 0.040733
#
#
# Mechanical properties :
#
#
# Convention : Reuss Voigt Hill
#
# Bulk Modulus (GPa) = 20.00138 35.61040 27.80589
# Shear Modulus (GPa) = 20.55555 31.76300 26.15928
#
# Velocity S-wave (km/s) = 2.90892 3.61599 3.28155
# Velocity P-wave (km/s) = 4.41770 5.66507 5.07982
#
# Compressibility (1/GPa) = 0.04999655
#
# Stress axis : x y z
#
# Youngs Moduli (GPa) = 79.82899 28.86428 27.32876
#
# Poissons Ratio (x) = 0.11484 0.19868
# Poissons Ratio (y) = 0.31762 0.15399
# Poissons Ratio (z) = 0.58035 0.16264
#
# Static dielectric constant tensor:
#      x y z
#    x 1.995930 0.047360 -0.053030 
#    y 0.047360 1.979710 -0.013440 
#    z -0.053030 -0.013440 1.969220 
# 
# From -- ./inp_files/502909.got.cif
#   From: 2010.05.17/outbox.cif.g08.bks.cpg/sg2_252_cif.got.tgz:502909.got - 2010.06.03 11:33:40.
