data_PCOD9081548
_publ_section_title
;
Structure prediction by ZEFSAII (Michael W. Deem and Ramdas Pophale) SiO2 
 PCOD9081548
Probable space group: P -1
;
_chemical_formula_sum "Si O2"
_cell_formula_units_Z 16
_cell_length_a 11.775385
_cell_length_b 17.295879
_cell_length_c 9.993452
_cell_angle_alpha 34.122361
_cell_angle_beta 57.196089
_cell_angle_gamma 37.248008
_cell_volume 648.569556
_symmetry_space_group_name_H-M "P -1"
_symmetry_group_IT_number 2
_symmetry_cell_setting 'triclinic'
loop_
_space_group_symop_operation_xyz
x,y,z
-x,-y,-z
loop_
_atom_site_type_symbol
_atom_site_label
_atom_site_fract_x
_atom_site_fract_y
_atom_site_fract_z
Si Si1 0.518051 0.925628 0.908550
Si Si2 0.207544 0.855123 0.880783
Si Si3 0.631172 0.513985 0.018126
Si Si4 0.771454 0.681317 0.837195
Si Si5 0.116748 0.407781 0.696370
Si Si6 0.992623 0.825679 0.876957
Si Si7 0.850394 0.844973 0.340555
Si Si8 0.362031 0.853325 0.517848
O O1 0.640148 0.776240 0.917867
O O2 0.537183 0.074262 0.661393
O O3 0.291266 0.052519 0.846887
O O4 0.644319 0.781489 0.163287
O O5 0.438342 0.629811 0.069244
O O6 0.131896 0.013842 0.817041
O O7 0.224540 0.939962 0.614776
O O8 0.072235 0.827926 0.962199
O O9 0.709672 0.598083 0.907483
O O10 0.827131 0.279693 0.192779
O O11 0.535832 0.616574 0.784496
O O12 0.742791 0.837605 0.539075
O O13 0.000000 0.500000 0.000000
O O14 0.047165 0.307045 0.930455
O O15 0.039592 0.603943 0.538047
O O16 0.000000 0.500000 0.500000
O O17 0.781801 0.051236 0.652427
#
# Coordination Sequence:
#
# PCOD9081548 Si02
#       8
#     2   2   2   2   2   2   2   2
#     4  11  18  35  59  85 115 144 184 234 285 337
#     4  10  21  32  54  89 120 143 177 219 290 361
#     4  10  19  32  51  84 123 146 177 211 284 354
#     4  12  17  30  56  92 118 147 175 226 285 349
#     4  11  26  41  59  79 104 153 209 240 273 318
#     4  11  20  37  54  79 118 155 182 228 277 331
#     4  12  20  37  58  84 117 142 185 238 285 339
#     4   9  18  30  51  83 119 148 180 208 276 351
#
# _framework density 24.669675999999999
#
# number of rings (size 3 to 8) (size 9 to 14) (size 15 to 20)
#    0.750    0.500    6.250    1.875    0.000    0.500 
#    0.000    0.625    0.000    0.750    0.000    0.000 
#    0.000    0.000    0.000    0.000    0.000    0.000 
#
# Total GULP energy -89290.933375 kJ/mol
# GULP energy per Si atom -5580.683336 kJ/mol
# Density = 2.461353 g / cm^3
# Si number density = 24.669676 Si / 1000 Ang^3
#
#
#
# Elastic Constant Matrix: (Units=GPa)
#
#
# Indices 1 2 3 4 5 6 
#
# 1 147.0211 32.3142 48.1060 -32.8474 1.8406 4.2702
# 2 32.3142 60.1566 27.8919 -17.6880 -9.4998 8.1293
# 3 48.1060 27.8919 81.3639 -9.4683 15.0663 3.5334
# 4 -32.8474 -17.6880 -9.4683 31.9869 7.4607 -4.1218
# 5 1.8406 -9.4998 15.0663 7.4607 45.0966 -13.0733
# 6 4.2702 8.1293 3.5334 -4.1218 -13.0733 31.7120
#
#
#
# Elastic Compliance Matrix: (Units=1/GPa)
#
#
# Indices 1 2 3 4 5 6 
#
# 1 0.010615 -0.000883 -0.004854 0.009116 -0.000402 0.000357
# 2 -0.000883 0.024464 -0.007865 0.008700 0.005879 -0.001722
# 3 -0.004854 -0.007865 0.019340 -0.002040 -0.008530 -0.003267
# 4 0.009116 0.008700 -0.002040 0.046146 -0.005326 0.000572
# 5 -0.000402 0.005879 -0.008530 -0.005326 0.030453 0.011360
# 6 0.000357 -0.001722 -0.003267 0.000572 0.011360 0.037049
#
#
# Mechanical properties :
#
#
# Convention : Reuss Voigt Hill
#
# Bulk Modulus (GPa) = 36.74517 56.12954 46.43736
# Shear Modulus (GPa) = 24.46859 33.77439 29.12149
#
# Velocity S-wave (km/s) = 3.15278 3.70410 3.43951
# Velocity P-wave (km/s) = 5.30854 6.41059 5.88542
#
# Compressibility (1/GPa) = 0.02721446
#
# Stress axis : x y z
#
# Youngs Moduli (GPa) = 94.20379 40.87713 51.70541
#
# Poissons Ratio (x) = 0.03611 0.25096
# Poissons Ratio (y) = 0.08321 0.40669
# Poissons Ratio (z) = 0.45723 0.32152
#
# Static dielectric constant tensor:
#      x y z
#    x 2.014290 -0.003110 -0.005050 
#    y -0.003110 2.014020 0.022780 
#    z -0.005050 0.022780 1.978480 
# 
# From -- ./inp_files/435471.got.cif
#   From: 2010.05.17/outbox.cif.g08.bks.cpg/sg2_218_cif.got.tgz:435471.got - 2010.06.03 11:33:40.
