data_PCOD9081005
_publ_section_title
;
Structure prediction by ZEFSAII (Michael W. Deem and Ramdas Pophale) SiO2 
 PCOD9081005
Probable space group: P -1
;
_chemical_formula_sum "Si O2"
_cell_formula_units_Z 16
_cell_length_a 12.227435
_cell_length_b 12.080539
_cell_length_c 16.282056
_cell_angle_alpha 121.774691
_cell_angle_beta 26.781022
_cell_angle_gamma 133.566282
_cell_volume 755.690839
_symmetry_space_group_name_H-M "P -1"
_symmetry_group_IT_number 2
_symmetry_cell_setting 'triclinic'
loop_
_space_group_symop_operation_xyz
x,y,z
-x,-y,-z
loop_
_atom_site_type_symbol
_atom_site_label
_atom_site_fract_x
_atom_site_fract_y
_atom_site_fract_z
Si Si1 0.578326 0.661729 0.971357
Si Si2 0.969960 0.574127 0.286018
Si Si3 0.818237 0.723094 0.152327
Si Si4 0.374637 0.774443 0.533797
Si Si5 0.980524 0.137218 0.103180
Si Si6 0.178444 0.662242 0.995039
Si Si7 0.705371 0.651163 0.621033
Si Si8 0.993522 0.340866 0.431746
O O1 0.794349 0.790157 0.943195
O O2 0.727493 0.657926 0.786638
O O3 0.500000 0.500000 0.000000
O O4 0.289956 0.655069 0.144393
O O5 0.038003 0.610073 0.158901
O O6 0.789979 0.390456 0.366893
O O7 0.798980 0.647044 0.463873
O O8 0.694784 0.819900 0.311331
O O9 0.536176 0.537851 0.271679
O O10 0.085140 0.761770 0.047306
O O11 0.913781 0.750687 0.004144
O O12 0.314435 0.886050 0.670677
O O13 0.223004 0.743035 0.533301
O O14 0.000000 0.000000 0.000000
O O15 0.521978 0.726682 0.786660
O O16 0.000000 0.500000 0.000000
O O17 0.000329 0.715151 0.502556
O O18 0.000000 0.500000 0.500000
#
# Coordination Sequence:
#
# PCOD9081005 Si02
#       8
#     2   2   2   2   2   2   2   2
#     4  11  19  32  58  83 115 141 182 235 279 335
#     4  11  19  31  53  86 111 142 185 228 280 327
#     4  10  21  35  54  73 115 154 184 221 280 334
#     4  10  21  31  56  84 111 148 185 227 285 337
#     4  11  24  39  56  83 116 150 187 233 284 333
#     4  10  21  32  48  78 120 153 180 223 277 340
#     4  10  19  30  51  85 116 144 180 231 282 330
#     4  11  16  27  48  81 117 138 172 229 282 317
#
# _framework density 21.172678999999999
#
# number of rings (size 3 to 8) (size 9 to 14) (size 15 to 20)
#    0.000    1.500    6.250    2.250    1.750    6.000 
#    0.000    0.000    0.000    0.750    0.000    1.750 
#    0.000    0.000    0.000    0.000    0.000    0.000 
#
# Total GULP energy -89114.727963 kJ/mol
# GULP energy per Si atom -5569.670498 kJ/mol
# Density = 2.112449 g / cm^3
# Si number density = 21.172679 Si / 1000 Ang^3
#
#
#
# Elastic Constant Matrix: (Units=GPa)
#
#
# Indices 1 2 3 4 5 6 
#
# 1 103.1557 5.6621 57.6851 14.9879 12.2956 -2.2785
# 2 5.6621 39.1729 28.4063 23.3003 4.4353 9.3739
# 3 57.6851 28.4063 144.4932 41.7828 17.4833 -0.9973
# 4 14.9879 23.3003 41.7828 30.0021 -0.3434 4.6520
# 5 12.2956 4.4353 17.4833 -0.3434 40.5858 13.3821
# 6 -2.2785 9.3739 -0.9973 4.6520 13.3821 12.7720
#
#
#
# Elastic Compliance Matrix: (Units=1/GPa)
#
#
# Indices 1 2 3 4 5 6 
#
# 1 0.013036 0.002131 -0.003838 -0.003965 -0.004875 0.007013
# 2 0.002131 0.055364 -0.001935 -0.036421 0.004244 -0.031585
# 3 -0.003838 -0.001935 0.019457 -0.028686 -0.017476 0.031014
# 4 -0.003965 -0.036421 -0.028686 0.112645 0.036940 -0.055950
# 5 -0.004875 0.004244 -0.017476 0.036940 0.060644 -0.082344
# 6 0.007013 -0.031585 0.031014 -0.055950 -0.082344 0.211807
#
#
# Mechanical properties :
#
#
# Convention : Reuss Voigt Hill
#
# Bulk Modulus (GPa) = 12.41104 52.25873 32.33489
# Shear Modulus (GPa) = 9.86009 29.67655 19.76832
#
# Velocity S-wave (km/s) = 2.16035 3.74791 3.05892
# Velocity P-wave (km/s) = 3.47812 6.59279 5.27078
#
# Compressibility (1/GPa) = 0.08057339
#
# Stress axis : x y z
#
# Youngs Moduli (GPa) = 76.71344 18.06226 51.39499
#
# Poissons Ratio (x) = -0.03850 0.19727
# Poissons Ratio (y) = -0.16350 0.09943
# Poissons Ratio (z) = 0.29445 0.03494
#
# Static dielectric constant tensor:
#      x y z
#    x 1.806060 -0.004800 -0.037050 
#    y -0.004800 1.861620 0.022800 
#    z -0.037050 0.022800 1.825010 
# 
# From -- ./inp_files/455904.got.cif
#   From: 2010.05.17/outbox.cif.g08.bks.cpg/sg2_228_cif.got.tgz:455904.got - 2010.06.03 11:33:40.
