data_PCOD9081286
_publ_section_title
;
Structure prediction by ZEFSAII (Michael W. Deem and Ramdas Pophale) SiO2 
 PCOD9081286
Probable space group: P -1
;
_chemical_formula_sum "Si O2"
_cell_formula_units_Z 16
_cell_length_a 9.239362
_cell_length_b 13.040756
_cell_length_c 10.031770
_cell_angle_alpha 45.763932
_cell_angle_beta 101.525054
_cell_angle_gamma 71.597181
_cell_volume 646.117745
_symmetry_space_group_name_H-M "P -1"
_symmetry_group_IT_number 2
_symmetry_cell_setting 'triclinic'
loop_
_space_group_symop_operation_xyz
x,y,z
-x,-y,-z
loop_
_atom_site_type_symbol
_atom_site_label
_atom_site_fract_x
_atom_site_fract_y
_atom_site_fract_z
Si Si1 0.827166 0.128318 0.127538
Si Si2 0.520855 0.317856 0.695891
Si Si3 0.117719 0.565044 0.506770
Si Si4 0.514239 0.045558 0.806490
Si Si5 0.218770 0.078612 0.517057
Si Si6 0.071106 0.535207 0.814589
Si Si7 0.515785 0.327076 0.110828
Si Si8 0.949068 0.758395 0.043282
O O1 0.730159 0.147666 0.950947
O O2 0.630694 0.286339 0.030384
O O3 0.978072 0.158957 0.108918
O O4 0.911060 0.955038 0.396111
O O5 0.500000 0.500000 0.500000
O O6 0.344327 0.391414 0.695905
O O7 0.481637 0.237437 0.637355
O O8 0.059779 0.631272 0.585470
O O9 0.000000 0.500000 0.500000
O O10 0.064195 0.705984 0.251630
O O11 0.366559 0.055444 0.674057
O O12 0.725994 0.892342 0.922637
O O13 0.500000 0.000000 0.000000
O O14 0.074436 0.299073 0.257900
O O15 0.349506 0.893591 0.614188
O O16 0.298110 0.402171 0.009980
O O17 0.006003 0.419754 0.858592
O O18 0.500000 0.500000 0.000000
#
# Coordination Sequence:
#
# PCOD9081286 Si02
#       8
#     2   2   2   2   2   2   2   2
#     4  10  22  40  52  91 123 153 206 249 304 350
#     4  12  22  35  52  85 130 161 196 244 293 352
#     4  10  19  31  53  85 114 165 198 219 285 360
#     4  12  20  37  56  84 126 169 206 235 282 368
#     4  10  22  39  62  87 119 158 210 242 298 366
#     4  11  20  39  63  88 120 161 202 242 299 368
#     4  10  22  44  68  87 116 154 206 262 305 356
#     4  11  21  35  59  87 129 164 193 248 299 347
#
# _framework density 24.763287999999999
#
# number of rings (size 3 to 8) (size 9 to 14) (size 15 to 20)
#    0.750    0.500    5.000    3.750    0.000    2.000 
#    0.000    0.625    0.000    0.750    0.000    0.000 
#    0.000    0.000    0.000    0.000    0.000    0.000 
#
# Total GULP energy -89228.009632 kJ/mol
# GULP energy per Si atom -5576.750602 kJ/mol
# Density = 2.470693 g / cm^3
# Si number density = 24.763288 Si / 1000 Ang^3
#
#
#
# Elastic Constant Matrix: (Units=GPa)
#
#
# Indices 1 2 3 4 5 6 
#
# 1 120.7043 8.9020 23.7810 -10.9282 10.4666 3.5445
# 2 8.9020 86.2402 37.2652 -28.3055 0.7581 6.9853
# 3 23.7810 37.2652 64.1105 -23.0364 13.0824 -6.3554
# 4 -10.9282 -28.3055 -23.0364 45.3500 0.5395 -5.5263
# 5 10.4666 0.7581 13.0824 0.5395 35.4050 -11.0194
# 6 3.5445 6.9853 -6.3554 -5.5263 -11.0194 24.5269
#
#
#
# Elastic Compliance Matrix: (Units=1/GPa)
#
#
# Indices 1 2 3 4 5 6 
#
# 1 0.009325 0.001201 -0.003759 0.000672 -0.002541 -0.003654
# 2 0.001201 0.018041 -0.009566 0.005938 0.000808 -0.006089
# 3 -0.003759 -0.009566 0.027804 0.008495 -0.006082 0.009654
# 4 0.000672 0.005938 0.008495 0.031056 -0.001897 0.006558
# 5 -0.002541 0.000808 -0.006082 -0.001897 0.035660 0.014155
# 6 -0.003654 -0.006089 0.009654 0.006558 0.014155 0.053372
#
#
# Mechanical properties :
#
#
# Convention : Reuss Voigt Hill
#
# Bulk Modulus (GPa) = 32.34185 45.66125 39.00155
# Shear Modulus (GPa) = 23.83048 34.46350 29.14699
#
# Velocity S-wave (km/s) = 3.10551 3.73462 3.43450
# Velocity P-wave (km/s) = 5.09389 6.08898 5.61353
#
# Compressibility (1/GPa) = 0.03091969
#
# Stress axis : x y z
#
# Youngs Moduli (GPa) = 107.23564 55.43076 35.96611
#
# Poissons Ratio (x) = -0.06655 0.13521
# Poissons Ratio (y) = -0.12875 0.34407
# Poissons Ratio (z) = 0.40313 0.53027
#
# Static dielectric constant tensor:
#      x y z
#    x 1.926670 -0.010530 -0.033840 
#    y -0.010530 2.065630 0.044990 
#    z -0.033840 0.044990 2.111630 
# 
# From -- ./inp_files/502678.got.cif
#   From: 2010.05.17/outbox.cif.g08.bks.cpg/sg2_252_cif.got.tgz:502678.got - 2010.06.03 11:33:40.
