data_PCOD9081310
_publ_section_title
;
Structure prediction by ZEFSAII (Michael W. Deem and Ramdas Pophale) SiO2 
 PCOD9081310
Probable space group: P -1
;
_chemical_formula_sum "Si O2"
_cell_formula_units_Z 16
_cell_length_a 9.233016
_cell_length_b 24.910470
_cell_length_c 21.229854
_cell_angle_alpha 16.129067
_cell_angle_beta 30.132870
_cell_angle_gamma 34.918626
_cell_volume 678.887844
_symmetry_space_group_name_H-M "P -1"
_symmetry_group_IT_number 2
_symmetry_cell_setting 'triclinic'
loop_
_space_group_symop_operation_xyz
x,y,z
-x,-y,-z
loop_
_atom_site_type_symbol
_atom_site_label
_atom_site_fract_x
_atom_site_fract_y
_atom_site_fract_z
Si Si1 0.880271 0.232246 0.897928
Si Si2 0.795591 0.197990 0.175392
Si Si3 0.909955 0.318020 0.284361
Si Si4 0.227459 0.313508 0.554679
Si Si5 0.431548 0.106386 0.303957
Si Si6 0.246945 0.226398 0.886875
Si Si7 0.841042 0.565132 0.805549
Si Si8 0.110636 0.678436 0.452248
O O1 0.792469 0.455282 0.684812
O O2 0.019735 0.208770 0.803804
O O3 0.132097 0.197155 0.892776
O O4 0.601950 0.110187 0.170381
O O5 0.608813 0.256171 0.118064
O O6 0.582059 0.082211 0.434379
O O7 0.961460 0.359414 0.974515
O O8 0.049820 0.100188 0.153212
O O9 0.565834 0.276650 0.466951
O O10 0.100658 0.153417 0.370157
O O11 0.041056 0.364641 0.251610
O O12 0.000000 0.500000 0.000000
O O13 0.088303 0.270313 0.587950
O O14 0.183797 0.452668 0.669213
O O15 0.580582 0.204270 0.794764
O O16 0.949729 0.697311 0.557469
O O17 0.500000 0.500000 0.000000
#
# Coordination Sequence:
#
# PCOD9081310 Si02
#       8
#     2   2   2   2   2   2   2   2
#     4   9  17  31  52  81 110 147 186 229 274 343
#     4   9  19  35  61  82 110 150 187 236 272 340
#     4  12  22  35  57  87 117 149 182 238 284 337
#     4  10  19  31  54  82 112 147 189 230 284 326
#     4  10  19  37  58  84 118 147 188 228 289 329
#     4   8  15  30  52  78 103 136 188 229 273 313
#     4  11  20  34  57  85 111 142 192 232 278 324
#     4   9  17  31  53  80 108 138 185 240 269 321
#
# _framework density 23.567958000000001
#
# number of rings (size 3 to 8) (size 9 to 14) (size 15 to 20)
#    0.000    2.250    2.500    2.250    0.000    3.000 
#    0.000    0.625    2.750    3.750    0.000    0.000 
#    0.000    0.000    0.000    0.000    0.000    0.000 
#
# Total GULP energy -89268.189662 kJ/mol
# GULP energy per Si atom -5579.261854 kJ/mol
# Density = 2.351432 g / cm^3
# Si number density = 23.567958 Si / 1000 Ang^3
#
#
#
# Elastic Constant Matrix: (Units=GPa)
#
#
# Indices 1 2 3 4 5 6 
#
# 1 136.8283 60.1910 63.0152 53.6564 10.3658 0.4737
# 2 60.1910 97.0261 56.2432 42.7718 -0.1881 -9.4356
# 3 63.0152 56.2432 120.6567 60.0356 23.6524 3.4486
# 4 53.6564 42.7718 60.0356 61.1067 2.9785 -5.0585
# 5 10.3658 -0.1881 23.6524 2.9785 37.8096 19.7552
# 6 0.4737 -9.4356 3.4486 -5.0585 19.7552 32.2600
#
#
#
# Elastic Compliance Matrix: (Units=1/GPa)
#
#
# Indices 1 2 3 4 5 6 
#
# 1 0.012523 -0.004370 -0.000234 -0.007735 -0.001934 -0.001466
# 2 -0.004370 0.017793 -0.004771 -0.003772 0.002732 0.003514
# 3 -0.000234 -0.004771 0.021471 -0.016791 -0.012891 0.001574
# 4 -0.007735 -0.003772 -0.016791 0.042115 0.007966 0.002531
# 5 -0.001934 0.002732 -0.012891 0.007966 0.047973 -0.025923
# 6 -0.001466 0.003514 0.001574 0.002531 -0.025923 0.048151
#
#
# Mechanical properties :
#
#
# Convention : Reuss Voigt Hill
#
# Bulk Modulus (GPa) = 30.26849 79.26776 54.76813
# Shear Modulus (GPa) = 22.74932 37.90605 30.32768
#
# Velocity S-wave (km/s) = 3.11024 4.01480 3.59112
# Velocity P-wave (km/s) = 5.07633 7.42955 6.36268
#
# Compressibility (1/GPa) = 0.03303765
#
# Stress axis : x y z
#
# Youngs Moduli (GPa) = 79.85164 56.20271 46.57497
#
# Poissons Ratio (x) = 0.24560 0.01089
# Poissons Ratio (y) = 0.34894 0.22220
# Poissons Ratio (z) = 0.01867 0.26814
#
# Static dielectric constant tensor:
#      x y z
#    x 1.885310 -0.000490 -0.013560 
#    y -0.000490 2.019010 -0.074730 
#    z -0.013560 -0.074730 2.023520 
# 
# From -- ./inp_files/336788.got.cif
#   From: 2010.05.17/outbox.cif.g08.bks.cpg/sg2_169_cif.got.tgz:336788.got - 2010.06.03 11:33:40.
