data_PCOD9081736
_publ_section_title
;
Structure prediction by ZEFSAII (Michael W. Deem and Ramdas Pophale) SiO2 
 PCOD9081736
Probable space group: P -1
;
_chemical_formula_sum "Si O2"
_cell_formula_units_Z 16
_cell_length_a 11.564706
_cell_length_b 11.912462
_cell_length_c 5.147266
_cell_angle_alpha 74.786094
_cell_angle_beta 80.947247
_cell_angle_gamma 57.449066
_cell_volume 576.655211
_symmetry_space_group_name_H-M "P -1"
_symmetry_group_IT_number 2
_symmetry_cell_setting 'triclinic'
loop_
_space_group_symop_operation_xyz
x,y,z
-x,-y,-z
loop_
_atom_site_type_symbol
_atom_site_label
_atom_site_fract_x
_atom_site_fract_y
_atom_site_fract_z
Si Si1 0.682125 0.677538 0.485804
Si Si2 0.339390 0.070155 0.480308
Si Si3 0.791467 0.449278 0.984975
Si Si4 0.488021 0.425638 0.800594
Si Si5 0.127502 0.846720 0.767062
Si Si6 0.945445 0.619573 0.234931
Si Si7 0.870859 0.911706 0.074288
Si Si8 0.637714 0.169710 0.649996
O O1 0.707418 0.772471 0.624773
O O2 0.741068 0.532409 0.686013
O O3 0.517128 0.750719 0.468144
O O4 0.785242 0.672642 0.229707
O O5 0.278840 0.046882 0.780027
O O6 0.500000 0.000000 0.500000
O O7 0.314177 0.988744 0.310816
O O8 0.667354 0.539571 0.167158
O O9 0.805095 0.304176 0.049016
O O10 0.500000 0.500000 0.000000
O O11 0.940383 0.426725 0.003505
O O12 0.500000 0.500000 0.500000
O O13 0.593528 0.263199 0.865782
O O14 0.235113 0.822293 0.514482
O O15 0.120388 0.968488 0.859233
O O16 0.965709 0.889663 0.793625
O O17 0.000000 0.500000 0.500000
O O18 0.946539 0.754921 0.248927
#
# Coordination Sequence:
#
# PCOD9081736 Si02
#       8
#     2   2   2   2   2   2   2   2
#     4   9  17  32  57  90 126 167 211 267 321 392
#     4   8  15  29  53  85 122 164 213 262 324 387
#     4  10  19  32  54  84 124 162 210 267 320 387
#     4  12  25  42  63  94 135 171 221 278 334 400
#     4   9  16  27  47  79 119 159 212 256 325 382
#     4   8  15  29  51  84 122 164 210 260 324 383
#     4   8  14  25  45  79 117 162 208 262 317 386
#     4  10  19  34  55  85 127 163 216 267 326 390
#
# _framework density 27.746213999999998
#
# number of rings (size 3 to 8) (size 9 to 14) (size 15 to 20)
#    0.000    2.750    1.250    0.750    0.000    0.000 
#    0.000    1.250    0.000    0.000    0.000   29.750 
#    0.000    0.000    0.000    0.000    0.000    0.000 
#
# Total GULP energy -89097.134844 kJ/mol
# GULP energy per Si atom -5568.570928 kJ/mol
# Density = 2.768306 g / cm^3
# Si number density = 27.746214 Si / 1000 Ang^3
#
#
#
# Elastic Constant Matrix: (Units=GPa)
#
#
# Indices 1 2 3 4 5 6 
#
# 1 127.4049 59.0409 75.3570 1.8625 -57.9437 -5.4930
# 2 59.0409 184.5206 44.9419 -1.7944 -17.0908 8.5284
# 3 75.3570 44.9419 144.6056 25.7248 -40.7724 -17.3107
# 4 1.8625 -1.7944 25.7248 59.5459 -11.3528 -17.4021
# 5 -57.9437 -17.0908 -40.7724 -11.3528 57.3232 17.1344
# 6 -5.4930 8.5284 -17.3107 -17.4021 17.1344 49.4908
#
#
#
# Elastic Compliance Matrix: (Units=1/GPa)
#
#
# Indices 1 2 3 4 5 6 
#
# 1 0.020751 -0.003322 -0.005981 0.004066 0.017707 -0.003917
# 2 -0.003322 0.006617 -0.000955 0.000030 -0.001686 -0.001249
# 3 -0.005981 -0.000955 0.011403 -0.004138 0.000394 0.001898
# 4 0.004066 0.000030 -0.004138 0.020620 0.003782 0.004940
# 5 0.017707 -0.001686 0.000394 0.003782 0.038770 -0.009699
# 6 -0.003917 -0.001249 0.001898 0.004940 -0.009699 0.025745
#
#
# Mechanical properties :
#
#
# Convention : Reuss Voigt Hill
#
# Bulk Modulus (GPa) = 54.78040 90.57894 72.67967
# Shear Modulus (GPa) = 33.22087 51.75139 42.48613
#
# Velocity S-wave (km/s) = 3.46397 4.32345 3.91735
# Velocity P-wave (km/s) = 5.98206 7.59206 6.83463
#
# Compressibility (1/GPa) = 0.01825470
#
# Stress axis : x y z
#
# Youngs Moduli (GPa) = 48.19033 151.12486 87.69348
#
# Poissons Ratio (x) = 0.50209 0.52448
# Poissons Ratio (y) = 0.16010 0.08377
# Poissons Ratio (z) = 0.28822 0.14436
#
# Static dielectric constant tensor:
#      x y z
#    x 1.687130 0.144320 -0.163770 
#    y 0.144320 2.264590 0.121830 
#    z -0.163770 0.121830 2.101370 
# 
# From -- ./inp_files/252359.got.cif
#   From: 2010.05.17/outbox.cif.g08.bks.cpg/sg2_127_cif.got.tgz:252359.got - 2010.06.03 11:33:40.
