data_PCOD9081865
_publ_section_title
;
Structure prediction by ZEFSAII (Michael W. Deem and Ramdas Pophale) SiO2 
 PCOD9081865
Probable space group: P -1
;
_chemical_formula_sum "Si O2"
_cell_formula_units_Z 16
_cell_length_a 21.858265
_cell_length_b 5.585911
_cell_length_c 9.600411
_cell_angle_alpha 103.136968
_cell_angle_beta 124.773911
_cell_angle_gamma 62.695341
_cell_volume 854.622003
_symmetry_space_group_name_H-M "P -1"
_symmetry_group_IT_number 2
_symmetry_cell_setting 'triclinic'
loop_
_space_group_symop_operation_xyz
x,y,z
-x,-y,-z
loop_
_atom_site_type_symbol
_atom_site_label
_atom_site_fract_x
_atom_site_fract_y
_atom_site_fract_z
Si Si1 0.151613 0.268413 0.285005
Si Si2 0.780607 0.263672 0.267884
Si Si3 0.908340 0.796000 0.512403
Si Si4 0.904612 0.203456 0.917496
Si Si5 0.686021 0.835307 0.370058
Si Si6 0.372949 0.783339 0.923824
Si Si7 0.086787 0.666956 0.741250
Si Si8 0.528082 0.812082 0.146929
O O1 0.099395 0.341365 0.371654
O O2 0.122729 0.542965 0.192071
O O3 0.247129 0.161946 0.434584
O O4 0.137809 0.008434 0.176538
O O5 0.733811 0.555870 0.312344
O O6 0.709225 0.189856 0.102340
O O7 0.850935 0.248687 0.251666
O O8 0.828060 0.067007 0.428660
O O9 0.906760 0.611908 0.356061
O O10 0.989861 0.848781 0.623803
O O11 0.892371 0.337850 0.071303
O O12 0.000000 0.000000 0.000000
O O13 0.599761 0.859786 0.325490
O O14 0.659280 0.048743 0.237867
O O15 0.423849 0.483370 0.894110
O O16 0.558916 0.150705 0.897208
O O17 0.500000 0.000000 0.000000
#
# Coordination Sequence:
#
# PCOD9081865 Si02
#       8
#     2   2   2   2   2   2   2   2
#     4  12  24  43  62  88 116 169 202 256 305 363
#     4  11  19  34  57  86 118 152 202 253 305 362
#     4  11  23  38  62  83 115 156 214 254 312 353
#     4  12  28  43  61  84 126 162 211 256 317 356
#     4  10  19  32  56  86 117 154 200 251 300 363
#     4   9  16  29  51  84 121 150 187 248 310 357
#     4  11  25  38  57  85 117 163 204 261 303 368
#     4   8  16  28  48  82 124 150 182 240 314 357
#
# _framework density 18.721724999999999
#
# number of rings (size 3 to 8) (size 9 to 14) (size 15 to 20)
#    0.000    1.500    3.750    1.500    3.500    1.000 
#    0.000    0.000    0.000    0.000    0.000    1.750 
#    0.000    0.000    0.000    0.000    0.000    0.000 
#
# Total GULP energy -89087.565494 kJ/mol
# GULP energy per Si atom -5567.972843 kJ/mol
# Density = 1.867911 g / cm^3
# Si number density = 18.721725 Si / 1000 Ang^3
#
#
#
# Elastic Constant Matrix: (Units=GPa)
#
#
# Indices 1 2 3 4 5 6 
#
# 1 149.7535 16.3969 67.4959 -5.2750 49.8334 15.2699
# 2 16.3969 103.1946 49.6636 -24.5680 0.1255 8.9022
# 3 67.4959 49.6636 109.5997 -0.3071 20.0571 8.3408
# 4 -5.2750 -24.5680 -0.3071 33.8180 -2.4578 3.6778
# 5 49.8334 0.1255 20.0571 -2.4578 47.7536 1.7528
# 6 15.2699 8.9022 8.3408 3.6778 1.7528 17.5445
#
#
#
# Elastic Compliance Matrix: (Units=1/GPa)
#
#
# Indices 1 2 3 4 5 6 
#
# 1 0.015082 0.003661 -0.007936 0.005300 -0.011733 -0.011150
# 2 0.003661 0.018544 -0.010047 0.015280 0.001548 -0.011177
# 3 -0.007936 -0.010047 0.018132 -0.008941 0.000040 0.005256
# 4 0.005300 0.015280 -0.008941 0.043375 0.001053 -0.017313
# 5 -0.011733 0.001548 0.000040 0.001053 0.033002 0.005890
# 6 -0.011150 -0.011177 0.005256 -0.017313 0.005890 0.072915
#
#
# Mechanical properties :
#
#
# Convention : Reuss Voigt Hill
#
# Bulk Modulus (GPa) = 43.26657 69.96230 56.61444
# Shear Modulus (GPa) = 21.06143 35.08931 28.07537
#
# Velocity S-wave (km/s) = 3.35770 4.33397 3.87669
# Velocity P-wave (km/s) = 6.18003 7.90538 7.09534
#
# Compressibility (1/GPa) = 0.02311253
#
# Stress axis : x y z
#
# Youngs Moduli (GPa) = 66.30536 53.92514 55.15038
#
# Poissons Ratio (x) = -0.19742 0.43769
# Poissons Ratio (y) = -0.24274 0.55412
# Poissons Ratio (z) = 0.52622 0.54181
#
# Static dielectric constant tensor:
#      x y z
#    x 1.745690 0.051530 0.062960 
#    y 0.051530 1.689710 -0.005540 
#    z 0.062960 -0.005540 1.684690 
# 
# From -- ./inp_files/350781.got.cif
#   From: 2010.05.17/outbox.cif.g08.bks.cpg/sg2_176_cif.got.tgz:350781.got - 2010.06.03 11:33:40.
