data_PCOD9081773
_publ_section_title
;
Structure prediction by ZEFSAII (Michael W. Deem and Ramdas Pophale) SiO2 
 PCOD9081773
Probable space group: P -1
;
_chemical_formula_sum "Si O2"
_cell_formula_units_Z 16
_cell_length_a 14.926981
_cell_length_b 8.804977
_cell_length_c 9.036873
_cell_angle_alpha 81.244397
_cell_angle_beta 105.553812
_cell_angle_gamma 146.223067
_cell_volume 630.589835
_symmetry_space_group_name_H-M "P -1"
_symmetry_group_IT_number 2
_symmetry_cell_setting 'triclinic'
loop_
_space_group_symop_operation_xyz
x,y,z
-x,-y,-z
loop_
_atom_site_type_symbol
_atom_site_label
_atom_site_fract_x
_atom_site_fract_y
_atom_site_fract_z
Si Si1 0.783866 0.826734 0.518064
Si Si2 0.640967 0.611647 0.941189
Si Si3 0.098778 0.453887 0.290563
Si Si4 0.934085 0.946435 0.239354
Si Si5 0.583926 0.966469 0.109680
Si Si6 0.615421 0.302317 0.455304
Si Si7 0.334879 0.028391 0.170509
Si Si8 0.169730 0.786121 0.609166
O O1 0.643548 0.503220 0.526958
O O2 0.939949 0.017358 0.669668
O O3 0.849530 0.871262 0.373153
O O4 0.744676 0.953937 0.475470
O O5 0.695659 0.833335 0.836683
O O6 0.549282 0.346657 0.859696
O O7 0.500000 0.500000 0.000000
O O8 0.789347 0.744341 0.085097
O O9 0.201002 0.520626 0.464569
O O10 0.205665 0.739881 0.236213
O O11 0.060651 0.256682 0.199896
O O12 0.916323 0.260105 0.277821
O O13 0.698019 0.150759 0.276048
O O14 0.677442 0.025741 0.999665
O O15 0.500000 0.000000 0.000000
O O16 0.500000 0.000000 0.500000
O O17 0.519159 0.230798 0.278220
O O18 0.000000 0.500000 0.500000
#
# Coordination Sequence:
#
# PCOD9081773 Si02
#       8
#     2   2   2   2   2   2   2   2
#     4   9  16  31  52  78 113 138 190 236 272 333
#     4  10  19  32  55  81 107 147 193 231 287 336
#     4   9  19  35  58  90 110 145 201 235 281 336
#     4   9  17  28  53  83 104 139 183 243 282 321
#     4  11  25  38  57  87 119 149 191 236 296 344
#     4   9  17  30  57  90 111 142 187 241 291 329
#     4  10  19  35  63  83 117 149 190 247 282 337
#     4  11  24  37  58  82 116 159 193 230 283 349
#
# _framework density 25.373069999999998
#
# number of rings (size 3 to 8) (size 9 to 14) (size 15 to 20)
#    0.000    2.250    0.000    6.000    3.500    2.000 
#    0.000    0.000    8.250    3.750    0.000    0.000 
#    0.000    0.000    0.000    0.000    0.000    0.000 
#
# Total GULP energy -89236.062214 kJ/mol
# GULP energy per Si atom -5577.253888 kJ/mol
# Density = 2.531532 g / cm^3
# Si number density = 25.373070 Si / 1000 Ang^3
#
#
#
# Elastic Constant Matrix: (Units=GPa)
#
#
# Indices 1 2 3 4 5 6 
#
# 1 40.1142 21.4870 36.4165 -4.5982 16.7474 0.7206
# 2 21.4870 152.6555 56.4998 -14.6518 13.8179 -22.7974
# 3 36.4165 56.4998 190.7712 25.3856 39.9673 -9.6135
# 4 -4.5982 -14.6518 25.3856 50.7677 1.1143 9.7673
# 5 16.7474 13.8179 39.9673 1.1143 31.6766 -3.2524
# 6 0.7206 -22.7974 -9.6135 9.7673 -3.2524 28.0590
#
#
#
# Elastic Compliance Matrix: (Units=1/GPa)
#
#
# Indices 1 2 3 4 5 6 
#
# 1 0.037547 -0.002940 -0.004821 0.006999 -0.013658 -0.009025
# 2 -0.002940 0.008791 -0.002290 0.002281 0.001121 0.005769
# 3 -0.004821 -0.002290 0.009451 -0.006177 -0.007878 0.002738
# 4 0.006999 0.002281 -0.006177 0.025840 0.001235 -0.009294
# 5 -0.013658 0.001121 -0.007878 0.001235 0.048584 0.003764
# 6 -0.009025 0.005769 0.002738 -0.009294 0.003764 0.045168
#
#
# Mechanical properties :
#
#
# Convention : Reuss Voigt Hill
#
# Bulk Modulus (GPa) = 28.02209 68.03861 48.03035
# Shear Modulus (GPa) = 24.11029 40.04317 32.07673
#
# Velocity S-wave (km/s) = 3.08593 3.97694 3.55942
# Velocity P-wave (km/s) = 4.87496 6.92543 5.98861
#
# Compressibility (1/GPa) = 0.03568613
#
# Stress axis : x y z
#
# Youngs Moduli (GPa) = 26.63314 113.74972 105.80907
#
# Poissons Ratio (x) = 0.33444 0.51014
# Poissons Ratio (y) = 0.07831 0.24232
# Poissons Ratio (z) = 0.12841 0.26051
#
# Static dielectric constant tensor:
#      x y z
#    x 2.145850 -0.046960 -0.040100 
#    y -0.046960 2.071690 -0.033230 
#    z -0.040100 -0.033230 2.016560 
# 
# From -- ./inp_files/462008.got.cif
#   From: 2010.05.17/outbox.cif.g08.bks.cpg/sg2_232_cif.got.tgz:462008.got - 2010.06.03 11:33:40.
