data_PCOD9081877
_publ_section_title
;
Structure prediction by ZEFSAII (Michael W. Deem and Ramdas Pophale) SiO2 
 PCOD9081877
Probable space group: P -1
;
_chemical_formula_sum "Si O2"
_cell_formula_units_Z 16
_cell_length_a 10.650411
_cell_length_b 8.169520
_cell_length_c 11.635880
_cell_angle_alpha 49.196799
_cell_angle_beta 62.871206
_cell_angle_gamma 65.233848
_cell_volume 670.969331
_symmetry_space_group_name_H-M "P -1"
_symmetry_group_IT_number 2
_symmetry_cell_setting 'triclinic'
loop_
_space_group_symop_operation_xyz
x,y,z
-x,-y,-z
loop_
_atom_site_type_symbol
_atom_site_label
_atom_site_fract_x
_atom_site_fract_y
_atom_site_fract_z
Si Si1 0.320265 0.600796 0.698694
Si Si2 0.938575 0.137890 0.576568
Si Si3 0.383199 0.677959 0.900045
Si Si4 0.458377 0.975511 0.396717
Si Si5 0.783316 0.694138 0.560024
Si Si6 0.012083 0.301414 0.176900
Si Si7 0.896292 0.375228 0.832863
Si Si8 0.790553 0.622280 0.341252
O O1 0.381287 0.593475 0.806447
O O2 0.154708 0.720411 0.730495
O O3 0.301198 0.385866 0.732121
O O4 0.409894 0.741921 0.517427
O O5 0.836384 0.361231 0.477352
O O6 0.066729 0.225562 0.545963
O O7 0.000000 0.000000 0.500000
O O8 0.898145 0.943710 0.762952
O O9 0.435100 0.912492 0.775056
O O10 0.500000 0.500000 0.000000
O O11 0.222344 0.713445 0.001925
O O12 0.312275 0.157587 0.375041
O O13 0.500000 0.000000 0.500000
O O14 0.820853 0.450519 0.708790
O O15 0.721771 0.712884 0.448337
O O16 0.079765 0.405801 0.209146
O O17 0.000000 0.500000 0.000000
O O18 0.065144 0.276152 0.790421
#
# Coordination Sequence:
#
# PCOD9081877 Si02
#       8
#     2   2   2   2   2   2   2   2
#     4  10  20  38  57  88 115 148 208 247 293 349
#     4  11  17  31  57  89 116 150 195 242 286 350
#     4  11  21  34  59  89 111 152 199 260 283 337
#     4  10  21  36  60  87 111 155 209 245 281 346
#     4  11  19  36  58  90 123 156 197 242 304 365
#     4  11  19  30  56  91 117 145 180 262 301 330
#     4  10  19  32  56  90 119 142 200 242 300 345
#     4  10  22  34  61  92 122 158 189 248 315 357
#
# _framework density 23.8461
#
# number of rings (size 3 to 8) (size 9 to 14) (size 15 to 20)
#    0.000    1.500    7.500    1.500    0.000    0.000 
#    0.000    2.500    0.000   22.500    3.250    0.000 
#    0.000    0.000    0.000    0.000    0.000    0.000 
#
# Total GULP energy -89117.039093 kJ/mol
# GULP energy per Si atom -5569.814943 kJ/mol
# Density = 2.379182 g / cm^3
# Si number density = 23.846100 Si / 1000 Ang^3
#
#
#
# Elastic Constant Matrix: (Units=GPa)
#
#
# Indices 1 2 3 4 5 6 
#
# 1 102.5668 10.9798 45.1597 4.3752 -5.2742 17.2136
# 2 10.9798 53.6792 24.2737 14.3197 0.8025 -4.2734
# 3 45.1597 24.2737 138.7487 -1.0819 -19.8306 4.1535
# 4 4.3752 14.3197 -1.0819 26.8194 -0.3359 10.5818
# 5 -5.2742 0.8025 -19.8306 -0.3359 53.7025 4.8993
# 6 17.2136 -4.2734 4.1535 10.5818 4.8993 27.0833
#
#
#
# Elastic Compliance Matrix: (Units=1/GPa)
#
#
# Indices 1 2 3 4 5 6 
#
# 1 0.013026 -0.002738 -0.003311 0.002983 0.000987 -0.009548
# 2 -0.002738 0.028782 -0.005421 -0.021646 -0.004328 0.016353
# 3 -0.003311 -0.005421 0.009889 0.005024 0.003703 -0.002901
# 4 0.002983 -0.021646 0.005024 0.060810 0.005668 -0.030866
# 5 0.000987 -0.004328 0.003703 0.005668 0.020904 -0.007875
# 6 -0.009548 0.016353 -0.002901 -0.030866 -0.007875 0.059501
#
#
# Mechanical properties :
#
#
# Convention : Reuss Voigt Hill
#
# Bulk Modulus (GPa) = 34.77379 50.64680 42.71029
# Shear Modulus (GPa) = 22.17923 35.82646 29.00284
#
# Velocity S-wave (km/s) = 3.05306 3.88029 3.49126
# Velocity P-wave (km/s) = 5.20024 6.43123 5.84821
#
# Compressibility (1/GPa) = 0.02875729
#
# Stress axis : x y z
#
# Youngs Moduli (GPa) = 76.76725 34.74448 101.12720
#
# Poissons Ratio (x) = 0.09513 0.33479
# Poissons Ratio (y) = 0.21018 0.54821
# Poissons Ratio (z) = 0.25415 0.18835
#
# Static dielectric constant tensor:
#      x y z
#    x 1.995820 -0.072510 0.032550 
#    y -0.072510 2.010880 0.009190 
#    z 0.032550 0.009190 2.058040 
# 
# From -- ./inp_files/414081.got.cif
#   From: 2010.05.17/outbox.cif.g08.bks.cpg/sg2_208_cif.got.tgz:414081.got - 2010.06.03 11:33:40.
