data_PCOD9081428
_publ_section_title
;
Structure prediction by ZEFSAII (Michael W. Deem and Ramdas Pophale) SiO2 
 PCOD9081428
Probable space group: P -1
;
_chemical_formula_sum "Si O2"
_cell_formula_units_Z 16
_cell_length_a 8.449156
_cell_length_b 12.242301
_cell_length_c 22.625243
_cell_angle_alpha 23.033239
_cell_angle_beta 133.336573
_cell_angle_gamma 131.835809
_cell_volume 660.820476
_symmetry_space_group_name_H-M "P -1"
_symmetry_group_IT_number 2
_symmetry_cell_setting 'triclinic'
loop_
_space_group_symop_operation_xyz
x,y,z
-x,-y,-z
loop_
_atom_site_type_symbol
_atom_site_label
_atom_site_fract_x
_atom_site_fract_y
_atom_site_fract_z
Si Si1 0.447196 0.562480 0.750825
Si Si2 0.729866 0.628119 0.074172
Si Si3 0.195107 0.097621 0.396392
Si Si4 0.678309 0.656223 0.295444
Si Si5 0.197633 0.352260 0.493596
Si Si6 0.494820 0.087099 0.227348
Si Si7 0.196521 0.576259 0.252410
Si Si8 0.158088 0.805658 0.360117
O O1 0.389615 0.419756 0.869566
O O2 0.692429 0.684797 0.732090
O O3 0.353770 0.353473 0.778192
O O4 0.332159 0.846333 0.575448
O O5 0.681424 0.330316 0.175251
O O6 0.989495 0.715195 0.105774
O O7 0.618484 0.834984 0.900505
O O8 0.178187 0.281319 0.359138
O O9 0.973640 0.925980 0.402812
O O10 0.447450 0.710015 0.238216
O O11 0.727246 0.338822 0.484508
O O12 0.902120 0.842814 0.280215
O O13 0.155118 0.505849 0.345179
O O14 0.164892 0.561420 0.433841
O O15 0.418481 0.211242 0.611038
O O16 0.314676 0.063137 0.245446
#
# Coordination Sequence:
#
# PCOD9081428 Si02
#       8
#     2   2   2   2   2   2   2   2
#     4  10  20  35  60  92 118 159 200 255 300 345
#     4  11  23  42  63  88 126 157 204 245 308 360
#     4  10  19  31  62  93 118 145 206 260 291 336
#     4  10  22  37  62  91 121 154 201 261 293 348
#     4  12  20  38  64  94 117 158 207 249 299 353
#     4  11  25  39  62  91 126 162 192 252 308 362
#     4  11  20  36  64  93 117 154 208 256 284 351
#     4  11  23  39  61  91 128 156 200 250 306 358
#
# _framework density 24.212323999999999
#
# number of rings (size 3 to 8) (size 9 to 14) (size 15 to 20)
#    0.000    1.250    5.000    1.500    3.500    0.000 
#    0.000    3.750   11.000    0.000    0.000    0.000 
#    0.000    0.000    0.000    0.000    0.000    0.000 
#
# Total GULP energy -89514.776027 kJ/mol
# GULP energy per Si atom -5594.673502 kJ/mol
# Density = 2.415722 g / cm^3
# Si number density = 24.212324 Si / 1000 Ang^3
#
#
#
# Elastic Constant Matrix: (Units=GPa)
#
#
# Indices 1 2 3 4 5 6 
#
# 1 81.6465 43.8977 17.7540 21.0620 -10.6280 20.4547
# 2 43.8977 72.6767 21.9702 7.8527 20.1805 10.5559
# 3 17.7540 21.9702 47.8029 25.2408 -10.4710 6.0136
# 4 21.0620 7.8527 25.2408 41.4260 -10.3937 1.1521
# 5 -10.6280 20.1805 -10.4710 -10.3937 15.7201 5.1899
# 6 20.4547 10.5559 6.0136 1.1521 5.1899 57.3613
#
#
#
# Elastic Compliance Matrix: (Units=1/GPa)
#
#
# Indices 1 2 3 4 5 6 
#
# 1 -0.010122 0.033339 -0.026385 -0.003252 -0.071607 0.006784
# 2 0.033339 -0.041441 0.032517 -0.003140 0.100847 -0.016733
# 3 -0.026385 0.032517 0.007583 -0.014441 -0.067045 0.008986
# 4 -0.003252 -0.003140 -0.014441 0.039736 0.018220 0.000805
# 5 -0.071607 0.100847 -0.067045 0.018220 -0.156036 0.027757
# 6 0.006784 -0.016733 0.008986 0.000805 0.027757 0.014624
#
#
# Mechanical properties :
#
#
# Convention : Reuss Voigt Hill
#
# Bulk Modulus (GPa) = 28.60229 41.04109 34.82169
# Shear Modulus (GPa) = -23.48035 30.80176 3.66070
#
# Velocity S-wave (km/s) = -3.11749 3.57059 1.23093
# Velocity P-wave (km/s) = 1.05809 5.82976 4.05380
#
# Compressibility (1/GPa) = 0.03496224
#
# Stress axis : x y z
#
# Youngs Moduli (GPa) = -98.79834 -24.13089 131.88098
#
# Poissons Ratio (x) = 0.80451 3.47968
# Poissons Ratio (y) = 3.29387 -4.28832
# Poissons Ratio (z) = -2.60679 0.78465
#
# Static dielectric constant tensor:
#      x y z
#    x 1.986830 0.057760 0.010690 
#    y 0.057760 1.963080 -0.007730 
#    z 0.010690 -0.007730 1.885900 
# 
# From -- ./inp_files/589389.got.cif
#   From: 2010.05.17/outbox.cif.g08.bks.cpg/sg2_295_cif.got.tgz:589389.got - 2010.06.03 11:33:40.
