data_PCOD9081520
_publ_section_title
;
Structure prediction by ZEFSAII (Michael W. Deem and Ramdas Pophale) SiO2 
 PCOD9081520
Probable space group: P -1
;
_chemical_formula_sum "Si O2"
_cell_formula_units_Z 16
_cell_length_a 18.420524
_cell_length_b 5.487233
_cell_length_c 9.805803
_cell_angle_alpha 91.860816
_cell_angle_beta 91.970212
_cell_angle_gamma 132.901897
_cell_volume 723.490417
_symmetry_space_group_name_H-M "P -1"
_symmetry_group_IT_number 2
_symmetry_cell_setting 'triclinic'
loop_
_space_group_symop_operation_xyz
x,y,z
-x,-y,-z
loop_
_atom_site_type_symbol
_atom_site_label
_atom_site_fract_x
_atom_site_fract_y
_atom_site_fract_z
Si Si1 0.454198 0.397358 0.144689
Si Si2 0.110286 0.177928 0.348048
Si Si3 0.417850 0.818471 0.252109
Si Si4 0.207305 0.337688 0.070127
Si Si5 0.077290 0.482711 0.555820
Si Si6 0.711066 0.005126 0.325578
Si Si7 0.694380 0.489103 0.480399
Si Si8 0.744930 0.059620 0.026866
O O1 0.476886 0.704381 0.225121
O O2 0.474337 0.195615 0.223871
O O3 0.500000 0.500000 0.000000
O O4 0.335047 0.125220 0.104689
O O5 0.123534 0.473867 0.420818
O O6 0.194457 0.225988 0.441404
O O7 0.136964 0.208718 0.193824
O O8 0.995894 0.859329 0.368731
O O9 0.378423 0.724647 0.401432
O O10 0.320232 0.592157 0.143078
O O11 0.198694 0.554896 0.978141
O O12 0.193712 0.048567 0.989107
O O13 0.169677 0.765709 0.657947
O O14 0.000000 0.500000 0.500000
O O15 0.694210 0.241139 0.385208
O O16 0.686752 0.926375 0.163716
O O17 0.669930 0.685755 0.406123
#
# Coordination Sequence:
#
# PCOD9081520 Si02
#       8
#     2   2   2   2   2   2   2   2
#     4  10  19  34  57  80 105 133 164 210 252 297
#     4   9  19  32  51  77  98 132 176 219 255 288
#     4   9  18  32  54  83 102 127 176 211 245 294
#     4   9  19  34  54  72 103 135 171 213 247 297
#     4  10  19  32  51  75 102 130 173 219 257 296
#     4  11  21  34  53  74 105 138 170 208 258 303
#     4  10  19  33  55  77 101 136 173 215 247 291
#     4  10  21  36  52  77 103 136 171 202 250 316
#
# _framework density 22.115012
#
# number of rings (size 3 to 8) (size 9 to 14) (size 15 to 20)
#    0.000    2.250    1.250    1.875    1.750    3.000 
#    0.000    1.250    0.000    4.500    0.000    0.000 
#    0.000    0.000    0.000    0.000    0.000    0.000 
#
# Total GULP energy -89250.471277 kJ/mol
# GULP energy per Si atom -5578.154455 kJ/mol
# Density = 2.206468 g / cm^3
# Si number density = 22.115012 Si / 1000 Ang^3
#
#
#
# Elastic Constant Matrix: (Units=GPa)
#
#
# Indices 1 2 3 4 5 6 
#
# 1 118.3816 48.3781 52.1249 -36.3553 -0.4136 -27.8175
# 2 48.3781 98.0126 46.7553 -12.6788 2.9446 -36.8450
# 3 52.1249 46.7553 111.8118 -28.4805 -8.3676 -29.3092
# 4 -36.3553 -12.6788 -28.4805 47.8771 -7.7904 15.0163
# 5 -0.4136 2.9446 -8.3676 -7.7904 38.3464 5.5457
# 6 -27.8175 -36.8450 -29.3092 15.0163 5.5457 53.6094
#
#
#
# Elastic Compliance Matrix: (Units=1/GPa)
#
#
# Indices 1 2 3 4 5 6 
#
# 1 0.013943 -0.004673 -0.002256 0.008168 0.001628 0.000333
# 2 -0.004673 0.017532 -0.004430 -0.005179 -0.004738 0.009144
# 3 -0.002256 -0.004430 0.013988 0.005704 0.004326 0.001387
# 4 0.008168 -0.005179 0.005704 0.032590 0.009261 -0.006290
# 5 0.001628 -0.004738 0.004326 0.009261 0.030117 -0.005756
# 6 0.000333 0.009144 0.001387 -0.006290 -0.005756 0.028227
#
#
# Mechanical properties :
#
#
# Convention : Reuss Voigt Hill
#
# Bulk Modulus (GPa) = 43.96487 69.19140 56.57813
# Shear Modulus (GPa) = 29.99470 40.02976 35.01223
#
# Velocity S-wave (km/s) = 3.68680 4.25911 3.98325
# Velocity P-wave (km/s) = 6.16819 7.45263 6.84062
#
# Compressibility (1/GPa) = 0.02274543
#
# Stress axis : x y z
#
# Youngs Moduli (GPa) = 71.72202 57.03823 71.49030
#
# Poissons Ratio (x) = 0.26652 0.16129
# Poissons Ratio (y) = 0.33514 0.31669
# Poissons Ratio (z) = 0.16181 0.25267
#
# Static dielectric constant tensor:
#      x y z
#    x 1.816140 0.048070 0.045810 
#    y 0.048070 1.812990 -0.001640 
#    z 0.045810 -0.001640 1.771640 
# 
# From -- ./inp_files/37482.got.cif
#   From: 2010.05.17/outbox.cif.g08.bks.cpg/sg2_19_cif.got.tgz:37482.got - 2010.06.03 11:33:40.
