data_PCOD9081528
_publ_section_title
;
Structure prediction by ZEFSAII (Michael W. Deem and Ramdas Pophale) SiO2 
 PCOD9081528
Probable space group: P -1
;
_chemical_formula_sum "Si O2"
_cell_formula_units_Z 16
_cell_length_a 11.653574
_cell_length_b 17.710104
_cell_length_c 8.826140
_cell_angle_alpha 106.337801
_cell_angle_beta 141.923037
_cell_angle_gamma 93.769225
_cell_volume 942.624817
_symmetry_space_group_name_H-M "P -1"
_symmetry_group_IT_number 2
_symmetry_cell_setting 'triclinic'
loop_
_space_group_symop_operation_xyz
x,y,z
-x,-y,-z
loop_
_atom_site_type_symbol
_atom_site_label
_atom_site_fract_x
_atom_site_fract_y
_atom_site_fract_z
Si Si1 0.388256 0.362593 0.620670
Si Si2 0.953842 0.228910 0.926262
Si Si3 0.971059 0.291040 0.641129
Si Si4 0.559418 0.546556 0.752992
Si Si5 0.453067 0.704416 0.751717
Si Si6 0.903933 0.894165 0.844122
Si Si7 0.188225 0.230717 0.605435
Si Si8 0.541401 0.243353 0.560738
O O1 0.483030 0.467415 0.751537
O O2 0.315662 0.321562 0.688533
O O3 0.546849 0.327467 0.703230
O O4 0.174244 0.309573 0.266444
O O5 0.952582 0.239942 0.751062
O O6 0.754125 0.235670 0.789094
O O7 0.959407 0.139577 0.933240
O O8 0.765984 0.303678 0.422411
O O9 0.002614 0.237724 0.505252
O O10 0.188937 0.385522 0.933732
O O11 0.500000 0.500000 0.500000
O O12 0.450002 0.609102 0.691282
O O13 0.490024 0.741921 0.640292
O O14 0.648065 0.767417 0.098345
O O15 0.886999 0.850467 0.636253
O O16 0.666084 0.842924 0.638148
O O17 0.000000 0.000000 0.000000
#
# Coordination Sequence:
#
# PCOD9081528 Si02
#       8
#     2   2   2   2   2   2   2   2
#     4  10  19  32  51  77 105 142 179 218 257 288
#     4   9  18  34  54  75 103 138 175 209 254 312
#     4  10  20  34  53  76 106 144 176 210 257 305
#     4  11  18  32  52  78 108 137 186 226 243 287
#     4  10  20  34  53  76 106 144 176 210 257 305
#     4  10  21  37  59  82 101 127 168 217 265 313
#     4   9  20  36  52  72 107 137 165 212 269 319
#     4   9  18  34  54  75 103 138 175 209 254 312
#
# _framework density 16.973879
#
# number of rings (size 3 to 8) (size 9 to 14) (size 15 to 20)
#    0.000    2.500    2.500    2.250    0.000    8.000 
#    0.000    3.750    0.000    3.000    0.000    0.000 
#    0.000    0.000    0.000    0.000    0.000    0.000 
#
# Total GULP energy -89217.870277 kJ/mol
# GULP energy per Si atom -5576.116892 kJ/mol
# Density = 1.693525 g / cm^3
# Si number density = 16.973879 Si / 1000 Ang^3
#
#
#
# Elastic Constant Matrix: (Units=GPa)
#
#
# Indices 1 2 3 4 5 6 
#
# 1 131.2843 40.8003 36.9787 1.3206 14.5481 -17.8540
# 2 40.8003 108.4397 35.8545 16.0275 10.1808 -17.7371
# 3 36.9787 35.8545 29.9275 6.4120 5.7853 -17.5766
# 4 1.3206 16.0275 6.4120 23.2592 -3.9465 -0.2750
# 5 14.5481 10.1808 5.7853 -3.9465 26.7175 -7.4219
# 6 -17.8540 -17.7371 -17.5766 -0.2750 -7.4219 17.0826
#
#
#
# Elastic Compliance Matrix: (Units=1/GPa)
#
#
# Indices 1 2 3 4 5 6 
#
# 1 0.013119 0.001065 -0.025311 0.004472 -0.005125 -0.013381
# 2 0.001065 0.016769 -0.024352 -0.005856 -0.005006 -0.008802
# 3 -0.025311 -0.024352 0.176673 -0.025567 0.019378 0.138050
# 4 0.004472 -0.005856 -0.025567 0.054690 0.006775 -0.023889
# 5 -0.005125 -0.005006 0.019378 0.006775 0.047274 0.030032
# 6 -0.013381 -0.008802 0.138050 -0.023889 0.030032 0.190119
#
#
# Mechanical properties :
#
#
# Convention : Reuss Voigt Hill
#
# Bulk Modulus (GPa) = 9.14389 55.21319 32.17854
# Shear Modulus (GPa) = 7.90769 23.81308 15.86038
#
# Velocity S-wave (km/s) = 2.16075 3.74963 3.06011
# Velocity P-wave (km/s) = 3.40938 7.16556 5.61111
#
# Compressibility (1/GPa) = 0.10936262
#
# Stress axis : x y z
#
# Youngs Moduli (GPa) = 76.22666 59.63469 5.66019
#
# Poissons Ratio (x) = -0.06348 0.14327
# Poissons Ratio (y) = -0.08115 0.13784
# Poissons Ratio (z) = 1.92940 1.45223
#
# Static dielectric constant tensor:
#      x y z
#    x 1.588650 0.009350 -0.007660 
#    y 0.009350 1.568280 -0.014600 
#    z -0.007660 -0.014600 1.564080 
# 
# From -- ./inp_files/276711.got.cif
#   From: 2010.05.17/outbox.cif.g08.bks.cpg/sg2_139_cif.got.tgz:276711.got - 2010.06.03 11:33:40.
