data_PCOD9081688
_publ_section_title
;
Structure prediction by ZEFSAII (Michael W. Deem and Ramdas Pophale) SiO2 
 PCOD9081688
Probable space group: P -1
;
_chemical_formula_sum "Si O2"
_cell_formula_units_Z 14
_cell_length_a 20.147837
_cell_length_b 17.446694
_cell_length_c 11.263996
_cell_angle_alpha 36.905784
_cell_angle_beta 146.220556
_cell_angle_gamma 160.190146
_cell_volume 742.795597
_symmetry_space_group_name_H-M "P -1"
_symmetry_group_IT_number 2
_symmetry_cell_setting 'triclinic'
loop_
_space_group_symop_operation_xyz
x,y,z
-x,-y,-z
loop_
_atom_site_type_symbol
_atom_site_label
_atom_site_fract_x
_atom_site_fract_y
_atom_site_fract_z
Si Si1 0.761916 0.173236 0.445373
Si Si2 0.648830 0.191449 0.587815
Si Si3 0.670408 0.038361 0.219260
Si Si4 0.362924 0.533417 0.363852
Si Si5 0.872954 0.175981 0.094603
Si Si6 0.186841 0.509905 0.746922
Si Si7 0.467501 0.346648 0.799157
O O1 0.773386 0.334824 0.296534
O O2 0.936029 0.261063 0.680384
O O3 0.524510 0.917345 0.439744
O O4 0.797753 0.180485 0.351785
O O5 0.772414 0.404380 0.432012
O O6 0.500000 0.000000 0.500000
O O7 0.797690 0.220694 0.837688
O O8 0.536063 0.790065 0.342808
O O9 0.806363 0.151563 0.160711
O O10 0.500000 0.000000 0.000000
O O11 0.392093 0.424367 0.608337
O O12 0.418701 0.560068 0.275501
O O13 0.122812 0.370904 0.217846
O O14 0.731668 0.926564 0.159984
O O15 0.352773 0.547452 0.976890
#
# Coordination Sequence:
#
# PCOD9081688 Si02
#       7
#     2   2   2   2   2   2   2
#     4  10  20  36  55  85 116 145 186 234 286 332
#     4  10  19  32  53  90 113 137 186 233 280 335
#     4  11  22  39  54  85 122 148 188 235 278 348
#     4  10  24  36  60  82 115 156 187 231 291 330
#     4  11  21  36  61  88 115 148 189 235 286 334
#     4  10  21  34  62  84 110 146 189 239 286 326
#     4  10  20  41  56  86 115 145 197 239 271 341
#
# _framework density 18.847715999999998
#
# number of rings (size 3 to 8) (size 9 to 14) (size 15 to 20)
#    0.000    1.714    4.286    1.286    8.000    1.714 
#    0.000    0.714    0.000    1.714    0.000    0.000 
#    0.000    0.000    0.000    0.000    0.000    0.000 
#
# Total GULP energy -78116.454461 kJ/mol
# GULP energy per Si atom -5579.746747 kJ/mol
# Density = 1.880482 g / cm^3
# Si number density = 18.847716 Si / 1000 Ang^3
#
#
#
# Elastic Constant Matrix: (Units=GPa)
#
#
# Indices 1 2 3 4 5 6 
#
# 1 63.7586 31.1254 42.7364 8.9607 -5.6189 -5.1484
# 2 31.1254 73.0801 55.3071 22.6421 0.7483 10.7320
# 3 42.7364 55.3071 133.3583 13.8292 -8.9662 -3.5887
# 4 8.9607 22.6421 13.8292 29.8196 3.9828 0.1537
# 5 -5.6189 0.7483 -8.9662 3.9828 17.2498 6.5110
# 6 -5.1484 10.7320 -3.5887 0.1537 6.5110 21.6778
#
#
#
# Elastic Compliance Matrix: (Units=1/GPa)
#
#
# Indices 1 2 3 4 5 6 
#
# 1 0.023061 -0.008768 -0.003440 0.000918 0.002711 0.008427
# 2 -0.008768 0.033408 -0.009477 -0.018627 0.002978 -0.020953
# 3 -0.003440 -0.009477 0.012719 0.001820 0.003642 0.004874
# 4 0.000918 -0.018627 0.001820 0.048396 -0.014288 0.013689
# 5 0.002711 0.002978 0.003642 -0.014288 0.072144 -0.021795
# 6 0.008427 -0.020953 0.004874 0.013689 -0.021795 0.065761
#
#
# Mechanical properties :
#
#
# Convention : Reuss Voigt Hill
#
# Bulk Modulus (GPa) = 38.73450 58.72608 48.73029
# Shear Modulus (GPa) = 16.26198 23.15129 19.70664
#
# Velocity S-wave (km/s) = 2.94055 3.50856 3.23704
# Velocity P-wave (km/s) = 5.66789 6.90211 6.31523
#
# Compressibility (1/GPa) = 0.02581678
#
# Stress axis : x y z
#
# Youngs Moduli (GPa) = 43.36386 29.93289 78.62425
#
# Poissons Ratio (x) = 0.26246 0.27045
# Poissons Ratio (y) = 0.38022 0.74515
# Poissons Ratio (z) = 0.14916 0.28368
#
# Static dielectric constant tensor:
#      x y z
#    x 1.686400 0.042940 -0.011520 
#    y 0.042940 1.707530 -0.009930 
#    z -0.011520 -0.009930 1.659420 
# 
# From -- ./inp_files/472358.got.cif
#   From: 2010.05.17/outbox.cif.g08.bks.cpg/sg2_237_cif.got.tgz:472358.got - 2010.06.03 11:33:40.
