data_PCOD9081716
_publ_section_title
;
Structure prediction by ZEFSAII (Michael W. Deem and Ramdas Pophale) SiO2 
 PCOD9081716
Probable space group: P -1
;
_chemical_formula_sum "Si O2"
_cell_formula_units_Z 12
_cell_length_a 7.883619
_cell_length_b 7.649688
_cell_length_c 10.382350
_cell_angle_alpha 116.330948
_cell_angle_beta 86.125965
_cell_angle_gamma 58.458036
_cell_volume 439.935324
_symmetry_space_group_name_H-M "P -1"
_symmetry_group_IT_number 2
_symmetry_cell_setting 'triclinic'
loop_
_space_group_symop_operation_xyz
x,y,z
-x,-y,-z
loop_
_atom_site_type_symbol
_atom_site_label
_atom_site_fract_x
_atom_site_fract_y
_atom_site_fract_z
Si Si1 0.821365 0.662913 0.857923
Si Si2 0.442825 0.786555 0.079370
Si Si3 0.771369 0.110461 0.346797
Si Si4 0.906175 0.242943 0.997916
Si Si5 0.686653 0.973436 0.562716
Si Si6 0.255501 0.445527 0.436891
O O1 0.813748 0.515266 0.694702
O O2 0.692016 0.940561 0.895179
O O3 0.684125 0.667509 0.982595
O O4 0.046636 0.592298 0.872967
O O5 0.398738 0.845829 0.252026
O O6 0.331287 0.668754 0.993306
O O7 0.790875 0.033275 0.468611
O O8 0.522169 0.259265 0.362246
O O9 0.816505 0.309169 0.405798
O O10 0.937776 0.875817 0.173504
O O11 0.000000 0.000000 0.000000
O O12 0.500000 0.000000 0.500000
O O13 0.806849 0.706158 0.534287
#
# Coordination Sequence:
#
# PCOD9081716 Si02
#       6
#     2   2   2   2   2   2
#     4   9  16  32  54  75 107 144 178 220 268 318
#     4   9  17  30  52  78 104 141 182 218 263 321
#     4  10  19  32  54  82 108 139 181 223 269 322
#     4  10  19  32  55  80 104 144 184 217 269 325
#     4   9  17  32  53  78 109 143 177 218 272 321
#     4   9  18  33  55  81 108 140 179 224 269 318
#
# _framework density 27.27674
#
# number of rings (size 3 to 8) (size 9 to 14) (size 15 to 20)
#    0.000    2.667    0.000    5.000    0.000    0.667 
#    0.000    8.333    0.000   12.000    0.000    1.167 
#    0.000    0.000    0.000    0.000    0.000    0.000 
#
# Total GULP energy -67313.962974 kJ/mol
# GULP energy per Si atom -5609.496914 kJ/mol
# Density = 2.721466 g / cm^3
# Si number density = 27.276740 Si / 1000 Ang^3
#
#
#
# Elastic Constant Matrix: (Units=GPa)
#
#
# Indices 1 2 3 4 5 6 
#
# 1 175.9292 35.1916 61.3001 -2.0993 33.2292 -1.6205
# 2 35.1916 89.2956 50.5916 3.4752 3.9542 2.7462
# 3 61.3001 50.5916 164.1830 -25.3662 10.3913 7.8633
# 4 -2.0993 3.4752 -25.3662 47.6171 7.2669 -2.1466
# 5 33.2292 3.9542 10.3913 7.2669 49.9960 -4.0252
# 6 -1.6205 2.7462 7.8633 -2.1466 -4.0252 51.5615
#
#
#
# Elastic Compliance Matrix: (Units=1/GPa)
#
#
# Indices 1 2 3 4 5 6 
#
# 1 0.007570 -0.001639 -0.002044 0.000059 -0.004462 0.000291
# 2 -0.001639 0.014492 -0.004515 -0.003759 0.001414 -0.000181
# 3 -0.002044 -0.004515 0.009172 0.005235 -0.001039 -0.001086
# 4 0.000059 -0.003759 0.005235 0.024745 -0.004419 0.000089
# 5 -0.004462 0.001414 -0.001039 -0.004419 0.023844 0.001620
# 6 0.000291 -0.000181 -0.001086 0.000089 0.001620 0.019709
#
#
# Mechanical properties :
#
#
# Convention : Reuss Voigt Hill
#
# Bulk Modulus (GPa) = 67.39544 80.39715 73.89630
# Shear Modulus (GPa) = 41.36513 48.65656 45.01085
#
# Velocity S-wave (km/s) = 3.89845 4.22810 4.06662
# Velocity P-wave (km/s) = 6.71011 7.30578 7.01427
#
# Compressibility (1/GPa) = 0.01483780
#
# Stress axis : x y z
#
# Youngs Moduli (GPa) = 132.09466 69.00271 109.03046
#
# Poissons Ratio (x) = 0.11311 0.22284
# Poissons Ratio (y) = 0.21652 0.49230
# Poissons Ratio (z) = 0.26998 0.31156
#
# Static dielectric constant tensor:
#      x y z
#    x 2.179920 -0.127890 -0.023450 
#    y -0.127890 2.281540 -0.009500 
#    z -0.023450 -0.009500 2.028390 
# 
# From -- ./inp_files/151916.got.cif
#   From: 2010.05.17/outbox.cif.g08.bks.cpg/sg2_76_cif.got.tgz:151916.got - 2010.06.03 11:33:40.
