data_PCOD9081203
_publ_section_title
;
Structure prediction by ZEFSAII (Michael W. Deem and Ramdas Pophale) SiO2 
 PCOD9081203
Probable space group: P -1
;
_chemical_formula_sum "Si O2"
_cell_formula_units_Z 16
_cell_length_a 11.571771
_cell_length_b 13.467203
_cell_length_c 14.238414
_cell_angle_alpha 53.106730
_cell_angle_beta 130.160957
_cell_angle_gamma 85.928888
_cell_volume 897.629009
_symmetry_space_group_name_H-M "P -1"
_symmetry_group_IT_number 2
_symmetry_cell_setting 'triclinic'
loop_
_space_group_symop_operation_xyz
x,y,z
-x,-y,-z
loop_
_atom_site_type_symbol
_atom_site_label
_atom_site_fract_x
_atom_site_fract_y
_atom_site_fract_z
Si Si1 0.852472 0.398415 0.805767
Si Si2 0.326970 0.901193 0.729802
Si Si3 0.996855 0.024775 0.118492
Si Si4 0.392908 0.788071 0.323897
Si Si5 0.724750 0.694115 0.936864
Si Si6 0.881697 0.401719 0.037278
Si Si7 0.948846 0.073733 0.284832
Si Si8 0.370213 0.111469 0.532640
O O1 0.604874 0.569298 0.533731
O O2 0.037260 0.383715 0.873805
O O3 0.951561 0.198180 0.969615
O O4 0.816168 0.452266 0.866174
O O5 0.236403 0.901470 0.778348
O O6 0.287780 0.073060 0.597270
O O7 0.591610 0.722031 0.941808
O O8 0.173671 0.933712 0.548129
O O9 0.005757 0.008670 0.244038
O O10 0.780459 0.088299 0.923679
O O11 0.227912 0.842437 0.290517
O O12 0.506783 0.844574 0.388044
O O13 0.752505 0.572627 0.942269
O O14 0.552132 0.909911 0.691210
O O15 0.860518 0.270321 0.128562
O O16 0.150166 0.269962 0.264062
#
# Coordination Sequence:
#
# PCOD9081203 Si02
#       8
#     2   2   2   2   2   2   2   2
#     4  11  21  32  52  78 107 127 170 213 251 306
#     4   8  18  33  55  76 102 131 165 210 257 294
#     4  10  22  36  53  74 101 140 170 206 253 294
#     4  11  21  35  54  74 102 139 171 204 253 304
#     4  10  19  31  51  78 104 135 160 208 258 300
#     4  10  20  30  51  82 101 135 165 201 266 305
#     4   9  18  36  53  74 106 131 168 212 246 302
#     4   9  19  33  50  75 105 130 170 205 250 304
#
# _framework density 17.824735
#
# number of rings (size 3 to 8) (size 9 to 14) (size 15 to 20)
#    0.750    1.500    2.500    0.750    1.750    1.000 
#    0.000    0.625    0.000    0.750    0.000    0.000 
#    0.000    0.000    0.000    0.000    0.000    0.000 
#
# Total GULP energy -89135.392556 kJ/mol
# GULP energy per Si atom -5570.962035 kJ/mol
# Density = 1.778417 g / cm^3
# Si number density = 17.824735 Si / 1000 Ang^3
#
#
#
# Elastic Constant Matrix: (Units=GPa)
#
#
# Indices 1 2 3 4 5 6 
#
# 1 94.9984 1.6321 24.2820 6.7589 8.8541 -3.6239
# 2 1.6321 35.0284 0.9698 3.3442 -2.1890 -4.1470
# 3 24.2820 0.9698 39.9518 1.5328 10.7038 -0.6631
# 4 6.7589 3.3442 1.5328 25.2895 -3.6826 6.7798
# 5 8.8541 -2.1890 10.7038 -3.6826 21.2819 1.3845
# 6 -3.6239 -4.1470 -0.6631 6.7798 1.3845 21.5697
#
#
#
# Elastic Compliance Matrix: (Units=1/GPa)
#
#
# Indices 1 2 3 4 5 6 
#
# 1 0.013017 0.000260 -0.006900 -0.004494 -0.002932 0.003626
# 2 0.000260 0.030121 -0.001104 -0.005681 0.002078 0.007453
# 3 -0.006900 -0.001104 0.033251 -0.002502 -0.014488 0.001367
# 4 -0.004494 -0.005681 -0.002502 0.048183 0.012042 -0.017842
# 5 -0.002932 0.002078 -0.014488 0.012042 0.058317 -0.008067
# 6 0.003626 0.007453 0.001367 -0.017842 -0.008067 0.054571
#
#
# Mechanical properties :
#
#
# Convention : Reuss Voigt Hill
#
# Bulk Modulus (GPa) = 16.42004 24.86070 20.64037
# Shear Modulus (GPa) = 18.29836 23.16786 20.73311
#
# Velocity S-wave (km/s) = 3.20749 3.60913 3.41422
# Velocity P-wave (km/s) = 4.79054 5.59869 5.21031
#
# Compressibility (1/GPa) = 0.06090120
#
# Stress axis : x y z
#
# Youngs Moduli (GPa) = 76.82310 33.19911 30.07448
#
# Poissons Ratio (x) = -0.00862 0.20750
# Poissons Ratio (y) = -0.01994 0.03320
# Poissons Ratio (z) = 0.53005 0.03665
#
# Static dielectric constant tensor:
#      x y z
#    x 1.623360 0.019550 0.018210 
#    y 0.019550 1.622040 -0.022830 
#    z 0.018210 -0.022830 1.629450 
# 
# From -- ./inp_files/431232.got.cif
#   From: 2010.05.17/outbox.cif.g08.bks.cpg/sg2_216_cif.got.tgz:431232.got - 2010.06.03 11:33:40.
