data_PCOD9081347
_publ_section_title
;
Structure prediction by ZEFSAII (Michael W. Deem and Ramdas Pophale) SiO2 
 PCOD9081347
Probable space group: P -1
;
_chemical_formula_sum "Si O2"
_cell_formula_units_Z 16
_cell_length_a 8.321186
_cell_length_b 8.687501
_cell_length_c 12.154477
_cell_angle_alpha 60.805770
_cell_angle_beta 81.643574
_cell_angle_gamma 116.271674
_cell_volume 610.193857
_symmetry_space_group_name_H-M "P -1"
_symmetry_group_IT_number 2
_symmetry_cell_setting 'triclinic'
loop_
_space_group_symop_operation_xyz
x,y,z
-x,-y,-z
loop_
_atom_site_type_symbol
_atom_site_label
_atom_site_fract_x
_atom_site_fract_y
_atom_site_fract_z
Si Si1 0.685893 0.322197 0.152095
Si Si2 0.409099 0.474666 0.638469
Si Si3 0.277734 0.539489 0.257074
Si Si4 0.920059 0.980288 0.167192
Si Si5 0.922662 0.133594 0.514360
Si Si6 0.897945 0.292317 0.927813
Si Si7 0.653173 0.968209 0.401234
Si Si8 0.286549 0.247875 0.173047
O O1 0.523732 0.361750 0.115993
O O2 0.866488 0.503483 0.150325
O O3 0.573848 0.084934 0.303138
O O4 0.792010 0.315235 0.035939
O O5 0.500000 0.500000 0.500000
O O6 0.514484 0.397250 0.734353
O O7 0.499606 0.728580 0.554909
O O8 0.172831 0.275624 0.740210
O O9 0.222531 0.698464 0.165183
O O10 0.243452 0.386199 0.209200
O O11 0.114015 0.381313 0.421432
O O12 0.153499 0.168909 0.104533
O O13 0.800756 0.975104 0.291352
O O14 0.871352 0.069029 0.035225
O O15 0.785268 0.121361 0.436236
O O16 0.810994 0.992783 0.680432
O O17 0.000000 0.000000 0.500000
#
# Coordination Sequence:
#
# PCOD9081347 Si02
#       8
#     2   2   2   2   2   2   2   2
#     4  10  21  34  57  88 113 144 185 236 282 321
#     4  10  20  34  58  83 111 151 187 224 278 337
#     4  11  19  35  59  84 115 147 185 229 277 329
#     4  10  20  35  55  81 114 150 187 223 272 332
#     4  10  15  29  54  83 110 135 178 231 274 319
#     4  10  21  37  56  80 117 145 186 236 273 331
#     4  10  16  34  54  81 113 141 182 231 276 319
#     4  11  20  33  58  87 113 146 186 233 279 329
#
# _framework density 26.221174000000001
#
# number of rings (size 3 to 8) (size 9 to 14) (size 15 to 20)
#    0.000    1.750    6.250    2.250    0.000    3.000 
#    0.000    0.625    0.000    7.500    0.000    0.000 
#    0.000    0.000    0.000    0.000    0.000    0.000 
#
# Total GULP energy -89410.378595 kJ/mol
# GULP energy per Si atom -5588.148662 kJ/mol
# Density = 2.616149 g / cm^3
# Si number density = 26.221174 Si / 1000 Ang^3
#
#
#
# Elastic Constant Matrix: (Units=GPa)
#
#
# Indices 1 2 3 4 5 6 
#
# 1 124.3384 32.5338 44.7155 -10.2825 23.6288 20.4025
# 2 32.5338 63.2273 25.7105 -8.5178 0.8874 18.8722
# 3 44.7155 25.7105 125.5649 -25.4367 24.0485 23.5227
# 4 -10.2825 -8.5178 -25.4367 44.7326 9.1482 -9.0018
# 5 23.6288 0.8874 24.0485 9.1482 52.0691 12.0292
# 6 20.4025 18.8722 23.5227 -9.0018 12.0292 30.7651
#
#
#
# Elastic Compliance Matrix: (Units=1/GPa)
#
#
# Indices 1 2 3 4 5 6 
#
# 1 0.010856 -0.004255 -0.001732 0.001237 -0.003958 -0.001355
# 2 -0.004255 0.022094 -0.002183 -0.001485 0.005516 -0.011654
# 3 -0.001732 -0.002183 0.011811 0.006422 -0.005148 -0.002651
# 4 0.001237 -0.001485 0.006422 0.029793 -0.010594 0.008040
# 5 -0.003958 0.005516 -0.005148 -0.010594 0.027623 -0.010723
# 6 -0.001355 -0.011654 -0.002651 0.008040 -0.010723 0.049125
#
#
# Mechanical properties :
#
#
# Convention : Reuss Voigt Hill
#
# Bulk Modulus (GPa) = 35.18505 57.67223 46.42864
# Shear Modulus (GPa) = 28.23034 39.52475 33.87755
#
# Velocity S-wave (km/s) = 3.28475 3.88669 3.59833
# Velocity P-wave (km/s) = 5.27578 6.49492 5.91684
#
# Compressibility (1/GPa) = 0.02842116
#
# Stress axis : x y z
#
# Youngs Moduli (GPa) = 92.11849 45.26181 84.66477
#
# Poissons Ratio (x) = 0.19257 0.14665
# Poissons Ratio (y) = 0.39194 0.18481
# Poissons Ratio (z) = 0.15956 0.09880
#
# Static dielectric constant tensor:
#      x y z
#    x 2.143220 -0.002040 -0.024640 
#    y -0.002040 2.038610 -0.004920 
#    z -0.024640 -0.004920 2.095570 
# 
# From -- ./inp_files/395844.got.cif
#   From: 2010.05.17/outbox.cif.g08.bks.cpg/sg2_198_cif.got.tgz:395844.got - 2010.06.03 11:33:40.
