data_PCOD9081296
_publ_section_title
;
Structure prediction by ZEFSAII (Michael W. Deem and Ramdas Pophale) SiO2 
 PCOD9081296
Probable space group: P -1
;
_chemical_formula_sum "Si O2"
_cell_formula_units_Z 16
_cell_length_a 8.813329
_cell_length_b 15.023672
_cell_length_c 13.635719
_cell_angle_alpha 111.715050
_cell_angle_beta 48.225306
_cell_angle_gamma 75.008462
_cell_volume 856.121990
_symmetry_space_group_name_H-M "P -1"
_symmetry_group_IT_number 2
_symmetry_cell_setting 'triclinic'
loop_
_space_group_symop_operation_xyz
x,y,z
-x,-y,-z
loop_
_atom_site_type_symbol
_atom_site_label
_atom_site_fract_x
_atom_site_fract_y
_atom_site_fract_z
Si Si1 0.849066 0.705860 0.613055
Si Si2 0.134328 0.482895 0.732193
Si Si3 0.743155 0.599701 0.770222
Si Si4 0.246446 0.222485 0.533310
Si Si5 0.300815 0.924763 0.563865
Si Si6 0.806284 0.212568 0.782496
Si Si7 0.425365 0.282090 0.800657
Si Si8 0.710012 0.288236 0.509786
O O1 0.657994 0.709751 0.773204
O O2 0.691681 0.789036 0.613557
O O3 0.110458 0.541925 0.402112
O O4 0.012848 0.738861 0.605274
O O5 0.162823 0.357100 0.664233
O O6 0.463226 0.405693 0.585464
O O7 0.993984 0.557238 0.718047
O O8 0.895431 0.594559 0.962952
O O9 0.470814 0.662109 0.980291
O O10 0.521527 0.093727 0.428694
O O11 0.974649 0.244083 0.675226
O O12 0.532206 0.821555 0.333292
O O13 0.193628 0.854500 0.611524
O O14 0.038405 0.076153 0.693852
O O15 0.664579 0.196702 0.750700
O O16 0.524875 0.337156 0.711363
#
# Coordination Sequence:
#
# PCOD9081296 Si02
#       8
#     2   2   2   2   2   2   2   2
#     4  10  19  37  50  74  95 133 163 197 253 281
#     4   9  18  31  49  80  98 122 161 203 249 280
#     4   9  22  33  52  71 104 124 161 208 238 295
#     4  10  19  31  54  73 101 126 164 201 239 293
#     4   9  20  31  48  77 100 128 160 204 239 285
#     4  11  19  33  50  76  99 130 162 199 244 285
#     4   9  18  29  49  74 100 125 152 206 238 289
#     4   9  18  30  53  70  99 130 158 199 239 295
#
# _framework density 18.688925000000001
#
# number of rings (size 3 to 8) (size 9 to 14) (size 15 to 20)
#    0.750    1.750    1.250    1.125    1.750    2.000 
#    0.000    1.250    0.000    0.000    0.000    0.000 
#    0.000    0.000    0.000    0.000    0.000    0.000 
#
# Total GULP energy -89101.949695 kJ/mol
# GULP energy per Si atom -5568.871856 kJ/mol
# Density = 1.864639 g / cm^3
# Si number density = 18.688925 Si / 1000 Ang^3
#
#
#
# Elastic Constant Matrix: (Units=GPa)
#
#
# Indices 1 2 3 4 5 6 
#
# 1 67.1276 20.5697 -1.7657 3.6806 -16.3059 -18.2793
# 2 20.5697 43.5071 2.0988 -3.2796 -4.7702 -24.5151
# 3 -1.7657 2.0988 -5.7458 3.6353 -1.4401 -8.3500
# 4 3.6806 -3.2796 3.6353 21.9225 -5.4058 -3.4570
# 5 -16.3059 -4.7702 -1.4401 -5.4058 13.2332 4.6135
# 6 -18.2793 -24.5151 -8.3500 -3.4570 4.6135 30.8218
#
#
#
# Elastic Compliance Matrix: (Units=1/GPa)
#
#
# Indices 1 2 3 4 5 6 
#
# 1 0.022685 -0.006277 -0.014682 0.004126 0.025377 0.001148
# 2 -0.006277 0.044435 -0.014810 0.015430 0.002898 0.028905
# 3 -0.014682 -0.014810 -0.101748 0.005996 -0.016391 -0.044926
# 4 0.004126 0.015430 0.005996 0.055987 0.027729 0.018473
# 5 0.025377 0.002898 -0.016391 0.027729 0.117995 -0.001637
# 6 0.001148 0.028905 -0.044926 0.018473 -0.001637 0.046262
#
#
# Mechanical properties :
#
#
# Convention : Reuss Voigt Hill
#
# Bulk Modulus (GPa) = -9.41920 16.29938 3.44009
# Shear Modulus (GPa) = 22.54648 18.79457 20.67053
#
# Velocity S-wave (km/s) = 3.47711 3.17464 3.32931
# Velocity P-wave (km/s) = 3.32708 4.70937 4.07723
#
# Compressibility (1/GPa) = -0.10616616
#
# Stress axis : x y z
#
# Youngs Moduli (GPa) = 44.08247 22.50498 -9.82819
#
# Poissons Ratio (x) = 0.14126 -0.14430
# Poissons Ratio (y) = 0.27669 -0.14555
# Poissons Ratio (z) = 0.64723 0.33329
#
# Static dielectric constant tensor:
#      x y z
#    x 1.676030 -0.027090 -0.000250 
#    y -0.027090 1.675400 -0.000580 
#    z -0.000250 -0.000580 1.613110 
# 
# From -- ./inp_files/295573.got.cif
#   From: 2010.05.17/outbox.cif.g08.bks.cpg/sg2_148_cif.got.tgz:295573.got - 2010.06.03 11:33:40.
