data_PCOD9081767
_publ_section_title
;
Structure prediction by ZEFSAII (Michael W. Deem and Ramdas Pophale) SiO2 
 PCOD9081767
Probable space group: P -1
;
_chemical_formula_sum "Si O2"
_cell_formula_units_Z 14
_cell_length_a 10.713257
_cell_length_b 13.877075
_cell_length_c 13.699457
_cell_angle_alpha 158.761215
_cell_angle_beta 75.832264
_cell_angle_gamma 116.519287
_cell_volume 560.310715
_symmetry_space_group_name_H-M "P -1"
_symmetry_group_IT_number 2
_symmetry_cell_setting 'triclinic'
loop_
_space_group_symop_operation_xyz
x,y,z
-x,-y,-z
loop_
_atom_site_type_symbol
_atom_site_label
_atom_site_fract_x
_atom_site_fract_y
_atom_site_fract_z
Si Si1 0.885672 0.592124 0.642647
Si Si2 0.233983 0.524770 0.644188
Si Si3 0.883802 0.089545 0.629177
Si Si4 0.499352 0.986266 0.315262
Si Si5 0.742614 0.290283 0.732805
Si Si6 0.419187 0.432204 0.672694
Si Si7 0.989282 0.269906 0.050701
O O1 0.743658 0.412154 0.417767
O O2 0.871805 0.522721 0.695004
O O3 0.000000 0.500000 0.500000
O O4 0.000000 0.000000 0.000000
O O5 0.382932 0.568803 0.713725
O O6 0.152981 0.686667 0.861818
O O7 0.092164 0.121053 0.294401
O O8 0.767989 0.007277 0.479686
O O9 0.760934 0.858338 0.521423
O O10 0.000000 0.000000 0.500000
O O11 0.000000 0.500000 0.000000
O O12 0.326467 0.721057 0.157708
O O13 0.614850 0.186867 0.574570
O O14 0.493974 0.232438 0.475693
O O15 0.522980 0.750982 0.026746
O O16 0.913701 0.600571 0.946259
#
# Coordination Sequence:
#
# PCOD9081767 Si02
#       7
#     2   2   2   2   2   2   2
#     4   8  16  30  49  77 105 129 161 201 259 318
#     4  10  19  33  54  80 107 131 161 213 267 306
#     4  11  21  32  50  76 101 124 159 209 256 299
#     4  10  24  37  52  72 100 145 181 208 240 296
#     4  10  22  38  54  73 105 138 176 212 249 296
#     4  11  21  36  52  73 103 138 175 206 253 306
#     4  10  19  32  55  80 103 133 167 211 262 309
#
# _framework density 24.986135999999998
#
# number of rings (size 3 to 8) (size 9 to 14) (size 15 to 20)
#    0.000    2.000    0.000    4.286    0.000    9.714 
#    0.000    0.000    0.000    1.714    0.000    0.000 
#    0.000    0.000    0.000    0.000    0.000    0.000 
#
# Total GULP energy -78068.231633 kJ/mol
# GULP energy per Si atom -5576.302259 kJ/mol
# Density = 2.492927 g / cm^3
# Si number density = 24.986136 Si / 1000 Ang^3
#
#
#
# Elastic Constant Matrix: (Units=GPa)
#
#
# Indices 1 2 3 4 5 6 
#
# 1 71.3685 11.9102 8.3746 7.7925 -12.7744 -26.9734
# 2 11.9102 97.6311 -1.4294 -14.3212 -4.9152 -23.2410
# 3 8.3746 -1.4294 96.8616 5.3834 -29.5192 1.9519
# 4 7.7925 -14.3212 5.3834 23.3133 -11.5876 4.2615
# 5 -12.7744 -4.9152 -29.5192 -11.5876 43.3349 -6.4932
# 6 -26.9734 -23.2410 1.9519 4.2615 -6.4932 42.8543
#
#
#
# Elastic Compliance Matrix: (Units=1/GPa)
#
#
# Indices 1 2 3 4 5 6 
#
# 1 0.021863 0.000568 0.000434 -0.006214 0.007512 0.015805
# 2 0.000568 0.013808 0.001432 0.009761 0.006487 0.007793
# 3 0.000434 0.001432 0.013256 0.002440 0.010236 0.001754
# 4 -0.006214 0.009761 0.002440 0.058930 0.016380 -0.002107
# 5 0.007512 0.006487 0.010236 0.016380 0.039190 0.012089
# 6 0.015805 0.007793 0.001754 -0.002107 0.012089 0.039471
#
#
# Mechanical properties :
#
#
# Convention : Reuss Voigt Hill
#
# Bulk Modulus (GPa) = 18.58890 33.73022 26.15956
# Shear Modulus (GPa) = 25.05259 38.36755 31.71007
#
# Velocity S-wave (km/s) = 3.16992 3.92286 3.56632
# Velocity P-wave (km/s) = 4.56658 5.83501 5.23932
#
# Compressibility (1/GPa) = 0.05379554
#
# Stress axis : x y z
#
# Youngs Moduli (GPa) = 45.74032 72.42270 75.43755
#
# Poissons Ratio (x) = -0.04116 -0.03276
# Poissons Ratio (y) = -0.02600 -0.10803
# Poissons Ratio (z) = -0.01986 -0.10371
#
# Static dielectric constant tensor:
#      x y z
#    x 2.115120 -0.075130 0.113930 
#    y -0.075130 2.085730 -0.063240 
#    z 0.113930 -0.063240 1.988900 
# 
# From -- ./inp_files/99856.got.cif
#   From: 2010.05.17/outbox.cif.g08.bks.cpg/sg2_50_cif.got.tgz:99856.got - 2010.06.03 11:33:40.
