data_PCOD9081511
_publ_section_title
;
Structure prediction by ZEFSAII (Michael W. Deem and Ramdas Pophale) SiO2 
 PCOD9081511
Probable space group: P -1
;
_chemical_formula_sum "Si O2"
_cell_formula_units_Z 16
_cell_length_a 25.313935
_cell_length_b 9.472249
_cell_length_c 9.232312
_cell_angle_alpha 64.545421
_cell_angle_beta 142.033580
_cell_angle_gamma 145.493306
_cell_volume 598.597695
_symmetry_space_group_name_H-M "P -1"
_symmetry_group_IT_number 2
_symmetry_cell_setting 'triclinic'
loop_
_space_group_symop_operation_xyz
x,y,z
-x,-y,-z
loop_
_atom_site_type_symbol
_atom_site_label
_atom_site_fract_x
_atom_site_fract_y
_atom_site_fract_z
Si Si1 0.270976 0.650533 0.508061
Si Si2 0.999573 0.468339 0.758714
Si Si3 0.647272 0.101663 0.741437
Si Si4 0.014996 0.785568 0.482454
Si Si5 0.797746 0.717880 0.070989
Si Si6 0.402107 0.303749 0.024725
Si Si7 0.869343 0.098289 0.896487
Si Si8 0.465207 0.728222 0.063309
O O1 0.061385 0.317175 0.211999
O O2 0.333573 0.831045 0.417788
O O3 0.352485 0.891790 0.701337
O O4 0.356728 0.618529 0.738847
O O5 0.929080 0.495291 0.495422
O O6 0.111314 0.737141 0.011051
O O7 0.860934 0.152309 0.693353
O O8 0.135943 0.578752 0.912891
O O9 0.585901 0.846385 0.806722
O O10 0.500000 0.000000 0.500000
O O11 0.890523 0.724957 0.182984
O O12 0.089955 0.002485 0.691925
O O13 0.192492 0.011841 0.686674
O O14 0.651783 0.407611 0.992219
O O15 0.736970 0.754274 0.812700
O O16 0.473059 0.556001 0.169071
O O17 0.500000 0.500000 0.000000
#
# Coordination Sequence:
#
# PCOD9081511 Si02
#       8
#     2   2   2   2   2   2   2   2
#     4  10  20  33  51  76 107 135 162 202 255 304
#     4   8  15  26  43  67  92 120 160 203 240 282
#     4  10  20  33  50  73 101 135 172 208 248 298
#     4   8  14  25  43  68  92 119 159 201 238 281
#     4   9  15  26  47  72  97 125 163 205 242 287
#     4  10  19  32  51  74 101 133 171 209 247 298
#     4   9  15  27  47  71  96 126 164 204 243 289
#     4  10  20  33  50  77 107 134 163 204 254 299
#
# _framework density 26.729139
#
# number of rings (size 3 to 8) (size 9 to 14) (size 15 to 20)
#    0.000    2.750    0.000    4.500    0.000    1.500 
#    0.000    0.000    0.000    1.500    0.000   21.000 
#    0.000    0.000    0.000    0.000    0.000    0.000 
#
# Total GULP energy -89272.386798 kJ/mol
# GULP energy per Si atom -5579.524175 kJ/mol
# Density = 2.666830 g / cm^3
# Si number density = 26.729139 Si / 1000 Ang^3
#
#
#
# Elastic Constant Matrix: (Units=GPa)
#
#
# Indices 1 2 3 4 5 6 
#
# 1 87.8702 41.2923 29.1369 -16.1947 39.2435 23.6760
# 2 41.2923 173.5738 53.6195 -54.3127 15.3396 31.2566
# 3 29.1369 53.6195 121.0218 -32.9080 31.0143 5.9293
# 4 -16.1947 -54.3127 -32.9080 48.5152 -11.8227 -2.1173
# 5 39.2435 15.3396 31.0143 -11.8227 38.2717 -5.6039
# 6 23.6760 31.2566 5.9293 -2.1173 -5.6039 43.3342
#
#
#
# Elastic Compliance Matrix: (Units=1/GPa)
#
#
# Indices 1 2 3 4 5 6 
#
# 1 0.038761 -0.000909 0.005122 0.002851 -0.046620 -0.027112
# 2 -0.000909 0.010980 -0.001394 0.010750 -0.000001 -0.006707
# 3 0.005122 -0.001394 0.013011 0.005246 -0.014374 -0.005176
# 4 0.002851 0.010750 0.005246 0.036432 -0.001465 -0.008439
# 5 -0.046620 -0.000001 -0.014374 -0.001465 0.090856 0.039116
# 6 -0.027112 -0.006707 -0.005176 -0.008439 0.039116 0.048081
#
#
# Mechanical properties :
#
#
# Convention : Reuss Voigt Hill
#
# Bulk Modulus (GPa) = 14.62212 70.06258 42.34235
# Shear Modulus (GPa) = 19.58639 43.25202 31.41921
#
# Velocity S-wave (km/s) = 2.70991 4.02700 3.43223
# Velocity P-wave (km/s) = 3.90818 6.92035 5.61984
#
# Compressibility (1/GPa) = 0.06838952
#
# Stress axis : x y z
#
# Youngs Moduli (GPa) = 25.79937 91.07775 76.85695
#
# Poissons Ratio (x) = 0.08275 -0.39363
# Poissons Ratio (y) = 0.02344 0.10713
# Poissons Ratio (z) = -0.13213 0.12696
#
# Static dielectric constant tensor:
#      x y z
#    x 2.231060 -0.088040 -0.085210 
#    y -0.088040 2.050610 0.073950 
#    z -0.085210 0.073950 2.246120 
# 
# From -- ./inp_files/477563.got.cif
#   From: 2010.05.17/outbox.cif.g08.bks.cpg/sg2_239_cif.got.tgz:477563.got - 2010.06.03 11:33:40.
