data_PCOD9081648
_publ_section_title
;
Structure prediction by ZEFSAII (Michael W. Deem and Ramdas Pophale) SiO2 
 PCOD9081648
Probable space group: P -1
;
_chemical_formula_sum "Si O2"
_cell_formula_units_Z 16
_cell_length_a 22.861190
_cell_length_b 9.604705
_cell_length_c 5.168362
_cell_angle_alpha 72.913777
_cell_angle_beta 97.272835
_cell_angle_gamma 56.007268
_cell_volume 836.618656
_symmetry_space_group_name_H-M "P -1"
_symmetry_group_IT_number 2
_symmetry_cell_setting 'triclinic'
loop_
_space_group_symop_operation_xyz
x,y,z
-x,-y,-z
loop_
_atom_site_type_symbol
_atom_site_label
_atom_site_fract_x
_atom_site_fract_y
_atom_site_fract_z
Si Si1 0.684112 0.595031 0.296330
Si Si2 0.387322 0.065258 0.306908
Si Si3 0.903625 0.616101 0.572588
Si Si4 0.059552 0.259920 0.973689
Si Si5 0.826054 0.354832 0.223173
Si Si6 0.910509 0.113026 0.893590
Si Si7 0.761601 0.686636 0.676453
Si Si8 0.463536 0.173302 0.685930
O O1 0.742540 0.426799 0.226850
O O2 0.732532 0.586882 0.563806
O O3 0.607244 0.635269 0.324550
O O4 0.652159 0.789305 0.031009
O O5 0.315554 0.111310 0.393153
O O6 0.422840 0.139159 0.462529
O O7 0.462127 0.862545 0.367850
O O8 0.912021 0.668812 0.263446
O O9 0.820321 0.686489 0.543913
O O10 0.969013 0.394958 0.790549
O O11 0.924508 0.706795 0.748096
O O12 0.098681 0.044626 0.075973
O O13 0.875929 0.257596 0.558391
O O14 0.869981 0.215096 0.084728
O O15 0.808133 0.548100 0.020369
O O16 0.000000 0.000000 0.000000
O O17 0.500000 0.000000 0.000000
#
# Coordination Sequence:
#
# PCOD9081648 Si02
#       8
#     2   2   2   2   2   2   2   2
#     4   9  17  29  46  76 108 144 173 208 258 318
#     4   8  15  24  44  72 106 146 172 202 253 314
#     4  10  22  38  57  73 104 133 177 221 264 325
#     4  10  23  39  54  76  97 137 176 222 274 310
#     4  11  22  34  53  79 106 138 177 215 261 325
#     4  12  24  39  56  76 103 135 177 228 271 318
#     4  10  19  32  53  80 108 143 175 215 268 312
#     4   8  13  25  41  67 110 148 167 204 247 311
#
# _framework density 19.124604999999999
#
# number of rings (size 3 to 8) (size 9 to 14) (size 15 to 20)
#    0.000    2.250    1.250    1.875    3.500    2.000 
#    0.000    0.000    0.000    0.000    0.000    0.000 
#    0.000    6.000    0.000    0.000    0.000    0.000 
#
# Total GULP energy -89074.232162 kJ/mol
# GULP energy per Si atom -5567.139510 kJ/mol
# Density = 1.908108 g / cm^3
# Si number density = 19.124605 Si / 1000 Ang^3
#
#
#
# Elastic Constant Matrix: (Units=GPa)
#
#
# Indices 1 2 3 4 5 6 
#
# 1 89.9509 46.4643 10.0606 -7.1295 9.1530 -50.9415
# 2 46.4643 89.0786 12.9051 10.7751 4.8453 -42.0401
# 3 10.0606 12.9051 83.0758 9.4995 9.0569 -8.0448
# 4 -7.1295 10.7751 9.4995 19.2034 -9.7052 -0.6206
# 5 9.1530 4.8453 9.0569 -9.7052 14.4205 -1.6199
# 6 -50.9415 -42.0401 -8.0448 -0.6206 -1.6199 47.1228
#
#
#
# Elastic Compliance Matrix: (Units=1/GPa)
#
#
# Indices 1 2 3 4 5 6 
#
# 1 0.032971 -0.001906 -0.000515 0.009812 -0.009579 0.033655
# 2 -0.001906 0.027886 0.005609 -0.034941 -0.032705 0.022190
# 3 -0.000515 0.005609 0.018467 -0.028149 -0.031410 0.006149
# 4 0.009812 -0.034941 -0.028149 0.150423 0.122273 -0.019186
# 5 -0.009579 -0.032705 -0.031410 0.122273 0.184283 -0.036950
# 6 0.033655 0.022190 0.006149 -0.019186 -0.036950 0.076927
#
#
# Mechanical properties :
#
#
# Convention : Reuss Voigt Hill
#
# Bulk Modulus (GPa) = 11.66886 44.55167 28.11027
# Shear Modulus (GPa) = 9.74377 28.99435 19.36906
#
# Velocity S-wave (km/s) = 2.25963 3.89791 3.18588
# Velocity P-wave (km/s) = 3.59481 6.60335 5.31634
#
# Compressibility (1/GPa) = 0.08569818
#
# Stress axis : x y z
#
# Youngs Moduli (GPa) = 30.32923 35.86047 54.15103
#
# Poissons Ratio (x) = 0.06836 0.02791
# Poissons Ratio (y) = 0.05782 -0.30372
# Poissons Ratio (z) = 0.01563 -0.20114
#
# Static dielectric constant tensor:
#      x y z
#    x 1.737320 -0.063520 0.015170 
#    y -0.063520 1.740710 0.037490 
#    z 0.015170 0.037490 1.749470 
# 
# From -- ./inp_files/47983.got.cif
#   From: 2010.05.17/outbox.cif.g08.bks.cpg/sg2_24_cif.got.tgz:47983.got - 2010.06.03 11:33:40.
