data_PCOD9081600
_publ_section_title
;
Structure prediction by ZEFSAII (Michael W. Deem and Ramdas Pophale) SiO2 
 PCOD9081600
Probable space group: P -1
;
_chemical_formula_sum "Si O2"
_cell_formula_units_Z 14
_cell_length_a 9.560070
_cell_length_b 11.609056
_cell_length_c 13.487714
_cell_angle_alpha 29.535069
_cell_angle_beta 66.271283
_cell_angle_gamma 81.590615
_cell_volume 602.667361
_symmetry_space_group_name_H-M "P -1"
_symmetry_group_IT_number 2
_symmetry_cell_setting 'triclinic'
loop_
_space_group_symop_operation_xyz
x,y,z
-x,-y,-z
loop_
_atom_site_type_symbol
_atom_site_label
_atom_site_fract_x
_atom_site_fract_y
_atom_site_fract_z
Si Si1 0.017487 0.898436 0.678494
Si Si2 0.431558 0.380880 0.354473
Si Si3 0.433498 0.669918 0.955449
Si Si4 0.788926 0.190036 0.819455
Si Si5 0.279291 0.690027 0.788722
Si Si6 0.435270 0.044244 0.114743
Si Si7 0.917833 0.793237 0.371291
O O1 0.346264 0.466521 0.221824
O O2 0.013076 0.062026 0.652529
O O3 0.000000 0.000000 0.500000
O O4 0.862795 0.609356 0.954885
O O5 0.558408 0.280082 0.345417
O O6 0.265471 0.207387 0.596037
O O7 0.193832 0.872805 0.646482
O O8 0.543108 0.674249 0.145923
O O9 0.500000 0.500000 0.000000
O O10 0.324233 0.733005 0.860413
O O11 0.570723 0.915537 0.795493
O O12 0.873702 0.486477 0.612350
O O13 0.931277 0.089022 0.841470
O O14 0.715736 0.176506 0.737820
O O15 0.614227 0.037320 0.045678
#
# Coordination Sequence:
#
# PCOD9081600 Si02
#       7
#     2   2   2   2   2   2   2
#     4  11  24  37  58  91 118 151 195 249 299 359
#     4   8  16  31  55  85 113 154 190 230 291 360
#     4   8  15  29  56  84 112 147 195 230 286 362
#     4   9  17  30  51  84 109 161 200 236 289 337
#     4  10  20  38  59  83 125 158 184 234 316 355
#     4   8  15  29  54  85 114 151 206 231 283 362
#     4  10  19  32  52  82 120 148 199 248 282 341
#
# _framework density 23.230060000000002
#
# number of rings (size 3 to 8) (size 9 to 14) (size 15 to 20)
#    0.857    2.000    0.000    1.714    0.000    0.571 
#    0.000    0.000    0.000    1.714   18.571    0.000 
#    0.000    0.000    0.000    0.000    0.000    0.000 
#
# Total GULP energy -77957.885006 kJ/mol
# GULP energy per Si atom -5568.420358 kJ/mol
# Density = 2.317719 g / cm^3
# Si number density = 23.230060 Si / 1000 Ang^3
#
#
#
# Elastic Constant Matrix: (Units=GPa)
#
#
# Indices 1 2 3 4 5 6 
#
# 1 119.0963 58.4072 25.1633 -0.9981 -1.1052 -10.4217
# 2 58.4072 181.0723 36.7431 -19.8908 -13.8071 -16.9893
# 3 25.1633 36.7431 70.9439 -17.7356 -15.2866 0.1844
# 4 -0.9981 -19.8908 -17.7356 39.2453 -0.8030 -27.4832
# 5 -1.1052 -13.8071 -15.2866 -0.8030 23.0561 1.5887
# 6 -10.4217 -16.9893 0.1844 -27.4832 1.5887 46.4592
#
#
#
# Elastic Compliance Matrix: (Units=1/GPa)
#
#
# Indices 1 2 3 4 5 6 
#
# 1 0.010822 -0.003617 -0.003995 -0.004376 -0.004357 -0.001319
# 2 -0.003617 0.009029 0.000471 0.010962 0.005322 0.008791
# 3 -0.003995 0.000471 0.022668 0.016660 0.015112 0.008525
# 4 -0.004376 0.010962 0.016660 0.069091 0.016827 0.043257
# 5 -0.004357 0.005322 0.015112 0.016827 0.056341 0.008936
# 6 -0.001319 0.008791 0.008525 0.043257 0.008936 0.049693
#
#
# Mechanical properties :
#
#
# Convention : Reuss Voigt Hill
#
# Bulk Modulus (GPa) = 35.41382 67.97110 51.69246
# Shear Modulus (GPa) = 20.71802 38.47203 29.59503
#
# Velocity S-wave (km/s) = 2.98965 4.07397 3.57318
# Velocity P-wave (km/s) = 5.21491 7.17309 6.27090
#
# Compressibility (1/GPa) = 0.02823757
#
# Stress axis : x y z
#
# Youngs Moduli (GPa) = 92.40611 110.76021 44.11584
#
# Poissons Ratio (x) = 0.40059 0.17622
# Poissons Ratio (y) = 0.33421 -0.02078
# Poissons Ratio (z) = 0.36912 -0.05218
#
# Static dielectric constant tensor:
#      x y z
#    x 1.942780 -0.041210 -0.018420 
#    y -0.041210 1.964880 0.021440 
#    z -0.018420 0.021440 1.981300 
# 
# From -- ./inp_files/386689.got.cif
#   From: 2010.05.17/outbox.cif.g08.bks.cpg/sg2_194_cif.got.tgz:386689.got - 2010.06.03 11:33:40.
