data_PCOD9081714
_publ_section_title
;
Structure prediction by ZEFSAII (Michael W. Deem and Ramdas Pophale) SiO2 
 PCOD9081714
Probable space group: P -1
;
_chemical_formula_sum "Si O2"
_cell_formula_units_Z 14
_cell_length_a 7.586178
_cell_length_b 21.079367
_cell_length_c 8.741256
_cell_angle_alpha 31.502667
_cell_angle_beta 54.256238
_cell_angle_gamma 48.673480
_cell_volume 547.718655
_symmetry_space_group_name_H-M "P -1"
_symmetry_group_IT_number 2
_symmetry_cell_setting 'triclinic'
loop_
_space_group_symop_operation_xyz
x,y,z
-x,-y,-z
loop_
_atom_site_type_symbol
_atom_site_label
_atom_site_fract_x
_atom_site_fract_y
_atom_site_fract_z
Si Si1 0.182844 0.553262 0.476874
Si Si2 0.466023 0.149653 0.679219
Si Si3 0.299250 0.316864 0.703312
Si Si4 0.050538 0.699272 0.525036
Si Si5 0.757171 0.812277 0.714419
Si Si6 0.855059 0.063735 0.094381
Si Si7 0.283246 0.806641 0.821067
O O1 0.336890 0.418759 0.593527
O O2 0.916504 0.589310 0.483230
O O3 0.168298 0.565515 0.643926
O O4 0.251226 0.670324 0.136177
O O5 0.469854 0.222081 0.686679
O O6 0.206678 0.221072 0.587253
O O7 0.661607 0.163093 0.440030
O O8 0.500000 0.000000 0.000000
O O9 0.220442 0.223035 0.046388
O O10 0.978296 0.710783 0.715228
O O11 0.206286 0.784962 0.234893
O O12 0.520868 0.798867 0.803497
O O13 0.731187 0.960233 0.389368
O O14 0.915429 0.083568 0.201283
O O15 0.000000 0.000000 0.000000
#
# Coordination Sequence:
#
# PCOD9081714 Si02
#       7
#     2   2   2   2   2   2   2
#     4   9  20  39  54  72 104 144 178 209 258 309
#     4  10  20  34  53  79 109 138 169 212 266 312
#     4  10  21  36  55  76 104 139 179 216 250 311
#     4   8  18  35  54  76 107 140 170 213 260 310
#     4  10  19  32  54  82 104 132 174 219 262 300
#     4   9  17  31  52  77 105 134 170 211 257 309
#     4  10  20  35  54  75 107 141 170 215 263 307
#
# _framework density 25.560565
#
# number of rings (size 3 to 8) (size 9 to 14) (size 15 to 20)
#    0.000    2.571    0.000    1.286    0.000    5.143 
#    0.000    7.143    0.000    0.000    0.000    0.000 
#    0.000    0.000    0.000    0.000    0.000    0.000 
#
# Total GULP energy -78086.898001 kJ/mol
# GULP energy per Si atom -5577.635571 kJ/mol
# Density = 2.550239 g / cm^3
# Si number density = 25.560565 Si / 1000 Ang^3
#
#
#
# Elastic Constant Matrix: (Units=GPa)
#
#
# Indices 1 2 3 4 5 6 
#
# 1 48.6890 31.7654 2.5585 -6.9014 7.5476 0.5180
# 2 31.7654 262.1657 78.2308 20.0187 3.2514 44.3626
# 3 2.5585 78.2308 82.6068 18.2730 -16.7407 6.8121
# 4 -6.9014 20.0187 18.2730 62.1373 14.6455 6.8842
# 5 7.5476 3.2514 -16.7407 14.6455 30.8568 -0.1427
# 6 0.5180 44.3626 6.8121 6.8842 -0.1427 33.8089
#
#
#
# Elastic Compliance Matrix: (Units=1/GPa)
#
#
# Indices 1 2 3 4 5 6 
#
# 1 0.025234 -0.003832 -0.000536 0.005889 -0.008838 0.003513
# 2 -0.003832 0.008372 -0.008495 0.001713 -0.005411 -0.009587
# 3 -0.000536 -0.008495 0.025924 -0.010604 0.020162 0.008175
# 4 0.005889 0.001713 -0.010604 0.024364 -0.018962 -0.005242
# 5 -0.008838 -0.005411 0.020162 -0.018962 0.055111 0.007266
# 6 0.003513 -0.009587 0.008175 -0.005242 0.007266 0.041554
#
#
# Mechanical properties :
#
#
# Convention : Reuss Voigt Hill
#
# Bulk Modulus (GPa) = 29.58111 68.73010 49.15561
# Shear Modulus (GPa) = 22.98283 44.08772 33.53528
#
# Velocity S-wave (km/s) = 3.00184 4.15762 3.62607
# Velocity P-wave (km/s) = 4.85930 7.07073 6.06663
#
# Compressibility (1/GPa) = 0.03380535
#
# Stress axis : x y z
#
# Youngs Moduli (GPa) = 39.62881 119.44403 38.57406
#
# Poissons Ratio (x) = 0.45774 0.02066
# Poissons Ratio (y) = 0.15187 0.32767
# Poissons Ratio (z) = 0.02123 1.01464
#
# Static dielectric constant tensor:
#      x y z
#    x 2.192720 -0.068430 0.024000 
#    y -0.068430 2.103890 0.032270 
#    z 0.024000 0.032270 1.955950 
# 
# From -- ./inp_files/177936.got.cif
#   From: 2010.05.17/outbox.cif.g08.bks.cpg/sg2_89_cif.got.tgz:177936.got - 2010.06.03 11:33:40.
