data_PCOD9081710
_publ_section_title
;
Structure prediction by ZEFSAII (Michael W. Deem and Ramdas Pophale) SiO2 
 PCOD9081710
Probable space group: P -1
;
_chemical_formula_sum "Si O2"
_cell_formula_units_Z 16
_cell_length_a 11.905113
_cell_length_b 7.804632
_cell_length_c 7.584897
_cell_angle_alpha 110.105472
_cell_angle_beta 81.967024
_cell_angle_gamma 77.262049
_cell_volume 627.389818
_symmetry_space_group_name_H-M "P -1"
_symmetry_group_IT_number 2
_symmetry_cell_setting 'triclinic'
loop_
_space_group_symop_operation_xyz
x,y,z
-x,-y,-z
loop_
_atom_site_type_symbol
_atom_site_label
_atom_site_fract_x
_atom_site_fract_y
_atom_site_fract_z
Si Si1 0.397718 0.194567 0.543704
Si Si2 0.147211 0.156131 0.223216
Si Si3 0.034898 0.716364 0.223587
Si Si4 0.801027 0.952414 0.419794
Si Si5 0.390789 0.975954 0.122331
Si Si6 0.592378 0.315262 0.682312
Si Si7 0.786037 0.457178 0.603399
Si Si8 0.911141 0.378162 0.192456
O O1 0.276573 0.193314 0.665179
O O2 0.373122 0.144631 0.332626
O O3 0.465427 0.348151 0.629297
O O4 0.500000 0.000000 0.500000
O O5 0.154496 0.083472 0.398135
O O6 0.266057 0.015788 0.061985
O O7 0.170784 0.361350 0.295247
O O8 0.020111 0.204703 0.179405
O O9 0.924407 0.899908 0.274830
O O10 0.966661 0.556319 0.220313
O O11 0.118947 0.710220 0.369010
O O12 0.116351 0.668966 0.016369
O O13 0.698466 0.151737 0.501941
O O14 0.415108 0.779780 0.159174
O O15 0.500000 0.000000 0.000000
O O16 0.654935 0.480013 0.714439
O O17 0.809038 0.424979 0.378364
#
# Coordination Sequence:
#
# PCOD9081710 Si02
#       8
#     2   2   2   2   2   2   2   2
#     4   7  15  31  51  71  96 136 177 202 258 310
#     4   9  17  33  56  75 100 146 177 208 263 311
#     4  10  19  32  55  79 103 140 182 213 252 316
#     4   9  15  33  54  73 100 140 182 214 250 315
#     4   9  18  35  57  77 101 135 183 220 248 313
#     4   9  20  33  52  76 106 143 166 216 278 297
#     4  11  19  36  53  76 118 135 167 222 264 311
#     4  10  19  32  54  81 103 143 181 207 257 315
#
# _framework density 25.502486999999999
#
# number of rings (size 3 to 8) (size 9 to 14) (size 15 to 20)
#    0.000    3.250    2.500    0.750    0.000    3.500 
#    2.250    3.750    0.000    0.000    0.000    0.000 
#    0.000    0.000    0.000    0.000    0.000    0.000 
#
# Total GULP energy -89239.071865 kJ/mol
# GULP energy per Si atom -5577.441992 kJ/mol
# Density = 2.544444 g / cm^3
# Si number density = 25.502487 Si / 1000 Ang^3
#
#
#
# Elastic Constant Matrix: (Units=GPa)
#
#
# Indices 1 2 3 4 5 6 
#
# 1 72.2141 21.1470 14.2522 -12.7465 -10.9534 -5.7866
# 2 21.1470 72.6078 4.5510 -24.7417 -1.8825 12.3131
# 3 14.2522 4.5510 71.9757 -17.6022 -20.8642 17.3596
# 4 -12.7465 -24.7417 -17.6022 19.4933 5.3531 -7.9589
# 5 -10.9534 -1.8825 -20.8642 5.3531 27.8746 -16.0949
# 6 -5.7866 12.3131 17.3596 -7.9589 -16.0949 35.3464
#
#
#
# Elastic Compliance Matrix: (Units=1/GPa)
#
#
# Indices 1 2 3 4 5 6 
#
# 1 0.019832 -0.005190 -0.001382 0.007000 0.012596 0.013045
# 2 -0.005190 0.030427 0.009884 0.041900 -0.006239 -0.009710
# 3 -0.001382 0.009884 0.024847 0.029367 0.010496 -0.004481
# 4 0.007000 0.041900 0.029367 0.136371 0.004082 0.004692
# 5 0.012596 -0.006239 0.010496 0.004082 0.064410 0.029329
# 6 0.013045 -0.009710 -0.004481 0.004692 0.029329 0.050421
#
#
# Mechanical properties :
#
#
# Convention : Reuss Voigt Hill
#
# Bulk Modulus (GPa) = 12.23522 32.96645 22.60084
# Shear Modulus (GPa) = 14.41228 28.33270 21.37249
#
# Velocity S-wave (km/s) = 2.37983 3.33675 2.89806
# Velocity P-wave (km/s) = 3.51561 5.27257 4.48105
#
# Compressibility (1/GPa) = 0.08173124
#
# Stress axis : x y z
#
# Youngs Moduli (GPa) = 50.42478 32.86533 40.24570
#
# Poissons Ratio (x) = 0.17056 0.05561
# Poissons Ratio (y) = 0.26168 -0.39779
# Poissons Ratio (z) = 0.06968 -0.32484
#
# Static dielectric constant tensor:
#      x y z
#    x 2.100820 0.047230 0.017500 
#    y 0.047230 2.228220 0.024750 
#    z 0.017500 0.024750 2.021520 
# 
# From -- ./inp_files/239011.got.cif
#   From: 2010.05.17/outbox.cif.g08.bks.cpg/sg2_120_cif.got.tgz:239011.got - 2010.06.03 11:33:40.
