data_PCOD9081754
_publ_section_title
;
Structure prediction by ZEFSAII (Michael W. Deem and Ramdas Pophale) SiO2 
 PCOD9081754
Probable space group: P -1
;
_chemical_formula_sum "Si O2"
_cell_formula_units_Z 14
_cell_length_a 16.033129
_cell_length_b 17.971592
_cell_length_c 11.859739
_cell_angle_alpha 23.894036
_cell_angle_beta 155.479587
_cell_angle_gamma 155.183733
_cell_volume 512.699122
_symmetry_space_group_name_H-M "P -1"
_symmetry_group_IT_number 2
_symmetry_cell_setting 'triclinic'
loop_
_space_group_symop_operation_xyz
x,y,z
-x,-y,-z
loop_
_atom_site_type_symbol
_atom_site_label
_atom_site_fract_x
_atom_site_fract_y
_atom_site_fract_z
Si Si1 0.796038 0.816159 0.754791
Si Si2 0.827268 0.293560 0.705435
Si Si3 0.490701 0.201529 0.948143
Si Si4 0.268437 0.352154 0.856936
Si Si5 0.365931 0.753600 0.183002
Si Si6 0.029942 0.172160 0.393558
Si Si7 0.435122 0.763324 0.761661
O O1 0.540781 0.709794 0.537334
O O2 0.912782 0.048784 0.533632
O O3 0.833669 0.812764 0.939342
O O4 0.940478 0.718510 0.006097
O O5 0.846223 0.498785 0.505338
O O6 0.749893 0.326872 0.438692
O O7 0.638676 0.057792 0.840803
O O8 0.630996 0.291971 0.882286
O O9 0.291940 0.269248 0.602605
O O10 0.617448 0.283598 0.107266
O O11 0.500000 0.500000 0.000000
O O12 0.347580 0.267320 0.965581
O O13 0.116523 0.709122 0.978279
O O14 0.500000 0.000000 0.000000
O O15 0.000000 0.000000 0.500000
O O16 0.500000 0.000000 0.500000
#
# Coordination Sequence:
#
# PCOD9081754 Si02
#       7
#     2   2   2   2   2   2   2
#     4  10  20  33  58  88 114 143 205 240 278 342
#     4   9  20  36  59  83 116 156 191 233 285 350
#     4  10  19  38  56  90 119 146 189 249 290 334
#     4  10  21  36  57  84 113 162 193 228 289 346
#     4  10  20  31  58  86 114 146 193 243 293 319
#     4  10  19  32  54  90 114 144 190 242 290 330
#     4   9  20  35  57  82 121 152 187 242 288 336
#
# _framework density 27.306464999999999
#
# number of rings (size 3 to 8) (size 9 to 14) (size 15 to 20)
#    0.000    2.286    2.857    0.429   12.000    0.000 
#    2.571    2.143    0.000    4.286    0.000    0.000 
#    0.000    0.000    0.000    0.000    0.000    0.000 
#
# Total GULP energy -78195.698382 kJ/mol
# GULP energy per Si atom -5585.407027 kJ/mol
# Density = 2.724431 g / cm^3
# Si number density = 27.306465 Si / 1000 Ang^3
#
#
#
# Elastic Constant Matrix: (Units=GPa)
#
#
# Indices 1 2 3 4 5 6 
#
# 1 142.3364 14.7813 83.6358 4.3642 -3.8009 -16.9678
# 2 14.7813 57.9605 34.6976 -1.2826 5.0606 -6.5460
# 3 83.6358 34.6976 223.5774 19.8913 16.2578 -7.5799
# 4 4.3642 -1.2826 19.8913 44.8380 6.3614 3.1142
# 5 -3.8009 5.0606 16.2578 6.3614 59.9606 4.6421
# 6 -16.9678 -6.5460 -7.5799 3.1142 4.6421 26.9438
#
#
#
# Elastic Compliance Matrix: (Units=1/GPa)
#
#
# Indices 1 2 3 4 5 6 
#
# 1 0.009740 0.000124 -0.003594 0.000139 0.001185 0.004933
# 2 0.000124 0.019641 -0.003021 0.001800 -0.001333 0.004022
# 3 -0.003594 -0.003021 0.006585 -0.002409 -0.001455 -0.000616
# 4 0.000139 0.001800 -0.002409 0.023847 -0.001819 -0.002596
# 5 0.001185 -0.001333 -0.001455 -0.001819 0.017671 -0.002821
# 6 0.004933 0.004022 -0.000616 -0.002596 -0.002821 0.041811
#
#
# Mechanical properties :
#
#
# Convention : Reuss Voigt Hill
#
# Bulk Modulus (GPa) = 43.50948 76.67819 60.09383
# Shear Modulus (GPa) = 35.72992 45.73245 40.73118
#
# Velocity S-wave (km/s) = 3.62121 4.09685 3.86635
# Velocity P-wave (km/s) = 5.78382 7.10778 6.47970
#
# Compressibility (1/GPa) = 0.02298350
#
# Stress axis : x y z
#
# Youngs Moduli (GPa) = 102.66980 50.91491 151.85143
#
# Poissons Ratio (x) = -0.00633 0.54578
# Poissons Ratio (y) = -0.01277 0.45882
# Poissons Ratio (z) = 0.36901 0.15384
#
# Static dielectric constant tensor:
#      x y z
#    x 2.391510 -0.047470 -0.058240 
#    y -0.047470 2.255250 0.004370 
#    z -0.058240 0.004370 2.235830 
# 
# From -- ./inp_files/456357.got.cif
#   From: 2010.05.17/outbox.cif.g08.bks.cpg/sg2_229_cif.got.tgz:456357.got - 2010.06.03 11:33:40.
