data_PCOD9081376
_publ_section_title
;
Structure prediction by ZEFSAII (Michael W. Deem and Ramdas Pophale) SiO2 
 PCOD9081376
Probable space group: P -1
;
_chemical_formula_sum "Si O2"
_cell_formula_units_Z 16
_cell_length_a 9.630101
_cell_length_b 17.267935
_cell_length_c 8.765218
_cell_angle_alpha 106.882655
_cell_angle_beta 60.494516
_cell_angle_gamma 146.886944
_cell_volume 669.753536
_symmetry_space_group_name_H-M "P -1"
_symmetry_group_IT_number 2
_symmetry_cell_setting 'triclinic'
loop_
_space_group_symop_operation_xyz
x,y,z
-x,-y,-z
loop_
_atom_site_type_symbol
_atom_site_label
_atom_site_fract_x
_atom_site_fract_y
_atom_site_fract_z
Si Si1 0.561952 0.804247 0.544964
Si Si2 0.884207 0.081902 0.681866
Si Si3 0.924162 0.701971 0.804612
Si Si4 0.659096 0.455805 0.972820
Si Si5 0.833584 0.049784 0.037761
Si Si6 0.549161 0.786068 0.194942
Si Si7 0.164272 0.359443 0.541267
Si Si8 0.181790 0.526144 0.794455
O O1 0.471091 0.775515 0.402888
O O2 0.344992 0.658664 0.676939
O O3 0.846901 0.867308 0.426118
O O4 0.642944 0.925792 0.639023
O O5 0.796584 0.062594 0.892017
O O6 0.995794 0.210118 0.612873
O O7 0.921597 0.622699 0.869941
O O8 0.881529 0.659206 0.627544
O O9 0.634196 0.626502 0.973024
O O10 0.160093 0.870324 0.807889
O O11 0.668205 0.371962 0.844202
O O12 0.612101 0.428877 0.163447
O O13 0.137490 0.127968 0.924807
O O14 0.598163 0.885151 0.122365
O O15 0.500000 0.500000 0.500000
O O16 0.057410 0.399211 0.692991
O O17 0.000000 0.500000 0.000000
#
# Coordination Sequence:
#
# PCOD9081376 Si02
#       8
#     2   2   2   2   2   2   2   2
#     4  10  19  35  56  87 118 155 195 242 296 343
#     4  10  19  32  60  88 118 148 195 250 293 343
#     4  10  19  31  56  84 113 140 191 248 288 335
#     4  10  19  33  54  81 111 150 189 239 291 336
#     4   9  17  28  47  84 117 142 177 237 303 338
#     4   9  17  29  50  77 115 148 184 232 289 347
#     4  12  21  36  59  87 115 152 200 246 289 340
#     4  12  25  40  57  85 124 162 196 237 294 359
#
# _framework density 23.889382999999999
#
# number of rings (size 3 to 8) (size 9 to 14) (size 15 to 20)
#    0.000    1.750    2.500    3.000    3.500    4.000 
#    0.000    3.125    0.000    0.000    0.000    5.250 
#    0.000    0.000    0.000    0.000    0.000    0.000 
#
# Total GULP energy -89427.888626 kJ/mol
# GULP energy per Si atom -5589.243039 kJ/mol
# Density = 2.383501 g / cm^3
# Si number density = 23.889383 Si / 1000 Ang^3
#
#
#
# Elastic Constant Matrix: (Units=GPa)
#
#
# Indices 1 2 3 4 5 6 
#
# 1 56.2936 34.5655 24.9603 -3.4552 -7.5059 -21.6197
# 2 34.5655 197.0175 80.0712 12.9823 12.1321 -42.1331
# 3 24.9603 80.0712 118.0229 12.7591 23.7826 -9.5428
# 4 -3.4552 12.9823 12.7591 49.9078 -13.5984 6.9856
# 5 -7.5059 12.1321 23.7826 -13.5984 33.0929 -4.9151
# 6 -21.6197 -42.1331 -9.5428 6.9856 -4.9151 36.7436
#
#
#
# Elastic Compliance Matrix: (Units=1/GPa)
#
#
# Indices 1 2 3 4 5 6 
#
# 1 0.032616 0.001005 -0.011188 0.007992 0.021138 0.018746
# 2 0.001005 0.009669 -0.006080 -0.001880 0.001871 0.010707
# 3 -0.011188 -0.006080 0.018689 -0.007600 -0.018304 -0.009705
# 4 0.007992 -0.001880 -0.007600 0.028623 0.019387 -0.002275
# 5 0.021138 0.001871 -0.018304 0.019387 0.057502 0.013835
# 6 0.018746 0.010707 -0.009705 -0.002275 0.013835 0.050286
#
#
# Mechanical properties :
#
#
# Convention : Reuss Voigt Hill
#
# Bulk Modulus (GPa) = 35.15076 72.28090 53.71583
# Shear Modulus (GPa) = 20.88603 39.39798 30.14201
#
# Velocity S-wave (km/s) = 2.96003 4.06542 3.55594
# Velocity P-wave (km/s) = 5.14085 7.23595 6.27644
#
# Compressibility (1/GPa) = 0.02844889
#
# Stress axis : x y z
#
# Youngs Moduli (GPa) = 30.66002 103.42365 53.50603
#
# Poissons Ratio (x) = -0.10397 0.59860
# Poissons Ratio (y) = -0.03082 0.32534
# Poissons Ratio (z) = 0.34301 0.62886
#
# Static dielectric constant tensor:
#      x y z
#    x 2.192910 0.043880 -0.010940 
#    y 0.043880 1.875960 -0.000590 
#    z -0.010940 -0.000590 1.863550 
# 
# From -- ./inp_files/182372.got.cif
#   From: 2010.05.17/outbox.cif.g08.bks.cpg/sg2_92_cif.got.tgz:182372.got - 2010.06.03 11:33:40.
