data_PCOD9081543
_publ_section_title
;
Structure prediction by ZEFSAII (Michael W. Deem and Ramdas Pophale) SiO2 
 PCOD9081543
Probable space group: P -1
;
_chemical_formula_sum "Si O2"
_cell_formula_units_Z 16
_cell_length_a 8.913298
_cell_length_b 24.111784
_cell_length_c 15.863185
_cell_angle_alpha 25.498719
_cell_angle_beta 141.582005
_cell_angle_gamma 146.440728
_cell_volume 804.243147
_symmetry_space_group_name_H-M "P -1"
_symmetry_group_IT_number 2
_symmetry_cell_setting 'triclinic'
loop_
_space_group_symop_operation_xyz
x,y,z
-x,-y,-z
loop_
_atom_site_type_symbol
_atom_site_label
_atom_site_fract_x
_atom_site_fract_y
_atom_site_fract_z
Si Si1 0.365187 0.010934 0.295111
Si Si2 0.115272 0.906428 0.045983
Si Si3 0.753347 0.220376 0.573784
Si Si4 0.877040 0.717227 0.874630
Si Si5 0.759950 0.113273 0.055188
Si Si6 0.211611 0.164752 0.485622
Si Si7 0.254169 0.590076 0.832863
Si Si8 0.809607 0.232326 0.302518
O O1 0.609484 0.160984 0.232404
O O2 0.403511 0.934391 0.333301
O O3 0.307241 0.891576 0.506084
O O4 0.100082 0.032813 0.135394
O O5 0.056965 0.801179 0.244928
O O6 0.430340 0.035107 0.016659
O O7 0.123362 0.835081 0.057773
O O8 0.532854 0.245269 0.496557
O O9 0.865366 0.342687 0.383348
O O10 0.923486 0.840519 0.657194
O O11 0.583102 0.671465 0.851542
O O12 0.105046 0.766987 0.977960
O O13 0.848702 0.577986 0.001692
O O14 0.848112 0.988917 0.289652
O O15 0.101403 0.247397 0.384784
O O16 0.191158 0.630327 0.841627
#
# Coordination Sequence:
#
# PCOD9081543 Si02
#       8
#     2   2   2   2   2   2   2   2
#     4  10  19  32  51  82 110 136 168 219 267 307
#     4  10  19  33  51  80 107 138 173 216 261 308
#     4   9  20  33  53  77 106 142 177 210 258 311
#     4  10  20  35  57  75 109 140 175 214 262 316
#     4  10  20  32  54  83 107 133 173 221 263 306
#     4  10  20  32  55  83 105 132 171 221 272 305
#     4   9  20  37  52  79 107 142 174 213 260 312
#     4  10  20  31  55  81 111 132 167 223 267 308
#
# _framework density 19.894480999999999
#
# number of rings (size 3 to 8) (size 9 to 14) (size 15 to 20)
#    0.000    2.250    1.250    1.500    8.750    0.500 
#    0.000    0.625    0.000    6.000    0.000    0.000 
#    0.000    0.000    0.000    0.000    0.000    0.000 
#
# Total GULP energy -89246.489631 kJ/mol
# GULP energy per Si atom -5577.905602 kJ/mol
# Density = 1.984920 g / cm^3
# Si number density = 19.894481 Si / 1000 Ang^3
#
#
#
# Elastic Constant Matrix: (Units=GPa)
#
#
# Indices 1 2 3 4 5 6 
#
# 1 74.1580 29.2386 20.8276 -10.4519 23.6414 -15.5272
# 2 29.2386 67.8848 37.5102 10.0751 14.3399 -13.1520
# 3 20.8276 37.5102 70.9531 7.7739 7.3578 -7.0384
# 4 -10.4519 10.0751 7.7739 22.3792 -8.1947 2.9451
# 5 23.6414 14.3399 7.3578 -8.1947 42.2999 -0.7217
# 6 -15.5272 -13.1520 -7.0384 2.9451 -0.7217 18.0023
#
#
#
# Elastic Compliance Matrix: (Units=1/GPa)
#
#
# Indices 1 2 3 4 5 6 
#
# 1 0.023239 -0.005572 -0.002733 0.009461 -0.008569 0.013013
# 2 -0.005572 0.030170 -0.009861 -0.018018 -0.008616 0.015983
# 3 -0.002733 -0.009861 0.020331 -0.003535 0.000632 -0.001009
# 4 0.009461 -0.018018 -0.003535 0.065708 0.013882 -0.016578
# 5 -0.008569 -0.008616 0.000632 0.013882 0.033685 -0.014359
# 6 0.013013 0.015983 -0.001009 -0.016578 -0.014359 0.080191
#
#
# Mechanical properties :
#
#
# Convention : Reuss Voigt Hill
#
# Bulk Modulus (GPa) = 26.73220 43.12764 34.92992
# Shear Modulus (GPa) = 16.54934 24.89756 20.72345
#
# Velocity S-wave (km/s) = 2.88732 3.54146 3.23099
# Velocity P-wave (km/s) = 4.95799 6.20064 5.61380
#
# Compressibility (1/GPa) = 0.03740807
#
# Stress axis : x y z
#
# Youngs Moduli (GPa) = 43.03063 33.14515 49.18587
#
# Poissons Ratio (x) = 0.18468 0.13443
# Poissons Ratio (y) = 0.23977 0.48503
# Poissons Ratio (z) = 0.11760 0.32685
#
# Static dielectric constant tensor:
#      x y z
#    x 1.734770 -0.010980 -0.019940 
#    y -0.010980 1.705410 -0.000290 
#    z -0.019940 -0.000290 1.720710 
# 
# From -- ./inp_files/252275.got.cif
#   From: 2010.05.17/outbox.cif.g08.bks.cpg/sg2_127_cif.got.tgz:252275.got - 2010.06.03 11:33:40.
