data_PCOD9081790
_publ_section_title
;
Structure prediction by ZEFSAII (Michael W. Deem and Ramdas Pophale) SiO2 
 PCOD9081790
Probable space group: P -1
;
_chemical_formula_sum "Si O2"
_cell_formula_units_Z 16
_cell_length_a 8.177724
_cell_length_b 12.209049
_cell_length_c 17.763871
_cell_angle_alpha 25.021238
_cell_angle_beta 70.055858
_cell_angle_gamma 64.023236
_cell_volume 667.058695
_symmetry_space_group_name_H-M "P -1"
_symmetry_group_IT_number 2
_symmetry_cell_setting 'triclinic'
loop_
_space_group_symop_operation_xyz
x,y,z
-x,-y,-z
loop_
_atom_site_type_symbol
_atom_site_label
_atom_site_fract_x
_atom_site_fract_y
_atom_site_fract_z
Si Si1 0.679697 0.030913 0.912731
Si Si2 0.665412 0.289513 0.332079
Si Si3 0.931693 0.275523 0.787641
Si Si4 0.737486 0.605389 0.864996
Si Si5 0.781826 0.974032 0.227723
Si Si6 0.631942 0.967999 0.405804
Si Si7 0.613658 0.828838 0.905155
Si Si8 0.039369 0.562393 0.725648
O O1 0.663104 0.044971 0.816434
O O2 0.734053 0.272356 0.792336
O O3 0.843308 0.749526 0.076323
O O4 0.500000 0.000000 0.000000
O O5 0.739387 0.068819 0.391215
O O6 0.808182 0.288170 0.377174
O O7 0.487135 0.214678 0.432049
O O8 0.621630 0.576450 0.116284
O O9 0.956801 0.511896 0.689967
O O10 0.058476 0.208478 0.735898
O O11 0.000000 0.000000 0.000000
O O12 0.531687 0.758092 0.770005
O O13 0.733789 0.713627 0.883554
O O14 0.880894 0.669436 0.746257
O O15 0.790068 0.277365 0.056416
O O16 0.756106 0.847349 0.390001
O O17 0.593436 0.033845 0.174411
#
# Coordination Sequence:
#
# PCOD9081790 Si02
#       8
#     2   2   2   2   2   2   2   2
#     4  10  20  31  51  81 111 137 177 227 273 316
#     4  10  20  35  51  82 112 146 183 216 268 326
#     4  10  19  34  52  80 112 142 177 226 276 320
#     4  11  19  34  55  84 112 139 178 230 274 319
#     4  11  18  35  56  84 109 142 180 223 275 319
#     4  10  21  35  56  79 114 148 176 220 274 322
#     4  10  19  32  55  84 111 140 180 224 270 320
#     4  10  22  33  54  80 113 145 182 222 273 324
#
# _framework density 23.985896
#
# number of rings (size 3 to 8) (size 9 to 14) (size 15 to 20)
#    0.000    1.750    5.000    2.250    0.000    3.500 
#    0.000    0.625    0.000    0.000    0.000   20.125 
#    0.000    0.000    0.000    0.000    0.000    0.000 
#
# Total GULP energy -89440.500411 kJ/mol
# GULP energy per Si atom -5590.031276 kJ/mol
# Density = 2.393130 g / cm^3
# Si number density = 23.985896 Si / 1000 Ang^3
#
#
#
# Elastic Constant Matrix: (Units=GPa)
#
#
# Indices 1 2 3 4 5 6 
#
# 1 124.1675 75.3135 17.0290 -1.7597 -25.1960 46.4021
# 2 75.3135 192.5554 34.7552 10.8762 -13.9916 23.7573
# 3 17.0290 34.7552 64.2508 4.2833 1.4411 16.1559
# 4 -1.7597 10.8762 4.2833 39.9740 -0.6358 -2.5431
# 5 -25.1960 -13.9916 1.4411 -0.6358 27.2643 -7.9679
# 6 46.4021 23.7573 16.1559 -2.5431 -7.9679 57.7746
#
#
#
# Elastic Compliance Matrix: (Units=1/GPa)
#
#
# Indices 1 2 3 4 5 6 
#
# 1 0.016709 -0.004698 0.000332 0.001494 0.010090 -0.010124
# 2 -0.004698 0.007511 -0.003067 -0.001827 0.000062 0.001470
# 3 0.000332 -0.003067 0.018512 -0.001495 -0.003670 -0.004754
# 4 0.001494 -0.001827 -0.001495 0.025847 0.001510 0.001315
# 5 0.010090 0.000062 -0.003670 0.001510 0.046064 -0.000684
# 6 -0.010124 0.001470 -0.004754 0.001315 -0.000684 0.026129
#
#
# Mechanical properties :
#
#
# Convention : Reuss Voigt Hill
#
# Bulk Modulus (GPa) = 35.88365 70.57433 53.22899
# Shear Modulus (GPa) = 30.31672 41.92765 36.12218
#
# Velocity S-wave (km/s) = 3.55905 4.18546 3.88490
# Velocity P-wave (km/s) = 5.64641 7.26943 6.50870
#
# Compressibility (1/GPa) = 0.02786785
#
# Stress axis : x y z
#
# Youngs Moduli (GPa) = 59.84624 133.14587 54.01772
#
# Poissons Ratio (x) = 0.62547 -0.01795
# Poissons Ratio (y) = 0.28114 0.16567
# Poissons Ratio (z) = -0.01988 0.40835
#
# Static dielectric constant tensor:
#      x y z
#    x 1.989950 0.015200 0.018340 
#    y 0.015200 1.917310 -0.018830 
#    z 0.018340 -0.018830 1.976810 
# 
# From -- ./inp_files/558815.got.cif
#   From: 2010.05.17/outbox.cif.g08.bks.cpg/sg2_280_cif.got.tgz:558815.got - 2010.06.03 11:33:40.
