data_PCOD9081960
_publ_section_title
;
Structure prediction by ZEFSAII (Michael W. Deem and Ramdas Pophale) SiO2 
 PCOD9081960
Probable space group: P -1
;
_chemical_formula_sum "Si O2"
_cell_formula_units_Z 16
_cell_length_a 12.018472
_cell_length_b 11.965501
_cell_length_c 8.867077
_cell_angle_alpha 48.664716
_cell_angle_beta 41.728644
_cell_angle_gamma 65.832305
_cell_volume 628.327646
_symmetry_space_group_name_H-M "P -1"
_symmetry_group_IT_number 2
_symmetry_cell_setting 'triclinic'
loop_
_space_group_symop_operation_xyz
x,y,z
-x,-y,-z
loop_
_atom_site_type_symbol
_atom_site_label
_atom_site_fract_x
_atom_site_fract_y
_atom_site_fract_z
Si Si1 0.167057 0.058148 0.883471
Si Si2 0.708845 0.609071 0.418304
Si Si3 0.863417 0.593041 0.976060
Si Si4 0.142440 0.862437 0.375392
Si Si5 0.937347 0.428493 0.784766
Si Si6 0.556238 0.292547 0.944733
Si Si7 0.629520 0.998114 0.733614
Si Si8 0.346412 0.835073 0.737256
O O1 0.253626 0.230373 0.677370
O O2 0.315545 0.984690 0.721105
O O3 0.128730 0.982299 0.152673
O O4 0.000000 0.000000 0.000000
O O5 0.569532 0.469105 0.737533
O O6 0.885632 0.557623 0.324683
O O7 0.717294 0.616516 0.220820
O O8 0.814658 0.506168 0.946528
O O9 0.971063 0.750206 0.677394
O O10 0.000000 0.500000 0.000000
O O11 0.285068 0.767189 0.249373
O O12 0.198153 0.936990 0.413557
O O13 0.000000 0.500000 0.500000
O O14 0.842006 0.260158 0.012339
O O15 0.397366 0.170408 0.156944
O O16 0.577419 0.265715 0.125891
O O17 0.591232 0.113001 0.538884
O O18 0.500000 0.000000 0.000000
#
# Coordination Sequence:
#
# PCOD9081960 Si02
#       8
#     2   2   2   2   2   2   2   2
#     4  11  24  38  58  88 128 159 191 235 307 377
#     4  11  21  36  54  90 118 158 193 241 295 369
#     4  10  19  32  58  87 121 149 193 249 305 340
#     4  10  20  38  57  87 120 155 194 251 289 351
#     4  11  18  32  59  90 122 146 191 251 307 344
#     4  10  20  37  62  85 115 150 207 249 287 340
#     4  10  22  38  63  88 113 155 209 253 289 338
#     4  11  21  38  62  91 121 155 193 250 300 351
#
# _framework density 25.464418999999999
#
# number of rings (size 3 to 8) (size 9 to 14) (size 15 to 20)
#    0.000    1.500    5.000    2.625    1.750    0.500 
#    0.000    1.250    0.000    0.000    0.000    0.000 
#    0.000    0.000    0.000    0.000    0.000    0.000 
#
# Total GULP energy -89399.878335 kJ/mol
# GULP energy per Si atom -5587.492396 kJ/mol
# Density = 2.540646 g / cm^3
# Si number density = 25.464419 Si / 1000 Ang^3
#
#
#
# Elastic Constant Matrix: (Units=GPa)
#
#
# Indices 1 2 3 4 5 6 
#
# 1 94.0872 40.2338 38.2363 0.5817 10.8726 26.1747
# 2 40.2338 132.3295 67.9519 -13.3174 4.8712 30.3766
# 3 38.2363 67.9519 176.8563 -12.6876 30.2332 17.3596
# 4 0.5817 -13.3174 -12.6876 54.4585 14.7235 -6.7041
# 5 10.8726 4.8712 30.2332 14.7235 27.1975 11.7946
# 6 26.1747 30.3766 17.3596 -6.7041 11.7946 35.1701
#
#
#
# Elastic Compliance Matrix: (Units=1/GPa)
#
#
# Indices 1 2 3 4 5 6 
#
# 1 0.014689 -0.001266 -0.002475 -0.003219 0.003336 -0.010349
# 2 -0.001266 0.012725 -0.005472 -0.002387 0.010516 -0.011329
# 3 -0.002475 -0.005472 0.011011 0.007100 -0.017779 0.008449
# 4 -0.003219 -0.002387 0.007100 0.029359 -0.029152 0.016326
# 5 0.003336 0.010516 -0.017779 -0.029152 0.085091 -0.036883
# 6 -0.010349 -0.011329 0.008449 0.016326 -0.036883 0.057231
#
#
# Mechanical properties :
#
#
# Convention : Reuss Voigt Hill
#
# Bulk Modulus (GPa) = 50.00321 77.34634 63.67477
# Shear Modulus (GPa) = 21.25857 40.48861 30.87359
#
# Velocity S-wave (km/s) = 2.89248 3.99182 3.48576
# Velocity P-wave (km/s) = 5.55287 7.18932 6.42342
#
# Compressibility (1/GPa) = 0.01999872
#
# Stress axis : x y z
#
# Youngs Moduli (GPa) = 68.07726 78.58379 90.81626
#
# Poissons Ratio (x) = 0.09952 0.22474
# Poissons Ratio (y) = 0.08622 0.49698
# Poissons Ratio (z) = 0.16847 0.43004
#
# Static dielectric constant tensor:
#      x y z
#    x 2.204060 0.045750 0.001110 
#    y 0.045750 2.227760 0.065180 
#    z 0.001110 0.065180 2.025860 
# 
# From -- ./inp_files/223829.got.cif
#   From: 2010.05.17/outbox.cif.g08.bks.cpg/sg2_112_cif.got.tgz:223829.got - 2010.06.03 11:33:40.
