data_PCOD9081402
_publ_section_title
;
Structure prediction by ZEFSAII (Michael W. Deem and Ramdas Pophale) SiO2 
 PCOD9081402
Probable space group: P -1
;
_chemical_formula_sum "Si O2"
_cell_formula_units_Z 16
_cell_length_a 18.090901
_cell_length_b 8.674204
_cell_length_c 11.623601
_cell_angle_alpha 120.270753
_cell_angle_beta 52.107820
_cell_angle_gamma 148.845988
_cell_volume 743.656595
_symmetry_space_group_name_H-M "P -1"
_symmetry_group_IT_number 2
_symmetry_cell_setting 'triclinic'
loop_
_space_group_symop_operation_xyz
x,y,z
-x,-y,-z
loop_
_atom_site_type_symbol
_atom_site_label
_atom_site_fract_x
_atom_site_fract_y
_atom_site_fract_z
Si Si1 0.485795 0.268335 0.427542
Si Si2 0.663101 0.404862 0.502437
Si Si3 0.883272 0.633405 0.846636
Si Si4 0.145782 0.759244 0.124116
Si Si5 0.168609 0.607307 0.830195
Si Si6 0.904880 0.034368 0.572182
Si Si7 0.223010 0.606952 0.388309
Si Si8 0.181206 0.284701 0.833741
O O1 0.500000 0.500000 0.500000
O O2 0.505530 0.223926 0.522332
O O3 0.640204 0.442327 0.275574
O O4 0.327972 0.943793 0.406038
O O5 0.727536 0.337442 0.341039
O O6 0.684231 0.378667 0.604325
O O7 0.772588 0.748192 0.510574
O O8 0.842579 0.382414 0.849047
O O9 0.803478 0.523593 0.758362
O O10 0.826556 0.694836 0.015100
O O11 0.070722 0.951262 0.780112
O O12 0.171565 0.981156 0.252659
O O13 0.968535 0.505825 0.150528
O O14 0.238147 0.844682 0.951156
O O15 0.104608 0.342386 0.867690
O O16 0.045516 0.369652 0.513950
O O17 0.000000 0.000000 0.500000
#
# Coordination Sequence:
#
# PCOD9081402 Si02
#       8
#     2   2   2   2   2   2   2   2
#     4  11  25  39  59  84 119 160 196 244 293 355
#     4  10  21  41  61  82 119 158 198 242 299 352
#     4  10  22  37  63  91 116 149 200 250 290 343
#     4  10  19  31  57  90 115 145 194 246 288 343
#     4   9  17  35  57  83 114 155 187 237 295 345
#     4  10  20  35  59  90 116 150 196 252 292 342
#     4  11  22  37  58  87 115 159 194 234 299 355
#     4   9  21  42  60  85 120 158 191 242 302 349
#
# _framework density 21.515307
#
# number of rings (size 3 to 8) (size 9 to 14) (size 15 to 20)
#    0.000    2.000    2.500    1.875    5.250    1.000 
#    0.000    0.000    0.000    0.750    0.000    0.000 
#    0.000    0.000    0.000    0.000    0.000    0.000 
#
# Total GULP energy -89166.855107 kJ/mol
# GULP energy per Si atom -5572.928444 kJ/mol
# Density = 2.146634 g / cm^3
# Si number density = 21.515307 Si / 1000 Ang^3
#
#
#
# Elastic Constant Matrix: (Units=GPa)
#
#
# Indices 1 2 3 4 5 6 
#
# 1 57.1691 2.1902 47.1082 6.7146 16.1246 -2.6314
# 2 2.1902 124.4144 50.0859 14.3695 3.1519 15.9104
# 3 47.1082 50.0859 136.1557 24.0792 25.6666 -4.9738
# 4 6.7146 14.3695 24.0792 25.8364 -4.3899 5.6637
# 5 16.1246 3.1519 25.6666 -4.3899 34.9354 5.7006
# 6 -2.6314 15.9104 -4.9738 5.6637 5.7006 18.9416
#
#
#
# Elastic Compliance Matrix: (Units=1/GPa)
#
#
# Indices 1 2 3 4 5 6 
#
# 1 0.026823 0.003353 -0.008899 -0.001904 -0.006567 0.001119
# 2 0.003353 0.012725 -0.008493 0.004578 0.006704 -0.015839
# 3 -0.008899 -0.008493 0.021247 -0.020658 -0.017051 0.022785
# 4 -0.001904 0.004578 -0.020658 0.069866 0.030904 -0.039726
# 5 -0.006567 0.006704 -0.017051 0.030904 0.053389 -0.036329
# 6 0.001119 -0.015839 0.022785 -0.039726 -0.036329 0.095048
#
#
# Mechanical properties :
#
#
# Convention : Reuss Voigt Hill
#
# Bulk Modulus (GPa) = 30.56319 57.38976 43.97647
# Shear Modulus (GPa) = 15.71925 30.49969 23.10947
#
# Velocity S-wave (km/s) = 2.70591 3.76916 3.28089
# Velocity P-wave (km/s) = 4.89885 6.75825 5.90223
#
# Compressibility (1/GPa) = 0.03271910
#
# Stress axis : x y z
#
# Youngs Moduli (GPa) = 37.28083 78.58797 47.06443
#
# Poissons Ratio (x) = -0.26353 0.41881
# Poissons Ratio (y) = -0.12502 0.39971
# Poissons Ratio (z) = 0.33175 0.66744
#
# Static dielectric constant tensor:
#      x y z
#    x 1.808780 -0.016930 -0.011370 
#    y -0.016930 1.875180 -0.026540 
#    z -0.011370 -0.026540 1.868950 
# 
# From -- ./inp_files/469519.got.cif
#   From: 2010.05.17/outbox.cif.g08.bks.cpg/sg2_235_cif.got.tgz:469519.got - 2010.06.03 11:33:40.
