data_PCOD9081304
_publ_section_title
;
Structure prediction by ZEFSAII (Michael W. Deem and Ramdas Pophale) SiO2 
 PCOD9081304
Probable space group: P -1
;
_chemical_formula_sum "Si O2"
_cell_formula_units_Z 16
_cell_length_a 14.540141
_cell_length_b 7.762965
_cell_length_c 11.756248
_cell_angle_alpha 147.464112
_cell_angle_beta 108.272189
_cell_angle_gamma 88.005400
_cell_volume 605.407795
_symmetry_space_group_name_H-M "P -1"
_symmetry_group_IT_number 2
_symmetry_cell_setting 'triclinic'
loop_
_space_group_symop_operation_xyz
x,y,z
-x,-y,-z
loop_
_atom_site_type_symbol
_atom_site_label
_atom_site_fract_x
_atom_site_fract_y
_atom_site_fract_z
Si Si1 0.671955 0.964557 0.764611
Si Si2 0.391499 0.853958 0.532920
Si Si3 0.049057 0.144470 0.891006
Si Si4 0.167071 0.279651 0.225302
Si Si5 0.921032 0.060696 0.592957
Si Si6 0.499280 0.207835 0.226305
Si Si7 0.586605 0.442682 0.862875
Si Si8 0.799392 0.998827 0.301997
O O1 0.786344 0.951207 0.814051
O O2 0.591199 0.611039 0.468343
O O3 0.623412 0.908481 0.843109
O O4 0.653909 0.268631 0.861486
O O5 0.267665 0.585123 0.361935
O O6 0.456490 0.856163 0.671793
O O7 0.414969 0.668587 0.329468
O O8 0.460601 0.275408 0.758704
O O9 0.079119 0.035114 0.963093
O O10 0.053344 0.527495 0.141503
O O11 0.142998 0.164311 0.851957
O O12 0.942159 0.935367 0.654796
O O13 0.141760 0.567534 0.445105
O O14 0.813380 0.905742 0.387758
O O15 0.000000 0.000000 0.500000
O O16 0.500000 0.000000 0.000000
O O17 0.673193 0.853159 0.139911
#
# Coordination Sequence:
#
# PCOD9081304 Si02
#       8
#     2   2   2   2   2   2   2   2
#     4   9  20  36  51  75 107 140 186 226 273 320
#     4   9  19  35  51  74 106 150 184 222 270 317
#     4   9  16  31  53  79 109 135 170 228 267 315
#     4  10  19  33  52  79 105 144 187 219 265 320
#     4   8  16  30  52  83 106 131 173 221 271 321
#     4   9  18  37  54  71  98 146 193 231 268 320
#     4  10  19  37  53  74 114 148 179 232 273 314
#     4  10  19  31  54  79 107 140 179 222 269 323
#
# _framework density 26.428467000000001
#
# number of rings (size 3 to 8) (size 9 to 14) (size 15 to 20)
#    0.000    2.750    1.250    0.750    0.000    2.500 
#   18.000    0.000    0.000    0.750    0.000   29.750 
#    0.000    0.000    0.000    0.000    0.000    0.000 
#
# Total GULP energy -89132.902015 kJ/mol
# GULP energy per Si atom -5570.806376 kJ/mol
# Density = 2.636832 g / cm^3
# Si number density = 26.428467 Si / 1000 Ang^3
#
#
#
# Elastic Constant Matrix: (Units=GPa)
#
#
# Indices 1 2 3 4 5 6 
#
# 1 90.0279 32.9604 33.9705 -5.5117 -3.5857 3.7940
# 2 32.9604 107.8490 34.7003 -29.7335 3.8368 -20.7006
# 3 33.9705 34.7003 156.7484 -38.7739 -4.0207 -2.5517
# 4 -5.5117 -29.7335 -38.7739 36.5440 -10.6392 5.5475
# 5 -3.5857 3.8368 -4.0207 -10.6392 41.6830 3.3157
# 6 3.7940 -20.7006 -2.5517 5.5475 3.3157 41.8383
#
#
#
# Elastic Compliance Matrix: (Units=1/GPa)
#
#
# Indices 1 2 3 4 5 6 
#
# 1 0.014108 -0.005336 -0.003127 -0.004874 0.000437 -0.003499
# 2 -0.005336 0.015014 0.000791 0.011472 0.000655 0.006388
# 3 -0.003127 0.000791 0.009893 0.011827 0.003677 -0.000581
# 4 -0.004874 0.011472 0.011827 0.052522 0.013164 -0.001168
# 5 0.000437 0.000655 0.003677 0.013164 0.027957 -0.003452
# 6 -0.003499 0.006388 -0.000581 -0.001168 -0.003452 0.027772
#
#
# Mechanical properties :
#
#
# Convention : Reuss Voigt Hill
#
# Bulk Modulus (GPa) = 42.24806 61.98754 52.11780
# Shear Modulus (GPa) = 29.32538 40.87933 35.10236
#
# Velocity S-wave (km/s) = 3.33470 3.93719 3.64840
# Velocity P-wave (km/s) = 5.55405 6.64638 6.12462
#
# Compressibility (1/GPa) = 0.02366973
#
# Stress axis : x y z
#
# Youngs Moduli (GPa) = 70.88234 66.60512 101.08333
#
# Poissons Ratio (x) = 0.35541 0.31614
# Poissons Ratio (y) = 0.37824 -0.07997
# Poissons Ratio (z) = 0.22168 -0.05270
#
# Static dielectric constant tensor:
#      x y z
#    x 2.206240 -0.066330 -0.042290 
#    y -0.066330 2.199930 0.107300 
#    z -0.042290 0.107300 2.106920 
# 
# From -- ./inp_files/93061.got.cif
#   From: 2010.05.17/outbox.cif.g08.bks.cpg/sg2_47_cif.got.tgz:93061.got - 2010.06.03 11:33:40.
