data_PCOD9081472
_publ_section_title
;
Structure prediction by ZEFSAII (Michael W. Deem and Ramdas Pophale) SiO2 
 PCOD9081472
Probable space group: P -1
;
_chemical_formula_sum "Si O2"
_cell_formula_units_Z 14
_cell_length_a 11.375278
_cell_length_b 5.411928
_cell_length_c 25.005122
_cell_angle_alpha 114.130682
_cell_angle_beta 23.687933
_cell_angle_gamma 106.059371
_cell_volume 543.981839
_symmetry_space_group_name_H-M "P -1"
_symmetry_group_IT_number 2
_symmetry_cell_setting 'triclinic'
loop_
_space_group_symop_operation_xyz
x,y,z
-x,-y,-z
loop_
_atom_site_type_symbol
_atom_site_label
_atom_site_fract_x
_atom_site_fract_y
_atom_site_fract_z
Si Si1 0.135315 0.448674 0.380808
Si Si2 0.552398 0.480955 0.891210
Si Si3 0.786773 0.301435 0.060129
Si Si4 0.035616 0.865383 0.184155
Si Si5 0.797758 0.139434 0.419182
Si Si6 0.935519 0.762981 0.895844
Si Si7 0.196950 0.308507 0.556179
O O1 0.496742 0.371708 0.225843
O O2 0.960967 0.706836 0.436891
O O3 0.000000 0.500000 0.500000
O O4 0.041024 0.199069 0.365895
O O5 0.381571 0.596707 0.917370
O O6 0.904643 0.423287 0.726955
O O7 0.402861 0.725577 0.016436
O O8 0.417892 0.227261 0.943739
O O9 0.000000 0.500000 0.000000
O O10 0.979784 0.978351 0.942728
O O11 0.931473 0.576935 0.189077
O O12 0.942650 0.985927 0.291905
O O13 0.978691 0.097864 0.181591
O O14 0.622789 0.965644 0.512550
O O15 0.627311 0.455253 0.502381
#
# Coordination Sequence:
#
# PCOD9081472 Si02
#       7
#     2   2   2   2   2   2   2
#     4   9  21  37  53  78 112 144 183 227 267 320
#     4   8  18  30  45  73 106 133 172 217 270 311
#     4  10  19  36  56  79 108 146 184 225 268 321
#     4   9  18  29  49  73 112 143 170 213 279 333
#     4  10  19  32  49  77 107 144 175 216 275 328
#     4   9  18  33  48  79 110 140 173 222 272 326
#     4   9  19  29  48  71 105 137 178 212 271 316
#
# _framework density 25.736153999999999
#
# number of rings (size 3 to 8) (size 9 to 14) (size 15 to 20)
#    1.714    1.143    0.000    1.714    2.000    2.286 
#    0.000    0.000    0.000    0.000    0.000    5.000 
#    0.000    0.143    0.000    0.000    0.000    0.000 
#
# Total GULP energy -78069.122306 kJ/mol
# GULP energy per Si atom -5576.365879 kJ/mol
# Density = 2.567758 g / cm^3
# Si number density = 25.736154 Si / 1000 Ang^3
#
#
#
# Elastic Constant Matrix: (Units=GPa)
#
#
# Indices 1 2 3 4 5 6 
#
# 1 76.3966 44.0685 78.2526 5.2780 12.2747 -2.0788
# 2 44.0685 200.1104 73.8309 -19.1903 17.7272 -8.4024
# 3 78.2526 73.8309 141.0682 8.8586 28.2214 1.2524
# 4 5.2780 -19.1903 8.8586 36.5221 -4.9408 11.9553
# 5 12.2747 17.7272 28.2214 -4.9408 37.0619 -9.9611
# 6 -2.0788 -8.4024 1.2524 11.9553 -9.9611 53.3659
#
#
#
# Elastic Compliance Matrix: (Units=1/GPa)
#
#
# Indices 1 2 3 4 5 6 
#
# 1 0.031002 -0.000653 -0.017631 -0.000805 0.004021 0.002449
# 2 -0.000653 0.006884 -0.003592 0.004567 0.000316 0.000179
# 3 -0.017631 -0.003592 0.021041 -0.004961 -0.009787 -0.002462
# 4 -0.000805 0.004567 -0.004961 0.033659 0.004776 -0.005845
# 5 0.004021 0.000316 -0.009787 0.004776 0.035183 0.005933
# 6 0.002449 0.000179 -0.002462 -0.005845 0.005933 0.021337
#
#
# Mechanical properties :
#
#
# Convention : Reuss Voigt Hill
#
# Bulk Modulus (GPa) = 65.90350 89.98658 77.94504
# Shear Modulus (GPa) = 25.26329 40.15153 32.70741
#
# Velocity S-wave (km/s) = 3.13649 3.95412 3.56880
# Velocity P-wave (km/s) = 6.22734 7.47581 6.87995
#
# Compressibility (1/GPa) = 0.01517370
#
# Stress axis : x y z
#
# Youngs Moduli (GPa) = 32.25617 145.26753 47.52735
#
# Poissons Ratio (x) = 0.09482 0.83797
# Poissons Ratio (y) = 0.02105 0.17073
# Poissons Ratio (z) = 0.56872 0.52184
#
# Static dielectric constant tensor:
#      x y z
#    x 2.034610 -0.062470 -0.009710 
#    y -0.062470 2.170280 0.005640 
#    z -0.009710 0.005640 2.035790 
# 
# From -- ./inp_files/609005.got.cif
#   From: 2010.05.17/outbox.cif.g08.bks.cpg/sg2_305_cif.got.tgz:609005.got - 2010.06.03 11:33:40.
