data_PCOD9081839
_publ_section_title
;
Structure prediction by ZEFSAII (Michael W. Deem and Ramdas Pophale) SiO2 
 PCOD9081839
Probable space group: P -1
;
_chemical_formula_sum "Si O2"
_cell_formula_units_Z 14
_cell_length_a 8.076630
_cell_length_b 9.343527
_cell_length_c 11.793424
_cell_angle_alpha 124.562896
_cell_angle_beta 97.022325
_cell_angle_gamma 112.688465
_cell_volume 604.222727
_symmetry_space_group_name_H-M "P -1"
_symmetry_group_IT_number 2
_symmetry_cell_setting 'triclinic'
loop_
_space_group_symop_operation_xyz
x,y,z
-x,-y,-z
loop_
_atom_site_type_symbol
_atom_site_label
_atom_site_fract_x
_atom_site_fract_y
_atom_site_fract_z
Si Si1 0.505564 0.876223 0.784528
Si Si2 0.496575 0.412329 0.740750
Si Si3 0.461375 0.929682 0.336152
Si Si4 0.968455 0.236794 0.711351
Si Si5 0.704172 0.643211 0.654133
Si Si6 0.929826 0.819806 0.538177
Si Si7 0.653939 0.327334 0.095123
O O1 0.679707 0.831680 0.773004
O O2 0.343546 0.712960 0.787247
O O3 0.430920 0.877430 0.653662
O O4 0.584094 0.108749 0.936340
O O5 0.498401 0.250567 0.750772
O O6 0.675687 0.516747 0.709679
O O7 0.288156 0.285554 0.592473
O O8 0.496902 0.596184 0.887490
O O9 0.223856 0.824523 0.260374
O O10 0.500000 0.000000 0.500000
O O11 0.941672 0.206638 0.557599
O O12 0.142301 0.477343 0.848501
O O13 0.015882 0.064143 0.669201
O O14 0.500000 0.500000 0.500000
O O15 0.882141 0.717971 0.612938
#
# Coordination Sequence:
#
# PCOD9081839 Si02
#       7
#     2   2   2   2   2   2   2
#     4  10  20  37  59  79 108 143 190 221 261 329
#     4   9  18  32  55  77 111 140 179 219 275 323
#     4  12  21  34  54  86 115 140 171 231 283 320
#     4  10  19  32  56  80 111 137 185 229 264 313
#     4   9  15  31  54  79 100 143 180 217 260 319
#     4   9  16  32  53  79 106 142 183 226 256 315
#     4   9  21  39  58  78 102 152 191 219 256 322
#
# _framework density 23.170262000000001
#
# number of rings (size 3 to 8) (size 9 to 14) (size 15 to 20)
#    0.000    2.286    2.857    1.714    0.000    1.143 
#    0.000    2.857    0.000    7.714    0.000    0.000 
#    0.000    0.000    0.000    0.000    0.000    0.000 
#
# Total GULP energy -78090.022434 kJ/mol
# GULP energy per Si atom -5577.858745 kJ/mol
# Density = 2.311753 g / cm^3
# Si number density = 23.170262 Si / 1000 Ang^3
#
#
#
# Elastic Constant Matrix: (Units=GPa)
#
#
# Indices 1 2 3 4 5 6 
#
# 1 41.5398 10.0555 3.3357 -0.0277 -15.8769 4.0758
# 2 10.0555 93.1196 2.7897 3.8782 -1.3816 7.4560
# 3 3.3357 2.7897 37.2348 19.8866 -18.4012 -5.1586
# 4 -0.0277 3.8782 19.8866 46.0189 -4.1141 -11.1308
# 5 -15.8769 -1.3816 -18.4012 -4.1141 20.5917 6.1141
# 6 4.0758 7.4560 -5.1586 -11.1308 6.1141 36.2002
#
#
#
# Elastic Compliance Matrix: (Units=1/GPa)
#
#
# Indices 1 2 3 4 5 6 
#
# 1 0.053408 -0.003843 0.039068 -0.013665 0.078168 -0.017058
# 2 -0.003843 0.011342 -0.002221 -0.000778 -0.003803 -0.001817
# 3 0.039068 -0.002221 0.097505 -0.036609 0.115996 -0.020894
# 4 -0.013665 -0.000778 -0.036609 0.037602 -0.040194 0.014832
# 5 0.078168 -0.003803 0.115996 -0.040194 0.216189 -0.040360
# 6 -0.017058 -0.001817 -0.020894 0.014832 -0.040360 0.038319
#
#
# Mechanical properties :
#
#
# Convention : Reuss Voigt Hill
#
# Bulk Modulus (GPa) = 4.38092 22.69512 13.53802
# Shear Modulus (GPa) = 10.76560 30.94304 20.85432
#
# Velocity S-wave (km/s) = 2.15787 3.65836 3.00333
# Velocity P-wave (km/s) = 2.84664 5.25938 4.22874
#
# Compressibility (1/GPa) = 0.22826253
#
# Stress axis : x y z
#
# Youngs Moduli (GPa) = 18.72394 88.16922 10.25591
#
# Poissons Ratio (x) = 0.33883 -0.40068
# Poissons Ratio (y) = 0.07196 0.02278
# Poissons Ratio (z) = -0.73151 0.19584
#
# Static dielectric constant tensor:
#      x y z
#    x 1.929490 0.002180 -0.030540 
#    y 0.002180 1.891840 -0.017200 
#    z -0.030540 -0.017200 1.944760 
# 
# From -- ./inp_files/195343.got.cif
#   From: 2010.05.17/outbox.cif.g08.bks.cpg/sg2_98_cif.got.tgz:195343.got - 2010.06.03 11:33:40.
