data_PCOD9081102
_publ_section_title
;
Structure prediction by ZEFSAII (Michael W. Deem and Ramdas Pophale) SiO2 
 PCOD9081102
Probable space group: P -1
;
_chemical_formula_sum "Si O2"
_cell_formula_units_Z 16
_cell_length_a 16.552333
_cell_length_b 12.458467
_cell_length_c 9.157201
_cell_angle_alpha 73.452641
_cell_angle_beta 50.468001
_cell_angle_gamma 36.285632
_cell_volume 746.410992
_symmetry_space_group_name_H-M "P -1"
_symmetry_group_IT_number 2
_symmetry_cell_setting 'triclinic'
loop_
_space_group_symop_operation_xyz
x,y,z
-x,-y,-z
loop_
_atom_site_type_symbol
_atom_site_label
_atom_site_fract_x
_atom_site_fract_y
_atom_site_fract_z
Si Si1 0.037831 0.419841 0.179756
Si Si2 0.418043 0.249252 0.064006
Si Si3 0.711771 0.854106 0.264721
Si Si4 0.376220 0.828512 0.875098
Si Si5 0.811984 0.399796 0.451996
Si Si6 0.022938 0.996737 0.298265
Si Si7 0.738244 0.833669 0.681028
Si Si8 0.945276 0.278481 0.687362
O O1 0.130674 0.319820 0.269523
O O2 0.884940 0.657935 0.247853
O O3 0.914314 0.421265 0.273760
O O4 0.218726 0.264923 0.920937
O O5 0.568310 0.175812 0.025712
O O6 0.323592 0.233677 0.276660
O O7 0.249265 0.486709 0.114629
O O8 0.543079 0.074850 0.863917
O O9 0.500000 0.000000 0.500000
O O10 0.707736 0.990241 0.187475
O O11 0.579642 0.613729 0.648328
O O12 0.231755 0.857092 0.061405
O O13 0.889568 0.324760 0.559969
O O14 0.878567 0.231904 0.349663
O O15 0.998518 0.901164 0.280661
O O16 0.000000 0.000000 0.500000
O O17 0.873133 0.804058 0.462483
#
# Coordination Sequence:
#
# PCOD9081102 Si02
#       8
#     2   2   2   2   2   2   2   2
#     4  10  19  32  49  72 103 132 166 205 250 302
#     4  10  19  31  50  71 104 135 162 204 247 295
#     4  11  20  31  51  72 104 133 163 210 254 299
#     4  11  19  32  49  77 106 130 167 203 251 304
#     4   9  17  29  47  67  99 133 158 202 246 292
#     4  10  19  31  47  69 104 139 164 203 248 297
#     4  10  19  33  50  72 103 135 164 204 244 299
#     4   9  19  30  46  70  99 135 168 194 245 299
#
# _framework density 21.435911999999998
#
# number of rings (size 3 to 8) (size 9 to 14) (size 15 to 20)
#    0.000    2.000    3.750    1.875    0.000    5.500 
#    0.000    0.000    0.000    0.000    0.000    0.875 
#    0.000    8.500    0.000    0.000    0.000    0.000 
#
# Total GULP energy -89287.040620 kJ/mol
# GULP energy per Si atom -5580.440039 kJ/mol
# Density = 2.138712 g / cm^3
# Si number density = 21.435912 Si / 1000 Ang^3
#
#
#
# Elastic Constant Matrix: (Units=GPa)
#
#
# Indices 1 2 3 4 5 6 
#
# 1 47.7914 28.3450 22.1130 -0.9104 -8.5680 23.7999
# 2 28.3450 78.9260 30.4886 12.3548 -6.3888 25.5889
# 3 22.1130 30.4886 117.2222 6.6797 -14.9160 4.7211
# 4 -0.9104 12.3548 6.6797 37.0746 9.0053 1.7865
# 5 -8.5680 -6.3888 -14.9160 9.0053 18.6383 -2.2443
# 6 23.7999 25.5889 4.7211 1.7865 -2.2443 21.9557
#
#
#
# Elastic Compliance Matrix: (Units=1/GPa)
#
#
# Indices 1 2 3 4 5 6 
#
# 1 0.054702 0.003745 -0.007306 0.001278 0.012632 -0.060904
# 2 0.003745 0.024727 -0.004680 -0.007365 0.006323 -0.030627
# 3 -0.007306 -0.004680 0.011765 -0.003103 0.007379 0.011851
# 4 0.001278 -0.007365 -0.003103 0.034973 -0.020971 0.002876
# 5 0.012632 0.006323 0.007379 -0.020971 0.076079 -0.013166
# 6 -0.060904 -0.030627 0.011851 0.002876 -0.013166 0.143133
#
#
# Mechanical properties :
#
#
# Convention : Reuss Voigt Hill
#
# Bulk Modulus (GPa) = 13.38464 45.09254 29.23859
# Shear Modulus (GPa) = 12.92775 26.39991 19.66383
#
# Velocity S-wave (km/s) = 2.45845 3.51319 3.03203
# Velocity P-wave (km/s) = 3.78368 6.12685 5.09188
#
# Compressibility (1/GPa) = 0.07471250
#
# Stress axis : x y z
#
# Youngs Moduli (GPa) = 18.28081 40.44089 85.00037
#
# Poissons Ratio (x) = -0.15145 0.62099
# Poissons Ratio (y) = -0.06846 0.39782
# Poissons Ratio (z) = 0.13355 0.18927
#
# Static dielectric constant tensor:
#      x y z
#    x 1.789840 0.002590 0.037130 
#    y 0.002590 1.820970 -0.013070 
#    z 0.037130 -0.013070 1.839010 
# 
# From -- ./inp_files/424966.got.cif
#   From: 2010.05.17/outbox.cif.g08.bks.cpg/sg2_213_cif.got.tgz:424966.got - 2010.06.03 11:33:40.
