data_PCOD9081644
_publ_section_title
;
Structure prediction by ZEFSAII (Michael W. Deem and Ramdas Pophale) SiO2 
 PCOD9081644
Probable space group: P -1
;
_chemical_formula_sum "Si O2"
_cell_formula_units_Z 10
_cell_length_a 13.592274
_cell_length_b 8.584167
_cell_length_c 7.136845
_cell_angle_alpha 124.646275
_cell_angle_beta 135.431419
_cell_angle_gamma 44.581040
_cell_volume 407.011837
_symmetry_space_group_name_H-M "P -1"
_symmetry_group_IT_number 2
_symmetry_cell_setting 'triclinic'
loop_
_space_group_symop_operation_xyz
x,y,z
-x,-y,-z
loop_
_atom_site_type_symbol
_atom_site_label
_atom_site_fract_x
_atom_site_fract_y
_atom_site_fract_z
Si Si1 0.296808 0.977135 0.127183
Si Si2 0.419782 0.351225 0.261707
Si Si3 0.057927 0.845041 0.659994
Si Si4 0.727962 0.881357 0.251407
Si Si5 0.326830 0.368024 0.548096
O O1 0.477379 0.749590 0.228001
O O2 0.293045 0.168980 0.376941
O O3 0.152309 0.939778 0.967389
O O4 0.281335 0.050627 0.937196
O O5 0.500000 0.500000 0.500000
O O6 0.305533 0.425169 0.338505
O O7 0.579921 0.099403 0.300459
O O8 0.310195 0.317542 0.932917
O O9 0.202062 0.595281 0.633463
O O10 0.903894 0.836752 0.521525
O O11 0.000000 0.000000 0.500000
#
# Coordination Sequence:
#
# PCOD9081644 Si02
#       5
#     2   2   2   2   2
#     4   9  19  35  55  77 102 134 172 212 252 300
#     4  10  19  33  52  74 103 137 167 205 254 304
#     4  10  19  32  53  80 104 130 169 216 254 295
#     4   9  20  34  52  77 102 130 172 211 251 301
#     4  10  20  34  56  78 101 135 174 208 252 305
#
# _framework density 24.569310000000002
#
# number of rings (size 3 to 8) (size 9 to 14) (size 15 to 20)
#    0.000    2.400    0.000    3.000    0.000    8.800 
#    0.000    1.000    0.000   30.000    0.000    0.000 
#    0.000    0.000    0.000    0.000    0.000    0.000 
#
# Total GULP energy -55804.786445 kJ/mol
# GULP energy per Si atom -5580.478644 kJ/mol
# Density = 2.451339 g / cm^3
# Si number density = 24.569310 Si / 1000 Ang^3
#
#
#
# Elastic Constant Matrix: (Units=GPa)
#
#
# Indices 1 2 3 4 5 6 
#
# 1 53.9103 20.2075 44.8419 17.7647 28.3178 12.0062
# 2 20.2075 88.3787 60.3272 15.1421 10.4166 17.5406
# 3 44.8419 60.3272 162.4730 24.7881 62.0373 -3.8594
# 4 17.7647 15.1421 24.7881 37.3743 4.9425 5.0267
# 5 28.3178 10.4166 62.0373 4.9425 59.5338 -10.8953
# 6 12.0062 17.5406 -3.8594 5.0267 -10.8953 0.5215
#
#
#
# Elastic Compliance Matrix: (Units=1/GPa)
#
#
# Indices 1 2 3 4 5 6 
#
# 1 0.016941 -0.010124 0.001761 -0.009600 -0.001040 0.034342
# 2 -0.010124 0.012851 -0.006242 -0.000364 0.012452 0.018310
# 3 0.001761 -0.006242 0.014650 -0.004945 -0.015926 -0.007239
# 4 -0.009600 -0.000364 -0.004945 0.034388 0.006284 -0.003517
# 5 -0.001040 0.012452 -0.015926 0.006284 0.026116 -0.027705
# 6 0.034342 0.018310 -0.007239 -0.003517 -0.027705 -0.087435
#
#
# Mechanical properties :
#
#
# Convention : Reuss Voigt Hill
#
# Bulk Modulus (GPa) = 65.65120 61.72392 63.68756
# Shear Modulus (GPa) = 96.52909 31.44496 63.98703
#
# Velocity S-wave (km/s) = 6.27485 3.58138 5.10882
# Velocity P-wave (km/s) = 8.90377 6.50220 7.79602
#
# Compressibility (1/GPa) = 0.01523201
#
# Stress axis : x y z
#
# Youngs Moduli (GPa) = 59.02888 77.81514 68.26043
#
# Poissons Ratio (x) = 0.78780 -0.12020
# Poissons Ratio (y) = 0.59761 0.42606
# Poissons Ratio (z) = -0.10394 0.48570
#
# Static dielectric constant tensor:
#      x y z
#    x 1.996200 0.117510 0.005180 
#    y 0.117510 1.904050 -0.003620 
#    z 0.005180 -0.003620 2.028400 
# 
# From -- ./inp_files/17998.got.cif
#   From: 2010.05.17/outbox.cif.g08.bks.cpg/sg2_9_cif.got.tgz:17998.got - 2010.06.03 11:33:40.
