data_PCOD9081932
_publ_section_title
;
Structure prediction by ZEFSAII (Michael W. Deem and Ramdas Pophale) SiO2 
 PCOD9081932
Probable space group: P -1
;
_chemical_formula_sum "Si O2"
_cell_formula_units_Z 16
_cell_length_a 20.505641
_cell_length_b 16.969679
_cell_length_c 8.013409
_cell_angle_alpha 146.587122
_cell_angle_beta 137.492189
_cell_angle_gamma 28.040790
_cell_volume 721.845164
_symmetry_space_group_name_H-M "P -1"
_symmetry_group_IT_number 2
_symmetry_cell_setting 'triclinic'
loop_
_space_group_symop_operation_xyz
x,y,z
-x,-y,-z
loop_
_atom_site_type_symbol
_atom_site_label
_atom_site_fract_x
_atom_site_fract_y
_atom_site_fract_z
Si Si1 0.650040 0.907206 0.157867
Si Si2 0.345389 0.269871 0.826061
Si Si3 0.820316 0.277800 0.206755
Si Si4 0.054522 0.871506 0.137947
Si Si5 0.185410 0.955749 0.783324
Si Si6 0.605876 0.281318 0.717539
Si Si7 0.317189 0.110819 0.186495
Si Si8 0.360249 0.526720 0.487850
O O1 0.707903 0.764488 0.175958
O O2 0.626666 0.098810 0.497030
O O3 0.722742 0.820257 0.960364
O O4 0.500000 0.000000 0.000000
O O5 0.289350 0.264674 0.540542
O O6 0.514218 0.081953 0.821588
O O7 0.315310 0.467487 0.153629
O O8 0.708582 0.462100 0.450300
O O9 0.871719 0.295864 0.166406
O O10 0.748435 0.212167 0.879055
O O11 0.947714 0.092782 0.232897
O O12 0.147341 0.880652 0.436936
O O13 0.955888 0.882513 0.089955
O O14 0.300669 0.748264 0.743087
O O15 0.243392 0.043676 0.986381
O O16 0.525788 0.352495 0.516055
O O17 0.500000 0.500000 0.000000
#
# Coordination Sequence:
#
# PCOD9081932 Si02
#       8
#     2   2   2   2   2   2   2   2
#     4  10  19  37  55  79 124 162 192 224 286 378
#     4  10  22  38  56  85 131 156 194 231 302 382
#     4   9  19  35  59  83 115 151 203 244 293 343
#     4   9  19  37  56  87 108 159 205 246 283 344
#     4  10  21  37  62  85 120 151 198 255 292 340
#     4  10  19  32  57  93 119 147 189 246 304 353
#     4  10  21  38  57  87 116 165 197 233 298 366
#     4  10  20  37  55  93 126 147 183 254 308 358
#
# _framework density 22.165417000000001
#
# number of rings (size 3 to 8) (size 9 to 14) (size 15 to 20)
#    0.000    2.250    2.500    0.750    5.250    0.500 
#    2.250    0.000    0.000    7.500    0.000    0.000 
#    0.000    0.000    0.000    0.000    0.000    0.000 
#
# Total GULP energy -89223.154580 kJ/mol
# GULP energy per Si atom -5576.447161 kJ/mol
# Density = 2.211497 g / cm^3
# Si number density = 22.165417 Si / 1000 Ang^3
#
#
#
# Elastic Constant Matrix: (Units=GPa)
#
#
# Indices 1 2 3 4 5 6 
#
# 1 114.1594 11.9129 51.4382 -13.4943 -9.1081 6.6645
# 2 11.9129 57.9654 19.5526 -13.3319 7.5299 5.0737
# 3 51.4382 19.5526 118.4876 -7.6205 -6.2163 5.3975
# 4 -13.4943 -13.3319 -7.6205 12.4269 1.5275 1.8884
# 5 -9.1081 7.5299 -6.2163 1.5275 35.3708 -2.8020
# 6 6.6645 5.0737 5.3975 1.8884 -2.8020 15.8426
#
#
#
# Elastic Compliance Matrix: (Units=1/GPa)
#
#
# Indices 1 2 3 4 5 6 
#
# 1 0.012787 0.002869 -0.004738 0.014934 0.000702 -0.006340
# 2 0.002869 0.028140 -0.003452 0.034461 -0.008508 -0.014656
# 3 -0.004738 -0.003452 0.011006 -0.002272 0.001538 -0.000108
# 4 0.014934 0.034461 -0.002272 0.139204 -0.012705 -0.035385
# 5 0.000702 -0.008508 0.001538 -0.012705 0.031799 0.009044
# 6 -0.006340 -0.014656 -0.000108 -0.035385 0.009044 0.076336
#
#
# Mechanical properties :
#
#
# Convention : Reuss Voigt Hill
#
# Bulk Modulus (GPa) = 24.21836 50.71332 37.46584
# Shear Modulus (GPa) = 15.44749 26.57531 21.01140
#
# Velocity S-wave (km/s) = 2.64279 3.46635 3.08220
# Velocity P-wave (km/s) = 4.50137 6.24099 5.44115
#
# Compressibility (1/GPa) = 0.04129098
#
# Stress axis : x y z
#
# Youngs Moduli (GPa) = 78.20596 35.53637 90.86105
#
# Poissons Ratio (x) = -0.10195 0.43053
# Poissons Ratio (y) = -0.22437 0.31361
# Poissons Ratio (z) = 0.37057 0.12265
#
# Static dielectric constant tensor:
#      x y z
#    x 1.919040 -0.002830 -0.074570 
#    y -0.002830 1.802290 -0.011520 
#    z -0.074570 -0.011520 1.829310 
# 
# From -- ./inp_files/348756.got.cif
#   From: 2010.05.17/outbox.cif.g08.bks.cpg/sg2_175_cif.got.tgz:348756.got - 2010.06.03 11:33:40.
