data_PCOD9081346
_publ_section_title
;
Structure prediction by ZEFSAII (Michael W. Deem and Ramdas Pophale) SiO2 
 PCOD9081346
Probable space group: P -1
;
_chemical_formula_sum "Si O2"
_cell_formula_units_Z 16
_cell_length_a 21.036787
_cell_length_b 8.140275
_cell_length_c 13.344064
_cell_angle_alpha 140.457155
_cell_angle_beta 154.424936
_cell_angle_gamma 44.902594
_cell_volume 627.365585
_symmetry_space_group_name_H-M "P -1"
_symmetry_group_IT_number 2
_symmetry_cell_setting 'triclinic'
loop_
_space_group_symop_operation_xyz
x,y,z
-x,-y,-z
loop_
_atom_site_type_symbol
_atom_site_label
_atom_site_fract_x
_atom_site_fract_y
_atom_site_fract_z
Si Si1 0.987462 0.943612 0.073700
Si Si2 0.648712 0.424457 0.114067
Si Si3 0.123322 0.276294 0.594693
Si Si4 0.547197 0.748379 0.619587
Si Si5 0.448429 0.028662 0.800489
Si Si6 0.233948 0.796717 0.628442
Si Si7 0.224086 0.572254 0.304417
Si Si8 0.296136 0.756759 0.107504
O O1 0.090252 0.112564 0.369422
O O2 0.824985 0.031991 0.924080
O O3 0.068546 0.665738 0.079893
O O4 0.000000 0.000000 0.000000
O O5 0.654970 0.712747 0.210801
O O6 0.763659 0.329784 0.318081
O O7 0.666806 0.243417 0.957916
O O8 0.500000 0.500000 0.000000
O O9 0.238015 0.466977 0.901380
O O10 0.000000 0.500000 0.500000
O O11 0.121196 0.036561 0.557775
O O12 0.500000 0.500000 0.500000
O O13 0.709715 0.677475 0.776149
O O14 0.509630 0.979462 0.751457
O O15 0.442145 0.777461 0.388808
O O16 0.349353 0.786373 0.566050
O O17 0.603285 0.081320 0.099877
O O18 0.218476 0.577699 0.419232
#
# Coordination Sequence:
#
# PCOD9081346 Si02
#       8
#     2   2   2   2   2   2   2   2
#     4  10  20  34  55  84 114 142 179 230 285 337
#     4  10  21  36  54  80 114 155 190 229 280 339
#     4   9  19  35  58  84 107 145 191 235 281 334
#     4  10  19  31  55  86 110 143 187 237 285 328
#     4  10  19  33  56  84 113 146 186 237 288 331
#     4  10  19  34  54  79 111 147 187 231 279 337
#     4  10  19  34  55  83 110 144 187 237 283 334
#     4  11  21  37  57  84 117 148 188 234 284 340
#
# _framework density 25.503471999999999
#
# number of rings (size 3 to 8) (size 9 to 14) (size 15 to 20)
#    0.000    2.000    0.000    6.375    0.000    1.000 
#    0.000   11.250    0.000    0.000    0.000   28.875 
#    0.000    0.000    0.000    0.000    0.000    0.000 
#
# Total GULP energy -89167.496210 kJ/mol
# GULP energy per Si atom -5572.968513 kJ/mol
# Density = 2.544543 g / cm^3
# Si number density = 25.503472 Si / 1000 Ang^3
#
#
#
# Elastic Constant Matrix: (Units=GPa)
#
#
# Indices 1 2 3 4 5 6 
#
# 1 124.4796 57.0303 46.8329 -18.1105 -39.9879 -25.6548
# 2 57.0303 164.0215 57.5632 -12.9123 -24.0699 -46.3256
# 3 46.8329 57.5632 70.1939 -24.9088 -24.4852 -3.6766
# 4 -18.1105 -12.9123 -24.9088 44.6469 7.4868 1.3982
# 5 -39.9879 -24.0699 -24.4852 7.4868 56.5312 3.8976
# 6 -25.6548 -46.3256 -3.6766 1.3982 3.8976 37.0302
#
#
#
# Elastic Compliance Matrix: (Units=1/GPa)
#
#
# Indices 1 2 3 4 5 6 
#
# 1 0.014878 0.002003 -0.008432 0.000401 0.006897 0.011235
# 2 0.002003 0.015831 -0.014037 -0.003252 0.001143 0.019801
# 3 -0.008432 -0.014037 0.035980 0.012672 0.003389 -0.020665
# 4 0.000401 -0.003252 0.012672 0.028664 0.000847 -0.003704
# 5 0.006897 0.001143 0.003389 0.000847 0.024136 0.003972
# 6 0.011235 0.019801 -0.020665 -0.003704 0.003972 0.057231
#
#
# Mechanical properties :
#
#
# Convention : Reuss Voigt Hill
#
# Bulk Modulus (GPa) = 38.82537 75.72755 57.27646
# Shear Modulus (GPa) = 22.10070 40.79290 31.44680
#
# Velocity S-wave (km/s) = 2.94696 4.00372 3.51528
# Velocity P-wave (km/s) = 5.18035 7.15056 6.24366
#
# Compressibility (1/GPa) = 0.02575636
#
# Stress axis : x y z
#
# Youngs Moduli (GPa) = 67.21519 63.16783 27.79320
#
# Poissons Ratio (x) = -0.12655 0.23436
# Poissons Ratio (y) = -0.13465 0.39013
# Poissons Ratio (z) = 0.56679 0.88668
#
# Static dielectric constant tensor:
#      x y z
#    x 2.274830 -0.135920 0.213090 
#    y -0.135920 2.343760 -0.028600 
#    z 0.213090 -0.028600 2.049240 
# 
# From -- ./inp_files/448094.got.cif
#   From: 2010.05.17/outbox.cif.g08.bks.cpg/sg2_225_cif.got.tgz:448094.got - 2010.06.03 11:33:40.
