data_PCOD9081800
_publ_section_title
;
Structure prediction by ZEFSAII (Michael W. Deem and Ramdas Pophale) SiO2 
 PCOD9081800
Probable space group: P -1
;
_chemical_formula_sum "Si O2"
_cell_formula_units_Z 16
_cell_length_a 14.841893
_cell_length_b 9.651151
_cell_length_c 10.238691
_cell_angle_alpha 130.040474
_cell_angle_beta 127.989911
_cell_angle_gamma 40.408992
_cell_volume 704.133147
_symmetry_space_group_name_H-M "P -1"
_symmetry_group_IT_number 2
_symmetry_cell_setting 'triclinic'
loop_
_space_group_symop_operation_xyz
x,y,z
-x,-y,-z
loop_
_atom_site_type_symbol
_atom_site_label
_atom_site_fract_x
_atom_site_fract_y
_atom_site_fract_z
Si Si1 0.909773 0.761127 0.121017
Si Si2 0.399341 0.107345 0.140507
Si Si3 0.070256 0.429917 0.724558
Si Si4 0.575150 0.137356 0.753114
Si Si5 0.681426 0.403179 0.105307
Si Si6 0.010802 0.979881 0.838342
Si Si7 0.185745 0.145229 0.402041
Si Si8 0.337120 0.372890 0.026368
O O1 0.944036 0.728459 0.287354
O O2 0.960051 0.877551 0.143747
O O3 0.740638 0.872801 0.021537
O O4 0.000000 0.500000 0.000000
O O5 0.409565 0.064646 0.277109
O O6 0.549357 0.880604 0.085304
O O7 0.373825 0.327012 0.184235
O O8 0.162318 0.290423 0.594822
O O9 0.173324 0.470886 0.917037
O O10 0.922352 0.664929 0.689159
O O11 0.416711 0.374970 0.758403
O O12 0.660569 0.028898 0.631026
O O13 0.651926 0.217028 0.962653
O O14 0.845775 0.277008 0.208871
O O15 0.645561 0.479477 0.967317
O O16 0.872553 0.995074 0.691468
O O17 0.000000 0.000000 0.000000
#
# Coordination Sequence:
#
# PCOD9081800 Si02
#       8
#     2   2   2   2   2   2   2   2
#     4  11  22  35  59  88 114 142 188 241 291 337
#     4   9  17  31  52  81 110 137 177 235 274 333
#     4  10  22  38  57  81 116 155 188 236 286 332
#     4  10  19  34  54  83 113 145 186 236 292 326
#     4  10  19  32  55  85 111 143 185 238 283 328
#     4  12  21  35  59  88 112 149 191 238 285 340
#     4  11  22  38  58  81 116 153 197 231 279 347
#     4   9  18  32  54  82 108 145 184 225 290 330
#
# _framework density 22.722975999999999
#
# number of rings (size 3 to 8) (size 9 to 14) (size 15 to 20)
#    0.000    1.750    3.750    1.500    1.750    0.500 
#    0.000    2.500    2.750    0.750    0.000    0.000 
#    0.000    0.000    0.000    0.000    0.000    0.000 
#
# Total GULP energy -89146.980295 kJ/mol
# GULP energy per Si atom -5571.686268 kJ/mol
# Density = 2.267126 g / cm^3
# Si number density = 22.722976 Si / 1000 Ang^3
#
#
#
# Elastic Constant Matrix: (Units=GPa)
#
#
# Indices 1 2 3 4 5 6 
#
# 1 112.3160 56.3290 30.8154 -6.5466 -37.6273 10.7678
# 2 56.3290 123.5589 34.4316 -6.6456 -28.3201 14.3779
# 3 30.8154 34.4316 50.1915 10.5455 -24.4388 -6.1796
# 4 -6.5466 -6.6456 10.5455 22.6576 -5.6407 -9.6802
# 5 -37.6273 -28.3201 -24.4388 -5.6407 32.7134 0.9538
# 6 10.7678 14.3779 -6.1796 -9.6802 0.9538 44.2867
#
#
#
# Elastic Compliance Matrix: (Units=1/GPa)
#
#
# Indices 1 2 3 4 5 6 
#
# 1 0.017520 -0.002456 -0.002634 0.009011 0.017677 -0.002241
# 2 -0.002456 0.012796 -0.006843 0.005867 0.004249 -0.003321
# 3 -0.002634 -0.006843 0.038012 -0.014264 0.016848 0.004685
# 4 0.009011 0.005867 -0.014264 0.061942 0.015260 0.007125
# 5 0.017677 0.004249 0.016848 0.015260 0.069840 -0.001495
# 6 -0.002241 -0.003321 0.004685 0.007125 -0.001495 0.026446
#
#
# Mechanical properties :
#
#
# Convention : Reuss Voigt Hill
#
# Bulk Modulus (GPa) = 22.49084 58.80205 40.64644
# Shear Modulus (GPa) = 18.85074 30.89757 24.87415
#
# Velocity S-wave (km/s) = 2.88338 3.69148 3.31217
# Velocity P-wave (km/s) = 4.58307 6.64103 5.70561
#
# Compressibility (1/GPa) = 0.04446254
#
# Stress axis : x y z
#
# Youngs Moduli (GPa) = 57.07815 78.15117 26.30743
#
# Poissons Ratio (x) = 0.19196 0.06928
# Poissons Ratio (y) = 0.14020 0.18002
# Poissons Ratio (z) = 0.15032 0.53477
#
# Static dielectric constant tensor:
#      x y z
#    x 1.971730 0.051810 -0.035240 
#    y 0.051810 1.879250 -0.026670 
#    z -0.035240 -0.026670 1.885000 
# 
# From -- ./inp_files/299232.got.cif
#   From: 2010.05.17/outbox.cif.g08.bks.cpg/sg2_150_cif.got.tgz:299232.got - 2010.06.03 11:33:40.
