data_PCOD9081729
_publ_section_title
;
Structure prediction by ZEFSAII (Michael W. Deem and Ramdas Pophale) SiO2 
 PCOD9081729
Probable space group: P -1
;
_chemical_formula_sum "Si O2"
_cell_formula_units_Z 14
_cell_length_a 16.831264
_cell_length_b 19.781791
_cell_length_c 8.384591
_cell_angle_alpha 141.864601
_cell_angle_beta 156.558189
_cell_angle_gamma 26.608958
_cell_volume 488.427936
_symmetry_space_group_name_H-M "P -1"
_symmetry_group_IT_number 2
_symmetry_cell_setting 'triclinic'
loop_
_space_group_symop_operation_xyz
x,y,z
-x,-y,-z
loop_
_atom_site_type_symbol
_atom_site_label
_atom_site_fract_x
_atom_site_fract_y
_atom_site_fract_z
Si Si1 0.855049 0.579306 0.211125
Si Si2 0.198375 0.105291 0.215152
Si Si3 0.205759 0.636043 0.292081
Si Si4 0.643656 0.180591 0.039518
Si Si5 0.123429 0.125606 0.479866
Si Si6 0.447226 0.796658 0.444913
Si Si7 0.209368 0.541492 0.514088
O O1 0.000000 0.500000 0.500000
O O2 0.060303 0.570700 0.463937
O O3 0.829751 0.467047 0.879282
O O4 0.553193 0.739422 0.016548
O O5 0.208414 0.121182 0.448452
O O6 0.500000 0.000000 0.500000
O O7 0.006963 0.258614 0.046866
O O8 0.128419 0.003762 0.875823
O O9 0.500000 0.500000 0.500000
O O10 0.233597 0.745465 0.623013
O O11 0.487875 0.213514 0.644271
O O12 0.842799 0.160021 0.007735
O O13 0.015570 0.281960 0.643688
O O14 0.362806 0.946519 0.645156
O O15 0.673454 0.627420 0.624641
O O16 0.500000 0.500000 0.000000
#
# Coordination Sequence:
#
# PCOD9081729 Si02
#       7
#     2   2   2   2   2   2   2
#     4  11  19  34  57  87 114 149 209 256 288 360
#     4  11  21  35  60  92 115 156 211 257 296 357
#     4  10  23  36  55  87 126 162 190 253 317 367
#     4  10  20  35  56  85 124 156 196 247 316 368
#     4   9  19  32  52  87 114 144 198 255 292 349
#     4   9  18  33  54  83 116 153 194 248 304 356
#     4  10  19  32  54  84 114 155 196 255 303 350
#
# _framework density 28.663391000000001
#
# number of rings (size 3 to 8) (size 9 to 14) (size 15 to 20)
#    0.000    2.000    1.429    3.000    4.000    0.000 
#    0.000    0.000    0.000    4.286   11.143    0.000 
#    0.000    0.000    0.000    0.000    0.000    0.000 
#
# Total GULP energy -78292.080410 kJ/mol
# GULP energy per Si atom -5592.291458 kJ/mol
# Density = 2.859815 g / cm^3
# Si number density = 28.663391 Si / 1000 Ang^3
#
#
#
# Elastic Constant Matrix: (Units=GPa)
#
#
# Indices 1 2 3 4 5 6 
#
# 1 105.3495 59.9529 38.8615 -6.2419 45.2045 4.5074
# 2 59.9529 327.9866 53.3320 23.0798 -6.0650 22.0503
# 3 38.8615 53.3320 77.1918 9.1203 23.5793 -2.2416
# 4 -6.2419 23.0798 9.1203 75.9951 1.7279 -5.0578
# 5 45.2045 -6.0650 23.5793 1.7279 56.9250 3.0973
# 6 4.5074 22.0503 -2.2416 -5.0578 3.0973 61.3930
#
#
#
# Elastic Compliance Matrix: (Units=1/GPa)
#
#
# Indices 1 2 3 4 5 6 
#
# 1 0.018916 -0.003499 -0.003132 0.003366 -0.014240 0.000749
# 2 -0.003499 0.004405 -0.002503 -0.001543 0.004428 -0.001767
# 3 -0.003132 -0.002503 0.018119 -0.001421 -0.005347 0.001943
# 4 0.003366 -0.001543 -0.001421 0.014242 -0.002766 0.001568
# 5 -0.014240 0.004428 -0.005347 -0.002766 0.031786 -0.002572
# 6 0.000749 -0.001767 0.001943 0.001568 -0.002572 0.017198
#
#
# Mechanical properties :
#
#
# Convention : Reuss Voigt Hill
#
# Bulk Modulus (GPa) = 43.15640 90.53564 66.84602
# Shear Modulus (GPa) = 38.26797 62.75470 50.51134
#
# Velocity S-wave (km/s) = 3.65784 4.68414 4.20244
# Velocity P-wave (km/s) = 5.73835 7.80444 6.84975
#
# Compressibility (1/GPa) = 0.02317153
#
# Stress axis : x y z
#
# Youngs Moduli (GPa) = 52.86404 227.02561 55.19164
#
# Poissons Ratio (x) = 0.79437 0.17285
# Poissons Ratio (y) = 0.18497 0.13816
# Poissons Ratio (z) = 0.16556 0.56830
#
# Static dielectric constant tensor:
#      x y z
#    x 2.047300 0.044530 0.050570 
#    y 0.044530 2.278590 0.086930 
#    z 0.050570 0.086930 2.287430 
# 
# From -- ./inp_files/172771.got.cif
#   From: 2010.05.17/outbox.cif.g08.bks.cpg/sg2_87_cif.got.tgz:172771.got - 2010.06.03 11:33:40.
