data_PCOD9081050
_publ_section_title
;
Structure prediction by ZEFSAII (Michael W. Deem and Ramdas Pophale) SiO2 
 PCOD9081050
Probable space group: P -1
;
_chemical_formula_sum "Si O2"
_cell_formula_units_Z 12
_cell_length_a 7.948836
_cell_length_b 13.316531
_cell_length_c 8.907427
_cell_angle_alpha 51.426014
_cell_angle_beta 54.667728
_cell_angle_gamma 91.237623
_cell_volume 481.433531
_symmetry_space_group_name_H-M "P -1"
_symmetry_group_IT_number 2
_symmetry_cell_setting 'triclinic'
loop_
_space_group_symop_operation_xyz
x,y,z
-x,-y,-z
loop_
_atom_site_type_symbol
_atom_site_label
_atom_site_fract_x
_atom_site_fract_y
_atom_site_fract_z
Si Si1 0.523152 0.836622 0.032979
Si Si2 0.788283 0.295082 0.385821
Si Si3 0.937694 0.839277 0.514865
Si Si4 0.903633 0.168806 0.891527
Si Si5 0.262367 0.497271 0.574611
Si Si6 0.588217 0.891330 0.509045
O O1 0.423157 0.827679 0.263732
O O2 0.370288 0.873930 0.970839
O O3 0.396619 0.649638 0.251871
O O4 0.825180 0.975247 0.747039
O O5 0.007080 0.265828 0.312258
O O6 0.853259 0.459023 0.270259
O O7 0.631190 0.244703 0.360312
O O8 0.959416 0.797290 0.370847
O O9 0.678602 0.827015 0.651692
O O10 0.057303 0.329379 0.760283
O O11 0.156829 0.978717 0.841552
O O12 0.500000 0.500000 0.500000
O O13 0.500000 0.000000 0.500000
#
# Coordination Sequence:
#
# PCOD9081050 Si02
#       6
#     2   2   2   2   2   2
#     4   9  18  33  57  85 111 135 178 232 273 315
#     4   9  20  37  52  84 115 134 183 225 276 319
#     4  11  19  36  62  79 110 144 178 237 274 311
#     4  11  18  36  57  85 111 140 184 225 270 332
#     4  10  19  30  55  89 114 136 175 232 278 321
#     4  12  24  36  56  82 110 148 190 223 267 327
#
# _framework density 24.925557999999999
#
# number of rings (size 3 to 8) (size 9 to 14) (size 15 to 20)
#    1.000    0.667    3.333    4.000    0.000    0.667 
#    0.000    0.833    0.000    1.000    0.000    0.000 
#    0.000    0.000    0.000    0.000    0.000    0.000 
#
# Total GULP energy -67057.387787 kJ/mol
# GULP energy per Si atom -5588.115649 kJ/mol
# Density = 2.486883 g / cm^3
# Si number density = 24.925558 Si / 1000 Ang^3
#
#
#
# Elastic Constant Matrix: (Units=GPa)
#
#
# Indices 1 2 3 4 5 6 
#
# 1 169.0409 40.7682 34.4133 -21.4466 -21.7926 -5.7345
# 2 40.7682 100.4613 45.5296 -11.7106 -32.3080 6.4700
# 3 34.4133 45.5296 69.9395 -31.6916 -8.7867 9.8625
# 4 -21.4466 -11.7106 -31.6916 42.4286 0.6844 -15.1331
# 5 -21.7926 -32.3080 -8.7867 0.6844 30.4736 -11.0259
# 6 -5.7345 6.4700 9.8625 -15.1331 -11.0259 51.0385
#
#
#
# Elastic Compliance Matrix: (Units=1/GPa)
#
#
# Indices 1 2 3 4 5 6 
#
# 1 0.007688 -0.000212 -0.001699 0.003757 0.006013 0.003632
# 2 -0.000212 0.022465 -0.013929 -0.003467 0.020926 0.003313
# 3 -0.001699 -0.013929 0.032028 0.019150 -0.007369 -0.000528
# 4 0.003757 -0.003467 0.019150 0.042800 0.007741 0.011524
# 5 0.006013 0.020926 -0.007369 0.007741 0.062519 0.015248
# 6 0.003632 0.003313 -0.000528 0.011524 0.015248 0.026394
#
#
# Mechanical properties :
#
#
# Convention : Reuss Voigt Hill
#
# Bulk Modulus (GPa) = 32.78704 64.54045 48.66375
# Shear Modulus (GPa) = 21.20960 39.37018 30.28989
#
# Velocity S-wave (km/s) = 2.92021 3.97862 3.48977
# Velocity P-wave (km/s) = 4.95507 6.85969 5.98365
#
# Compressibility (1/GPa) = 0.03049986
#
# Stress axis : x y z
#
# Youngs Moduli (GPa) = 130.07709 44.51329 31.22258
#
# Poissons Ratio (x) = 0.00944 0.05305
# Poissons Ratio (y) = 0.02758 0.43491
# Poissons Ratio (z) = 0.22103 0.62004
#
# Static dielectric constant tensor:
#      x y z
#    x 1.965070 -0.045520 0.107150 
#    y -0.045520 2.117680 0.030430 
#    z 0.107150 0.030430 2.185300 
# 
# From -- ./inp_files/388956.got.cif
#   From: 2010.05.17/outbox.cif.g08.bks.cpg/sg2_195_cif.got.tgz:388956.got - 2010.06.03 11:33:40.
