data_PCOD9081227
_publ_section_title
;
Structure prediction by ZEFSAII (Michael W. Deem and Ramdas Pophale) SiO2 
 PCOD9081227
Probable space group: P -1
;
_chemical_formula_sum "Si O2"
_cell_formula_units_Z 16
_cell_length_a 12.836673
_cell_length_b 11.711557
_cell_length_c 6.192149
_cell_angle_alpha 84.325328
_cell_angle_beta 82.069642
_cell_angle_gamma 65.279040
_cell_volume 836.633845
_symmetry_space_group_name_H-M "P -1"
_symmetry_group_IT_number 2
_symmetry_cell_setting 'triclinic'
loop_
_space_group_symop_operation_xyz
x,y,z
-x,-y,-z
loop_
_atom_site_type_symbol
_atom_site_label
_atom_site_fract_x
_atom_site_fract_y
_atom_site_fract_z
Si Si1 0.249896 0.741276 0.128971
Si Si2 0.935082 0.603988 0.788239
Si Si3 0.983677 0.214044 0.008118
Si Si4 0.146105 0.191607 0.591402
Si Si5 0.172834 0.390270 0.768518
Si Si6 0.668690 0.491575 0.519069
Si Si7 0.551985 0.394934 0.189973
Si Si8 0.886080 0.000477 0.649489
O O1 0.275672 0.620249 0.299641
O O2 0.201316 0.863766 0.270540
O O3 0.148317 0.759194 0.985275
O O4 0.360692 0.721331 0.953174
O O5 0.877848 0.700542 0.598355
O O6 0.999624 0.674826 0.892598
O O7 0.037732 0.471627 0.727581
O O8 0.838020 0.592634 0.972389
O O9 0.060740 0.089007 0.141196
O O10 0.033516 0.204612 0.755335
O O11 0.213342 0.241263 0.735735
O O12 0.177483 0.063051 0.476684
O O13 0.245913 0.451935 0.611991
O O14 0.622310 0.436639 0.340995
O O15 0.558603 0.600446 0.647035
O O16 0.500000 0.500000 0.000000
O O17 0.000000 0.000000 0.500000
#
# Coordination Sequence:
#
# PCOD9081227 Si02
#       8
#     2   2   2   2   2   2   2   2
#     4  11  21  33  57  81 112 150 178 227 270 317
#     4   9  19  31  47  78 108 143 182 218 263 333
#     4  10  20  33  51  80 114 147 183 216 267 323
#     4  10  20  34  48  73 111 147 183 216 260 321
#     4  10  19  31  52  75 107 143 176 223 272 322
#     4  10  21  37  58  83 108 140 181 229 279 326
#     4   9  21  38  55  82 107 135 184 229 279 326
#     4  11  23  34  51  81 117 152 186 217 256 326
#
# _framework density 19.124255999999999
#
# number of rings (size 3 to 8) (size 9 to 14) (size 15 to 20)
#    0.000    2.000    1.250    2.250    3.500    4.000 
#    0.000    0.000    0.000    0.750    0.000   15.750 
#    0.000    0.000    0.000    0.000    0.000    0.000 
#
# Total GULP energy -89109.118153 kJ/mol
# GULP energy per Si atom -5569.319885 kJ/mol
# Density = 1.908073 g / cm^3
# Si number density = 19.124256 Si / 1000 Ang^3
#
#
#
# Elastic Constant Matrix: (Units=GPa)
#
#
# Indices 1 2 3 4 5 6 
#
# 1 54.7623 34.7210 30.4903 11.9095 -21.6829 1.3872
# 2 34.7210 87.9629 34.2509 26.4896 -21.0580 4.9314
# 3 30.4903 34.2509 93.0778 16.1770 -31.6807 -0.9313
# 4 11.9095 26.4896 16.1770 38.8149 -0.0910 -0.3135
# 5 -21.6829 -21.0580 -31.6807 -0.0910 40.5379 0.0627
# 6 1.3872 4.9314 -0.9313 -0.3135 0.0627 20.3165
#
#
#
# Elastic Compliance Matrix: (Units=1/GPa)
#
#
# Indices 1 2 3 4 5 6 
#
# 1 0.028771 -0.007081 -0.003247 -0.002624 0.009167 -0.000463
# 2 -0.007081 0.019320 -0.001202 -0.010535 0.005292 -0.004440
# 3 -0.003247 -0.001202 0.016826 -0.005161 0.010775 0.001172
# 4 -0.002624 -0.010535 -0.005161 0.035909 -0.010834 0.003087
# 5 0.009167 0.005292 0.010775 -0.010834 0.040720 -0.001709
# 6 -0.000463 -0.004440 0.001172 0.003087 -0.001709 0.050437
#
#
# Mechanical properties :
#
#
# Convention : Reuss Voigt Hill
#
# Bulk Modulus (GPa) = 23.89138 48.30303 36.09720
# Shear Modulus (GPa) = 21.83459 29.02327 25.42893
#
# Velocity S-wave (km/s) = 3.38260 3.89988 3.65042
# Velocity P-wave (km/s) = 5.27028 6.75212 6.05669
#
# Compressibility (1/GPa) = 0.04185610
#
# Stress axis : x y z
#
# Youngs Moduli (GPa) = 34.75778 51.75992 59.43229
#
# Poissons Ratio (x) = 0.36652 0.19298
# Poissons Ratio (y) = 0.24613 0.07143
# Poissons Ratio (z) = 0.11286 0.06221
#
# Static dielectric constant tensor:
#      x y z
#    x 1.677410 0.010750 0.030570 
#    y 0.010750 1.674290 0.016820 
#    z 0.030570 0.016820 1.771210 
# 
# From -- ./inp_files/70435.got.cif
#   From: 2010.05.17/outbox.cif.g08.bks.cpg/sg2_36_cif.got.tgz:70435.got - 2010.06.03 11:33:40.
