data_PCOD9081905
_publ_section_title
;
Structure prediction by ZEFSAII (Michael W. Deem and Ramdas Pophale) SiO2 
 PCOD9081905
Probable space group: P -1
;
_chemical_formula_sum "Si O2"
_cell_formula_units_Z 14
_cell_length_a 9.767829
_cell_length_b 10.790253
_cell_length_c 13.384164
_cell_angle_alpha 43.923370
_cell_angle_beta 146.816885
_cell_angle_gamma 135.121086
_cell_volume 514.374852
_symmetry_space_group_name_H-M "P -1"
_symmetry_group_IT_number 2
_symmetry_cell_setting 'triclinic'
loop_
_space_group_symop_operation_xyz
x,y,z
-x,-y,-z
loop_
_atom_site_type_symbol
_atom_site_label
_atom_site_fract_x
_atom_site_fract_y
_atom_site_fract_z
Si Si1 0.721784 0.092652 0.712591
Si Si2 0.168449 0.064971 0.863113
Si Si3 0.555536 0.710755 0.449904
Si Si4 0.016919 0.341760 0.467115
Si Si5 0.343407 0.884532 0.760306
Si Si6 0.597207 0.377740 0.331139
Si Si7 0.087193 0.323422 0.126557
O O1 0.717051 0.249243 0.702982
O O2 0.613554 0.181510 0.499875
O O3 0.988269 0.064228 0.851428
O O4 0.513234 0.921485 0.737840
O O5 0.040262 0.157360 0.645285
O O6 0.465568 0.165646 0.013678
O O7 0.142367 0.855473 0.936869
O O8 0.500000 0.500000 0.500000
O O9 0.753869 0.728582 0.653124
O O10 0.674044 0.906197 0.348073
O O11 0.914766 0.275139 0.333277
O O12 0.801537 0.428645 0.336563
O O13 0.286975 0.477554 0.592411
O O14 0.298938 0.365723 0.141996
O O15 0.000000 0.500000 0.000000
#
# Coordination Sequence:
#
# PCOD9081905 Si02
#       7
#     2   2   2   2   2   2   2
#     4   8  18  32  56  82 107 146 186 239 274 325
#     4  11  19  35  58  87 111 143 196 232 285 333
#     4   9  18  33  52  79 112 142 182 232 284 322
#     4  10  19  37  58  82 120 150 181 233 281 345
#     4  10  19  32  57  82 112 145 184 237 280 332
#     4   9  19  36  58  81 117 154 184 228 289 333
#     4  11  21  35  58  84 113 148 190 241 278 331
#
# _framework density 27.217506
#
# number of rings (size 3 to 8) (size 9 to 14) (size 15 to 20)
#    0.857    1.429    1.429    2.143    0.000    2.857 
#    0.000    8.571    0.000    4.286    0.000    0.000 
#    0.000    0.000    0.000    0.000    0.000    0.000 
#
# Total GULP energy -78168.585319 kJ/mol
# GULP energy per Si atom -5583.470380 kJ/mol
# Density = 2.715556 g / cm^3
# Si number density = 27.217506 Si / 1000 Ang^3
#
#
#
# Elastic Constant Matrix: (Units=GPa)
#
#
# Indices 1 2 3 4 5 6 
#
# 1 71.2345 -5.5294 9.2339 -5.3891 14.5683 -16.5107
# 2 -5.5294 174.4155 31.7654 14.8054 4.0225 -22.7698
# 3 9.2339 31.7654 122.2609 9.5045 -0.5651 -18.4909
# 4 -5.3891 14.8054 9.5045 43.8066 -6.5742 1.6532
# 5 14.5683 4.0225 -0.5651 -6.5742 24.3891 -4.3272
# 6 -16.5107 -22.7698 -18.4909 1.6532 -4.3272 32.0709
#
#
#
# Elastic Compliance Matrix: (Units=1/GPa)
#
#
# Indices 1 2 3 4 5 6 
#
# 1 0.018437 0.002151 -0.000565 -0.000155 -0.009758 0.009384
# 2 0.002151 0.006923 -0.000986 -0.002384 -0.002154 0.005286
# 3 -0.000565 -0.000986 0.009319 -0.001774 0.001057 0.004616
# 4 -0.000155 -0.002384 -0.001774 0.025117 0.006649 -0.003193
# 5 -0.009758 -0.002154 0.001057 0.006649 0.049062 0.000334
# 6 0.009384 0.005286 0.004616 -0.003193 0.000334 0.042636
#
#
# Mechanical properties :
#
#
# Convention : Reuss Voigt Hill
#
# Bulk Modulus (GPa) = 27.87192 48.76121 38.31657
# Shear Modulus (GPa) = 30.81550 42.21604 36.51577
#
# Velocity S-wave (km/s) = 3.36846 3.94263 3.66680
# Velocity P-wave (km/s) = 5.03898 6.21932 5.66001
#
# Compressibility (1/GPa) = 0.03587840
#
# Stress axis : x y z
#
# Youngs Moduli (GPa) = 54.23785 144.43686 107.30697
#
# Poissons Ratio (x) = -0.31064 0.06063
# Poissons Ratio (y) = -0.11665 0.10584
# Poissons Ratio (z) = 0.03065 0.14247
#
# Static dielectric constant tensor:
#      x y z
#    x 2.306290 0.049870 0.033180 
#    y 0.049870 2.159970 -0.004340 
#    z 0.033180 -0.004340 2.078470 
# 
# From -- ./inp_files/579170.got.cif
#   From: 2010.05.17/outbox.cif.g08.bks.cpg/sg2_290_cif.got.tgz:579170.got - 2010.06.03 11:33:40.
