data_PCOD9081067
_publ_section_title
;
Structure prediction by ZEFSAII (Michael W. Deem and Ramdas Pophale) SiO2 
 PCOD9081067
Probable space group: P -1
;
_chemical_formula_sum "Si O2"
_cell_formula_units_Z 16
_cell_length_a 8.397449
_cell_length_b 11.849482
_cell_length_c 7.410721
_cell_angle_alpha 95.889030
_cell_angle_beta 96.215025
_cell_angle_gamma 120.372039
_cell_volume 621.733251
_symmetry_space_group_name_H-M "P -1"
_symmetry_group_IT_number 2
_symmetry_cell_setting 'triclinic'
loop_
_space_group_symop_operation_xyz
x,y,z
-x,-y,-z
loop_
_atom_site_type_symbol
_atom_site_label
_atom_site_fract_x
_atom_site_fract_y
_atom_site_fract_z
Si Si1 0.964893 0.901814 0.637647
Si Si2 0.025918 0.347626 0.569165
Si Si3 0.388731 0.773879 0.400244
Si Si4 0.490901 0.007129 0.238478
Si Si5 0.831330 0.123291 0.044328
Si Si6 0.575158 0.689213 0.665387
Si Si7 0.839006 0.581626 0.776994
Si Si8 0.346440 0.534209 0.917933
O O1 0.987221 0.786402 0.527434
O O2 0.758412 0.831204 0.681452
O O3 0.099880 0.954101 0.834949
O O4 0.000000 0.000000 0.500000
O O5 0.059942 0.423952 0.393304
O O6 0.199966 0.427818 0.738547
O O7 0.835218 0.305867 0.641413
O O8 0.491827 0.871703 0.261130
O O9 0.456289 0.678407 0.471892
O O10 0.444710 0.886804 0.577478
O O11 0.645423 0.097306 0.122756
O O12 0.269118 0.944186 0.163752
O O13 0.003548 0.275483 0.089377
O O14 0.667667 0.598788 0.686650
O O15 0.457097 0.665246 0.829134
O O16 0.764325 0.475721 0.913831
O O17 0.500000 0.500000 0.000000
#
# Coordination Sequence:
#
# PCOD9081067 Si02
#       8
#     2   2   2   2   2   2   2   2
#     4  10  20  38  59  89 120 149 194 242 292 353
#     4  10  21  38  64  82 114 162 192 235 302 349
#     4  11  20  35  55  87 113 153 197 231 296 354
#     4  10  19  30  58  78 117 155 189 230 291 358
#     4   9  17  35  52  82 110 155 188 235 285 345
#     4   9  21  35  57  83 119 143 193 248 278 339
#     4   9  19  39  59  82 116 148 198 245 288 340
#     4  10  21  40  63  85 114 154 202 246 290 342
#
# _framework density 25.734511000000001
#
# number of rings (size 3 to 8) (size 9 to 14) (size 15 to 20)
#    0.000    2.500    2.500    1.500    1.750    5.000 
#    4.500    1.875    5.500    0.000    0.000    0.000 
#    0.000    0.000    0.000    0.000    0.000    0.000 
#
# Total GULP energy -89333.279138 kJ/mol
# GULP energy per Si atom -5583.329946 kJ/mol
# Density = 2.567594 g / cm^3
# Si number density = 25.734511 Si / 1000 Ang^3
#
#
#
# Elastic Constant Matrix: (Units=GPa)
#
#
# Indices 1 2 3 4 5 6 
#
# 1 75.0345 55.2461 21.1448 4.5190 1.9261 17.9038
# 2 55.2461 136.5935 53.8439 -32.3850 2.6652 14.0356
# 3 21.1448 53.8439 110.3851 -11.6867 10.3140 20.3420
# 4 4.5190 -32.3850 -11.6867 53.5485 16.9048 2.9226
# 5 1.9261 2.6652 10.3140 16.9048 44.5737 8.2704
# 6 17.9038 14.0356 20.3420 2.9226 8.2704 39.2243
#
#
#
# Elastic Compliance Matrix: (Units=1/GPa)
#
#
# Indices 1 2 3 4 5 6 
#
# 1 0.023995 -0.011807 0.001059 -0.009977 0.004600 -0.007504
# 2 -0.011807 0.016394 -0.004540 0.011070 -0.003968 0.001889
# 3 0.001059 -0.004540 0.012223 0.000721 -0.001979 -0.004834
# 4 -0.009977 0.011070 0.000721 0.030100 -0.011903 0.000486
# 5 0.004600 -0.003968 -0.001979 -0.011903 0.028325 -0.004739
# 6 -0.007504 0.001889 -0.004834 0.000486 -0.004739 0.031713
#
#
# Mechanical properties :
#
#
# Convention : Reuss Voigt Hill
#
# Bulk Modulus (GPa) = 45.37926 64.72031 55.04979
# Shear Modulus (GPa) = 27.67473 40.25449 33.96461
#
# Velocity S-wave (km/s) = 3.28288 3.95932 3.63686
# Velocity P-wave (km/s) = 5.66053 6.79010 6.25088
#
# Compressibility (1/GPa) = 0.02203650
#
# Stress axis : x y z
#
# Youngs Moduli (GPa) = 41.67590 60.99859 81.81214
#
# Poissons Ratio (x) = 0.72018 -0.08667
# Poissons Ratio (y) = 0.49205 0.37147
# Poissons Ratio (z) = -0.04415 0.27696
#
# Static dielectric constant tensor:
#      x y z
#    x 2.056420 -0.052320 0.025010 
#    y -0.052320 2.128740 -0.007690 
#    z 0.025010 -0.007690 2.239560 
# 
# From -- ./inp_files/207050.got.cif
#   From: 2010.05.17/outbox.cif.g08.bks.cpg/sg2_104_cif.got.tgz:207050.got - 2010.06.03 11:33:40.
