data_PCOD9081412
_publ_section_title
;
Structure prediction by ZEFSAII (Michael W. Deem and Ramdas Pophale) SiO2 
 PCOD9081412
Probable space group: P -1
;
_chemical_formula_sum "Si O2"
_cell_formula_units_Z 16
_cell_length_a 20.584249
_cell_length_b 7.868673
_cell_length_c 14.891087
_cell_angle_alpha 54.088236
_cell_angle_beta 18.838491
_cell_angle_gamma 51.167965
_cell_volume 606.456358
_symmetry_space_group_name_H-M "P -1"
_symmetry_group_IT_number 2
_symmetry_cell_setting 'triclinic'
loop_
_space_group_symop_operation_xyz
x,y,z
-x,-y,-z
loop_
_atom_site_type_symbol
_atom_site_label
_atom_site_fract_x
_atom_site_fract_y
_atom_site_fract_z
Si Si1 0.105503 0.776515 0.377797
Si Si2 0.677759 0.715080 0.933092
Si Si3 0.472072 0.236326 0.086203
Si Si4 0.353781 0.368535 0.686484
Si Si5 0.757908 0.041307 0.201250
Si Si6 0.918027 0.892535 0.843065
Si Si7 0.712744 0.311292 0.465922
Si Si8 0.166810 0.146147 0.654126
O O1 0.924550 0.653673 0.649452
O O2 0.122568 0.881093 0.225545
O O3 0.331024 0.688454 0.156125
O O4 0.000000 0.000000 0.500000
O O5 0.636355 0.680633 0.892733
O O6 0.530478 0.602046 0.216708
O O7 0.577610 0.974121 0.008064
O O8 0.295731 0.263737 0.385835
O O9 0.500000 0.500000 0.500000
O O10 0.523505 0.180091 0.472170
O O11 0.219804 0.518312 0.738110
O O12 0.216129 0.266927 0.965858
O O13 0.782213 0.866514 0.303880
O O14 0.917080 0.192077 0.963454
O O15 0.834762 0.941228 0.036999
O O16 0.159606 0.765812 0.584684
O O17 0.750798 0.099916 0.417627
#
# Coordination Sequence:
#
# PCOD9081412 Si02
#       8
#     2   2   2   2   2   2   2   2
#     4  10  19  31  58  91 116 143 196 251 290 333
#     4   9  17  31  52  85 116 146 186 248 294 333
#     4   9  16  29  51  81 114 145 190 241 289 335
#     4  12  24  37  56  86 120 156 194 237 293 356
#     4  10  20  36  57  84 115 155 197 240 291 345
#     4  11  23  38  59  87 117 153 198 242 288 350
#     4  10  20  37  57  83 122 153 190 240 300 346
#     4   9  17  33  58  82 114 153 191 240 290 345
#
# _framework density 26.382773
#
# number of rings (size 3 to 8) (size 9 to 14) (size 15 to 20)
#    0.000    2.000    1.250    5.250    3.500    0.000 
#    0.000    0.000    0.000    3.000    0.000    3.500 
#    0.000    0.000    0.000    0.000    0.000    0.000 
#
# Total GULP energy -89512.096207 kJ/mol
# GULP energy per Si atom -5594.506013 kJ/mol
# Density = 2.632272 g / cm^3
# Si number density = 26.382773 Si / 1000 Ang^3
#
#
#
# Elastic Constant Matrix: (Units=GPa)
#
#
# Indices 1 2 3 4 5 6 
#
# 1 119.4291 13.5916 67.1137 6.4434 -5.6782 -2.0420
# 2 13.5916 40.8300 20.1157 -8.4590 -6.9767 -8.4292
# 3 67.1137 20.1157 173.4547 -6.1380 -9.9654 -12.5363
# 4 6.4434 -8.4590 -6.1380 27.3583 -2.9717 -3.4241
# 5 -5.6782 -6.9767 -9.9654 -2.9717 49.6396 5.9007
# 6 -2.0420 -8.4292 -12.5363 -3.4241 5.9007 35.9831
#
#
#
# Elastic Compliance Matrix: (Units=1/GPa)
#
#
# Indices 1 2 3 4 5 6 
#
# 1 0.011414 -0.003088 -0.004383 -0.004890 -0.000056 -0.002059
# 2 -0.003088 0.030486 -0.001238 0.011136 0.003515 0.007018
# 3 -0.004383 -0.001238 0.007921 0.002809 0.000803 0.002356
# 4 -0.004890 0.011136 0.002809 0.042997 0.003329 0.006855
# 5 -0.000056 0.003515 0.000803 0.003329 0.021239 -0.002066
# 6 -0.002059 0.007018 0.002356 0.006855 -0.002066 0.031130
#
#
# Mechanical properties :
#
#
# Convention : Reuss Voigt Hill
#
# Bulk Modulus (GPa) = 30.86101 59.48397 45.17249
# Shear Modulus (GPa) = 28.83443 38.12238 33.47840
#
# Velocity S-wave (km/s) = 3.30953 3.80540 3.56610
# Velocity P-wave (km/s) = 5.13096 6.47330 5.84082
#
# Compressibility (1/GPa) = 0.03240334
#
# Stress axis : x y z
#
# Youngs Moduli (GPa) = 87.61417 32.80195 126.25452
#
# Poissons Ratio (x) = 0.10128 0.55340
# Poissons Ratio (y) = 0.27053 0.15624
# Poissons Ratio (z) = 0.38403 0.04059
#
# Static dielectric constant tensor:
#      x y z
#    x 2.047100 0.174870 -0.126770 
#    y 0.174870 1.994560 0.014150 
#    z -0.126770 0.014150 2.033360 
# 
# From -- ./inp_files/540432.got.cif
#   From: 2010.05.17/outbox.cif.g08.bks.cpg/sg2_271_cif.got.tgz:540432.got - 2010.06.03 11:33:40.
