data_PCOD9081662
_publ_section_title
;
Structure prediction by ZEFSAII (Michael W. Deem and Ramdas Pophale) SiO2 
 PCOD9081662
Probable space group: P -1
;
_chemical_formula_sum "Si O2"
_cell_formula_units_Z 14
_cell_length_a 15.802981
_cell_length_b 8.924981
_cell_length_c 15.735189
_cell_angle_alpha 115.994122
_cell_angle_beta 27.530718
_cell_angle_gamma 134.622111
_cell_volume 604.347816
_symmetry_space_group_name_H-M "P -1"
_symmetry_group_IT_number 2
_symmetry_cell_setting 'triclinic'
loop_
_space_group_symop_operation_xyz
x,y,z
-x,-y,-z
loop_
_atom_site_type_symbol
_atom_site_label
_atom_site_fract_x
_atom_site_fract_y
_atom_site_fract_z
Si Si1 0.212944 0.504207 0.030614
Si Si2 0.806964 0.537848 0.773490
Si Si3 0.725708 0.263967 0.131901
Si Si4 0.639433 0.294436 0.690758
Si Si5 0.353030 0.476850 0.418690
Si Si6 0.194798 0.057784 0.768162
Si Si7 0.161552 0.095447 0.623053
O O1 0.292666 0.596209 0.079473
O O2 0.216230 0.656653 0.999415
O O3 0.427358 0.512610 0.806605
O O4 0.914759 0.202348 0.220285
O O5 0.617535 0.369471 0.819579
O O6 0.101119 0.651637 0.520571
O O7 0.904815 0.794607 0.761827
O O8 0.458890 0.199660 0.375921
O O9 0.623022 0.003675 0.171392
O O10 0.000000 0.500000 0.000000
O O11 0.722342 0.478995 0.588538
O O12 0.500121 0.711560 0.408110
O O13 0.148696 0.232439 0.599864
O O14 0.162384 0.143781 0.733223
O O15 0.000000 0.000000 0.000000
#
# Coordination Sequence:
#
# PCOD9081662 Si02
#       7
#     2   2   2   2   2   2   2
#     4   9  19  35  54  75 109 146 178 220 268 321
#     4   9  20  39  54  74 107 148 183 218 272 320
#     4  10  20  35  55  82 111 143 179 220 274 326
#     4  10  21  36  56  78 107 141 184 228 263 320
#     4  10  19  32  53  82 107 139 180 223 268 314
#     4   9  17  32  54  80 109 139 175 219 269 321
#     4   9  19  35  56  78 111 145 175 222 271 322
#
# _framework density 23.165467
#
# number of rings (size 3 to 8) (size 9 to 14) (size 15 to 20)
#    0.000    2.571    0.000    1.286    0.000    4.000 
#    0.000    8.571    0.000    0.000    0.000    0.000 
#    0.000    0.000    0.000    0.000    0.000    0.000 
#
# Total GULP energy -78202.188700 kJ/mol
# GULP energy per Si atom -5585.870621 kJ/mol
# Density = 2.311274 g / cm^3
# Si number density = 23.165467 Si / 1000 Ang^3
#
#
#
# Elastic Constant Matrix: (Units=GPa)
#
#
# Indices 1 2 3 4 5 6 
#
# 1 159.0126 61.0869 43.4994 -1.8946 43.5084 6.3940
# 2 61.0869 33.9375 23.5924 -4.4248 10.6259 20.0567
# 3 43.4994 23.5924 65.2922 -2.8626 4.1129 1.4795
# 4 -1.8946 -4.4248 -2.8626 11.0771 -8.6374 13.2727
# 5 43.5084 10.6259 4.1129 -8.6374 51.2742 3.4130
# 6 6.3940 20.0567 1.4795 13.2727 3.4130 23.4054
#
#
#
# Elastic Compliance Matrix: (Units=1/GPa)
#
#
# Indices 1 2 3 4 5 6 
#
# 1 0.007280 0.004921 -0.005100 0.022800 -0.001712 -0.018563
# 2 0.004921 -0.004078 -0.004542 -0.064840 -0.016660 0.041636
# 3 -0.005100 -0.004542 0.020445 0.008658 0.005199 -0.001675
# 4 0.022800 -0.064840 0.008658 0.021025 -0.005570 0.037676
# 5 -0.001712 -0.016660 0.005199 -0.005570 0.022097 0.014352
# 6 -0.018563 0.041636 -0.001675 0.037676 0.014352 -0.011235
#
#
# Mechanical properties :
#
#
# Convention : Reuss Voigt Hill
#
# Bulk Modulus (GPa) = 70.39848 57.17776 63.78812
# Shear Modulus (GPa) = 71.72456 25.82226 48.77341
#
# Velocity S-wave (km/s) = 5.57037 3.34232 4.59348
# Velocity P-wave (km/s) = 8.47511 6.29529 7.46519
#
# Compressibility (1/GPa) = 0.01420485
#
# Stress axis : x y z
#
# Youngs Moduli (GPa) = 137.36120 -245.22394 48.91250
#
# Poissons Ratio (x) = 1.20666 0.24946
# Poissons Ratio (y) = -0.67591 0.22214
# Poissons Ratio (z) = 0.70056 -1.11370
#
# Static dielectric constant tensor:
#      x y z
#    x 1.871040 -0.001860 -0.002860 
#    y -0.001860 1.884660 0.002240 
#    z -0.002860 0.002240 1.926220 
# 
# From -- ./inp_files/180763.got.cif
#   From: 2010.05.17/outbox.cif.g08.bks.cpg/sg2_91_cif.got.tgz:180763.got - 2010.06.03 11:33:40.
