data_PCOD9081060
_publ_section_title
;
Structure prediction by ZEFSAII (Michael W. Deem and Ramdas Pophale) SiO2 
 PCOD9081060
Probable space group: P -1
;
_chemical_formula_sum "Si O2"
_cell_formula_units_Z 14
_cell_length_a 15.377281
_cell_length_b 13.390077
_cell_length_c 5.652451
_cell_angle_alpha 64.519189
_cell_angle_beta 118.120066
_cell_angle_gamma 144.436715
_cell_volume 594.510757
_symmetry_space_group_name_H-M "P -1"
_symmetry_group_IT_number 2
_symmetry_cell_setting 'triclinic'
loop_
_space_group_symop_operation_xyz
x,y,z
-x,-y,-z
loop_
_atom_site_type_symbol
_atom_site_label
_atom_site_fract_x
_atom_site_fract_y
_atom_site_fract_z
Si Si1 0.258799 0.186673 0.264183
Si Si2 0.198771 0.084575 0.787617
Si Si3 0.570149 0.436268 0.932853
Si Si4 0.106167 0.752616 0.943192
Si Si5 0.565406 0.330733 0.537123
Si Si6 0.653501 0.192626 0.559096
Si Si7 0.868427 0.405823 0.234123
O O1 0.167916 0.119732 0.463252
O O2 0.374985 0.390011 0.183327
O O3 0.378539 0.185606 0.440487
O O4 0.159066 0.089368 0.997642
O O5 0.386237 0.256368 0.871851
O O6 0.131986 0.904452 0.842315
O O7 0.622870 0.431847 0.752757
O O8 0.621825 0.436574 0.256639
O O9 0.146301 0.725382 0.778353
O O10 0.227303 0.798169 0.223967
O O11 0.938779 0.559816 0.995042
O O12 0.619716 0.251891 0.658738
O O13 0.718912 0.306932 0.291623
O O14 0.500000 0.000000 0.500000
O O15 0.000000 0.500000 0.500000
#
# Coordination Sequence:
#
# PCOD9081060 Si02
#       7
#     2   2   2   2   2   2   2
#     4  10  19  34  52  84 119 154 194 248 301 354
#     4  10  19  30  57  81 109 151 198 241 291 348
#     4  10  19  34  52  81 123 154 193 245 304 357
#     4  10  22  39  59  84 119 165 206 243 287 368
#     4  10  20  31  51  81 114 160 186 231 303 357
#     4  11  23  35  57  90 128 156 194 250 306 361
#     4   9  22  41  59  76 120 163 210 245 291 349
#
# _framework density 23.548774000000002
#
# number of rings (size 3 to 8) (size 9 to 14) (size 15 to 20)
#    0.000    2.000    0.000    6.000   10.000    0.571 
#    0.000    0.000    0.000    0.000    0.000   11.000 
#    0.000    0.000    0.000    0.000    0.000    0.000 
#
# Total GULP energy -78131.166569 kJ/mol
# GULP energy per Si atom -5580.797612 kJ/mol
# Density = 2.349518 g / cm^3
# Si number density = 23.548774 Si / 1000 Ang^3
#
#
#
# Elastic Constant Matrix: (Units=GPa)
#
#
# Indices 1 2 3 4 5 6 
#
# 1 74.4861 41.1015 22.7937 4.0294 -35.1627 -5.5341
# 2 41.1015 123.4385 22.5586 10.7709 -12.8307 -26.6368
# 3 22.7937 22.5586 126.8651 13.8494 -37.9232 -9.7755
# 4 4.0294 10.7709 13.8494 22.3230 -10.9834 -4.3099
# 5 -35.1627 -12.8307 -37.9232 -10.9834 42.2235 13.4108
# 6 -5.5341 -26.6368 -9.7755 -4.3099 13.4108 32.4087
#
#
#
# Elastic Compliance Matrix: (Units=1/GPa)
#
#
# Indices 1 2 3 4 5 6 
#
# 1 0.036309 -0.014008 0.004995 0.013091 0.039752 -0.018516
# 2 -0.014008 0.015643 -0.003203 -0.008352 -0.016839 0.015356
# 3 0.004995 -0.003203 0.011742 -0.000058 0.015151 -0.004516
# 4 0.013091 -0.008352 -0.000058 0.057693 0.025741 -0.007626
# 5 0.039752 -0.016839 0.015151 0.025741 0.082522 -0.033207
# 6 -0.018516 0.015356 -0.004516 -0.007626 -0.033207 0.051680
#
#
# Mechanical properties :
#
#
# Convention : Reuss Voigt Hill
#
# Bulk Modulus (GPa) = 25.47137 55.29968 40.38552
# Shear Modulus (GPa) = 17.05843 35.28010 26.16926
#
# Velocity S-wave (km/s) = 2.69436 3.87482 3.33720
# Velocity P-wave (km/s) = 4.52983 6.59947 5.66005
#
# Compressibility (1/GPa) = 0.03925977
#
# Stress axis : x y z
#
# Youngs Moduli (GPa) = 27.54156 63.92569 85.16350
#
# Poissons Ratio (x) = 0.89549 -0.42535
# Poissons Ratio (y) = 0.38581 0.27281
# Poissons Ratio (z) = -0.13756 0.20478
#
# Static dielectric constant tensor:
#      x y z
#    x 1.947510 0.046300 0.114710 
#    y 0.046300 1.843260 -0.007780 
#    z 0.114710 -0.007780 2.093350 
# 
# From -- ./inp_files/27552.got.cif
#   From: 2010.05.17/outbox.cif.g08.bks.cpg/sg2_14_cif.got.tgz:27552.got - 2010.06.03 11:33:40.
