data_PCOD9081241
_publ_section_title
;
Structure prediction by ZEFSAII (Michael W. Deem and Ramdas Pophale) SiO2 
 PCOD9081241
Probable space group: P -1
;
_chemical_formula_sum "Si O2"
_cell_formula_units_Z 14
_cell_length_a 7.624998
_cell_length_b 10.531424
_cell_length_c 13.458544
_cell_angle_alpha 49.379674
_cell_angle_beta 57.495304
_cell_angle_gamma 46.919382
_cell_volume 590.732047
_symmetry_space_group_name_H-M "P -1"
_symmetry_group_IT_number 2
_symmetry_cell_setting 'triclinic'
loop_
_space_group_symop_operation_xyz
x,y,z
-x,-y,-z
loop_
_atom_site_type_symbol
_atom_site_label
_atom_site_fract_x
_atom_site_fract_y
_atom_site_fract_z
Si Si1 0.936673 0.698156 0.977083
Si Si2 0.158405 0.670046 0.593067
Si Si3 0.590916 0.219410 0.688690
Si Si4 0.673143 0.341994 0.242172
Si Si5 0.157080 0.169591 0.843047
Si Si6 0.415930 0.801742 0.070428
Si Si7 0.141345 0.465058 0.370649
O O1 0.130707 0.757475 0.854934
O O2 0.935090 0.694985 0.098216
O O3 0.649524 0.827620 0.978063
O O4 0.000000 0.500000 0.000000
O O5 0.403390 0.454286 0.631765
O O6 0.207525 0.807087 0.437069
O O7 0.147026 0.720449 0.686087
O O8 0.955468 0.638020 0.621941
O O9 0.412422 0.147509 0.743128
O O10 0.672235 0.161791 0.806922
O O11 0.534747 0.571295 0.135994
O O12 0.435785 0.333293 0.348840
O O13 0.959180 0.311751 0.751102
O O14 0.230539 0.955406 0.969128
O O15 0.000000 0.500000 0.500000
#
# Coordination Sequence:
#
# PCOD9081241 Si02
#       7
#     2   2   2   2   2   2   2
#     4   9  17  31  52  79 108 139 174 213 261 318
#     4   9  17  31  50  74 103 135 173 218 256 294
#     4   8  13  26  48  71  97 130 167 208 253 297
#     4  10  20  34  54  82 109 138 177 217 261 314
#     4  10  19  31  52  81 108 137 173 219 270 314
#     4   9  17  31  52  78 107 136 173 218 265 316
#     4  11  21  33  54  80 105 138 183 222 257 311
#
# _framework density 23.699407999999998
#
# number of rings (size 3 to 8) (size 9 to 14) (size 15 to 20)
#    0.000    2.571    0.000    7.714    0.000    1.143 
#    0.000    0.000    0.000    7.714    0.000   14.000 
#    0.000    0.000    0.000    0.000    0.000    0.000 
#
# Total GULP energy -77965.383054 kJ/mol
# GULP energy per Si atom -5568.955932 kJ/mol
# Density = 2.364547 g / cm^3
# Si number density = 23.699408 Si / 1000 Ang^3
#
#
#
# Elastic Constant Matrix: (Units=GPa)
#
#
# Indices 1 2 3 4 5 6 
#
# 1 101.7166 27.2880 30.6125 17.8074 -4.9885 -35.1949
# 2 27.2880 67.8457 37.1296 -3.2288 -2.6454 -12.4286
# 3 30.6125 37.1296 105.4219 14.2625 -8.4410 -27.0001
# 4 17.8074 -3.2288 14.2625 31.7505 -10.9335 -9.5229
# 5 -4.9885 -2.6454 -8.4410 -10.9335 22.0925 4.6547
# 6 -35.1949 -12.4286 -27.0001 -9.5229 4.6547 27.1769
#
#
#
# Elastic Compliance Matrix: (Units=1/GPa)
#
#
# Indices 1 2 3 4 5 6 
#
# 1 0.019971 -0.005763 0.003181 -0.007121 -0.003655 0.024518
# 2 -0.005763 0.021222 -0.007402 0.009162 0.003472 -0.002496
# 3 0.003181 -0.007402 0.015558 -0.005151 0.000203 0.014351
# 4 -0.007121 0.009162 -0.005151 0.046403 0.019917 0.002700
# 5 -0.003655 0.003472 0.000203 0.019917 0.055958 -0.005549
# 6 0.024518 -0.002496 0.014351 0.002700 -0.005549 0.083561
#
#
# Mechanical properties :
#
#
# Convention : Reuss Voigt Hill
#
# Bulk Modulus (GPa) = 27.18663 51.67160 39.42911
# Shear Modulus (GPa) = 18.18831 28.20091 23.19461
#
# Velocity S-wave (km/s) = 2.77331 3.45330 3.13181
# Velocity P-wave (km/s) = 4.66383 6.14415 5.45444
#
# Compressibility (1/GPa) = 0.03678279
#
# Stress axis : x y z
#
# Youngs Moduli (GPa) = 50.07267 47.12034 64.27734
#
# Poissons Ratio (x) = 0.27156 -0.20445
# Poissons Ratio (y) = 0.28857 0.47576
# Poissons Ratio (z) = -0.15927 0.34877
#
# Static dielectric constant tensor:
#      x y z
#    x 2.009260 0.005220 -0.070640 
#    y 0.005220 1.902440 -0.036130 
#    z -0.070640 -0.036130 1.979980 
# 
# From -- ./inp_files/502601.got.cif
#   From: 2010.05.17/outbox.cif.g08.bks.cpg/sg2_252_cif.got.tgz:502601.got - 2010.06.03 11:33:40.
