data_PCOD9081939
_publ_section_title
;
Structure prediction by ZEFSAII (Michael W. Deem and Ramdas Pophale) SiO2 
 PCOD9081939
Probable space group: P -1
;
_chemical_formula_sum "Si O2"
_cell_formula_units_Z 13
_cell_length_a 7.446150
_cell_length_b 14.621845
_cell_length_c 5.480798
_cell_angle_alpha 69.723579
_cell_angle_beta 120.403141
_cell_angle_gamma 93.985238
_cell_volume 478.625345
_symmetry_space_group_name_H-M "P -1"
_symmetry_group_IT_number 2
_symmetry_cell_setting 'triclinic'
loop_
_space_group_symop_operation_xyz
x,y,z
-x,-y,-z
loop_
_atom_site_type_symbol
_atom_site_label
_atom_site_fract_x
_atom_site_fract_y
_atom_site_fract_z
Si Si1 0.175305 0.611348 0.405782
Si Si2 0.750622 0.847967 0.542792
Si Si3 0.258343 0.921666 0.648275
Si Si4 0.309639 0.213335 0.940688
Si Si5 0.000000 0.500000 0.000000
Si Si6 0.715898 0.583118 0.132435
Si Si7 0.251527 0.830702 0.230866
O O1 0.331117 0.520603 0.703131
O O2 0.238805 0.717060 0.375343
O O3 0.951583 0.598262 0.400806
O O4 0.139449 0.580383 0.133605
O O5 0.824736 0.800425 0.896734
O O6 0.500250 0.839793 0.384645
O O7 0.767348 0.962889 0.431798
O O8 0.815233 0.790748 0.391904
O O9 0.505881 0.878371 0.850304
O O10 0.169459 0.896355 0.346943
O O11 0.174337 0.868091 0.874848
O O12 0.407479 0.314815 0.958515
O O13 0.211766 0.433971 0.079493
#
# Coordination Sequence:
#
# PCOD9081939 Si02
#       7
#     2   2   2   2   1   2   2
#     4   9  20  34  54  77 104 140 176 216 258 314
#     4  10  20  36  55  78 107 141 174 216 266 310
#     4  10  20  36  55  78 107 141 174 216 266 310
#     4  10  19  32  58  78 102 139 182 209 260 319
#     4   8  18  36  56  70 106 142 182 204 268 304
#     4   9  20  34  54  77 104 140 176 216 258 314
#     4  10  19  32  58  78 102 139 182 209 260 319
#
# _framework density 27.161117000000001
#
# number of rings (size 3 to 8) (size 9 to 14) (size 15 to 20)
#    0.923    1.538    0.000    4.615    4.308    0.000 
#    0.000    6.154    0.000   10.154    0.000    0.000 
#    0.000    0.000    0.000    0.000    0.000    0.000 
#
# Total GULP energy -72443.684976 kJ/mol
# GULP energy per Si atom -5572.591152 kJ/mol
# Density = 2.709930 g / cm^3
# Si number density = 27.161117 Si / 1000 Ang^3
#
#
#
# Elastic Constant Matrix: (Units=GPa)
#
#
# Indices 1 2 3 4 5 6 
#
# 1 73.4330 14.0546 13.2496 -2.9899 -11.5196 6.7367
# 2 14.0546 239.2883 74.4597 -2.0525 -26.0146 -9.7736
# 3 13.2496 74.4597 139.8068 15.5772 -25.3059 0.3579
# 4 -2.9899 -2.0525 15.5772 49.8617 2.3042 -37.8839
# 5 -11.5196 -26.0146 -25.3059 2.3042 40.9464 5.7386
# 6 6.7367 -9.7736 0.3579 -37.8839 5.7386 -7.8293
#
#
#
# Elastic Compliance Matrix: (Units=1/GPa)
#
#
# Indices 1 2 3 4 5 6 
#
# 1 0.014198 -0.000087 -0.001073 0.002559 0.002854 0.001985
# 2 -0.000087 0.005018 -0.002210 -0.000627 0.002095 -0.001871
# 3 -0.001073 -0.002210 0.009001 0.000087 0.003261 0.004218
# 4 0.002559 -0.000627 0.000087 0.005106 0.002840 -0.019636
# 5 0.002854 0.002095 0.003261 0.002840 0.027513 0.006413
# 6 0.001985 -0.001871 0.004218 -0.019636 0.006413 -0.023775
#
#
# Mechanical properties :
#
#
# Convention : Reuss Voigt Hill
#
# Bulk Modulus (GPa) = 46.56160 72.89512 59.72836
# Shear Modulus (GPa) = 98.11577 39.98004 69.04790
#
# Velocity S-wave (km/s) = 6.01681 3.84077 5.04745
# Velocity P-wave (km/s) = 8.09008 6.82386 7.48379
#
# Compressibility (1/GPa) = 0.02147693
#
# Stress axis : x y z
#
# Youngs Moduli (GPa) = 70.43310 199.28508 111.09332
#
# Poissons Ratio (x) = 0.01729 0.11920
# Poissons Ratio (y) = 0.00611 0.24556
# Poissons Ratio (z) = 0.07557 0.44051
#
# Static dielectric constant tensor:
#      x y z
#    x 2.596050 -0.022830 -1.291640 
#    y -0.022830 2.051380 0.373820 
#    z -1.291640 0.373820 8.525110 
# 
# From -- ./inp_files/23542.got.cif
#   From: 2010.05.17/outbox.cif.g08.bks.cpg/sg2_12_cif.got.tgz:23542.got - 2010.06.03 11:33:40.
