data_PCOD9081930
_publ_section_title
;
Structure prediction by ZEFSAII (Michael W. Deem and Ramdas Pophale) SiO2 
 PCOD9081930
Probable space group: P -1
;
_chemical_formula_sum "Si O2"
_cell_formula_units_Z 14
_cell_length_a 8.202439
_cell_length_b 11.946202
_cell_length_c 9.104759
_cell_angle_alpha 85.042196
_cell_angle_beta 110.646402
_cell_angle_gamma 134.710436
_cell_volume 575.517110
_symmetry_space_group_name_H-M "P -1"
_symmetry_group_IT_number 2
_symmetry_cell_setting 'triclinic'
loop_
_space_group_symop_operation_xyz
x,y,z
-x,-y,-z
loop_
_atom_site_type_symbol
_atom_site_label
_atom_site_fract_x
_atom_site_fract_y
_atom_site_fract_z
Si Si1 0.197521 0.685958 0.103504
Si Si2 0.899153 0.077925 0.475515
Si Si3 0.760900 0.187108 0.196130
Si Si4 0.464330 0.372634 0.307143
Si Si5 0.986448 0.660662 0.335599
Si Si6 0.302035 0.528488 0.309644
Si Si7 0.509180 0.848489 0.622584
O O1 0.071899 0.702166 0.189167
O O2 0.381436 0.681338 0.239994
O O3 0.298441 0.810079 0.990753
O O4 0.000000 0.500000 0.000000
O O5 0.854094 0.110808 0.296993
O O6 0.062359 0.246029 0.600050
O O7 0.657742 0.968741 0.519210
O O8 0.000000 0.000000 0.500000
O O9 0.535904 0.109000 0.244696
O O10 0.007861 0.382667 0.278051
O O11 0.336538 0.432524 0.232906
O O12 0.541706 0.408344 0.499351
O O13 0.340080 0.193580 0.278771
O O14 0.716909 0.477218 0.280752
O O15 0.220054 0.707204 0.485320
#
# Coordination Sequence:
#
# PCOD9081930 Si02
#       7
#     2   2   2   2   2   2   2
#     4  10  21  37  60  89 124 156 194 241 298 359
#     4  11  24  41  61  88 119 153 204 251 293 345
#     4  10  20  40  58  85 120 157 194 242 295 356
#     4  11  19  32  61  92 117 147 200 250 290 335
#     4  11  21  38  62  89 118 158 203 239 293 356
#     4  10  19  32  57  92 119 150 190 247 298 337
#     4  11  21  37  62  88 116 157 204 243 291 352
#
# _framework density 24.325949000000001
#
# number of rings (size 3 to 8) (size 9 to 14) (size 15 to 20)
#    0.000    1.429    4.286    4.714    2.000    0.000 
#    0.000   11.429    0.000    0.000    0.000    0.000 
#    0.000    0.000    0.000    0.000    0.000    0.000 
#
# Total GULP energy -78082.838886 kJ/mol
# GULP energy per Si atom -5577.345635 kJ/mol
# Density = 2.427058 g / cm^3
# Si number density = 24.325949 Si / 1000 Ang^3
#
#
#
# Elastic Constant Matrix: (Units=GPa)
#
#
# Indices 1 2 3 4 5 6 
#
# 1 120.9012 32.2260 50.3485 -31.5454 -18.8478 -26.4349
# 2 32.2260 76.6212 39.7234 -42.5854 -2.8246 -6.1352
# 3 50.3485 39.7234 127.2068 -53.5377 -20.9053 -11.0829
# 4 -31.5454 -42.5854 -53.5377 61.0972 3.7272 1.3280
# 5 -18.8478 -2.8246 -20.9053 3.7272 22.2772 -7.6152
# 6 -26.4349 -6.1352 -11.0829 1.3280 -7.6152 49.7235
#
#
#
# Elastic Compliance Matrix: (Units=1/GPa)
#
#
# Indices 1 2 3 4 5 6 
#
# 1 0.014420 -0.002027 0.000408 0.005282 0.014732 0.009622
# 2 -0.002027 0.021865 -0.000206 0.014061 -0.001138 0.001024
# 3 0.000408 -0.000206 0.016491 0.013441 0.015560 0.005891
# 4 0.005282 0.014061 0.013441 0.039550 0.015263 0.008820
# 5 0.014732 -0.001138 0.015560 0.015263 0.076961 0.022539
# 6 0.009622 0.001024 0.005891 0.008820 0.022539 0.029883
#
#
# Mechanical properties :
#
#
# Convention : Reuss Voigt Hill
#
# Bulk Modulus (GPa) = 20.35540 63.25831 41.80685
# Shear Modulus (GPa) = 22.81060 40.11498 31.46279
#
# Velocity S-wave (km/s) = 3.06552 4.06527 3.60027
# Velocity P-wave (km/s) = 4.57338 6.93514 5.87418
#
# Compressibility (1/GPa) = 0.04912702
#
# Stress axis : x y z
#
# Youngs Moduli (GPa) = 69.34611 45.73450 60.63838
#
# Poissons Ratio (x) = 0.09271 -0.02473
# Poissons Ratio (y) = 0.14058 0.01247
# Poissons Ratio (z) = -0.02829 0.00940
#
# Static dielectric constant tensor:
#      x y z
#    x 2.030030 -0.021080 0.062310 
#    y -0.021080 2.065520 0.050800 
#    z 0.062310 0.050800 2.040000 
# 
# From -- ./inp_files/154847.got.cif
#   From: 2010.05.17/outbox.cif.g08.bks.cpg/sg2_78_cif.got.tgz:154847.got - 2010.06.03 11:33:40.
