data_PCOD9081762
_publ_section_title
;
Structure prediction by ZEFSAII (Michael W. Deem and Ramdas Pophale) SiO2 
 PCOD9081762
Probable space group: P -1
;
_chemical_formula_sum "Si O2"
_cell_formula_units_Z 16
_cell_length_a 15.088651
_cell_length_b 8.141845
_cell_length_c 12.097276
_cell_angle_alpha 56.422540
_cell_angle_beta 35.365059
_cell_angle_gamma 76.335438
_cell_volume 641.620712
_symmetry_space_group_name_H-M "P -1"
_symmetry_group_IT_number 2
_symmetry_cell_setting 'triclinic'
loop_
_space_group_symop_operation_xyz
x,y,z
-x,-y,-z
loop_
_atom_site_type_symbol
_atom_site_label
_atom_site_fract_x
_atom_site_fract_y
_atom_site_fract_z
Si Si1 0.857682 0.151632 0.728288
Si Si2 0.197499 0.450779 0.634755
Si Si3 0.345025 0.997237 0.470531
Si Si4 0.335294 0.533153 0.688828
Si Si5 0.321999 0.945403 0.260900
Si Si6 0.451330 0.556396 0.792206
Si Si7 0.770137 0.520185 0.754513
Si Si8 0.060324 0.117688 0.726011
O O1 0.778998 0.006182 0.754496
O O2 0.749043 0.278247 0.834413
O O3 0.039920 0.351207 0.434484
O O4 0.902218 0.042145 0.830102
O O5 0.192859 0.415810 0.784219
O O6 0.208282 0.684948 0.501370
O O7 0.387547 0.481919 0.394258
O O8 0.052771 0.239575 0.799892
O O9 0.468050 0.184718 0.358055
O O10 0.154584 0.966407 0.701024
O O11 0.374784 0.785496 0.536885
O O12 0.360714 0.051117 0.303134
O O13 0.500000 0.500000 0.500000
O O14 0.315926 0.486617 0.856039
O O15 0.500000 0.000000 0.000000
O O16 0.363095 0.461647 0.033547
O O17 0.796131 0.664858 0.565519
#
# Coordination Sequence:
#
# PCOD9081762 Si02
#       8
#     2   2   2   2   2   2   2   2
#     4   9  18  34  49  75 110 147 172 207 276 334
#     4   9  18  32  51  76 105 141 176 221 262 315
#     4  10  21  30  51  82 106 138 180 229 259 315
#     4   9  19  36  52  75 111 149 180 220 272 306
#     4  11  20  30  49  78 114 137 171 215 270 325
#     4  10  19  32  55  78 107 138 188 222 258 315
#     4   9  17  31  55  77 102 148 174 214 269 320
#     4   9  18  33  54  76 104 144 177 216 273 316
#
# _framework density 24.936851000000001
#
# number of rings (size 3 to 8) (size 9 to 14) (size 15 to 20)
#    0.750    1.750    1.250    1.125    1.750    1.500 
#    0.000    0.000    0.000    7.500    0.000    3.500 
#    0.000    0.000    0.000    0.000    0.000    0.000 
#
# Total GULP energy -89289.343951 kJ/mol
# GULP energy per Si atom -5580.583997 kJ/mol
# Density = 2.488009 g / cm^3
# Si number density = 24.936851 Si / 1000 Ang^3
#
#
#
# Elastic Constant Matrix: (Units=GPa)
#
#
# Indices 1 2 3 4 5 6 
#
# 1 165.5260 37.1242 18.5447 -3.6774 19.6625 22.7844
# 2 37.1242 95.4898 7.8059 8.2556 4.2201 -16.0213
# 3 18.5447 7.8059 62.4265 -0.1049 15.0772 6.9023
# 4 -3.6774 8.2556 -0.1049 11.5478 7.5845 7.7178
# 5 19.6625 4.2201 15.0772 7.5845 31.7908 2.5625
# 6 22.7844 -16.0213 6.9023 7.7178 2.5625 41.5106
#
#
#
# Elastic Compliance Matrix: (Units=1/GPa)
#
#
# Indices 1 2 3 4 5 6 
#
# 1 0.012388 -0.009706 0.002613 0.030387 -0.013590 -0.015791
# 2 -0.009706 0.021303 -0.005632 -0.041967 0.014132 0.021416
# 3 0.002613 -0.005632 0.020750 0.021747 -0.015078 -0.010171
# 4 0.030387 -0.041967 0.021747 0.221858 -0.070552 -0.073386
# 5 -0.013590 0.014132 -0.015078 -0.070552 0.059966 0.024836
# 6 -0.015791 0.021416 -0.010171 -0.073386 0.024836 0.054825
#
#
# Mechanical properties :
#
#
# Convention : Reuss Voigt Hill
#
# Bulk Modulus (GPa) = 34.49424 50.04357 42.26891
# Shear Modulus (GPa) = 11.73145 34.30101 23.01623
#
# Velocity S-wave (km/s) = 2.17133 3.71282 3.04136
# Velocity P-wave (km/s) = 4.48875 6.20417 5.41482
#
# Compressibility (1/GPa) = 0.02899035
#
# Stress axis : x y z
#
# Youngs Moduli (GPa) = 80.72031 46.94171 48.19365
#
# Poissons Ratio (x) = 0.45561 -0.12592
# Poissons Ratio (y) = 0.78346 0.27144
# Poissons Ratio (z) = -0.21090 0.26439
#
# Static dielectric constant tensor:
#      x y z
#    x 2.007850 0.003640 0.012640 
#    y 0.003640 2.033160 -0.049420 
#    z 0.012640 -0.049420 1.996840 
# 
# From -- ./inp_files/445737.got.cif
#   From: 2010.05.17/outbox.cif.g08.bks.cpg/sg2_223_cif.got.tgz:445737.got - 2010.06.03 11:33:40.
