data_PCOD9081894
_publ_section_title
;
Structure prediction by ZEFSAII (Michael W. Deem and Ramdas Pophale) SiO2 
 PCOD9081894
Probable space group: P -1
;
_chemical_formula_sum "Si O2"
_cell_formula_units_Z 16
_cell_length_a 21.839454
_cell_length_b 5.601609
_cell_length_c 7.251566
_cell_angle_alpha 62.674193
_cell_angle_beta 45.176423
_cell_angle_gamma 62.940502
_cell_volume 546.734565
_symmetry_space_group_name_H-M "P -1"
_symmetry_group_IT_number 2
_symmetry_cell_setting 'triclinic'
loop_
_space_group_symop_operation_xyz
x,y,z
-x,-y,-z
loop_
_atom_site_type_symbol
_atom_site_label
_atom_site_fract_x
_atom_site_fract_y
_atom_site_fract_z
Si Si1 0.334171 0.028364 0.019365
Si Si2 0.620944 0.729321 0.666626
Si Si3 0.566517 0.521964 0.188510
Si Si4 0.321332 0.750769 0.540233
Si Si5 0.859430 0.892288 0.722988
Si Si6 0.136210 0.654857 0.030640
Si Si7 0.815707 0.486074 0.441821
Si Si8 0.939176 0.796271 0.992814
O O1 0.372038 0.292272 0.905148
O O2 0.245879 0.097081 0.059796
O O3 0.399038 0.783602 0.861519
O O4 0.308231 0.900948 0.314018
O O5 0.627330 0.552826 0.528578
O O6 0.711123 0.577418 0.636824
O O7 0.629898 0.043672 0.524663
O O8 0.543801 0.691876 0.983089
O O9 0.500000 0.500000 0.500000
O O10 0.230021 0.739504 0.846700
O O11 0.887711 0.576097 0.704476
O O12 0.912435 0.865921 0.811462
O O13 0.860559 0.192904 0.534707
O O14 0.162813 0.540155 0.811429
O O15 0.051639 0.897499 0.087922
O O16 0.857204 0.746438 0.310786
O O17 0.000000 0.500000 0.000000
#
# Coordination Sequence:
#
# PCOD9081894 Si02
#       8
#     2   2   2   2   2   2   2   2
#     4  10  20  35  60  92 128 170 223 263 320 392
#     4   9  16  30  57  85 117 161 210 250 308 375
#     4  10  19  32  56  96 137 164 208 272 327 387
#     4   9  16  32  57  84 112 158 211 263 292 381
#     4  11  23  38  64  94 123 168 224 278 315 391
#     4  10  21  37  62  86 120 165 212 269 331 380
#     4  10  20  41  62  87 126 166 221 270 322 393
#     4  11  26  42  61  93 130 166 215 275 344 397
#
# _framework density 29.264655000000001
#
# number of rings (size 3 to 8) (size 9 to 14) (size 15 to 20)
#    0.000    2.000    5.000    0.375    1.750    3.500 
#    0.000    1.250    0.000    0.000    0.000   49.000 
#    0.000    0.000    0.000    0.000    0.000    0.000 
#
# Total GULP energy -89304.478884 kJ/mol
# GULP energy per Si atom -5581.529930 kJ/mol
# Density = 2.919805 g / cm^3
# Si number density = 29.264655 Si / 1000 Ang^3
#
#
#
# Elastic Constant Matrix: (Units=GPa)
#
#
# Indices 1 2 3 4 5 6 
#
# 1 68.5092 36.2933 26.9115 -9.9294 18.6512 6.9165
# 2 36.2933 230.0475 26.0181 -7.9746 7.5823 13.3098
# 3 26.9115 26.0181 82.7691 -15.0014 12.9326 4.7042
# 4 -9.9294 -7.9746 -15.0014 52.5940 -0.4805 8.8076
# 5 18.6512 7.5823 12.9326 -0.4805 47.0590 -7.8524
# 6 6.9165 13.3098 4.7042 8.8076 -7.8524 53.4525
#
#
#
# Elastic Compliance Matrix: (Units=1/GPa)
#
#
# Indices 1 2 3 4 5 6 
#
# 1 0.019946 -0.002184 -0.004037 0.002748 -0.006942 -0.003155
# 2 -0.002184 0.004829 -0.000734 0.000259 0.000145 -0.000877
# 3 -0.004037 -0.000734 0.014762 0.003575 -0.002562 -0.001560
# 4 0.002748 0.000259 0.003575 0.021345 -0.002670 -0.004644
# 5 -0.006942 0.000145 -0.002562 -0.002670 0.025536 0.005279
# 6 -0.003155 -0.000877 -0.001560 -0.004644 0.005279 0.021013
#
#
# Mechanical properties :
#
#
# Convention : Reuss Voigt Hill
#
# Bulk Modulus (GPa) = 39.01918 62.19684 50.60801
# Shear Modulus (GPa) = 38.49654 50.09461 44.29557
#
# Velocity S-wave (km/s) = 3.63086 4.14185 3.89475
# Velocity P-wave (km/s) = 5.56235 6.64625 6.12831
#
# Compressibility (1/GPa) = 0.02562842
#
# Stress axis : x y z
#
# Youngs Moduli (GPa) = 50.13579 207.06737 67.74151
#
# Poissons Ratio (x) = 0.45215 0.27345
# Poissons Ratio (y) = 0.10948 0.04973
# Poissons Ratio (z) = 0.20238 0.15201
#
# Static dielectric constant tensor:
#      x y z
#    x 2.657500 0.129660 -0.162800 
#    y 0.129660 2.425260 -0.035760 
#    z -0.162800 -0.035760 2.351490 
# 
# From -- ./inp_files/355886.got.cif
#   From: 2010.05.17/outbox.cif.g08.bks.cpg/sg2_178_cif.got.tgz:355886.got - 2010.06.03 11:33:40.
