data_PCOD9081475
_publ_section_title
;
Structure prediction by ZEFSAII (Michael W. Deem and Ramdas Pophale) SiO2 
 PCOD9081475
Probable space group: P -1
;
_chemical_formula_sum "Si O2"
_cell_formula_units_Z 16
_cell_length_a 20.235166
_cell_length_b 12.040202
_cell_length_c 13.299291
_cell_angle_alpha 32.136906
_cell_angle_beta 152.215938
_cell_angle_gamma 150.968324
_cell_volume 693.506646
_symmetry_space_group_name_H-M "P -1"
_symmetry_group_IT_number 2
_symmetry_cell_setting 'triclinic'
loop_
_space_group_symop_operation_xyz
x,y,z
-x,-y,-z
loop_
_atom_site_type_symbol
_atom_site_label
_atom_site_fract_x
_atom_site_fract_y
_atom_site_fract_z
Si Si1 0.350004 0.741377 0.957653
Si Si2 0.232790 0.787406 0.267633
Si Si3 0.187014 0.216494 0.417963
Si Si4 0.881950 0.372575 0.085193
Si Si5 0.646202 0.705883 0.604494
Si Si6 0.166837 0.033486 0.825998
Si Si7 0.536931 0.626686 0.156105
Si Si8 0.568531 0.887456 0.549594
O O1 0.309057 0.465809 0.140819
O O2 0.421017 0.737322 0.943505
O O3 0.206004 0.722703 0.852342
O O4 0.500000 0.000000 0.000000
O O5 0.389772 0.840037 0.372651
O O6 0.077958 0.522821 0.249336
O O7 0.296279 0.867573 0.404184
O O8 0.175080 0.960060 0.007478
O O9 0.226602 0.126094 0.436967
O O10 0.337992 0.311067 0.626714
O O11 0.017513 0.015731 0.392966
O O12 0.167092 0.442195 0.177547
O O13 0.833095 0.162533 0.100225
O O14 0.500000 0.500000 0.500000
O O15 0.595868 0.851851 0.498320
O O16 0.334316 0.270722 0.840301
O O17 0.431264 0.339568 0.223231
#
# Coordination Sequence:
#
# PCOD9081475 Si02
#       8
#     2   2   2   2   2   2   2   2
#     4  10  19  32  49  85 110 138 175 224 282 315
#     4  10  22  38  56  80 110 151 185 222 267 329
#     4  10  19  33  50  83 109 139 182 225 273 317
#     4  10  20  33  56  79 113 143 185 230 268 318
#     4  10  19  32  57  78 107 138 183 231 262 321
#     4  11  21  32  55  82 113 144 178 233 275 314
#     4  11  20  33  55  83 112 142 181 227 277 321
#     4  10  21  38  58  79 110 146 190 219 271 331
#
# _framework density 23.071155000000001
#
# number of rings (size 3 to 8) (size 9 to 14) (size 15 to 20)
#    0.000    1.750    3.750    3.375    1.750    0.500 
#    0.000   10.000    0.000    0.000    0.000    7.000 
#    0.000    0.000    0.000    0.000    0.000    0.000 
#
# Total GULP energy -89122.313092 kJ/mol
# GULP energy per Si atom -5570.144568 kJ/mol
# Density = 2.301864 g / cm^3
# Si number density = 23.071155 Si / 1000 Ang^3
#
#
#
# Elastic Constant Matrix: (Units=GPa)
#
#
# Indices 1 2 3 4 5 6 
#
# 1 99.2868 0.0121 23.1946 7.1318 14.0063 9.5108
# 2 0.0121 48.4774 15.3606 0.2349 -7.6845 3.8189
# 3 23.1946 15.3606 47.8831 3.5319 3.2391 -7.1345
# 4 7.1318 0.2349 3.5319 23.7183 8.8636 -6.4775
# 5 14.0063 -7.6845 3.2391 8.8636 20.6066 -3.6198
# 6 9.5108 3.8189 -7.1345 -6.4775 -3.6198 42.9660
#
#
#
# Elastic Compliance Matrix: (Units=1/GPa)
#
#
# Indices 1 2 3 4 5 6 
#
# 1 0.013422 0.001433 -0.007095 -0.001514 -0.007728 -0.005156
# 2 0.001433 0.025996 -0.010076 -0.004614 0.011582 -0.004021
# 3 -0.007095 -0.010076 0.028729 0.000868 -0.002568 0.007151
# 4 -0.001514 -0.004614 0.000868 0.052770 -0.022303 0.006966
# 5 -0.007728 0.011582 -0.002568 -0.022303 0.068565 0.002669
# 6 -0.005156 -0.004021 0.007151 0.006966 0.002669 0.027235
#
#
# Mechanical properties :
#
#
# Convention : Reuss Voigt Hill
#
# Bulk Modulus (GPa) = 27.26965 30.30911 28.78938
# Shear Modulus (GPa) = 19.20006 27.93018 23.56512
#
# Velocity S-wave (km/s) = 2.88794 3.48316 3.19942
# Velocity P-wave (km/s) = 4.79225 5.41685 5.11410
#
# Compressibility (1/GPa) = 0.03667080
#
# Stress axis : x y z
#
# Youngs Moduli (GPa) = 74.50499 38.46815 34.80857
#
# Poissons Ratio (x) = -0.05514 0.24697
# Poissons Ratio (y) = -0.10679 0.35072
# Poissons Ratio (z) = 0.52863 0.38760
#
# Static dielectric constant tensor:
#      x y z
#    x 1.914310 0.077190 -0.002910 
#    y 0.077190 1.839830 -0.061880 
#    z -0.002910 -0.061880 2.012100 
# 
# From -- ./inp_files/540816.got.cif
#   From: 2010.05.17/outbox.cif.g08.bks.cpg/sg2_271_cif.got.tgz:540816.got - 2010.06.03 11:33:40.
