data_PCOD9081768
_publ_section_title
;
Structure prediction by ZEFSAII (Michael W. Deem and Ramdas Pophale) SiO2 
 PCOD9081768
Probable space group: P -1
;
_chemical_formula_sum "Si O2"
_cell_formula_units_Z 16
_cell_length_a 20.653829
_cell_length_b 6.897014
_cell_length_c 16.280515
_cell_angle_alpha 134.194674
_cell_angle_beta 22.499659
_cell_angle_gamma 123.318728
_cell_volume 597.170015
_symmetry_space_group_name_H-M "P -1"
_symmetry_group_IT_number 2
_symmetry_cell_setting 'triclinic'
loop_
_space_group_symop_operation_xyz
x,y,z
-x,-y,-z
loop_
_atom_site_type_symbol
_atom_site_label
_atom_site_fract_x
_atom_site_fract_y
_atom_site_fract_z
Si Si1 0.957977 0.729881 0.704498
Si Si2 0.449840 0.664596 0.780459
Si Si3 0.991648 0.928847 0.124594
Si Si4 0.004108 0.502079 0.861484
Si Si5 0.317580 0.344188 0.108676
Si Si6 0.046615 0.835957 0.311054
Si Si7 0.592114 0.305339 0.661525
Si Si8 0.569218 0.797310 0.438526
O O1 0.163324 0.510673 0.403880
O O2 0.815563 0.598954 0.798322
O O3 0.895506 0.902614 0.912673
O O4 0.955265 0.949708 0.698622
O O5 0.565700 0.524015 0.681949
O O6 0.504033 0.468170 0.575897
O O7 0.254223 0.644634 0.022029
O O8 0.410553 0.005744 0.921117
O O9 0.958466 0.732750 0.178962
O O10 0.798858 0.152038 0.394463
O O11 0.071239 0.739940 0.895945
O O12 0.060378 0.350800 0.662498
O O13 0.786345 0.651457 0.153798
O O14 0.475615 0.448143 0.920592
O O15 0.000000 0.000000 0.500000
O O16 0.524869 0.039521 0.633586
O O17 0.500000 0.000000 0.500000
#
# Coordination Sequence:
#
# PCOD9081768 Si02
#       8
#     2   2   2   2   2   2   2   2
#     4   9  19  34  51  76 109 141 176 225 277 319
#     4   9  18  32  49  75 109 137 172 223 270 311
#     4   9  17  32  53  75 107 146 177 215 273 330
#     4   8  15  28  49  78 106 140 181 215 266 328
#     4  10  20  34  53  79 106 136 184 231 265 314
#     4   9  15  27  51  78 102 135 180 222 260 313
#     4  10  19  32  55  80 103 141 182 219 268 324
#     4   8  15  29  50  78 107 136 175 222 266 314
#
# _framework density 26.793037999999999
#
# number of rings (size 3 to 8) (size 9 to 14) (size 15 to 20)
#    0.000    3.000    0.000    1.500    0.000    1.000 
#    0.000    0.625    0.000   13.500    0.000   45.500 
#    0.000    0.000    0.000    0.000    0.000    0.000 
#
# Total GULP energy -89308.874674 kJ/mol
# GULP energy per Si atom -5581.804667 kJ/mol
# Density = 2.673206 g / cm^3
# Si number density = 26.793038 Si / 1000 Ang^3
#
#
#
# Elastic Constant Matrix: (Units=GPa)
#
#
# Indices 1 2 3 4 5 6 
#
# 1 172.0686 35.0580 66.2976 17.5644 15.5419 -3.2077
# 2 35.0580 52.3910 12.2032 14.3149 -9.3888 -23.3449
# 3 66.2976 12.2032 118.6887 8.3610 -3.1906 -15.4836
# 4 17.5644 14.3149 8.3610 28.1141 -8.7328 -6.5628
# 5 15.5419 -9.3888 -3.1906 -8.7328 64.5305 21.0894
# 6 -3.2077 -23.3449 -15.4836 -6.5628 21.0894 49.2434
#
#
#
# Elastic Compliance Matrix: (Units=1/GPa)
#
#
# Indices 1 2 3 4 5 6 
#
# 1 0.009481 -0.006302 -0.004927 -0.002847 -0.002819 -0.003091
# 2 -0.006302 0.031579 0.002784 -0.009585 0.000379 0.013996
# 3 -0.004927 0.002784 0.011502 -0.000553 0.000699 0.004243
# 4 -0.002847 -0.009585 -0.000553 0.043808 0.005682 -0.001498
# 5 -0.002819 0.000379 0.000699 0.005682 0.019437 -0.007351
# 6 -0.003091 0.013996 0.004243 -0.001498 -0.007351 0.031024
#
#
# Mechanical properties :
#
#
# Convention : Reuss Voigt Hill
#
# Bulk Modulus (GPa) = 28.03101 63.36286 45.69694
# Shear Modulus (GPa) = 28.47208 43.68355 36.07782
#
# Velocity S-wave (km/s) = 3.26339 4.04221 3.67350
# Velocity P-wave (km/s) = 4.96834 6.74435 5.92329
#
# Compressibility (1/GPa) = 0.03567478
#
# Stress axis : x y z
#
# Youngs Moduli (GPa) = 105.46910 31.66667 86.93882
#
# Poissons Ratio (x) = 0.19955 0.42832
# Poissons Ratio (y) = 0.66464 -0.24208
# Poissons Ratio (z) = 0.51962 -0.08818
#
# Static dielectric constant tensor:
#      x y z
#    x 2.091300 0.063060 0.079790 
#    y 0.063060 2.212970 0.053290 
#    z 0.079790 0.053290 2.115070 
# 
# From -- ./inp_files/266728.got.cif
#   From: 2010.05.17/outbox.cif.g08.bks.cpg/sg2_134_cif.got.tgz:266728.got - 2010.06.03 11:33:40.
