data_PCOD9081517
_publ_section_title
;
Structure prediction by ZEFSAII (Michael W. Deem and Ramdas Pophale) SiO2 
 PCOD9081517
Probable space group: P -1
;
_chemical_formula_sum "Si O2"
_cell_formula_units_Z 16
_cell_length_a 12.786039
_cell_length_b 12.783502
_cell_length_c 16.926842
_cell_angle_alpha 52.181375
_cell_angle_beta 51.902093
_cell_angle_gamma 23.252334
_cell_volume 849.959504
_symmetry_space_group_name_H-M "P -1"
_symmetry_group_IT_number 2
_symmetry_cell_setting 'triclinic'
loop_
_space_group_symop_operation_xyz
x,y,z
-x,-y,-z
loop_
_atom_site_type_symbol
_atom_site_label
_atom_site_fract_x
_atom_site_fract_y
_atom_site_fract_z
Si Si1 0.764881 0.734251 0.170861
Si Si2 0.946321 0.312247 0.061248
Si Si3 0.397549 0.999563 0.473377
Si Si4 0.134523 0.527154 0.444409
Si Si5 0.968541 0.013639 0.102213
Si Si6 0.624102 0.560427 0.785532
Si Si7 0.724338 0.727337 0.752989
Si Si8 0.526451 0.127768 0.896033
O O1 0.601556 0.768711 0.179238
O O2 0.993115 0.483133 0.240035
O O3 0.533241 0.019804 0.189625
O O4 0.931317 0.682976 0.056693
O O5 0.661334 0.612835 0.085199
O O6 0.160950 0.111420 0.125835
O O7 0.939297 0.181341 0.078537
O O8 0.647574 0.685974 0.490566
O O9 0.500000 0.000000 0.500000
O O10 0.330731 0.144093 0.361434
O O11 0.124199 0.166232 0.550889
O O12 0.285279 0.455675 0.332301
O O13 0.000000 0.500000 0.500000
O O14 0.228528 0.707289 0.151313
O O15 0.695143 0.172410 0.178196
O O16 0.000000 0.000000 0.000000
O O17 0.734106 0.564851 0.799276
O O18 0.500000 0.000000 0.000000
#
# Coordination Sequence:
#
# PCOD9081517 Si02
#       8
#     2   2   2   2   2   2   2   2
#     4  11  22  34  54  86 107 141 197 230 295 343
#     4  11  21  40  57  74 115 154 188 240 279 316
#     4  10  19  32  51  74 112 152 174 215 295 342
#     4  10  19  34  54  75 107 148 191 231 281 328
#     4  12  26  39  53  82 119 159 205 221 259 336
#     4  12  23  36  56  78 115 165 192 225 270 334
#     4  12  21  32  53  82 120 149 174 231 289 341
#     4  10  20  37  61  79 102 144 193 247 294 333
#
# _framework density 18.824425000000002
#
# number of rings (size 3 to 8) (size 9 to 14) (size 15 to 20)
#    0.000    1.000    2.500    8.625    3.500    0.000 
#    0.000    0.000    0.000    0.000    0.000    0.000 
#    0.000   70.000    0.000    0.000    0.000    0.000 
#
# Total GULP energy -89275.059125 kJ/mol
# GULP energy per Si atom -5579.691195 kJ/mol
# Density = 1.878158 g / cm^3
# Si number density = 18.824425 Si / 1000 Ang^3
#
#
#
# Elastic Constant Matrix: (Units=GPa)
#
#
# Indices 1 2 3 4 5 6 
#
# 1 47.2612 4.4709 7.9542 -12.3498 12.9449 -0.5188
# 2 4.4709 125.4528 9.1946 -9.1808 8.3264 -7.6249
# 3 7.9542 9.1946 52.8725 -7.3565 5.3498 -6.1161
# 4 -12.3498 -9.1808 -7.3565 32.5159 -10.9431 2.2778
# 5 12.9449 8.3264 5.3498 -10.9431 18.9908 -1.8663
# 6 -0.5188 -7.6249 -6.1161 2.2778 -1.8663 36.0392
#
#
#
# Elastic Compliance Matrix: (Units=1/GPa)
#
#
# Indices 1 2 3 4 5 6 
#
# 1 0.026890 0.000500 -0.002024 0.004814 -0.015297 -0.000947
# 2 0.000500 0.008390 -0.000902 0.001285 -0.002888 0.001399
# 3 -0.002024 -0.000902 0.020299 0.002646 -0.002129 0.002948
# 4 0.004814 0.001285 0.002646 0.039734 0.018229 -0.000777
# 5 -0.015297 -0.002888 -0.002129 0.018229 0.075609 0.001571
# 6 -0.000947 0.001399 0.002948 -0.000777 0.001571 0.028661
#
#
# Mechanical properties :
#
#
# Convention : Reuss Voigt Hill
#
# Bulk Modulus (GPa) = 19.71295 29.86954 24.79124
# Shear Modulus (GPa) = 22.58940 31.10695 26.84818
#
# Velocity S-wave (km/s) = 3.46787 4.06948 3.78066
# Velocity P-wave (km/s) = 5.15068 6.16302 5.67945
#
# Compressibility (1/GPa) = 0.05072808
#
# Stress axis : x y z
#
# Youngs Moduli (GPa) = 37.18856 119.18843 49.26284
#
# Poissons Ratio (x) = -0.05961 0.09972
# Poissons Ratio (y) = -0.01860 0.04441
# Poissons Ratio (z) = 0.07528 0.10745
#
# Static dielectric constant tensor:
#      x y z
#    x 1.700270 0.050540 0.022270 
#    y 0.050540 1.796940 -0.014470 
#    z 0.022270 -0.014470 1.678670 
# 
# From -- ./inp_files/533745.got.cif
#   From: 2010.05.17/outbox.cif.g08.bks.cpg/sg2_267_cif.got.tgz:533745.got - 2010.06.03 11:33:40.
