data_PCOD9081325
_publ_section_title
;
Structure prediction by ZEFSAII (Michael W. Deem and Ramdas Pophale) SiO2 
 PCOD9081325
Probable space group: P -1
;
_chemical_formula_sum "Si O2"
_cell_formula_units_Z 14
_cell_length_a 20.424280
_cell_length_b 5.046910
_cell_length_c 8.903207
_cell_angle_alpha 103.319170
_cell_angle_beta 136.792653
_cell_angle_gamma 83.259581
_cell_volume 609.657940
_symmetry_space_group_name_H-M "P -1"
_symmetry_group_IT_number 2
_symmetry_cell_setting 'triclinic'
loop_
_space_group_symop_operation_xyz
x,y,z
-x,-y,-z
loop_
_atom_site_type_symbol
_atom_site_label
_atom_site_fract_x
_atom_site_fract_y
_atom_site_fract_z
Si Si1 0.907162 0.161018 0.326642
Si Si2 0.394037 0.594012 0.028915
Si Si3 0.277621 0.082737 0.871733
Si Si4 0.886297 0.729284 0.846518
Si Si5 0.761998 0.155849 0.559409
Si Si6 0.993981 0.464732 0.237773
Si Si7 0.560912 0.269673 0.206406
O O1 0.810472 0.978715 0.172215
O O2 0.922315 0.305298 0.211466
O O3 0.917839 0.405789 0.498963
O O4 0.000000 0.000000 0.500000
O O5 0.495569 0.468868 0.213436
O O6 0.364956 0.900624 0.043132
O O7 0.394536 0.566775 0.843642
O O8 0.315309 0.393864 0.952664
O O9 0.245157 0.977366 0.636779
O O10 0.818568 0.449891 0.682376
O O11 0.963661 0.724357 0.841454
O O12 0.820768 0.972652 0.741924
O O13 0.942510 0.695767 0.091002
O O14 0.652933 0.175913 0.433081
O O15 0.500000 0.000000 0.000000
#
# Coordination Sequence:
#
# PCOD9081325 Si02
#       7
#     2   2   2   2   2   2   2
#     4  11  24  39  63  85 120 157 209 249 289 343
#     4  10  20  32  51  82 124 151 187 240 302 349
#     4  11  21  35  55  85 119 156 192 241 297 345
#     4  11  24  40  59  87 125 159 197 238 306 354
#     4  11  21  34  58  86 123 156 189 242 302 359
#     4  10  25  40  59  87 118 162 201 252 288 350
#     4  10  19  31  54  86 124 150 190 242 300 350
#
# _framework density 22.963697
#
# number of rings (size 3 to 8) (size 9 to 14) (size 15 to 20)
#    0.000    1.429    4.286    2.571    8.000    1.143 
#    0.000    0.000    0.000    0.000    0.000    6.000 
#    0.000    0.000    0.000    0.000    0.000    0.000 
#
# Total GULP energy -78305.597385 kJ/mol
# GULP energy per Si atom -5593.256956 kJ/mol
# Density = 2.291143 g / cm^3
# Si number density = 22.963697 Si / 1000 Ang^3
#
#
#
# Elastic Constant Matrix: (Units=GPa)
#
#
# Indices 1 2 3 4 5 6 
#
# 1 92.5951 33.5018 44.5732 -29.3166 17.0710 23.9572
# 2 33.5018 111.8968 31.7404 -18.5417 1.1125 18.5719
# 3 44.5732 31.7404 97.0052 -27.9886 12.5186 -1.3993
# 4 -29.3166 -18.5417 -27.9886 33.1532 -8.7300 3.6422
# 5 17.0710 1.1125 12.5186 -8.7300 35.6874 -4.1516
# 6 23.9572 18.5719 -1.3993 3.6422 -4.1516 40.7998
#
#
#
# Elastic Compliance Matrix: (Units=1/GPa)
#
#
# Indices 1 2 3 4 5 6 
#
# 1 0.024709 -0.000102 -0.005728 0.016798 -0.007668 -0.016939
# 2 -0.000102 0.011425 -0.002432 0.005164 0.001161 -0.005567
# 3 -0.005728 -0.002432 0.015655 0.006134 -0.000664 0.004392
# 4 0.016798 0.005164 0.006134 0.055250 0.001212 -0.016813
# 5 -0.007668 0.001161 -0.000664 0.001212 0.033020 0.007203
# 6 -0.016939 -0.005567 0.004392 -0.016813 0.007203 0.039375
#
#
# Mechanical properties :
#
#
# Convention : Reuss Voigt Hill
#
# Bulk Modulus (GPa) = 28.35612 57.90312 43.12962
# Shear Modulus (GPa) = 24.07168 34.70685 29.38927
#
# Velocity S-wave (km/s) = 3.24118 3.89186 3.58133
# Velocity P-wave (km/s) = 5.13635 6.74279 5.99364
#
# Compressibility (1/GPa) = 0.03526575
#
# Stress axis : x y z
#
# Youngs Moduli (GPa) = 40.47153 87.52531 63.87604
#
# Poissons Ratio (x) = 0.00891 0.36590
# Poissons Ratio (y) = 0.00412 0.15533
# Poissons Ratio (z) = 0.23183 0.21284
#
# Static dielectric constant tensor:
#      x y z
#    x 1.889440 -0.050190 0.017600 
#    y -0.050190 1.915130 0.015970 
#    z 0.017600 0.015970 1.886480 
# 
# From -- ./inp_files/339754.got.cif
#   From: 2010.05.17/outbox.cif.g08.bks.cpg/sg2_170_cif.got.tgz:339754.got - 2010.06.03 11:33:40.
