data_PCOD9081491
_publ_section_title
;
Structure prediction by ZEFSAII (Michael W. Deem and Ramdas Pophale) SiO2 
 PCOD9081491
Probable space group: P -1
;
_chemical_formula_sum "Si O2"
_cell_formula_units_Z 16
_cell_length_a 10.304291
_cell_length_b 11.692501
_cell_length_c 14.400753
_cell_angle_alpha 66.638042
_cell_angle_beta 141.183631
_cell_angle_gamma 137.488611
_cell_volume 667.019866
_symmetry_space_group_name_H-M "P -1"
_symmetry_group_IT_number 2
_symmetry_cell_setting 'triclinic'
loop_
_space_group_symop_operation_xyz
x,y,z
-x,-y,-z
loop_
_atom_site_type_symbol
_atom_site_label
_atom_site_fract_x
_atom_site_fract_y
_atom_site_fract_z
Si Si1 0.257412 0.085953 0.982265
Si Si2 0.676587 0.478237 0.391876
Si Si3 0.568976 0.857194 0.734141
Si Si4 0.007752 0.750496 0.850017
Si Si5 0.935555 0.744359 0.599052
Si Si6 0.357117 0.640320 0.245925
Si Si7 0.768913 0.785778 0.254536
Si Si8 0.611137 0.950356 0.401627
O O1 0.349998 0.220324 0.908265
O O2 0.446964 0.172217 0.154731
O O3 0.913098 0.975034 0.856095
O O4 0.242732 0.938724 0.979919
O O5 0.668105 0.339622 0.386562
O O6 0.323714 0.347172 0.267930
O O7 0.875536 0.588784 0.560174
O O8 0.759209 0.632186 0.319908
O O9 0.508608 0.975222 0.646544
O O10 0.048457 0.790626 0.751007
O O11 0.946945 0.575298 0.878141
O O12 0.601047 0.662570 0.433263
O O13 0.170239 0.922620 0.606198
O O14 0.555224 0.748459 0.227910
O O15 0.335046 0.746889 0.268149
O O16 0.129318 0.989829 0.403254
#
# Coordination Sequence:
#
# PCOD9081491 Si02
#       8
#     2   2   2   2   2   2   2   2
#     4  10  20  37  54  70  99 138 175 204 246 302
#     4   8  17  32  51  76 100 131 169 205 247 295
#     4  10  22  36  50  71 105 141 167 201 249 305
#     4   9  16  30  53  76  98 131 171 207 247 295
#     4   9  16  29  54  78 101 129 164 211 254 296
#     4   9  16  29  50  77 103 127 163 210 253 292
#     4   9  18  32  55  77  97 129 170 214 247 290
#     4  10  19  32  50  77 107 131 163 208 254 296
#
# _framework density 23.987293999999999
#
# number of rings (size 3 to 8) (size 9 to 14) (size 15 to 20)
#    0.000    3.250    0.000    4.500    0.000    4.000 
#    0.000    4.375    0.000    0.000    0.000    0.000 
#    0.000    0.000    0.000    0.000    0.000    0.000 
#
# Total GULP energy -89349.845703 kJ/mol
# GULP energy per Si atom -5584.365356 kJ/mol
# Density = 2.393270 g / cm^3
# Si number density = 23.987294 Si / 1000 Ang^3
#
#
#
# Elastic Constant Matrix: (Units=GPa)
#
#
# Indices 1 2 3 4 5 6 
#
# 1 58.2750 57.4691 60.9154 20.6207 -21.3500 -31.6127
# 2 57.4691 75.3036 -0.4476 3.2110 -4.3373 -35.1574
# 3 60.9154 -0.4476 40.2985 -15.3667 3.9092 -1.0092
# 4 20.6207 3.2110 -15.3667 7.6088 8.0083 -14.1502
# 5 -21.3500 -4.3373 3.9092 8.0083 44.2701 4.6780
# 6 -31.6127 -35.1574 -1.0092 -14.1502 4.6780 51.1087
#
#
#
# Elastic Compliance Matrix: (Units=1/GPa)
#
#
# Indices 1 2 3 4 5 6 
#
# 1 0.003766 0.001109 0.006211 0.029107 -0.005130 0.011743
# 2 0.001109 0.017020 -0.006820 -0.013408 0.004369 0.008147
# 3 0.006211 -0.006820 0.006289 -0.021641 0.006459 -0.007308
# 4 0.029107 -0.013408 -0.021641 0.057840 0.001612 0.024219
# 5 -0.005130 0.004369 0.006459 0.001612 0.019830 -0.001409
# 6 0.011743 0.008147 -0.007308 0.024219 -0.001409 0.039124
#
#
# Mechanical properties :
#
#
# Convention : Reuss Voigt Hill
#
# Bulk Modulus (GPa) = 35.61955 45.52786 40.57371
# Shear Modulus (GPa) = 32.84579 24.32688 28.58633
#
# Velocity S-wave (km/s) = 3.70442 3.18804 3.45589
# Velocity P-wave (km/s) = 5.76008 5.70724 5.73372
#
# Compressibility (1/GPa) = 0.02807447
#
# Stress axis : x y z
#
# Youngs Moduli (GPa) = 265.54651 58.75517 159.00254
#
# Poissons Ratio (x) = -0.06515 -0.98751
# Poissons Ratio (y) = -0.29445 1.08435
# Poissons Ratio (z) = -1.64921 0.40069
#
# Static dielectric constant tensor:
#      x y z
#    x 1.915610 -0.037370 0.027780 
#    y -0.037370 2.015630 -0.022770 
#    z 0.027780 -0.022770 1.956110 
# 
# From -- ./inp_files/261581.got.cif
#   From: 2010.05.17/outbox.cif.g08.bks.cpg/sg2_131_cif.got.tgz:261581.got - 2010.06.03 11:33:40.
