data_PCOD9081840
_publ_section_title
;
Structure prediction by ZEFSAII (Michael W. Deem and Ramdas Pophale) SiO2 
 PCOD9081840
Probable space group: P -1
;
_chemical_formula_sum "Si O2"
_cell_formula_units_Z 14
_cell_length_a 10.751700
_cell_length_b 14.100121
_cell_length_c 14.746483
_cell_angle_alpha 150.982378
_cell_angle_beta 116.617430
_cell_angle_gamma 45.708192
_cell_volume 685.822936
_symmetry_space_group_name_H-M "P -1"
_symmetry_group_IT_number 2
_symmetry_cell_setting 'triclinic'
loop_
_space_group_symop_operation_xyz
x,y,z
-x,-y,-z
loop_
_atom_site_type_symbol
_atom_site_label
_atom_site_fract_x
_atom_site_fract_y
_atom_site_fract_z
Si Si1 0.273934 0.162013 0.817519
Si Si2 0.712162 0.789741 0.347505
Si Si3 0.267964 0.688583 0.076886
Si Si4 0.717626 0.615765 0.526129
Si Si5 0.023740 0.524676 0.678412
Si Si6 0.063842 0.783104 0.262782
Si Si7 0.050376 0.977293 0.891743
O O1 0.277796 0.134066 0.685506
O O2 0.121823 0.145198 0.783714
O O3 0.494963 0.903846 0.704579
O O4 0.195692 0.459685 0.063301
O O5 0.750465 0.523085 0.124105
O O6 0.872422 0.702891 0.399362
O O7 0.500000 0.000000 0.500000
O O8 0.500000 0.500000 0.000000
O O9 0.178361 0.797025 0.237719
O O10 0.131845 0.913001 0.139979
O O11 0.859323 0.584308 0.615986
O O12 0.759928 0.345023 0.331027
O O13 0.803050 0.583546 0.426482
O O14 0.927941 0.812443 0.932674
O O15 0.000000 0.000000 0.500000
O O16 0.000000 0.000000 0.000000
#
# Coordination Sequence:
#
# PCOD9081840 Si02
#       7
#     2   2   2   2   2   2   2
#     4  10  22  40  59  87 118 159 206 239 303 368
#     4  10  19  33  59  88 119 151 192 253 294 343
#     4  10  23  38  62  93 116 153 210 248 295 363
#     4  10  19  32  56  80 119 157 188 242 294 357
#     4   9  19  32  50  87 120 150 192 239 298 346
#     4  10  24  41  62  87 124 160 200 256 302 354
#     4   9  20  35  53  87 124 150 188 250 299 351
#
# _framework density 20.413432
#
# number of rings (size 3 to 8) (size 9 to 14) (size 15 to 20)
#    0.000    2.286    1.429    0.000    4.000    4.571 
#    0.000    0.714    0.000   19.714    0.000    0.000 
#    0.000    0.000    0.000    0.000    0.000    0.000 
#
# Total GULP energy -78040.229451 kJ/mol
# GULP energy per Si atom -5574.302104 kJ/mol
# Density = 2.036697 g / cm^3
# Si number density = 20.413432 Si / 1000 Ang^3
#
#
#
# Elastic Constant Matrix: (Units=GPa)
#
#
# Indices 1 2 3 4 5 6 
#
# 1 69.9066 27.2524 30.5797 5.6279 -11.4187 -7.3698
# 2 27.2524 112.8553 47.1496 10.7000 -12.1464 -5.7821
# 3 30.5797 47.1496 140.5274 6.6303 -8.5370 -9.6209
# 4 5.6279 10.7000 6.6303 34.6484 -3.0709 -9.9143
# 5 -11.4187 -12.1464 -8.5370 -3.0709 30.5392 0.6046
# 6 -7.3698 -5.7821 -9.6209 -9.9143 0.6046 21.9496
#
#
#
# Elastic Compliance Matrix: (Units=1/GPa)
#
#
# Indices 1 2 3 4 5 6 
#
# 1 0.017548 -0.002504 -0.002409 -0.000038 0.004808 0.004027
# 2 -0.002504 0.011175 -0.002967 -0.002353 0.002449 -0.000328
# 3 -0.002409 -0.002967 0.008807 0.000346 0.000368 0.002416
# 4 -0.000038 -0.002353 0.000346 0.033963 0.002269 0.014797
# 5 0.004808 0.002449 0.000368 0.002269 0.035799 0.002460
# 6 0.004027 -0.000328 0.002416 0.014797 0.002460 0.054500
#
#
# Mechanical properties :
#
#
# Convention : Reuss Voigt Hill
#
# Bulk Modulus (GPa) = 45.93400 59.25032 52.59216
# Shear Modulus (GPa) = 27.05510 31.98129 29.51819
#
# Velocity S-wave (km/s) = 3.64450 3.96242 3.80678
# Velocity P-wave (km/s) = 6.34512 7.07266 6.71874
#
# Compressibility (1/GPa) = 0.02177037
#
# Stress axis : x y z
#
# Youngs Moduli (GPa) = 56.98807 89.48489 113.54263
#
# Poissons Ratio (x) = 0.22403 0.27351
# Poissons Ratio (y) = 0.14267 0.33691
# Poissons Ratio (z) = 0.13728 0.26553
#
# Static dielectric constant tensor:
#      x y z
#    x 1.762630 0.039000 0.023100 
#    y 0.039000 1.770100 -0.003770 
#    z 0.023100 -0.003770 1.687020 
# 
# From -- ./inp_files/272664.got.cif
#   From: 2010.05.17/outbox.cif.g08.bks.cpg/sg2_137_cif.got.tgz:272664.got - 2010.06.03 11:33:40.
