data_PCOD9081946
_publ_section_title
;
Structure prediction by ZEFSAII (Michael W. Deem and Ramdas Pophale) SiO2 
 PCOD9081946
Probable space group: P -1
;
_chemical_formula_sum "Si O2"
_cell_formula_units_Z 16
_cell_length_a 8.339954
_cell_length_b 21.597365
_cell_length_c 10.160580
_cell_angle_alpha 133.064216
_cell_angle_beta 68.650228
_cell_angle_gamma 76.590239
_cell_volume 881.765386
_symmetry_space_group_name_H-M "P -1"
_symmetry_group_IT_number 2
_symmetry_cell_setting 'triclinic'
loop_
_space_group_symop_operation_xyz
x,y,z
-x,-y,-z
loop_
_atom_site_type_symbol
_atom_site_label
_atom_site_fract_x
_atom_site_fract_y
_atom_site_fract_z
Si Si1 0.348549 0.399713 0.692677
Si Si2 0.193552 0.371222 0.426401
Si Si3 0.350490 0.402655 0.160824
Si Si4 0.217509 0.635323 0.120232
Si Si5 0.836402 0.240008 0.428100
Si Si6 0.496878 0.235012 0.640447
Si Si7 0.671139 0.870877 0.585313
Si Si8 0.357197 0.129940 0.096924
O O1 0.244733 0.396864 0.587874
O O2 0.642837 0.310577 0.470309
O O3 0.328451 0.342150 0.737770
O O4 0.233098 0.529548 0.950550
O O5 0.314200 0.383442 0.291576
O O6 0.301510 0.239338 0.208718
O O7 0.905806 0.470592 0.628047
O O8 0.561816 0.397491 0.069800
O O9 0.420420 0.298627 0.895677
O O10 0.232573 0.661353 0.304938
O O11 0.959290 0.758770 0.324744
O O12 0.762595 0.179771 0.441186
O O13 0.115751 0.155680 0.190647
O O14 0.461076 0.149054 0.500290
O O15 0.609101 0.869213 0.754309
O O16 0.579240 0.998625 0.783546
#
# Coordination Sequence:
#
# PCOD9081946 Si02
#       8
#     2   2   2   2   2   2   2   2
#     4  10  19  32  58  84 103 139 181 225 267 313
#     4  11  22  37  55  80 111 146 174 220 276 323
#     4  10  23  37  55  79 114 141 175 223 276 322
#     4  10  19  34  53  81 111 139 179 222 269 314
#     4   8  18  31  53  84 105 138 173 227 269 310
#     4   9  19  35  54  86 103 137 182 220 269 307
#     4  10  20  33  57  83 107 143 180 226 261 317
#     4  10  19  35  55  81 114 139 179 221 272 313
#
# _framework density 18.145417999999999
#
# number of rings (size 3 to 8) (size 9 to 14) (size 15 to 20)
#    0.750    1.500    1.250    1.875    3.500    2.000 
#    0.000    3.750    0.000    0.000    0.000    0.000 
#    0.000    0.000    0.000    0.000    0.000    0.000 
#
# Total GULP energy -89214.933808 kJ/mol
# GULP energy per Si atom -5575.933363 kJ/mol
# Density = 1.810412 g / cm^3
# Si number density = 18.145418 Si / 1000 Ang^3
#
#
#
# Elastic Constant Matrix: (Units=GPa)
#
#
# Indices 1 2 3 4 5 6 
#
# 1 48.0145 1.6520 7.8286 1.1055 8.0013 3.2686
# 2 1.6520 28.8566 -1.4064 -0.4058 0.1018 1.5265
# 3 7.8286 -1.4064 40.9589 10.0792 0.2726 8.2448
# 4 1.1055 -0.4058 10.0792 24.7041 2.9888 2.0918
# 5 8.0013 0.1018 0.2726 2.9888 23.7181 2.3696
# 6 3.2686 1.5265 8.2448 2.0918 2.3696 15.6724
#
#
#
# Elastic Compliance Matrix: (Units=1/GPa)
#
#
# Indices 1 2 3 4 5 6 
#
# 1 0.022968 -0.001415 -0.004583 0.001873 -0.007794 -0.001313
# 2 -0.001415 0.035085 0.002384 -0.000044 0.000753 -0.004484
# 3 -0.004583 0.002384 0.031202 -0.011737 0.004130 -0.014749
# 4 0.001873 -0.000044 -0.011737 0.045898 -0.006343 0.000621
# 5 -0.007794 0.000753 0.004130 -0.006343 0.046215 -0.006762
# 6 -0.001313 -0.004484 -0.014749 0.000621 -0.006762 0.073216
#
#
# Mechanical properties :
#
#
# Convention : Reuss Voigt Hill
#
# Bulk Modulus (GPa) = 12.19123 14.88650 13.53887
# Shear Modulus (GPa) = 17.29171 20.13598 18.71384
#
# Velocity S-wave (km/s) = 3.09034 3.33483 3.21491
# Velocity P-wave (km/s) = 4.41212 4.80103 4.61068
#
# Compressibility (1/GPa) = 0.08202616
#
# Stress axis : x y z
#
# Youngs Moduli (GPa) = 43.53847 28.50206 32.04900
#
# Poissons Ratio (x) = 0.04033 0.14689
# Poissons Ratio (y) = 0.06161 -0.07640
# Poissons Ratio (z) = 0.19955 -0.06794
#
# Static dielectric constant tensor:
#      x y z
#    x 1.644660 -0.001120 -0.022890 
#    y -0.001120 1.609000 0.014780 
#    z -0.022890 0.014780 1.626350 
# 
# From -- ./inp_files/406331.got.cif
#   From: 2010.05.17/outbox.cif.g08.bks.cpg/sg2_204_cif.got.tgz:406331.got - 2010.06.03 11:33:40.
