data_PCOD9081689
_publ_section_title
;
Structure prediction by ZEFSAII (Michael W. Deem and Ramdas Pophale) SiO2 
 PCOD9081689
Probable space group: P -1
;
_chemical_formula_sum "Si O2"
_cell_formula_units_Z 16
_cell_length_a 7.894253
_cell_length_b 16.581033
_cell_length_c 9.745012
_cell_angle_alpha 132.570960
_cell_angle_beta 58.115535
_cell_angle_gamma 140.398965
_cell_volume 598.732091
_symmetry_space_group_name_H-M "P -1"
_symmetry_group_IT_number 2
_symmetry_cell_setting 'triclinic'
loop_
_space_group_symop_operation_xyz
x,y,z
-x,-y,-z
loop_
_atom_site_type_symbol
_atom_site_label
_atom_site_fract_x
_atom_site_fract_y
_atom_site_fract_z
Si Si1 0.326251 0.682961 0.437016
Si Si2 0.605177 0.097541 0.701231
Si Si3 0.945953 0.010779 0.189859
Si Si4 0.011821 0.410212 0.099113
Si Si5 0.376344 0.589586 0.880555
Si Si6 0.618013 0.952501 0.792130
Si Si7 0.052869 0.296562 0.552150
Si Si8 0.691411 0.675261 0.082549
O O1 0.128953 0.507498 0.300250
O O2 0.436914 0.778508 0.637502
O O3 0.138288 0.705041 0.469358
O O4 0.586313 0.733375 0.295526
O O5 0.891878 0.242365 0.702068
O O6 0.500000 0.000000 0.500000
O O7 0.373590 0.102195 0.808105
O O8 0.615388 0.012376 0.716713
O O9 0.059767 0.174398 0.360480
O O10 0.099471 0.988652 0.205193
O O11 0.000000 0.000000 0.000000
O O12 0.033355 0.288320 0.968425
O O13 0.725764 0.352439 0.110312
O O14 0.195273 0.524254 0.024632
O O15 0.656734 0.684473 0.945958
O O16 0.316459 0.458125 0.666659
O O17 0.500000 0.000000 0.000000
O O18 0.500000 0.500000 0.000000
#
# Coordination Sequence:
#
# PCOD9081689 Si02
#       8
#     2   2   2   2   2   2   2   2
#     4   9  16  30  46  73 104 138 160 219 258 301
#     4  10  21  40  49  78 111 134 179 226 260 314
#     4  11  22  36  54  71 102 145 180 219 262 307
#     4   8  15  25  41  68 106 125 168 205 256 307
#     4   8  14  26  42  69  99 138 157 203 263 307
#     4  12  22  36  56  75 104 143 185 216 260 316
#     4  10  19  32  54  73 111 138 172 214 270 309
#     4   8  15  25  41  68 106 125 168 205 256 307
#
# _framework density 26.723139
#
# number of rings (size 3 to 8) (size 9 to 14) (size 15 to 20)
#    0.000    2.750    3.750    0.750    5.250    2.000 
#    0.000    0.000    0.000    0.000    0.000    3.500 
#    0.000   91.000    0.000    0.750    0.000    0.000 
#
# Total GULP energy -89329.132677 kJ/mol
# GULP energy per Si atom -5583.070792 kJ/mol
# Density = 2.666232 g / cm^3
# Si number density = 26.723139 Si / 1000 Ang^3
#
#
#
# Elastic Constant Matrix: (Units=GPa)
#
#
# Indices 1 2 3 4 5 6 
#
# 1 210.7092 24.5421 66.6561 18.3907 4.8478 -24.8741
# 2 24.5421 36.2942 34.7814 18.2264 6.0037 1.2870
# 3 66.6561 34.7814 167.6721 34.1788 1.9807 8.2527
# 4 18.3907 18.2264 34.1788 46.6164 1.9717 8.0869
# 5 4.8478 6.0037 1.9807 1.9717 49.5524 13.9392
# 6 -24.8741 1.2870 8.2527 8.0869 13.9392 37.8447
#
#
#
# Elastic Compliance Matrix: (Units=1/GPa)
#
#
# Indices 1 2 3 4 5 6 
#
# 1 0.006471 -0.001455 -0.002281 -0.001232 -0.001942 0.005779
# 2 -0.001455 0.040312 -0.005545 -0.011460 -0.004952 0.003155
# 3 -0.002281 -0.005545 0.008741 -0.002855 0.001553 -0.003179
# 4 -0.001232 -0.011460 -0.002855 0.029628 0.002419 -0.007019
# 5 -0.001942 -0.004952 0.001553 0.002419 0.023834 -0.010743
# 6 0.005779 0.003155 -0.003179 -0.007019 -0.010743 0.036265
#
#
# Mechanical properties :
#
#
# Convention : Reuss Voigt Hill
#
# Bulk Modulus (GPa) = 27.05356 74.07053 50.56205
# Shear Modulus (GPa) = 28.38751 46.04908 37.21829
#
# Velocity S-wave (km/s) = 3.26280 4.15564 3.73599
# Velocity P-wave (km/s) = 4.93357 7.12767 6.12959
#
# Compressibility (1/GPa) = 0.03696371
#
# Stress axis : x y z
#
# Youngs Moduli (GPa) = 154.52621 24.80637 114.40063
#
# Poissons Ratio (x) = 0.03609 0.26097
# Poissons Ratio (y) = 0.22479 0.63431
# Poissons Ratio (z) = 0.35251 0.13754
#
# Static dielectric constant tensor:
#      x y z
#    x 2.229610 0.123680 -0.061470 
#    y 0.123680 2.291530 0.032980 
#    z -0.061470 0.032980 2.091990 
# 
# From -- ./inp_files/221081.got.cif
#   From: 2010.05.17/outbox.cif.g08.bks.cpg/sg2_111_cif.got.tgz:221081.got - 2010.06.03 11:33:40.
