data_PCOD9081277
_publ_section_title
;
Structure prediction by ZEFSAII (Michael W. Deem and Ramdas Pophale) SiO2 
 PCOD9081277
Probable space group: P -1
;
_chemical_formula_sum "Si O2"
_cell_formula_units_Z 16
_cell_length_a 12.544280
_cell_length_b 9.122085
_cell_length_c 15.324024
_cell_angle_alpha 129.839962
_cell_angle_beta 40.966824
_cell_angle_gamma 101.579826
_cell_volume 730.038137
_symmetry_space_group_name_H-M "P -1"
_symmetry_group_IT_number 2
_symmetry_cell_setting 'triclinic'
loop_
_space_group_symop_operation_xyz
x,y,z
-x,-y,-z
loop_
_atom_site_type_symbol
_atom_site_label
_atom_site_fract_x
_atom_site_fract_y
_atom_site_fract_z
Si Si1 0.772465 0.024150 0.177282
Si Si2 0.983403 0.572433 0.637966
Si Si3 0.380618 0.122506 0.441975
Si Si4 0.748501 0.779127 0.259585
Si Si5 0.660371 0.501980 0.503718
Si Si6 0.229844 0.929580 0.988613
Si Si7 0.865278 0.351321 0.940435
Si Si8 0.983795 0.802874 0.394724
O O1 0.607450 0.989250 0.222910
O O2 0.671369 0.281276 0.376165
O O3 0.881973 0.006179 0.012390
O O4 0.826296 0.866591 0.168412
O O5 0.979810 0.386748 0.629672
O O6 0.000000 0.500000 0.500000
O O7 0.174187 0.564318 0.551562
O O8 0.802040 0.836607 0.866344
O O9 0.405898 0.074702 0.511900
O O10 0.298485 0.383314 0.560083
O O11 0.235787 0.074839 0.464608
O O12 0.934785 0.665706 0.168424
O O13 0.710447 0.595978 0.173296
O O14 0.448821 0.702247 0.749558
O O15 0.137515 0.847729 0.085174
O O16 0.864992 0.324252 0.827307
O O17 0.000000 0.000000 0.500000
#
# Coordination Sequence:
#
# PCOD9081277 Si02
#       8
#     2   2   2   2   2   2   2   2
#     4  11  20  34  59  91 122 152 191 241 296 351
#     4  11  24  42  64  87 114 155 204 247 290 345
#     4   9  19  35  55  80 116 152 185 233 291 344
#     4  10  19  31  53  83 119 155 191 233 288 349
#     4  10  22  39  62  90 121 156 192 241 297 349
#     4  11  22  38  61  88 120 154 197 242 292 352
#     4  10  20  34  53  82 116 155 193 235 289 348
#     4  10  21  39  59  80 112 154 197 242 292 344
#
# _framework density 21.916663
#
# number of rings (size 3 to 8) (size 9 to 14) (size 15 to 20)
#    0.000    1.750    0.000    5.625    0.000    5.500 
#    0.000    1.250    0.000    8.250    0.000    0.000 
#    0.000    0.000    0.000    0.000    0.000    0.000 
#
# Total GULP energy -89172.184962 kJ/mol
# GULP energy per Si atom -5573.261560 kJ/mol
# Density = 2.186678 g / cm^3
# Si number density = 21.916663 Si / 1000 Ang^3
#
#
#
# Elastic Constant Matrix: (Units=GPa)
#
#
# Indices 1 2 3 4 5 6 
#
# 1 101.4395 56.2060 27.8596 1.2783 42.2297 -6.7363
# 2 56.2060 136.3467 43.3141 2.2851 35.5051 -16.1373
# 3 27.8596 43.3141 94.0771 7.9059 42.5644 -4.0036
# 4 1.2783 2.2851 7.9059 35.3718 1.1853 13.3674
# 5 42.2297 35.5051 42.5644 1.1853 39.3586 -3.0916
# 6 -6.7363 -16.1373 -4.0036 13.3674 -3.0916 40.3238
#
#
#
# Elastic Compliance Matrix: (Units=1/GPa)
#
#
# Indices 1 2 3 4 5 6 
#
# 1 0.022021 -0.004043 0.008878 -0.002050 -0.029412 0.001367
# 2 -0.004043 0.010888 -0.002378 -0.001334 -0.002582 0.003690
# 3 0.008878 -0.002378 0.025133 -0.005476 -0.034221 0.002218
# 4 -0.002050 -0.001334 -0.005476 0.033991 0.007349 -0.012125
# 5 -0.029412 -0.002582 -0.034221 0.007349 0.095733 -0.004441
# 6 0.001367 0.003690 0.002218 -0.012125 -0.004441 0.030403
#
#
# Mechanical properties :
#
#
# Convention : Reuss Voigt Hill
#
# Bulk Modulus (GPa) = 15.88418 65.18032 40.53225
# Shear Modulus (GPa) = 21.34552 36.64306 28.99429
#
# Velocity S-wave (km/s) = 3.12419 4.09336 3.64116
# Velocity P-wave (km/s) = 4.50304 7.22118 6.01759
#
# Compressibility (1/GPa) = 0.06295572
#
# Stress axis : x y z
#
# Youngs Moduli (GPa) = 45.41124 91.84616 39.78789
#
# Poissons Ratio (x) = 0.37132 -0.35323
# Poissons Ratio (y) = 0.18359 0.09463
# Poissons Ratio (z) = -0.40316 0.21844
#
# Static dielectric constant tensor:
#      x y z
#    x 1.884070 -0.013420 -0.175980 
#    y -0.013420 1.844540 -0.079890 
#    z -0.175980 -0.079890 2.159100 
# 
# From -- ./inp_files/200964.got.cif
#   From: 2010.05.17/outbox.cif.g08.bks.cpg/sg2_101_cif.got.tgz:200964.got - 2010.06.03 11:33:40.
