data_PCOD9081427
_publ_section_title
;
Structure prediction by ZEFSAII (Michael W. Deem and Ramdas Pophale) SiO2 
 PCOD9081427
Probable space group: P -1
;
_chemical_formula_sum "Si O2"
_cell_formula_units_Z 16
_cell_length_a 8.611942
_cell_length_b 13.461473
_cell_length_c 12.960791
_cell_angle_alpha 92.074941
_cell_angle_beta 125.351950
_cell_angle_gamma 126.124812
_cell_volume 811.437539
_symmetry_space_group_name_H-M "P -1"
_symmetry_group_IT_number 2
_symmetry_cell_setting 'triclinic'
loop_
_space_group_symop_operation_xyz
x,y,z
-x,-y,-z
loop_
_atom_site_type_symbol
_atom_site_label
_atom_site_fract_x
_atom_site_fract_y
_atom_site_fract_z
Si Si1 0.153997 0.973487 0.353309
Si Si2 0.187950 0.759489 0.427722
Si Si3 0.775901 0.204513 0.328656
Si Si4 0.703384 0.269087 0.089228
Si Si5 0.289065 0.038310 0.763121
Si Si6 0.094303 0.936600 0.090353
Si Si7 0.068249 0.705172 0.022695
Si Si8 0.736063 0.506731 0.081653
O O1 0.163588 0.868922 0.404452
O O2 0.039121 0.917392 0.190212
O O3 0.943300 0.965628 0.331296
O O4 0.482965 0.138406 0.471217
O O5 0.107760 0.711054 0.514707
O O6 0.975136 0.622021 0.263748
O O7 0.807268 0.283837 0.243020
O O8 0.854524 0.122191 0.326333
O O9 0.435366 0.065164 0.212249
O O10 0.620224 0.351080 0.048170
O O11 0.433773 0.097603 0.936636
O O12 0.947838 0.341376 0.101158
O O13 0.585134 0.168180 0.816073
O O14 0.983144 0.788069 0.998478
O O15 0.000000 0.000000 0.000000
O O16 0.884625 0.574429 0.029811
O O17 0.500000 0.500000 0.000000
#
# Coordination Sequence:
#
# PCOD9081427 Si02
#       8
#     2   2   2   2   2   2   2   2
#     4  10  19  36  61  91 121 155 191 252 304 352
#     4  10  23  39  58  89 125 155 205 241 297 358
#     4  10  21  38  56  94 122 158 190 255 304 357
#     4  10  22  37  63  85 129 157 198 244 296 355
#     4   9  20  36  63  94 118 152 196 248 312 348
#     4  10  19  31  62  91 123 146 197 250 301 350
#     4   9  22  37  58  92 119 150 201 246 297 351
#     4  12  24  43  64  85 115 165 210 246 288 363
#
# _framework density 19.718091999999999
#
# number of rings (size 3 to 8) (size 9 to 14) (size 15 to 20)
#    0.750    1.250    1.250    2.250    5.250    1.000 
#    0.000    0.000    0.000    1.500    0.000    0.000 
#    0.000    0.000    0.000    0.000    0.000    0.000 
#
# Total GULP energy -89223.471687 kJ/mol
# GULP energy per Si atom -5576.466980 kJ/mol
# Density = 1.967321 g / cm^3
# Si number density = 19.718092 Si / 1000 Ang^3
#
#
#
# Elastic Constant Matrix: (Units=GPa)
#
#
# Indices 1 2 3 4 5 6 
#
# 1 92.5787 27.6408 11.6975 -5.7347 13.5502 8.5433
# 2 27.6408 56.5118 16.2640 -13.3215 -6.0011 11.6722
# 3 11.6975 16.2640 50.7639 -5.9537 -11.9027 19.0669
# 4 -5.7347 -13.3215 -5.9537 24.3110 3.0462 -7.9453
# 5 13.5502 -6.0011 -11.9027 3.0462 35.7932 -9.3244
# 6 8.5433 11.6722 19.0669 -7.9453 -9.3244 24.8703
#
#
#
# Elastic Compliance Matrix: (Units=1/GPa)
#
#
# Indices 1 2 3 4 5 6 
#
# 1 0.014580 -0.006953 -0.001740 -0.001014 -0.008167 -0.003798
# 2 -0.006953 0.025395 -0.003619 0.010238 0.004330 -0.001861
# 3 -0.001740 -0.003619 0.029316 -0.002036 0.005040 -0.018940
# 4 -0.001014 0.010238 -0.002036 0.050311 0.000637 0.013415
# 5 -0.008167 0.004330 0.005040 0.000637 0.036157 0.010669
# 6 -0.003798 -0.001861 -0.018940 0.013415 0.010669 0.065193
#
#
# Mechanical properties :
#
#
# Convention : Reuss Voigt Hill
#
# Bulk Modulus (GPa) = 22.38672 34.56212 28.47442
# Shear Modulus (GPa) = 19.19643 26.61170 22.90406
#
# Velocity S-wave (km/s) = 3.12355 3.67769 3.41189
# Velocity P-wave (km/s) = 4.93830 5.96657 5.47662
#
# Compressibility (1/GPa) = 0.04466934
#
# Stress axis : x y z
#
# Youngs Moduli (GPa) = 68.58612 39.37718 34.11080
#
# Poissons Ratio (x) = 0.27378 0.05934
# Poissons Ratio (y) = 0.47686 0.12345
# Poissons Ratio (z) = 0.11931 0.14250
#
# Static dielectric constant tensor:
#      x y z
#    x 1.726390 0.011810 -0.018130 
#    y 0.011810 1.709750 -0.005360 
#    z -0.018130 -0.005360 1.705370 
# 
# From -- ./inp_files/252526.got.cif
#   From: 2010.05.17/outbox.cif.g08.bks.cpg/sg2_127_cif.got.tgz:252526.got - 2010.06.03 11:33:40.
