data_PCOD9081058
_publ_section_title
;
Structure prediction by ZEFSAII (Michael W. Deem and Ramdas Pophale) SiO2 
 PCOD9081058
Probable space group: P -1
;
_chemical_formula_sum "Si O2"
_cell_formula_units_Z 14
_cell_length_a 15.254903
_cell_length_b 11.830313
_cell_length_c 11.996763
_cell_angle_alpha 33.943102
_cell_angle_beta 135.930659
_cell_angle_gamma 153.446069
_cell_volume 538.010372
_symmetry_space_group_name_H-M "P -1"
_symmetry_group_IT_number 2
_symmetry_cell_setting 'triclinic'
loop_
_space_group_symop_operation_xyz
x,y,z
-x,-y,-z
loop_
_atom_site_type_symbol
_atom_site_label
_atom_site_fract_x
_atom_site_fract_y
_atom_site_fract_z
Si Si1 0.302445 0.575419 0.467196
Si Si2 0.604538 0.914257 0.278850
Si Si3 0.896650 0.300396 0.682901
Si Si4 0.824367 0.686119 0.025237
Si Si5 0.521906 0.269140 0.283664
Si Si6 0.004992 0.727945 0.758948
Si Si7 0.266543 0.463967 0.169561
O O1 0.514169 0.820767 0.396475
O O2 0.197608 0.639118 0.378901
O O3 0.348939 0.496451 0.684649
O O4 0.167575 0.417426 0.362884
O O5 0.443160 0.623846 0.282545
O O6 0.799177 0.028523 0.333897
O O7 0.661523 0.217061 0.053092
O O8 0.000000 0.500000 0.500000
O O9 0.064285 0.392372 0.829647
O O10 0.701758 0.932563 0.769663
O O11 0.638577 0.432858 0.142167
O O12 0.759451 0.685861 0.846420
O O13 0.000000 0.000000 0.000000
O O14 0.500000 0.000000 0.500000
O O15 0.949578 0.798268 0.756602
O O16 0.000000 0.500000 0.000000
#
# Coordination Sequence:
#
# PCOD9081058 Si02
#       7
#     2   2   2   2   2   2   2
#     4  10  19  30  56  88 117 146 197 255 303 353
#     4   9  17  30  55  83 116 149 195 259 298 339
#     4  11  21  36  59  88 120 162 206 249 299 358
#     4  12  25  40  60  90 131 167 197 250 310 369
#     4  10  21  37  58  87 117 160 207 247 297 359
#     4   9  17  29  50  83 115 148 191 251 308 344
#     4   9  18  32  50  82 117 153 196 243 302 355
#
# _framework density 26.021801
#
# number of rings (size 3 to 8) (size 9 to 14) (size 15 to 20)
#    0.000    2.000    2.857    4.286    2.000    1.714 
#    0.000    0.000    0.000    3.429    0.000    6.000 
#    0.000    0.000    0.000    0.000    0.000    0.000 
#
# Total GULP energy -78072.455752 kJ/mol
# GULP energy per Si atom -5576.603982 kJ/mol
# Density = 2.596257 g / cm^3
# Si number density = 26.021801 Si / 1000 Ang^3
#
#
#
# Elastic Constant Matrix: (Units=GPa)
#
#
# Indices 1 2 3 4 5 6 
#
# 1 153.5457 55.2036 51.0077 -7.4295 -61.4913 23.6452
# 2 55.2036 128.9547 18.3441 24.9946 -17.5725 17.6046
# 3 51.0077 18.3441 65.4956 10.7787 -6.8704 4.1760
# 4 -7.4295 24.9946 10.7787 37.0022 -2.5204 -7.0005
# 5 -61.4913 -17.5725 -6.8704 -2.5204 50.1290 0.6070
# 6 23.6452 17.6046 4.1760 -7.0005 0.6070 52.7352
#
#
#
# Elastic Compliance Matrix: (Units=1/GPa)
#
#
# Indices 1 2 3 4 5 6 
#
# 1 0.035655 -0.009695 -0.024084 0.021739 0.038232 -0.008398
# 2 -0.009695 0.012986 0.005459 -0.013196 -0.007230 -0.002089
# 3 -0.024084 0.005459 0.032818 -0.018944 -0.024134 0.004141
# 4 0.021739 -0.013196 -0.018944 0.047733 0.021816 0.002244
# 5 0.038232 -0.007230 -0.024134 0.021816 0.062230 -0.010638
# 6 -0.008398 -0.002089 0.004141 0.002244 -0.010638 0.023518
#
#
# Mechanical properties :
#
#
# Convention : Reuss Voigt Hill
#
# Bulk Modulus (GPa) = 40.29003 66.34520 53.31761
# Shear Modulus (GPa) = 17.86667 42.86934 30.36801
#
# Velocity S-wave (km/s) = 2.62316 4.06327 3.41988
# Velocity P-wave (km/s) = 4.96904 6.89673 6.01067
#
# Compressibility (1/GPa) = 0.02482004
#
# Stress axis : x y z
#
# Youngs Moduli (GPa) = 28.04671 77.00641 30.47135
#
# Poissons Ratio (x) = 0.74654 0.73388
# Poissons Ratio (y) = 0.27190 -0.16636
# Poissons Ratio (z) = 0.67548 -0.42042
#
# Static dielectric constant tensor:
#      x y z
#    x 2.022870 -0.185590 0.057800 
#    y -0.185590 2.100670 -0.027890 
#    z 0.057800 -0.027890 2.120930 
# 
# From -- ./inp_files/338089.got.cif
#   From: 2010.05.17/outbox.cif.g08.bks.cpg/sg2_170_cif.got.tgz:338089.got - 2010.06.03 11:33:40.
