data_PCOD9081758
_publ_section_title
;
Structure prediction by ZEFSAII (Michael W. Deem and Ramdas Pophale) SiO2 
 PCOD9081758
Probable space group: P -1
;
_chemical_formula_sum "Si O2"
_cell_formula_units_Z 16
_cell_length_a 20.403474
_cell_length_b 11.959255
_cell_length_c 6.190929
_cell_angle_alpha 97.099832
_cell_angle_beta 109.317012
_cell_angle_gamma 132.268587
_cell_volume 916.279372
_symmetry_space_group_name_H-M "P -1"
_symmetry_group_IT_number 2
_symmetry_cell_setting 'triclinic'
loop_
_space_group_symop_operation_xyz
x,y,z
-x,-y,-z
loop_
_atom_site_type_symbol
_atom_site_label
_atom_site_fract_x
_atom_site_fract_y
_atom_site_fract_z
Si Si1 0.733506 0.415627 0.962808
Si Si2 0.654386 0.121272 0.130077
Si Si3 0.991031 0.445650 0.217546
Si Si4 0.922473 0.063548 0.533522
Si Si5 0.867451 0.744875 0.468937
Si Si6 0.915344 0.650444 0.876398
Si Si7 0.156885 0.811024 0.701457
Si Si8 0.444802 0.858125 0.592187
O O1 0.831786 0.507399 0.932649
O O2 0.635001 0.320210 0.670967
O O3 0.701478 0.272618 0.050248
O O4 0.773682 0.567333 0.191608
O O5 0.741145 0.130716 0.254149
O O6 0.624843 0.149507 0.324884
O O7 0.543268 0.936368 0.863795
O O8 0.062631 0.420652 0.289653
O O9 0.047747 0.618983 0.444352
O O10 0.870512 0.256696 0.097886
O O11 0.000000 0.500000 0.000000
O O12 0.849431 0.067485 0.341103
O O13 0.020983 0.155012 0.501509
O O14 0.863940 0.874858 0.480471
O O15 0.977774 0.182470 0.837779
O O16 0.871545 0.702212 0.706001
O O17 0.500000 0.000000 0.500000
#
# Coordination Sequence:
#
# PCOD9081758 Si02
#       8
#     2   2   2   2   2   2   2   2
#     4  10  19  32  55  78 101 134 175 212 258 303
#     4  10  20  34  55  79 107 130 164 213 266 315
#     4  11  20  30  47  73 109 141 166 202 251 310
#     4  10  21  34  47  72 106 144 181 214 247 292
#     4  10  20  34  50  70 103 144 184 216 244 293
#     4  11  19  33  51  74 104 143 178 210 249 303
#     4  11  21  32  49  75 108 140 169 205 258 308
#     4   9  19  36  54  79 103 129 165 214 264 316
#
# _framework density 17.461924
#
# number of rings (size 3 to 8) (size 9 to 14) (size 15 to 20)
#    0.000    1.750    2.500    3.375    3.500    1.000 
#    0.000    0.000    0.000    0.750    0.000   12.250 
#    0.000    0.000    0.000    0.000    0.000    0.000 
#
# Total GULP energy -89153.593992 kJ/mol
# GULP energy per Si atom -5572.099625 kJ/mol
# Density = 1.742218 g / cm^3
# Si number density = 17.461924 Si / 1000 Ang^3
#
#
#
# Elastic Constant Matrix: (Units=GPa)
#
#
# Indices 1 2 3 4 5 6 
#
# 1 79.3587 47.9844 16.0699 -7.5381 7.8044 -3.6814
# 2 47.9844 81.6889 28.6578 -6.5167 7.5044 -12.7946
# 3 16.0699 28.6578 64.0297 5.7246 5.1112 -4.4927
# 4 -7.5381 -6.5167 5.7246 29.5966 1.8163 -2.1190
# 5 7.8044 7.5044 5.1112 1.8163 20.4568 -5.8040
# 6 -3.6814 -12.7946 -4.4927 -2.1190 -5.8040 29.1445
#
#
#
# Elastic Compliance Matrix: (Units=1/GPa)
#
#
# Indices 1 2 3 4 5 6 
#
# 1 0.020287 -0.011854 0.000116 0.002577 -0.004600 -0.003352
# 2 -0.011854 0.023343 -0.007260 0.004110 -0.000363 0.007858
# 3 0.000116 -0.007260 0.019403 -0.005267 -0.002036 -0.000970
# 4 0.002577 0.004110 -0.005267 0.036819 -0.003509 0.003296
# 5 -0.004600 -0.000363 -0.002036 -0.003509 0.054288 0.009502
# 6 -0.003352 0.007858 -0.000970 0.003296 0.009502 0.039320
#
#
# Mechanical properties :
#
#
# Convention : Reuss Voigt Hill
#
# Bulk Modulus (GPa) = 39.94088 45.61127 42.77607
# Shear Modulus (GPa) = 20.85046 24.66392 22.75719
#
# Velocity S-wave (km/s) = 3.45926 3.76232 3.61397
# Velocity P-wave (km/s) = 6.23523 6.71197 6.47798
#
# Compressibility (1/GPa) = 0.02503701
#
# Stress axis : x y z
#
# Youngs Moduli (GPa) = 49.29321 42.83850 51.53732
#
# Poissons Ratio (x) = 0.50781 -0.00596
# Poissons Ratio (y) = 0.58432 0.37416
# Poissons Ratio (z) = -0.00570 0.31100
#
# Static dielectric constant tensor:
#      x y z
#    x 2.216630 0.364170 -0.465290 
#    y 0.364170 1.828510 -0.300330 
#    z -0.465290 -0.300330 2.024780 
# 
# From -- ./inp_files/67226.got.cif
#   From: 2010.05.17/outbox.cif.g08.bks.cpg/sg2_34_cif.got.tgz:67226.got - 2010.06.03 11:33:40.
