data_PCOD9081981
_publ_section_title
;
Structure prediction by ZEFSAII (Michael W. Deem and Ramdas Pophale) SiO2 
 PCOD9081981
Probable space group: P -1
;
_chemical_formula_sum "Si O2"
_cell_formula_units_Z 12
_cell_length_a 13.344523
_cell_length_b 9.191992
_cell_length_c 7.588021
_cell_angle_alpha 63.858300
_cell_angle_beta 113.073630
_cell_angle_gamma 145.604044
_cell_volume 471.274749
_symmetry_space_group_name_H-M "P -1"
_symmetry_group_IT_number 2
_symmetry_cell_setting 'triclinic'
loop_
_space_group_symop_operation_xyz
x,y,z
-x,-y,-z
loop_
_atom_site_type_symbol
_atom_site_label
_atom_site_fract_x
_atom_site_fract_y
_atom_site_fract_z
Si Si1 0.318263 0.326688 0.870398
Si Si2 0.519060 0.207189 0.462276
Si Si3 0.170560 0.015672 0.271566
Si Si4 0.910766 0.530827 0.154820
Si Si5 0.133820 0.847332 0.807161
Si Si6 0.226214 0.417632 0.261305
O O1 0.338181 0.527490 0.700687
O O2 0.282033 0.155262 0.781639
O O3 0.500000 0.500000 0.000000
O O4 0.174587 0.116708 0.031822
O O5 0.337862 0.093653 0.367123
O O6 0.601042 0.328576 0.647803
O O7 0.500000 0.000000 0.500000
O O8 0.194849 0.190463 0.331300
O O9 0.995755 0.700543 0.299082
O O10 0.826148 0.253841 0.239262
O O11 0.781431 0.500606 0.977243
O O12 0.081237 0.714247 0.037417
O O13 0.951310 0.720883 0.694609
#
# Coordination Sequence:
#
# PCOD9081981 Si02
#       6
#     2   2   2   2   2   2
#     4   9  20  34  56  77 108 143 181 218 259 322
#     4  11  23  36  56  77 111 145 182 218 269 318
#     4  10  19  37  56  81 111 139 179 218 271 316
#     4   8  16  30  57  82 102 139 180 214 255 327
#     4   8  16  31  55  80 106 136 185 208 262 317
#     4  10  19  32  59  83 106 142 172 229 268 309
#
# _framework density 25.462855000000001
#
# number of rings (size 3 to 8) (size 9 to 14) (size 15 to 20)
#    1.000    1.667    0.000    2.000    4.667    0.667 
#    0.000    0.833    3.667    2.000    0.000    0.000 
#    0.000    0.000    0.000    0.000    0.000    0.000 
#
# Total GULP energy -67047.674939 kJ/mol
# GULP energy per Si atom -5587.306245 kJ/mol
# Density = 2.540490 g / cm^3
# Si number density = 25.462855 Si / 1000 Ang^3
#
#
#
# Elastic Constant Matrix: (Units=GPa)
#
#
# Indices 1 2 3 4 5 6 
#
# 1 110.5757 81.2192 46.1170 9.2002 44.2292 -32.1003
# 2 81.2192 239.3468 73.5147 21.7337 31.6394 -56.3638
# 3 46.1170 73.5147 96.6799 17.7649 14.0621 -17.9164
# 4 9.2002 21.7337 17.7649 50.9834 5.1480 8.1531
# 5 44.2292 31.6394 14.0621 5.1480 37.4689 -7.0019
# 6 -32.1003 -56.3638 -17.9164 8.1531 -7.0019 53.2163
#
#
#
# Elastic Compliance Matrix: (Units=1/GPa)
#
#
# Indices 1 2 3 4 5 6 
#
# 1 0.024384 -0.001413 -0.005369 -0.000857 -0.023889 0.008392
# 2 -0.001413 0.007630 -0.003167 -0.002697 -0.002037 0.006308
# 3 -0.005369 -0.003167 0.015308 -0.003310 0.003637 -0.000454
# 4 -0.000857 -0.002697 -0.003310 0.023386 -0.000195 -0.008096
# 5 -0.023889 -0.002037 0.003637 -0.000195 0.053729 -0.008243
# 6 0.008392 0.006308 -0.000454 -0.008096 -0.008243 0.030537
#
#
# Mechanical properties :
#
#
# Convention : Reuss Voigt Hill
#
# Bulk Modulus (GPa) = 36.46664 94.25605 65.36134
# Shear Modulus (GPa) = 27.17202 44.71715 35.94458
#
# Velocity S-wave (km/s) = 3.27023 4.19522 3.76127
# Velocity P-wave (km/s) = 5.34900 7.78228 6.67741
#
# Compressibility (1/GPa) = 0.02742232
#
# Stress axis : x y z
#
# Youngs Moduli (GPa) = 41.01112 131.06486 65.32651
#
# Poissons Ratio (x) = 0.18522 0.35077
# Poissons Ratio (y) = 0.05796 0.20687
# Poissons Ratio (z) = 0.22021 0.41505
#
# Static dielectric constant tensor:
#      x y z
#    x 2.095790 -0.037120 -0.104870 
#    y -0.037120 2.035370 -0.092380 
#    z -0.104870 -0.092380 2.121700 
# 
# From -- ./inp_files/145333.got.cif
#   From: 2010.05.17/outbox.cif.g08.bks.cpg/sg2_73_cif.got.tgz:145333.got - 2010.06.03 11:33:40.
