data_PCOD9081587
_publ_section_title
;
Structure prediction by ZEFSAII (Michael W. Deem and Ramdas Pophale) SiO2 
 PCOD9081587
Probable space group: P -1
;
_chemical_formula_sum "Si O2"
_cell_formula_units_Z 16
_cell_length_a 12.013951
_cell_length_b 11.090229
_cell_length_c 24.840725
_cell_angle_alpha 34.801744
_cell_angle_beta 157.030795
_cell_angle_gamma 139.660328
_cell_volume 736.864507
_symmetry_space_group_name_H-M "P -1"
_symmetry_group_IT_number 2
_symmetry_cell_setting 'triclinic'
loop_
_space_group_symop_operation_xyz
x,y,z
-x,-y,-z
loop_
_atom_site_type_symbol
_atom_site_label
_atom_site_fract_x
_atom_site_fract_y
_atom_site_fract_z
Si Si1 0.760973 0.369326 0.688628
Si Si2 0.334539 0.369367 0.817518
Si Si3 0.256686 0.594492 0.115424
Si Si4 0.992958 0.362783 0.494274
Si Si5 0.659907 0.857596 0.344553
Si Si6 0.561478 0.841646 0.633367
Si Si7 0.190373 0.693058 0.716013
Si Si8 0.983611 0.988543 0.139990
O O1 0.500000 0.500000 0.500000
O O2 0.625124 0.268039 0.718694
O O3 0.843777 0.167406 0.763677
O O4 0.032425 0.530947 0.746637
O O5 0.518388 0.349711 0.852796
O O6 0.035331 0.456283 0.629922
O O7 0.399241 0.556555 0.820895
O O8 0.279735 0.151433 0.902600
O O9 0.361081 0.391383 0.268651
O O10 0.000000 0.500000 0.000000
O O11 0.140681 0.798978 0.017842
O O12 0.711312 0.210840 0.430467
O O13 0.000000 0.500000 0.500000
O O14 0.248381 0.214954 0.647227
O O15 0.930487 0.784979 0.529566
O O16 0.653861 0.107674 0.259761
O O17 0.500000 0.000000 0.500000
O O18 0.811999 0.937694 0.746926
#
# Coordination Sequence:
#
# PCOD9081587 Si02
#       8
#     2   2   2   2   2   2   2   2
#     4   9  18  28  47  77 107 134 168 221 274 319
#     4   9  17  31  50  73 110 136 167 224 266 322
#     4   9  19  31  50  78 109 139 176 219 271 318
#     4  10  20  33  47  74 105 142 179 214 269 323
#     4   9  17  28  47  67 104 138 167 224 267 312
#     4  10  21  34  51  75 106 146 179 217 262 326
#     4   8  16  27  44  72 100 135 169 209 278 313
#     4  10  19  32  52  80 112 135 175 223 277 313
#
# _framework density 21.713626000000001
#
# number of rings (size 3 to 8) (size 9 to 14) (size 15 to 20)
#    0.000    2.750    0.000    1.875   10.500    0.000 
#    0.000    0.000    0.000    0.000    0.000    8.750 
#    0.000    0.000    0.000    0.000    0.000    0.000 
#
# Total GULP energy -89118.167417 kJ/mol
# GULP energy per Si atom -5569.885464 kJ/mol
# Density = 2.166420 g / cm^3
# Si number density = 21.713626 Si / 1000 Ang^3
#
#
#
# Elastic Constant Matrix: (Units=GPa)
#
#
# Indices 1 2 3 4 5 6 
#
# 1 72.1670 32.8541 26.4002 -25.4273 18.5673 -4.8789
# 2 32.8541 81.4923 31.3620 -36.0698 8.4299 -4.3565
# 3 26.4002 31.3620 92.0568 -36.4609 10.2903 0.1849
# 4 -25.4273 -36.0698 -36.4609 39.7710 -5.6387 4.2699
# 5 18.5673 8.4299 10.2903 -5.6387 24.9885 -8.3535
# 6 -4.8789 -4.3565 0.1849 4.2699 -8.3535 25.4408
#
#
#
# Elastic Compliance Matrix: (Units=1/GPa)
#
#
# Indices 1 2 3 4 5 6 
#
# 1 0.022161 -0.003513 0.000137 0.009387 -0.014072 -0.002549
# 2 -0.003513 0.021307 0.000924 0.017814 -0.001062 -0.000370
# 3 0.000137 0.000924 0.017875 0.017031 -0.005469 -0.004600
# 4 0.009387 0.017814 0.017031 0.062602 -0.008766 -0.008658
# 5 -0.014072 -0.001062 -0.005469 -0.008766 0.056894 0.017312
# 6 -0.002549 -0.000370 -0.004600 -0.008658 0.017312 0.045926
#
#
# Mechanical properties :
#
#
# Convention : Reuss Voigt Hill
#
# Bulk Modulus (GPa) = 17.71832 47.43872 32.57852
# Shear Modulus (GPa) = 19.96158 28.38005 24.17081
#
# Velocity S-wave (km/s) = 3.03530 3.61919 3.34003
# Velocity P-wave (km/s) = 4.52347 6.27372 5.46907
#
# Compressibility (1/GPa) = 0.05643876
#
# Stress axis : x y z
#
# Youngs Moduli (GPa) = 45.12353 46.93377 55.94443
#
# Poissons Ratio (x) = 0.16488 -0.00769
# Poissons Ratio (y) = 0.15852 -0.05167
# Poissons Ratio (z) = -0.00620 -0.04335
#
# Static dielectric constant tensor:
#      x y z
#    x 1.841500 -0.008490 0.042270 
#    y -0.008490 1.827440 0.028650 
#    z 0.042270 0.028650 1.894040 
# 
# From -- ./inp_files/406306.got.cif
#   From: 2010.05.17/outbox.cif.g08.bks.cpg/sg2_204_cif.got.tgz:406306.got - 2010.06.03 11:33:40.
