data_PCOD9081703
_publ_section_title
;
Structure prediction by ZEFSAII (Michael W. Deem and Ramdas Pophale) SiO2 
 PCOD9081703
Probable space group: P -1
;
_chemical_formula_sum "Si O2"
_cell_formula_units_Z 12
_cell_length_a 13.318855
_cell_length_b 14.917210
_cell_length_c 15.095359
_cell_angle_alpha 160.107944
_cell_angle_beta 147.949420
_cell_angle_gamma 31.161749
_cell_volume 512.107438
_symmetry_space_group_name_H-M "P -1"
_symmetry_group_IT_number 2
_symmetry_cell_setting 'triclinic'
loop_
_space_group_symop_operation_xyz
x,y,z
-x,-y,-z
loop_
_atom_site_type_symbol
_atom_site_label
_atom_site_fract_x
_atom_site_fract_y
_atom_site_fract_z
Si Si1 0.330229 0.866520 0.145129
Si Si2 0.152025 0.574893 0.286452
Si Si3 0.217371 0.565828 0.516588
Si Si4 0.475039 0.683252 0.324854
Si Si5 0.975513 0.883356 0.013852
Si Si6 0.111184 0.811754 0.294826
O O1 0.193910 0.868493 0.130056
O O2 0.472341 0.053738 0.428020
O O3 0.453609 0.561833 0.920399
O O4 0.169998 0.002083 0.073127
O O5 0.285803 0.529347 0.431962
O O6 0.226522 0.650197 0.318234
O O7 0.970443 0.860456 0.439758
O O8 0.066976 0.319612 0.972190
O O9 0.384727 0.426058 0.584546
O O10 0.116942 0.886441 0.766593
O O11 0.051072 0.410338 0.256055
O O12 0.254408 0.748133 0.258521
#
# Coordination Sequence:
#
# PCOD9081703 Si02
#       6
#     2   2   2   2   2   2
#     4   9  17  30  50  77 106 134 166 205 251 301
#     4  10  21  37  55  74 101 138 171 203 255 314
#     4  10  19  32  54  80 102 130 171 215 250 287
#     4  10  19  32  54  80 102 130 171 215 250 287
#     4   9  17  30  50  77 106 134 166 205 251 301
#     4  10  21  37  55  74 101 138 171 203 255 314
#
# _framework density 23.432583000000001
#
# number of rings (size 3 to 8) (size 9 to 14) (size 15 to 20)
#    0.000    2.333    0.000    3.000    0.000    4.667 
#    0.000    0.000    0.000   32.000    0.000    0.000 
#    0.000    0.000    0.000    0.000    0.000    0.000 
#
# Total GULP energy -67142.757357 kJ/mol
# GULP energy per Si atom -5595.229780 kJ/mol
# Density = 2.337925 g / cm^3
# Si number density = 23.432583 Si / 1000 Ang^3
#
#
#
# Elastic Constant Matrix: (Units=GPa)
#
#
# Indices 1 2 3 4 5 6 
#
# 1 113.8039 16.6414 13.1397 7.7196 -4.1045 11.5113
# 2 16.6414 103.3940 -3.2190 29.4166 17.2317 12.3336
# 3 13.1397 -3.2190 133.1583 6.6511 1.6765 -2.1520
# 4 7.7196 29.4166 6.6511 66.4242 21.2967 -10.1127
# 5 -4.1045 17.2317 1.6765 21.2967 36.0112 -11.1576
# 6 11.5113 12.3336 -2.1520 -10.1127 -11.1576 43.5297
#
#
#
# Elastic Compliance Matrix: (Units=1/GPa)
#
#
# Indices 1 2 3 4 5 6 
#
# 1 0.009444 -0.001233 -0.000950 -0.001372 0.001894 -0.002028
# 2 -0.001233 0.012809 0.000644 -0.004784 -0.005245 -0.005727
# 3 -0.000950 0.000644 0.007667 -0.000844 -0.000213 0.000197
# 4 -0.001372 -0.004784 -0.000844 0.020911 -0.008875 0.004260
# 5 0.001894 -0.005245 -0.000213 -0.008875 0.038472 0.008774
# 6 -0.002028 -0.005727 0.000197 0.004260 0.008774 0.028380
#
#
# Mechanical properties :
#
#
# Convention : Reuss Voigt Hill
#
# Bulk Modulus (GPa) = 37.25526 44.83113 41.04320
# Shear Modulus (GPa) = 38.54837 50.77930 44.66384
#
# Velocity S-wave (km/s) = 4.06035 4.66020 4.37058
# Velocity P-wave (km/s) = 6.15755 6.93758 6.55917
#
# Compressibility (1/GPa) = 0.02684185
#
# Stress axis : x y z
#
# Youngs Moduli (GPa) = 105.89277 78.07307 130.42631
#
# Poissons Ratio (x) = 0.09624 0.12387
# Poissons Ratio (y) = 0.13053 -0.08396
# Poissons Ratio (z) = 0.10057 -0.05026
#
# Static dielectric constant tensor:
#      x y z
#    x 1.848270 0.084910 -0.020050 
#    y 0.084910 1.946700 -0.059440 
#    z -0.020050 -0.059440 1.817870 
# 
# From -- ./inp_files/20040.got.cif
#   From: 2010.05.17/outbox.cif.g08.bks.cpg/sg2_11_cif.got.tgz:20040.got - 2010.06.03 11:33:40.
