data_PCOD9081922
_publ_section_title
;
Structure prediction by ZEFSAII (Michael W. Deem and Ramdas Pophale) SiO2 
 PCOD9081922
Probable space group: P -1
;
_chemical_formula_sum "Si O2"
_cell_formula_units_Z 16
_cell_length_a 15.335415
_cell_length_b 9.248469
_cell_length_c 11.442455
_cell_angle_alpha 130.310064
_cell_angle_beta 47.932379
_cell_angle_gamma 134.040038
_cell_volume 814.607024
_symmetry_space_group_name_H-M "P -1"
_symmetry_group_IT_number 2
_symmetry_cell_setting 'triclinic'
loop_
_space_group_symop_operation_xyz
x,y,z
-x,-y,-z
loop_
_atom_site_type_symbol
_atom_site_label
_atom_site_fract_x
_atom_site_fract_y
_atom_site_fract_z
Si Si1 0.857804 0.845862 0.699877
Si Si2 0.308524 0.923871 0.058868
Si Si3 0.876499 0.708807 0.356134
Si Si4 0.901173 0.890765 0.138744
Si Si5 0.946150 0.517987 0.895965
Si Si6 0.350032 0.339680 0.649787
Si Si7 0.464628 0.169381 0.274785
Si Si8 0.965865 0.657941 0.684421
O O1 0.832321 0.720680 0.535050
O O2 0.860175 0.703120 0.731269
O O3 0.752918 0.931905 0.862600
O O4 0.000905 0.055575 0.658190
O O5 0.188759 0.686223 0.055168
O O6 0.360843 0.023514 0.193290
O O7 0.423343 0.909298 0.873672
O O8 0.752529 0.657567 0.356062
O O9 0.935448 0.539143 0.214649
O O10 0.744180 0.745125 0.196444
O O11 0.957196 0.733492 0.056787
O O12 0.913395 0.102250 0.300707
O O13 0.000000 0.000000 0.000000
O O14 0.935740 0.564812 0.792905
O O15 0.404628 0.186367 0.462831
O O16 0.463323 0.579017 0.694459
O O17 0.000000 0.500000 0.500000
#
# Coordination Sequence:
#
# PCOD9081922 Si02
#       8
#     2   2   2   2   2   2   2   2
#     4  10  19  33  56  88 120 142 192 253 290 342
#     4  10  20  38  58  89 114 151 198 250 281 332
#     4  10  19  32  57  88 120 144 187 251 300 334
#     4  10  22  37  53  87 124 148 188 238 296 351
#     4  10  21  36  58  88 121 149 187 244 303 345
#     4  11  20  37  57  88 118 156 193 238 292 348
#     4  10  22  34  58  86 116 158 198 238 280 343
#     4  11  21  34  57  88 114 159 183 225 312 360
#
# _framework density 19.641373000000002
#
# number of rings (size 3 to 8) (size 9 to 14) (size 15 to 20)
#    0.000    1.750    5.000    0.000    1.750    1.500 
#    0.000    0.000    0.000    3.000   13.000   10.500 
#    0.000    0.000    0.000    0.000    0.000    0.000 
#
# Total GULP energy -89113.163537 kJ/mol
# GULP energy per Si atom -5569.572721 kJ/mol
# Density = 1.959667 g / cm^3
# Si number density = 19.641373 Si / 1000 Ang^3
#
#
#
# Elastic Constant Matrix: (Units=GPa)
#
#
# Indices 1 2 3 4 5 6 
#
# 1 72.0075 23.0397 18.6936 3.8339 -10.9684 -16.5415
# 2 23.0397 63.0931 34.6632 13.8301 -8.8651 -5.0186
# 3 18.6936 34.6632 110.2966 12.3579 -16.6247 -7.0475
# 4 3.8339 13.8301 12.3579 40.7282 -3.2551 1.2564
# 5 -10.9684 -8.8651 -16.6247 -3.2551 37.1824 8.2388
# 6 -16.5415 -5.0186 -7.0475 1.2564 8.2388 32.6646
#
#
#
# Elastic Compliance Matrix: (Units=1/GPa)
#
#
# Indices 1 2 3 4 5 6 
#
# 1 0.017776 -0.005344 -0.000568 0.000247 0.002069 0.007527
# 2 -0.005344 0.021954 -0.005296 -0.005254 0.000944 -0.000512
# 3 -0.000568 -0.005296 0.011544 -0.001390 0.003485 0.000564
# 4 0.000247 -0.005254 -0.001390 0.026891 0.001059 -0.002283
# 5 0.002069 0.000944 0.003485 0.001059 0.030673 -0.005832
# 6 0.007527 -0.000512 0.000564 -0.002283 -0.005832 0.036028
#
#
# Mechanical properties :
#
#
# Convention : Reuss Voigt Hill
#
# Bulk Modulus (GPa) = 34.65151 44.24336 39.44743
# Shear Modulus (GPa) = 28.26462 33.38176 30.82319
#
# Velocity S-wave (km/s) = 3.79758 4.12705 3.96574
# Velocity P-wave (km/s) = 6.07529 6.72938 6.41068
#
# Compressibility (1/GPa) = 0.02885878
#
# Stress axis : x y z
#
# Youngs Moduli (GPa) = 56.25605 45.54998 86.62500
#
# Poissons Ratio (x) = 0.24341 0.04922
# Poissons Ratio (y) = 0.30062 0.45873
# Poissons Ratio (z) = 0.03196 0.24122
#
# Static dielectric constant tensor:
#      x y z
#    x 1.726750 -0.001870 0.064830 
#    y -0.001870 1.689880 -0.024230 
#    z 0.064830 -0.024230 1.860920 
# 
# From -- ./inp_files/177836.got.cif
#   From: 2010.05.17/outbox.cif.g08.bks.cpg/sg2_89_cif.got.tgz:177836.got - 2010.06.03 11:33:40.
