data_PCOD9081632
_publ_section_title
;
Structure prediction by ZEFSAII (Michael W. Deem and Ramdas Pophale) SiO2 
 PCOD9081632
Probable space group: P -1
;
_chemical_formula_sum "Si O2"
_cell_formula_units_Z 14
_cell_length_a 9.058876
_cell_length_b 5.655865
_cell_length_c 11.770983
_cell_angle_alpha 114.208189
_cell_angle_beta 90.736481
_cell_angle_gamma 85.987100
_cell_volume 548.628429
_symmetry_space_group_name_H-M "P -1"
_symmetry_group_IT_number 2
_symmetry_cell_setting 'triclinic'
loop_
_space_group_symop_operation_xyz
x,y,z
-x,-y,-z
loop_
_atom_site_type_symbol
_atom_site_label
_atom_site_fract_x
_atom_site_fract_y
_atom_site_fract_z
Si Si1 0.021084 0.628730 0.697299
Si Si2 0.187660 0.529712 0.130577
Si Si3 0.931875 0.893100 0.092076
Si Si4 0.515383 0.679470 0.228326
Si Si5 0.866646 0.849757 0.515039
Si Si6 0.376363 0.702865 0.444029
Si Si7 0.563064 0.241448 0.285289
O O1 0.134446 0.384934 0.621058
O O2 0.902577 0.566559 0.780331
O O3 0.921139 0.715875 0.605816
O O4 0.116824 0.865119 0.782357
O O5 0.350940 0.617684 0.172009
O O6 0.073084 0.756406 0.129587
O O7 0.182789 0.309940 0.989058
O O8 0.000000 0.000000 0.000000
O O9 0.514703 0.775804 0.380676
O O10 0.595921 0.394588 0.198453
O O11 0.559823 0.931720 0.211580
O O12 0.743203 0.084749 0.565096
O O13 0.000000 0.000000 0.500000
O O14 0.399318 0.393606 0.348080
O O15 0.363674 0.711752 0.580961
#
# Coordination Sequence:
#
# PCOD9081632 Si02
#       7
#     2   2   2   2   2   2   2
#     4  10  21  35  49  79 115 149 188 215 273 340
#     4  10  20  32  53  77 111 142 178 235 276 329
#     4   9  19  33  51  75 106 143 182 226 282 325
#     4  10  19  32  53  78 108 139 182 227 280 323
#     4  11  22  34  53  80 111 157 182 220 270 335
#     4   9  20  33  51  73 115 141 189 222 275 320
#     4   9  21  33  52  78 107 146 182 232 274 321
#
# _framework density 25.518184000000002
#
# number of rings (size 3 to 8) (size 9 to 14) (size 15 to 20)
#    0.857    1.429    0.000    3.000    6.000    1.143 
#    0.000    0.000    0.000    0.000    0.000    2.000 
#    0.000    0.000    0.000    0.000    0.000    0.000 
#
# Total GULP energy -77985.582514 kJ/mol
# GULP energy per Si atom -5570.398751 kJ/mol
# Density = 2.546010 g / cm^3
# Si number density = 25.518184 Si / 1000 Ang^3
#
#
#
# Elastic Constant Matrix: (Units=GPa)
#
#
# Indices 1 2 3 4 5 6 
#
# 1 50.5781 29.1374 2.8929 1.4836 10.8774 -8.9845
# 2 29.1374 199.0648 36.2829 -8.0781 2.0318 -8.8420
# 3 2.8929 36.2829 66.6942 17.6211 16.0261 -9.2803
# 4 1.4836 -8.0781 17.6211 59.8850 0.5005 5.2119
# 5 10.8774 2.0318 16.0261 0.5005 29.6048 5.6836
# 6 -8.9845 -8.8420 -9.2803 5.2119 5.6836 38.0396
#
#
#
# Elastic Compliance Matrix: (Units=1/GPa)
#
#
# Indices 1 2 3 4 5 6 
#
# 1 0.027664 -0.005077 0.008057 -0.004506 -0.016086 0.010340
# 2 -0.005077 0.006773 -0.005675 0.002854 0.004832 -0.002122
# 3 0.008057 -0.005675 0.026305 -0.009515 -0.018783 0.011112
# 4 -0.004506 0.002854 -0.009515 0.020512 0.007543 -0.006660
# 5 -0.016086 0.004832 -0.018783 0.007543 0.052495 -0.016136
# 6 0.010340 -0.002122 0.011112 -0.006660 -0.016136 0.034272
#
#
# Mechanical properties :
#
#
# Convention : Reuss Voigt Hill
#
# Bulk Modulus (GPa) = 18.06600 50.32929 34.19764
# Shear Modulus (GPa) = 26.06045 42.04081 34.05063
#
# Velocity S-wave (km/s) = 3.19917 4.06333 3.65686
# Velocity P-wave (km/s) = 4.55426 6.46374 5.59111
#
# Compressibility (1/GPa) = 0.05535261
#
# Stress axis : x y z
#
# Youngs Moduli (GPa) = 36.14804 147.64116 38.01542
#
# Poissons Ratio (x) = 0.74960 -0.30629
# Poissons Ratio (y) = 0.18353 0.21573
# Poissons Ratio (z) = -0.29125 0.83783
#
# Static dielectric constant tensor:
#      x y z
#    x 2.193130 -0.208140 -0.230300 
#    y -0.208140 2.523290 0.612860 
#    z -0.230300 0.612860 2.692070 
# 
# From -- ./inp_files/408485.got.cif
#   From: 2010.05.17/outbox.cif.g08.bks.cpg/sg2_205_cif.got.tgz:408485.got - 2010.06.03 11:33:40.
