data_PCOD9081080
_publ_section_title
;
Structure prediction by ZEFSAII (Michael W. Deem and Ramdas Pophale) SiO2 
 PCOD9081080
Probable space group: P -1
;
_chemical_formula_sum "Si O2"
_cell_formula_units_Z 14
_cell_length_a 13.027986
_cell_length_b 5.214586
_cell_length_c 24.119818
_cell_angle_alpha 87.229315
_cell_angle_beta 30.925876
_cell_angle_gamma 92.794666
_cell_volume 828.041500
_symmetry_space_group_name_H-M "P -1"
_symmetry_group_IT_number 2
_symmetry_cell_setting 'triclinic'
loop_
_space_group_symop_operation_xyz
x,y,z
-x,-y,-z
loop_
_atom_site_type_symbol
_atom_site_label
_atom_site_fract_x
_atom_site_fract_y
_atom_site_fract_z
Si Si1 0.847190 0.058051 0.988618
Si Si2 0.906479 0.029078 0.602781
Si Si3 0.870883 0.512147 0.680663
Si Si4 0.730933 0.780487 0.932048
Si Si5 0.493999 0.690648 0.808250
Si Si6 0.825836 0.650505 0.101509
Si Si7 0.755334 0.303091 0.853710
O O1 0.817173 0.881631 0.950328
O O2 0.808999 0.877099 0.062859
O O3 0.074444 0.221110 0.889788
O O4 0.674552 0.238189 0.072169
O O5 0.965723 0.810103 0.619307
O O6 0.661529 0.942149 0.713460
O O7 0.955193 0.313926 0.603017
O O8 0.000000 0.000000 0.500000
O O9 0.633529 0.507890 0.774693
O O10 0.874171 0.416989 0.742775
O O11 0.793046 0.517101 0.882905
O O12 0.795157 0.022007 0.857353
O O13 0.485581 0.734184 0.047547
O O14 0.380794 0.553685 0.808200
O O15 0.000000 0.500000 0.000000
#
# Coordination Sequence:
#
# PCOD9081080 Si02
#       7
#     2   2   2   2   2   2   2
#     4  10  19  31  44  69  97 134 164 196 232 274
#     4  10  20  32  51  73  97 125 157 202 241 295
#     4  10  20  33  50  67 103 127 160 189 247 287
#     4  10  21  28  46  64  98 121 177 192 219 271
#     4   9  19  28  51  65 100 129 158 194 238 289
#     4   9  18  30  46  65  93 134 163 193 239 284
#     4  10  20  31  43  68  90 136 158 198 226 274
#
# _framework density 16.907366
#
# number of rings (size 3 to 8) (size 9 to 14) (size 15 to 20)
#    0.857    1.429    0.000    3.857   10.000    0.000 
#    0.000    0.000    0.000    0.000    0.000    0.000 
#    0.000    6.857    0.000    0.000    0.000    0.000 
#
# Total GULP energy -77943.482770 kJ/mol
# GULP energy per Si atom -5567.391626 kJ/mol
# Density = 1.686888 g / cm^3
# Si number density = 16.907366 Si / 1000 Ang^3
#
#
#
# Elastic Constant Matrix: (Units=GPa)
#
#
# Indices 1 2 3 4 5 6 
#
# 1 48.5748 10.0691 8.0021 6.0195 7.2336 21.6060
# 2 10.0691 70.9201 -4.0829 9.2667 1.7604 1.7631
# 3 8.0021 -4.0829 24.6047 5.1423 15.0675 -5.1219
# 4 6.0195 9.2667 5.1423 19.0201 4.1034 4.7099
# 5 7.2336 1.7604 15.0675 4.1034 16.6659 -3.3083
# 6 21.6060 1.7631 -5.1219 4.7099 -3.3083 35.7720
#
#
#
# Elastic Compliance Matrix: (Units=1/GPa)
#
#
# Indices 1 2 3 4 5 6 
#
# 1 0.035489 -0.005278 -0.012480 0.002634 -0.009004 -0.024142
# 2 -0.005278 0.016778 0.011483 -0.009317 -0.006653 0.004616
# 3 -0.012480 0.011483 0.103898 -0.015963 -0.082561 0.016315
# 4 0.002634 -0.009317 -0.015963 0.064513 -0.004051 -0.012286
# 5 -0.009004 -0.006653 -0.082561 -0.004051 0.141760 0.007588
# 6 -0.024142 0.004616 0.016315 -0.012286 0.007588 0.046964
#
#
# Mechanical properties :
#
#
# Convention : Reuss Voigt Hill
#
# Bulk Modulus (GPa) = 6.96304 19.11961 13.04132
# Shear Modulus (GPa) = 10.64225 22.96568 16.80396
#
# Velocity S-wave (km/s) = 2.51160 3.68954 3.15601
# Velocity P-wave (km/s) = 3.54092 5.42985 4.58374
#
# Compressibility (1/GPa) = 0.14361549
#
# Stress axis : x y z
#
# Youngs Moduli (GPa) = 28.17748 59.60020 9.62480
#
# Poissons Ratio (x) = 0.31456 0.12012
# Poissons Ratio (y) = 0.14871 -0.11052
# Poissons Ratio (z) = 0.35166 -0.68438
#
# Static dielectric constant tensor:
#      x y z
#    x 1.603530 -0.013820 -0.001630 
#    y -0.013820 1.657340 -0.018380 
#    z -0.001630 -0.018380 1.554450 
# 
# From -- ./inp_files/66328.got.cif
#   From: 2010.05.17/outbox.cif.g08.bks.cpg/sg2_34_cif.got.tgz:66328.got - 2010.06.03 11:33:40.
