data_PCOD9081675
_publ_section_title
;
Structure prediction by ZEFSAII (Michael W. Deem and Ramdas Pophale) SiO2 
 PCOD9081675
Probable space group: P -1
;
_chemical_formula_sum "Si O2"
_cell_formula_units_Z 16
_cell_length_a 7.352248
_cell_length_b 22.764930
_cell_length_c 12.023288
_cell_angle_alpha 149.628608
_cell_angle_beta 55.239194
_cell_angle_gamma 112.517067
_cell_volume 806.621792
_symmetry_space_group_name_H-M "P -1"
_symmetry_group_IT_number 2
_symmetry_cell_setting 'triclinic'
loop_
_space_group_symop_operation_xyz
x,y,z
-x,-y,-z
loop_
_atom_site_type_symbol
_atom_site_label
_atom_site_fract_x
_atom_site_fract_y
_atom_site_fract_z
Si Si1 0.492628 0.418460 0.211923
Si Si2 0.765989 0.656884 0.003953
Si Si3 0.080734 0.137320 0.584108
Si Si4 0.862497 0.338861 0.294590
Si Si5 0.301162 0.864043 0.103487
Si Si6 0.878773 0.475995 0.858683
Si Si7 0.927026 0.334604 0.806596
Si Si8 0.759458 0.680676 0.680585
O O1 0.427074 0.326010 0.995038
O O2 0.359443 0.550279 0.432385
O O3 0.398008 0.393166 0.322273
O O4 0.762169 0.388135 0.055768
O O5 0.995771 0.619763 0.787672
O O6 0.753895 0.549112 0.915225
O O7 0.789429 0.774677 0.253671
O O8 0.846659 0.140119 0.738860
O O9 0.022358 0.196353 0.578967
O O10 0.231469 0.001191 0.311992
O O11 0.963190 0.687190 0.705258
O O12 0.788547 0.221900 0.090634
O O13 0.572820 0.806524 0.929052
O O14 0.113628 0.389860 0.585099
O O15 0.801169 0.381693 0.812246
O O16 0.885982 0.589179 0.120564
#
# Coordination Sequence:
#
# PCOD9081675 Si02
#       8
#     2   2   2   2   2   2   2   2
#     4  11  18  32  54  85 104 133 172 223 271 309
#     4   9  17  32  52  74 112 133 165 222 265 306
#     4   9  19  37  49  76 109 138 179 219 252 313
#     4  10  19  32  53  85 111 127 177 227 256 317
#     4  10  20  34  56  77 104 147 178 214 264 305
#     4  10  19  34  51  78 110 138 169 216 270 318
#     4  10  21  32  53  78 108 140 174 215 263 316
#     4  11  19  34  56  81 106 140 173 220 269 307
#
# _framework density 19.835813000000002
#
# number of rings (size 3 to 8) (size 9 to 14) (size 15 to 20)
#    0.000    2.000    3.750    1.500    0.000    1.500 
#    2.250    3.125    0.000    0.750    0.000    0.000 
#    0.000    0.000    0.000    0.000    0.000    0.000 
#
# Total GULP energy -89125.739093 kJ/mol
# GULP energy per Si atom -5570.358693 kJ/mol
# Density = 1.979067 g / cm^3
# Si number density = 19.835813 Si / 1000 Ang^3
#
#
#
# Elastic Constant Matrix: (Units=GPa)
#
#
# Indices 1 2 3 4 5 6 
#
# 1 53.4022 12.9769 30.2547 10.7178 -7.8826 -13.8824
# 2 12.9769 97.9880 38.8375 19.1263 -6.6463 -18.3707
# 3 30.2547 38.8375 93.7099 24.6366 -17.4898 -12.1037
# 4 10.7178 19.1263 24.6366 33.5478 -7.2310 -6.9723
# 5 -7.8826 -6.6463 -17.4898 -7.2310 27.6103 1.3263
# 6 -13.8824 -18.3707 -12.1037 -6.9723 1.3263 17.1301
#
#
#
# Elastic Compliance Matrix: (Units=1/GPa)
#
#
# Indices 1 2 3 4 5 6 
#
# 1 0.027813 0.003273 -0.006886 -0.000717 0.003187 0.020646
# 2 0.003273 0.014836 -0.004516 -0.003242 0.000121 0.014042
# 3 -0.006886 -0.004516 0.017639 -0.007093 0.006327 -0.001338
# 4 -0.000717 -0.003242 -0.007093 0.039452 0.004535 0.006636
# 5 0.003187 0.000121 0.006327 0.004535 0.042076 0.005771
# 6 0.020646 0.014042 -0.001338 0.006636 0.005771 0.091476
#
#
# Mechanical properties :
#
#
# Convention : Reuss Voigt Hill
#
# Bulk Modulus (GPa) = 22.71278 45.47092 34.09185
# Shear Modulus (GPa) = 18.92311 26.52638 22.72475
#
# Velocity S-wave (km/s) = 3.09202 3.66087 3.38841
# Velocity P-wave (km/s) = 4.92166 6.39083 5.70375
#
# Compressibility (1/GPa) = 0.04402807
#
# Stress axis : x y z
#
# Youngs Moduli (GPa) = 35.95431 67.40502 56.69216
#
# Poissons Ratio (x) = -0.22059 0.39039
# Poissons Ratio (y) = -0.11766 0.25605
# Poissons Ratio (z) = 0.24758 0.30443
#
# Static dielectric constant tensor:
#      x y z
#    x 1.777100 -0.001030 0.006530 
#    y -0.001030 1.761930 -0.011210 
#    z 0.006530 -0.011210 1.684650 
# 
# From -- ./inp_files/248740.got.cif
#   From: 2010.05.17/outbox.cif.g08.bks.cpg/sg2_125_cif.got.tgz:248740.got - 2010.06.03 11:33:40.
