data_PCOD9081053
_publ_section_title
;
Structure prediction by ZEFSAII (Michael W. Deem and Ramdas Pophale) SiO2 
 PCOD9081053
Probable space group: P -1
;
_chemical_formula_sum "Si O2"
_cell_formula_units_Z 16
_cell_length_a 8.583996
_cell_length_b 20.470784
_cell_length_c 11.258465
_cell_angle_alpha 147.020026
_cell_angle_beta 139.794231
_cell_angle_gamma 48.354071
_cell_volume 693.575939
_symmetry_space_group_name_H-M "P -1"
_symmetry_group_IT_number 2
_symmetry_cell_setting 'triclinic'
loop_
_space_group_symop_operation_xyz
x,y,z
-x,-y,-z
loop_
_atom_site_type_symbol
_atom_site_label
_atom_site_fract_x
_atom_site_fract_y
_atom_site_fract_z
Si Si1 0.337519 0.152229 0.396437
Si Si2 0.012224 0.822294 0.569529
Si Si3 0.486291 0.060428 0.954582
Si Si4 0.689521 0.742797 0.703347
Si Si5 0.141063 0.545747 0.288622
Si Si6 0.127416 0.694554 0.231544
Si Si7 0.321748 0.508211 0.594159
Si Si8 0.381987 0.620535 0.047498
O O1 0.213287 0.191192 0.255860
O O2 0.434117 0.276480 0.683147
O O3 0.182390 0.114353 0.359706
O O4 0.536416 0.045662 0.314012
O O5 0.255338 0.886972 0.835801
O O6 0.051849 0.681838 0.414368
O O7 0.973467 0.802318 0.374443
O O8 0.304424 0.174602 0.049838
O O9 0.500000 0.000000 0.000000
O O10 0.403156 0.721150 0.473230
O O11 0.780460 0.609088 0.584018
O O12 0.168687 0.546376 0.448560
O O13 0.406388 0.519086 0.342938
O O14 0.974277 0.435400 0.993674
O O15 0.162109 0.677937 0.086319
O O16 0.335544 0.596478 0.846968
O O17 0.500000 0.500000 0.000000
#
# Coordination Sequence:
#
# PCOD9081053 Si02
#       8
#     2   2   2   2   2   2   2   2
#     4  10  19  30  56  81 102 138 174 225 261 302
#     4  11  19  33  52  81 110 133 180 222 260 311
#     4   9  18  33  52  79 103 136 178 225 261 302
#     4   9  18  35  53  77 110 139 176 214 258 313
#     4  11  22  32  51  80 111 145 169 216 268 314
#     4  10  19  32  52  76 106 141 173 215 258 309
#     4  11  21  35  50  77 114 143 174 208 272 317
#     4  11  18  33  54  77 108 138 177 214 263 314
#
# _framework density 23.068852
#
# number of rings (size 3 to 8) (size 9 to 14) (size 15 to 20)
#    0.000    1.750    5.000    3.000    0.000    0.500 
#    0.000    0.000    0.000    0.750    6.500    8.750 
#    0.000    0.000    0.000    0.000    0.000    0.000 
#
# Total GULP energy -89171.728744 kJ/mol
# GULP energy per Si atom -5573.233046 kJ/mol
# Density = 2.301635 g / cm^3
# Si number density = 23.068852 Si / 1000 Ang^3
#
#
#
# Elastic Constant Matrix: (Units=GPa)
#
#
# Indices 1 2 3 4 5 6 
#
# 1 121.5853 8.5241 24.3590 -4.8810 -36.2060 8.0237
# 2 8.5241 23.7879 25.5317 -1.7740 -14.0591 -2.3547
# 3 24.3590 25.5317 104.8841 8.8609 -33.7562 -3.8216
# 4 -4.8810 -1.7740 8.8609 24.4682 3.5922 -4.8577
# 5 -36.2060 -14.0591 -33.7562 3.5922 54.0118 -2.5281
# 6 8.0237 -2.3547 -3.8216 -4.8577 -2.5281 20.0707
#
#
#
# Elastic Compliance Matrix: (Units=1/GPa)
#
#
# Indices 1 2 3 4 5 6 
#
# 1 0.010523 0.000545 -0.000636 0.000755 0.006596 -0.003250
# 2 0.000545 0.062338 -0.013260 0.009833 0.008023 0.007961
# 3 -0.000636 -0.013260 0.015643 -0.007568 0.006433 0.000656
# 4 0.000755 0.009833 -0.007568 0.047148 -0.004318 0.010278
# 5 0.006596 0.008023 0.006433 -0.004318 0.029435 0.002192
# 6 -0.003250 0.007961 0.000656 0.010278 0.002192 0.054946
#
#
# Mechanical properties :
#
#
# Convention : Reuss Voigt Hill
#
# Bulk Modulus (GPa) = 16.18063 40.78742 28.48403
# Shear Modulus (GPa) = 18.70309 32.49964 25.60136
#
# Velocity S-wave (km/s) = 2.85046 3.75748 3.33495
# Velocity P-wave (km/s) = 4.22644 6.04517 5.21569
#
# Compressibility (1/GPa) = 0.06180228
#
# Stress axis : x y z
#
# Youngs Moduli (GPa) = 95.03160 16.04158 63.92432
#
# Poissons Ratio (x) = -0.00874 0.04065
# Poissons Ratio (y) = -0.05176 0.84762
# Poissons Ratio (z) = 0.06043 0.21271
#
# Static dielectric constant tensor:
#      x y z
#    x 1.993740 -0.015550 -0.010490 
#    y -0.015550 1.925820 -0.019680 
#    z -0.010490 -0.019680 1.906200 
# 
# From -- ./inp_files/406825.got.cif
#   From: 2010.05.17/outbox.cif.g08.bks.cpg/sg2_204_cif.got.tgz:406825.got - 2010.06.03 11:33:40.
