data_PCOD9081318
_publ_section_title
;
Structure prediction by ZEFSAII (Michael W. Deem and Ramdas Pophale) SiO2 
 PCOD9081318
Probable space group: P -1
;
_chemical_formula_sum "Si O2"
_cell_formula_units_Z 12
_cell_length_a 8.373630
_cell_length_b 7.111335
_cell_length_c 13.224082
_cell_angle_alpha 85.449881
_cell_angle_beta 94.001621
_cell_angle_gamma 36.738968
_cell_volume 457.658915
_symmetry_space_group_name_H-M "P -1"
_symmetry_group_IT_number 2
_symmetry_cell_setting 'triclinic'
loop_
_space_group_symop_operation_xyz
x,y,z
-x,-y,-z
loop_
_atom_site_type_symbol
_atom_site_label
_atom_site_fract_x
_atom_site_fract_y
_atom_site_fract_z
Si Si1 0.981684 0.666597 0.240671
Si Si2 0.441878 0.870705 0.636096
Si Si3 0.946198 0.250450 0.300718
Si Si4 0.683621 0.453390 0.082363
Si Si5 0.831542 0.850084 0.001314
Si Si6 0.475744 0.290032 0.577675
O O1 0.837313 0.884252 0.325433
O O2 0.952488 0.466340 0.257735
O O3 0.300630 0.411985 0.268024
O O4 0.850928 0.857406 0.122126
O O5 0.462870 0.074311 0.601871
O O6 0.477262 0.728430 0.538361
O O7 0.760827 0.328963 0.205048
O O8 0.800595 0.375775 0.397154
O O9 0.480840 0.830544 0.062485
O O10 0.260105 0.893256 0.340767
O O11 0.976558 0.194787 0.053004
O O12 0.500000 0.500000 0.000000
O O13 0.000000 0.500000 0.000000
#
# Coordination Sequence:
#
# PCOD9081318 Si02
#       6
#     2   2   2   2   2   2
#     4  10  19  31  54  83 114 149 189 241 292 346
#     4   9  17  29  47  81 118 144 182 240 296 344
#     4  10  19  32  54  80 113 154 192 236 291 347
#     4  12  26  42  60  89 124 160 203 248 294 357
#     4  12  24  40  64  89 118 162 204 244 302 355
#     4   9  17  29  49  78 115 151 183 233 298 350
#
# _framework density 26.220400000000001
#
# number of rings (size 3 to 8) (size 9 to 14) (size 15 to 20)
#    0.000    1.667    1.667    4.000    4.667    4.000 
#    0.000    0.000    0.000    0.000    0.000   23.333 
#    0.000    0.000    0.000    0.000    0.000    0.000 
#
# Total GULP energy -67223.252632 kJ/mol
# GULP energy per Si atom -5601.937719 kJ/mol
# Density = 2.616072 g / cm^3
# Si number density = 26.220400 Si / 1000 Ang^3
#
#
#
# Elastic Constant Matrix: (Units=GPa)
#
#
# Indices 1 2 3 4 5 6 
#
# 1 58.4984 5.1161 3.4275 1.2661 2.5554 13.4290
# 2 5.1161 102.2387 1.3387 11.3018 -6.1680 -12.1833
# 3 3.4275 1.3387 96.2247 10.9091 5.6190 5.6688
# 4 1.2661 11.3018 10.9091 46.4728 1.8774 -3.4638
# 5 2.5554 -6.1680 5.6190 1.8774 36.8679 1.3504
# 6 13.4290 -12.1833 5.6688 -3.4638 1.3504 32.6824
#
#
#
# Elastic Compliance Matrix: (Units=1/GPa)
#
#
# Indices 1 2 3 4 5 6 
#
# 1 0.019342 -0.002016 0.000002 -0.000633 -0.001327 -0.008712
# 2 -0.002016 0.010795 -0.000204 -0.002260 0.001925 0.004569
# 3 0.000002 -0.000204 0.010907 -0.002614 -0.001483 -0.002184
# 4 -0.000633 -0.002260 -0.002614 0.022921 -0.001189 0.002349
# 5 -0.001327 0.001925 -0.001483 -0.001189 0.027816 0.000245
# 6 -0.008712 0.004569 -0.002184 0.002349 0.000245 0.036498
#
#
# Mechanical properties :
#
#
# Convention : Reuss Voigt Hill
#
# Bulk Modulus (GPa) = 27.31706 30.74739 29.03223
# Shear Modulus (GPa) = 34.50226 39.67656 37.08941
#
# Velocity S-wave (km/s) = 3.63141 3.89420 3.76510
# Velocity P-wave (km/s) = 5.29374 5.65435 5.47702
#
# Compressibility (1/GPa) = 0.03660716
#
# Stress axis : x y z
#
# Youngs Moduli (GPa) = 51.70031 92.63593 91.68655
#
# Poissons Ratio (x) = 0.18677 -0.00014
# Poissons Ratio (y) = 0.10424 0.01868
# Poissons Ratio (z) = -0.00008 0.01887
#
# Static dielectric constant tensor:
#      x y z
#    x 2.248220 0.121000 0.032830 
#    y 0.121000 1.966950 0.034970 
#    z 0.032830 0.034970 1.961360 
# 
# From -- ./inp_files/424776.got.cif
#   From: 2010.05.17/outbox.cif.g08.bks.cpg/sg2_213_cif.got.tgz:424776.got - 2010.06.03 11:33:40.
