data_PCOD9081390
_publ_section_title
;
Structure prediction by ZEFSAII (Michael W. Deem and Ramdas Pophale) SiO2 
 PCOD9081390
Probable space group: P -1
;
_chemical_formula_sum "Si O2"
_cell_formula_units_Z 16
_cell_length_a 18.742307
_cell_length_b 9.969135
_cell_length_c 11.456050
_cell_angle_alpha 67.828123
_cell_angle_beta 78.726743
_cell_angle_gamma 28.061100
_cell_volume 884.771574
_symmetry_space_group_name_H-M "P -1"
_symmetry_group_IT_number 2
_symmetry_cell_setting 'triclinic'
loop_
_space_group_symop_operation_xyz
x,y,z
-x,-y,-z
loop_
_atom_site_type_symbol
_atom_site_label
_atom_site_fract_x
_atom_site_fract_y
_atom_site_fract_z
Si Si1 0.155580 0.799435 0.379294
Si Si2 0.366072 0.460916 0.219432
Si Si3 0.109529 0.044385 0.757687
Si Si4 0.857572 0.365699 0.895228
Si Si5 0.689447 0.172358 0.033755
Si Si6 0.988999 0.252129 0.485163
Si Si7 0.278959 0.182281 0.781625
Si Si8 0.834151 0.391777 0.149852
O O1 0.320245 0.526586 0.348030
O O2 0.113380 0.708626 0.455295
O O3 0.124830 0.949115 0.454477
O O4 0.015892 0.090274 0.236222
O O5 0.281411 0.476826 0.175229
O O6 0.552610 0.130280 0.236107
O O7 0.286050 0.749549 0.098033
O O8 0.945367 0.318368 0.794656
O O9 0.065346 0.182809 0.599474
O O10 0.231129 0.912817 0.844055
O O11 0.181170 0.755045 0.807940
O O12 0.806361 0.508499 0.992759
O O13 0.000000 0.000000 0.000000
O O14 0.743589 0.910728 0.090429
O O15 0.500000 0.500000 0.000000
O O16 0.866538 0.562643 0.346994
O O17 0.270556 0.345775 0.804062
#
# Coordination Sequence:
#
# PCOD9081390 Si02
#       8
#     2   2   2   2   2   2   2   2
#     4   9  16  31  56  78 104 135 177 218 257 309
#     4  11  18  34  55  77 107 142 173 214 267 309
#     4  10  17  34  61  73 101 142 182 209 255 320
#     4  10  15  29  56  80  94 134 183 219 248 308
#     4  10  21  36  52  77 109 145 169 208 272 322
#     4   9  18  33  52  81 104 136 178 215 257 304
#     4  10  23  33  49  82 117 135 167 217 266 309
#     4   9  16  32  53  80 102 130 179 224 252 296
#
# _framework density 18.083763999999999
#
# number of rings (size 3 to 8) (size 9 to 14) (size 15 to 20)
#    0.000    2.250    6.250    0.750    0.000    1.500 
#    0.000    5.625    0.000    3.000    0.000    0.000 
#    0.000    0.000    0.000    0.000    0.000    0.000 
#
# Total GULP energy -89088.331826 kJ/mol
# GULP energy per Si atom -5568.020739 kJ/mol
# Density = 1.804260 g / cm^3
# Si number density = 18.083764 Si / 1000 Ang^3
#
#
#
# Elastic Constant Matrix: (Units=GPa)
#
#
# Indices 1 2 3 4 5 6 
#
# 1 44.1882 6.2228 1.5076 -0.1649 1.1080 -6.1734
# 2 6.2228 63.9081 16.1462 9.9846 -11.6543 -0.6344
# 3 1.5076 16.1462 57.7925 11.7348 -2.6047 2.9785
# 4 -0.1649 9.9846 11.7348 27.3331 0.4785 -2.7168
# 5 1.1080 -11.6543 -2.6047 0.4785 18.1344 -1.0681
# 6 -6.1734 -0.6344 2.9785 -2.7168 -1.0681 12.5107
#
#
#
# Elastic Compliance Matrix: (Units=1/GPa)
#
#
# Indices 1 2 3 4 5 6 
#
# 1 0.024986 -0.003020 -0.001240 0.003120 -0.002969 0.012895
# 2 -0.003020 0.020158 -0.003779 -0.005960 0.012767 0.000227
# 3 -0.001240 -0.003779 0.020444 -0.008147 0.000362 -0.007409
# 4 0.003120 -0.005960 -0.008147 0.043587 -0.005625 0.012162
# 5 -0.002969 0.012767 0.000362 -0.005625 0.063927 0.003333
# 6 0.012895 0.000227 -0.007409 0.012162 0.003333 0.090996
#
#
# Mechanical properties :
#
#
# Convention : Reuss Voigt Hill
#
# Bulk Modulus (GPa) = 20.19838 23.73799 21.96819
# Shear Modulus (GPa) = 16.85322 21.06313 18.95817
#
# Velocity S-wave (km/s) = 3.05610 3.41655 3.24134
# Velocity P-wave (km/s) = 4.86278 5.35901 5.11691
#
# Compressibility (1/GPa) = 0.04950891
#
# Stress axis : x y z
#
# Youngs Moduli (GPa) = 40.02270 49.60798 48.91459
#
# Poissons Ratio (x) = 0.14984 0.06065
# Poissons Ratio (y) = 0.12089 0.18485
# Poissons Ratio (z) = 0.04962 0.18747
#
# Static dielectric constant tensor:
#      x y z
#    x 1.628760 0.013490 -0.027250 
#    y 0.013490 1.639750 0.010420 
#    z -0.027250 0.010420 1.672850 
# 
# From -- ./inp_files/252495.got.cif
#   From: 2010.05.17/outbox.cif.g08.bks.cpg/sg2_127_cif.got.tgz:252495.got - 2010.06.03 11:33:40.
