data_PCOD9081891
_publ_section_title
;
Structure prediction by ZEFSAII (Michael W. Deem and Ramdas Pophale) SiO2 
 PCOD9081891
Probable space group: P -1
;
_chemical_formula_sum "Si O2"
_cell_formula_units_Z 16
_cell_length_a 14.043649
_cell_length_b 11.697400
_cell_length_c 14.046763
_cell_angle_alpha 31.920087
_cell_angle_beta 57.992339
_cell_angle_gamma 78.321457
_cell_volume 862.731088
_symmetry_space_group_name_H-M "P -1"
_symmetry_group_IT_number 2
_symmetry_cell_setting 'triclinic'
loop_
_space_group_symop_operation_xyz
x,y,z
-x,-y,-z
loop_
_atom_site_type_symbol
_atom_site_label
_atom_site_fract_x
_atom_site_fract_y
_atom_site_fract_z
Si Si1 0.037795 0.116351 0.002727
Si Si2 0.242407 0.148099 0.151905
Si Si3 0.132456 0.881895 0.592788
Si Si4 0.687265 0.775271 0.267249
Si Si5 0.840664 0.265360 0.977716
Si Si6 0.460399 0.202980 0.851669
Si Si7 0.052761 0.191746 0.544310
Si Si8 0.180403 0.554701 0.945092
O O1 0.196176 0.239177 0.838185
O O2 0.959937 0.894880 0.279154
O O3 0.979736 0.295401 0.915651
O O4 0.000000 0.000000 0.000000
O O5 0.222655 0.015545 0.358410
O O6 0.360449 0.180287 0.002647
O O7 0.257483 0.420349 0.970281
O O8 0.099851 0.964627 0.303471
O O9 0.175840 0.722378 0.744247
O O10 0.129506 0.090001 0.514682
O O11 0.975611 0.683825 0.786378
O O12 0.587453 0.498684 0.564696
O O13 0.614116 0.843514 0.177935
O O14 0.754276 0.000976 0.151405
O O15 0.878418 0.506105 0.721157
O O16 0.773033 0.284480 0.095731
O O17 0.500000 0.000000 0.000000
#
# Coordination Sequence:
#
# PCOD9081891 Si02
#       8
#     2   2   2   2   2   2   2   2
#     4  10  22  36  58  95 127 158 192 244 312 372
#     4  11  21  37  60  90 117 160 210 245 292 364
#     4  10  19  32  56  94 128 161 192 232 310 372
#     4  10  25  43  61  90 119 163 214 248 301 362
#     4  11  21  37  65  95 131 155 188 255 319 369
#     4  11  26  46  65  81 117 168 217 258 289 351
#     4  11  19  34  59  94 130 155 194 245 308 373
#     4  10  19  33  59  91 127 159 185 250 308 364
#
# _framework density 18.545756000000001
#
# number of rings (size 3 to 8) (size 9 to 14) (size 15 to 20)
#    0.000    1.500    5.000    0.750    1.750    6.000 
#    0.000    0.625    0.000    1.500    0.000    0.000 
#    0.000    0.000    0.000    0.000    0.000    0.000 
#
# Total GULP energy -89326.687346 kJ/mol
# GULP energy per Si atom -5582.917959 kJ/mol
# Density = 1.850355 g / cm^3
# Si number density = 18.545756 Si / 1000 Ang^3
#
#
#
# Elastic Constant Matrix: (Units=GPa)
#
#
# Indices 1 2 3 4 5 6 
#
# 1 75.4350 57.1415 59.0910 -2.0318 23.8646 -6.1132
# 2 57.1415 129.0040 62.0317 2.9089 10.7137 -11.6133
# 3 59.0910 62.0317 104.6346 5.8111 28.7118 -8.0923
# 4 -2.0318 2.9089 5.8111 33.1422 6.8805 4.8450
# 5 23.8646 10.7137 28.7118 6.8805 31.1807 -1.7255
# 6 -6.1132 -11.6133 -8.0923 4.8450 -1.7255 32.2151
#
#
#
# Elastic Compliance Matrix: (Units=1/GPa)
#
#
# Indices 1 2 3 4 5 6 
#
# 1 0.031890 -0.008694 -0.009399 0.007578 -0.014513 -0.001361
# 2 -0.008694 0.013609 -0.004732 -0.002793 0.007111 0.002868
# 3 -0.009399 -0.004732 0.020514 -0.001987 -0.009551 0.001451
# 4 0.007578 -0.002793 -0.001987 0.034347 -0.010912 -0.005818
# 5 -0.014513 0.007111 -0.009551 -0.010912 0.052040 0.001839
# 6 -0.001361 0.002868 0.001451 -0.005818 0.001839 0.033155
#
#
# Mechanical properties :
#
#
# Convention : Reuss Voigt Hill
#
# Bulk Modulus (GPa) = 49.11096 73.95577 61.53336
# Shear Modulus (GPa) = 21.00913 28.02825 24.51869
#
# Velocity S-wave (km/s) = 3.36940 3.89176 3.63997
# Velocity P-wave (km/s) = 6.45566 7.75619 7.13562
#
# Compressibility (1/GPa) = 0.02036206
#
# Stress axis : x y z
#
# Youngs Moduli (GPa) = 31.35817 73.48187 48.74748
#
# Poissons Ratio (x) = 0.63885 0.45817
# Poissons Ratio (y) = 0.27263 0.23069
# Poissons Ratio (z) = 0.29473 0.34774
#
# Static dielectric constant tensor:
#      x y z
#    x 1.664000 -0.003910 -0.002090 
#    y -0.003910 1.647380 0.000570 
#    z -0.002090 0.000570 1.620050 
# 
# From -- ./inp_files/433065.got.cif
#   From: 2010.05.17/outbox.cif.g08.bks.cpg/sg2_217_cif.got.tgz:433065.got - 2010.06.03 11:33:40.
