data_PCOD9081677
_publ_section_title
;
Structure prediction by ZEFSAII (Michael W. Deem and Ramdas Pophale) SiO2 
 PCOD9081677
Probable space group: P -1
;
_chemical_formula_sum "Si O2"
_cell_formula_units_Z 14
_cell_length_a 5.305844
_cell_length_b 11.890389
_cell_length_c 14.316057
_cell_angle_alpha 133.799632
_cell_angle_beta 118.247687
_cell_angle_gamma 83.886239
_cell_volume 538.418768
_symmetry_space_group_name_H-M "P -1"
_symmetry_group_IT_number 2
_symmetry_cell_setting 'triclinic'
loop_
_space_group_symop_operation_xyz
x,y,z
-x,-y,-z
loop_
_atom_site_type_symbol
_atom_site_label
_atom_site_fract_x
_atom_site_fract_y
_atom_site_fract_z
Si Si1 0.069526 0.981378 0.357732
Si Si2 0.750423 0.204347 0.452733
Si Si3 0.361164 0.596653 0.603030
Si Si4 0.368707 0.504516 0.750846
Si Si5 0.231940 0.810976 0.942062
Si Si6 0.946958 0.008016 0.143593
Si Si7 0.642670 0.259372 0.676836
O O1 0.328306 0.101504 0.540513
O O2 0.769025 0.021682 0.354017
O O3 0.093616 0.800785 0.269962
O O4 0.116975 0.037554 0.289809
O O5 0.593507 0.234094 0.347725
O O6 0.675169 0.265397 0.573661
O O7 0.095953 0.336354 0.577432
O O8 0.500000 0.500000 0.500000
O O9 0.497949 0.601387 0.732523
O O10 0.000000 0.500000 0.500000
O O11 0.225169 0.623890 0.847889
O O12 0.600991 0.429783 0.798417
O O13 0.069180 0.837284 0.832160
O O14 0.592474 0.910113 0.049477
O O15 0.085299 0.893972 0.041448
#
# Coordination Sequence:
#
# PCOD9081677 Si02
#       7
#     2   2   2   2   2   2   2
#     4  10  22  39  60  89 121 165 209 254 302 372
#     4  10  20  35  59  88 122 159 199 253 315 366
#     4  10  19  32  53  85 119 150 187 238 305 362
#     4  10  21  37  57  91 124 156 200 258 307 365
#     4  10  23  42  67  90 121 162 208 256 305 359
#     4  10  23  44  64  91 119 164 211 252 302 362
#     4  10  21  38  61  89 125 160 205 250 318 366
#
# _framework density 26.002061999999999
#
# number of rings (size 3 to 8) (size 9 to 14) (size 15 to 20)
#    0.000    2.000    1.429    1.286    4.000    1.143 
#    2.571    1.429    0.000    0.000    0.000    0.000 
#    0.000    0.000    0.000    0.000    0.000    0.000 
#
# Total GULP energy -78261.681521 kJ/mol
# GULP energy per Si atom -5590.120109 kJ/mol
# Density = 2.594288 g / cm^3
# Si number density = 26.002062 Si / 1000 Ang^3
#
#
#
# Elastic Constant Matrix: (Units=GPa)
#
#
# Indices 1 2 3 4 5 6 
#
# 1 137.1459 48.8307 31.5014 9.4072 -24.3512 -29.2650
# 2 48.8307 175.3823 35.9223 12.7528 -19.4220 -42.6747
# 3 31.5014 35.9223 64.1009 10.0541 -12.2572 -12.0158
# 4 9.4072 12.7528 10.0541 27.7207 -8.1237 -24.3508
# 5 -24.3512 -19.4220 -12.2572 -8.1237 41.1215 3.8993
# 6 -29.2650 -42.6747 -12.0158 -24.3508 3.8993 61.6259
#
#
#
# Elastic Compliance Matrix: (Units=1/GPa)
#
#
# Indices 1 2 3 4 5 6 
#
# 1 0.009903 -0.000659 -0.003258 0.003757 0.004870 0.004788
# 2 -0.000659 0.007975 -0.003113 0.003592 0.002603 0.005857
# 3 -0.003258 -0.003113 0.019764 -0.006355 0.001468 -0.002454
# 4 0.003757 0.003592 -0.006355 0.062688 0.011846 0.027053
# 5 0.004870 0.002603 0.001468 0.011846 0.030531 0.007150
# 6 0.004788 0.005857 -0.002454 0.027053 0.007150 0.032316
#
#
# Mechanical properties :
#
#
# Convention : Reuss Voigt Hill
#
# Bulk Modulus (GPa) = 42.40534 67.68199 55.04366
# Shear Modulus (GPa) = 27.01271 43.45195 35.23233
#
# Velocity S-wave (km/s) = 3.22664 4.09234 3.68500
# Velocity P-wave (km/s) = 5.49777 6.95813 6.27061
#
# Compressibility (1/GPa) = 0.02358194
#
# Stress axis : x y z
#
# Youngs Moduli (GPa) = 100.97831 125.38814 50.59730
#
# Poissons Ratio (x) = 0.08261 0.16485
# Poissons Ratio (y) = 0.06653 0.15752
# Poissons Ratio (z) = 0.32899 0.39037
#
# Static dielectric constant tensor:
#      x y z
#    x 2.206390 -0.049640 0.082690 
#    y -0.049640 2.129980 -0.002520 
#    z 0.082690 -0.002520 2.020020 
# 
# From -- ./inp_files/71383.got.cif
#   From: 2010.05.17/outbox.cif.g08.bks.cpg/sg2_36_cif.got.tgz:71383.got - 2010.06.03 11:33:40.
