data_PCOD9081942
_publ_section_title
;
Structure prediction by ZEFSAII (Michael W. Deem and Ramdas Pophale) SiO2 
 PCOD9081942
Probable space group: P -1
;
_chemical_formula_sum "Si O2"
_cell_formula_units_Z 16
_cell_length_a 16.876073
_cell_length_b 5.823454
_cell_length_c 14.161620
_cell_angle_alpha 120.183617
_cell_angle_beta 148.000874
_cell_angle_gamma 53.250351
_cell_volume 590.894972
_symmetry_space_group_name_H-M "P -1"
_symmetry_group_IT_number 2
_symmetry_cell_setting 'triclinic'
loop_
_space_group_symop_operation_xyz
x,y,z
-x,-y,-z
loop_
_atom_site_type_symbol
_atom_site_label
_atom_site_fract_x
_atom_site_fract_y
_atom_site_fract_z
Si Si1 0.586303 0.283977 0.679230
Si Si2 0.312161 0.273134 0.030929
Si Si3 0.435071 0.260729 0.855045
Si Si4 0.129975 0.786793 0.160058
Si Si5 0.146611 0.101742 0.581448
Si Si6 0.697320 0.570686 0.447699
Si Si7 0.154039 0.144052 0.005362
Si Si8 0.014027 0.556124 0.684030
O O1 0.688723 0.218652 0.670824
O O2 0.405427 0.323085 0.537041
O O3 0.590178 0.588914 0.777315
O O4 0.710719 0.047888 0.824947
O O5 0.223697 0.098236 0.961936
O O6 0.174455 0.530981 0.894574
O O7 0.437297 0.042562 0.045243
O O8 0.266131 0.275927 0.726766
O O9 0.413214 0.271040 0.720770
O O10 0.500000 0.500000 0.000000
O O11 0.025269 0.855330 0.163555
O O12 0.140255 0.470120 0.077951
O O13 0.000000 0.000000 0.000000
O O14 0.027678 0.230105 0.400853
O O15 0.056319 0.235338 0.615454
O O16 0.247272 0.767886 0.592912
O O17 0.863290 0.625255 0.617059
#
# Coordination Sequence:
#
# PCOD9081942 Si02
#       8
#     2   2   2   2   2   2   2   2
#     4  10  19  32  58  83 110 141 182 227 274 325
#     4  11  21  35  54  84 108 141 187 235 273 322
#     4  11  23  34  56  81 107 142 190 238 283 316
#     4   8  16  30  52  86 114 143 166 220 278 327
#     4  10  22  41  52  71 109 150 191 233 273 336
#     4  11  21  38  55  78 108 147 185 229 279 332
#     4   9  17  32  54  83 117 135 178 225 271 330
#     4  10  24  36  54  75 108 151 189 226 283 327
#
# _framework density 27.077572
#
# number of rings (size 3 to 8) (size 9 to 14) (size 15 to 20)
#    0.000    2.000    2.500    1.125    1.750    4.000 
#    0.000    0.000    0.000    0.750    0.000   30.625 
#    0.000    0.000    0.000    0.000    0.000    0.000 
#
# Total GULP energy -89481.874875 kJ/mol
# GULP energy per Si atom -5592.617180 kJ/mol
# Density = 2.701594 g / cm^3
# Si number density = 27.077572 Si / 1000 Ang^3
#
#
#
# Elastic Constant Matrix: (Units=GPa)
#
#
# Indices 1 2 3 4 5 6 
#
# 1 134.4893 -0.1725 34.3805 -13.6044 47.1767 -11.1895
# 2 -0.1725 113.8936 21.8135 -11.3629 13.1601 -8.6507
# 3 34.3805 21.8135 93.5648 -3.3242 28.3475 -5.3083
# 4 -13.6044 -11.3629 -3.3242 43.3609 -3.6569 7.5775
# 5 47.1767 13.1601 28.3475 -3.6569 50.1053 -9.4907
# 6 -11.1895 -8.6507 -5.3083 7.5775 -9.4907 34.2543
#
#
#
# Elastic Compliance Matrix: (Units=1/GPa)
#
#
# Indices 1 2 3 4 5 6 
#
# 1 0.011853 0.001862 -0.001471 0.003119 -0.010491 0.000517
# 2 0.001862 0.009842 -0.001969 0.002524 -0.002763 0.001465
# 3 -0.001471 -0.001969 0.013404 -0.000364 -0.005788 -0.000424
# 4 0.003119 0.002524 -0.000364 0.025285 -0.002432 -0.004667
# 5 -0.010491 -0.002763 -0.005788 -0.002432 0.034627 0.005110
# 6 0.000517 0.001465 -0.000424 -0.004667 0.005110 0.032115
#
#
# Mechanical properties :
#
#
# Convention : Reuss Voigt Hill
#
# Bulk Modulus (GPa) = 31.30484 50.44341 40.87413
# Shear Modulus (GPa) = 35.47897 44.60586 40.04242
#
# Velocity S-wave (km/s) = 3.62369 4.06314 3.84969
# Velocity P-wave (km/s) = 5.39393 6.37823 5.90662
#
# Compressibility (1/GPa) = 0.03194394
#
# Stress axis : x y z
#
# Youngs Moduli (GPa) = 84.36980 101.60167 74.60469
#
# Poissons Ratio (x) = -0.18921 0.10972
# Poissons Ratio (y) = -0.15712 0.14690
# Poissons Ratio (z) = 0.12408 0.20006
#
# Static dielectric constant tensor:
#      x y z
#    x 2.202270 0.008050 0.050290 
#    y 0.008050 2.097680 0.024610 
#    z 0.050290 0.024610 2.107410 
# 
# From -- ./inp_files/38454.got.cif
#   From: 2010.05.17/outbox.cif.g08.bks.cpg/sg2_20_cif.got.tgz:38454.got - 2010.06.03 11:33:40.
