data_PCOD9081012
_publ_section_title
;
Structure prediction by ZEFSAII (Michael W. Deem and Ramdas Pophale) SiO2 
 PCOD9081012
Probable space group: P -1
;
_chemical_formula_sum "Si O2"
_cell_formula_units_Z 13
_cell_length_a 10.170703
_cell_length_b 6.285373
_cell_length_c 12.076823
_cell_angle_alpha 142.976373
_cell_angle_beta 95.277520
_cell_angle_gamma 86.131296
_cell_volume 462.880484
_symmetry_space_group_name_H-M "P -1"
_symmetry_group_IT_number 2
_symmetry_cell_setting 'triclinic'
loop_
_space_group_symop_operation_xyz
x,y,z
-x,-y,-z
loop_
_atom_site_type_symbol
_atom_site_label
_atom_site_fract_x
_atom_site_fract_y
_atom_site_fract_z
Si Si1 0.743186 0.156450 0.724743
Si Si2 0.796098 0.373040 0.451067
Si Si3 0.056007 0.492910 0.280759
Si Si4 0.501896 0.466585 0.855361
Si Si5 0.103309 0.669695 0.992283
Si Si6 0.500000 0.500000 0.500000
Si Si7 0.645371 0.166657 0.167381
O O1 0.825187 0.375234 0.733716
O O2 0.800707 0.767040 0.566121
O O3 0.583218 0.115154 0.684583
O O4 0.766593 0.309389 0.913679
O O5 0.915015 0.316828 0.520986
O O6 0.653439 0.381650 0.504481
O O7 0.775860 0.139491 0.242156
O O8 0.925352 0.518524 0.205655
O O9 0.074677 0.080607 0.137391
O O10 0.602301 0.785493 0.961752
O O11 0.500000 0.500000 0.000000
O O12 0.368461 0.552887 0.816725
O O13 0.000000 0.500000 0.000000
O O14 0.536917 0.307626 0.304959
#
# Coordination Sequence:
#
# PCOD9081012 Si02
#       7
#     2   2   2   2   2   1   2
#     4  10  19  30  52  80 103 137 181 217 259 309
#     4   9  18  31  49  74 102 135 175 218 254 308
#     4   9  16  30  53  78 105 135 168 223 268 303
#     4  11  22  35  50  75 108 149 177 217 262 311
#     4   8  16  30  49  80 108 128 168 221 266 317
#     4   8  16  34  50  68 100 138 176 218 246 306
#     4   9  21  35  48  70 106 138 180 216 258 314
#
# _framework density 28.085001999999999
#
# number of rings (size 3 to 8) (size 9 to 14) (size 15 to 20)
#    0.923    1.846    0.000    1.846    0.000    5.538 
#    0.000    0.000    0.000    0.923    0.000   37.692 
#    0.000    0.000    0.000    0.000    0.000    0.000 
#
# Total GULP energy -72411.766421 kJ/mol
# GULP energy per Si atom -5570.135879 kJ/mol
# Density = 2.802108 g / cm^3
# Si number density = 28.085002 Si / 1000 Ang^3
#
#
#
# Elastic Constant Matrix: (Units=GPa)
#
#
# Indices 1 2 3 4 5 6 
#
# 1 119.7225 24.1690 23.8528 -3.0464 16.0685 8.0234
# 2 24.1690 110.8299 39.7144 -9.0585 5.5343 7.1147
# 3 23.8528 39.7144 139.2816 -30.6663 36.2314 -20.1439
# 4 -3.0464 -9.0585 -30.6663 54.6990 -16.6736 5.3688
# 5 16.0685 5.5343 36.2314 -16.6736 46.6610 -9.8177
# 6 8.0234 7.1147 -20.1439 5.3688 -9.8177 34.8593
#
#
#
# Elastic Compliance Matrix: (Units=1/GPa)
#
#
# Indices 1 2 3 4 5 6 
#
# 1 0.009486 -0.001394 -0.001055 -0.000985 -0.003327 -0.003294
# 2 -0.001394 0.010837 -0.003650 0.000465 0.001422 -0.003671
# 3 -0.001055 -0.003650 0.011437 0.003478 -0.005694 0.005458
# 4 -0.000985 0.000465 0.003478 0.021891 0.005471 0.000311
# 5 -0.003327 0.001422 -0.005694 0.005471 0.029780 0.004730
# 6 -0.003294 -0.003671 0.005458 0.000311 0.004730 0.034632
#
#
# Mechanical properties :
#
#
# Convention : Reuss Voigt Hill
#
# Bulk Modulus (GPa) = 51.11505 60.58962 55.85233
# Shear Modulus (GPa) = 36.55435 46.05038 41.30236
#
# Velocity S-wave (km/s) = 3.61163 4.05369 3.83903
# Velocity P-wave (km/s) = 5.96921 6.59775 6.29134
#
# Compressibility (1/GPa) = 0.01956371
#
# Stress axis : x y z
#
# Youngs Moduli (GPa) = 105.41361 92.27335 87.43337
#
# Poissons Ratio (x) = 0.12859 0.09224
# Poissons Ratio (y) = 0.14690 0.31915
# Poissons Ratio (z) = 0.11120 0.33681
#
# Static dielectric constant tensor:
#      x y z
#    x 2.394960 0.292840 0.285110 
#    y 0.292840 2.652580 0.253660 
#    z 0.285110 0.253660 2.393110 
# 
# From -- ./inp_files/408844.got.cif
#   From: 2010.05.17/outbox.cif.g08.bks.cpg/sg2_205_cif.got.tgz:408844.got - 2010.06.03 11:33:40.
