data_PCOD9081850
_publ_section_title
;
Structure prediction by ZEFSAII (Michael W. Deem and Ramdas Pophale) SiO2 
 PCOD9081850
Probable space group: P -1
;
_chemical_formula_sum "Si O2"
_cell_formula_units_Z 16
_cell_length_a 19.605167
_cell_length_b 9.252200
_cell_length_c 8.626471
_cell_angle_alpha 98.079827
_cell_angle_beta 64.524522
_cell_angle_gamma 47.732339
_cell_volume 800.220143
_symmetry_space_group_name_H-M "P -1"
_symmetry_group_IT_number 2
_symmetry_cell_setting 'triclinic'
loop_
_space_group_symop_operation_xyz
x,y,z
-x,-y,-z
loop_
_atom_site_type_symbol
_atom_site_label
_atom_site_fract_x
_atom_site_fract_y
_atom_site_fract_z
Si Si1 0.740927 0.262585 0.031839
Si Si2 0.355944 0.278618 0.743340
Si Si3 0.437909 0.698761 0.872747
Si Si4 0.871540 0.048592 0.553393
Si Si5 0.034365 0.797969 0.647008
Si Si6 0.318744 0.880863 0.363070
Si Si7 0.244233 0.322710 0.589410
Si Si8 0.492665 0.946717 0.828663
O O1 0.661045 0.521577 0.221153
O O2 0.669976 0.219733 0.108404
O O3 0.759621 0.261535 0.826618
O O4 0.891736 0.029547 0.904781
O O5 0.238767 0.382010 0.782910
O O6 0.500000 0.000000 0.500000
O O7 0.369788 0.214003 0.899436
O O8 0.566789 0.391907 0.705633
O O9 0.475127 0.802210 0.805649
O O10 0.376816 0.812459 0.122606
O O11 0.906826 0.133805 0.430499
O O12 0.811407 0.012288 0.509640
O O13 0.993758 0.813043 0.512849
O O14 0.127407 0.549257 0.621012
O O15 0.285701 0.088965 0.499544
O O16 0.366565 0.227983 0.401141
O O17 0.500000 0.000000 0.000000
#
# Coordination Sequence:
#
# PCOD9081850 Si02
#       8
#     2   2   2   2   2   2   2   2
#     4   9  19  37  58  79 117 149 183 238 277 333
#     4  10  23  39  54  83 118 149 186 230 288 338
#     4  10  19  33  56  87 107 141 193 235 290 319
#     4   8  18  34  55  91 106 145 193 242 268 323
#     4   9  19  35  58  84 111 149 195 226 284 329
#     4  10  19  32  56  83 118 143 180 243 286 329
#     4  11  22  37  54  83 119 151 183 229 289 341
#     4  11  22  34  60  87 108 145 190 239 275 330
#
# _framework density 19.994498
#
# number of rings (size 3 to 8) (size 9 to 14) (size 15 to 20)
#    0.750    1.500    1.250    2.250    5.250    1.000 
#    0.000    6.875    0.000    1.500    0.000    0.000 
#    0.000    0.000    0.000    0.000    0.000    0.000 
#
# Total GULP energy -89101.259242 kJ/mol
# GULP energy per Si atom -5568.828703 kJ/mol
# Density = 1.994899 g / cm^3
# Si number density = 19.994498 Si / 1000 Ang^3
#
#
#
# Elastic Constant Matrix: (Units=GPa)
#
#
# Indices 1 2 3 4 5 6 
#
# 1 147.5834 37.8966 30.7806 11.4889 -1.4977 26.9133
# 2 37.8966 69.0971 15.0577 10.7999 5.1712 -0.2431
# 3 30.7806 15.0577 20.7075 9.5278 9.8207 0.4459
# 4 11.4889 10.7999 9.5278 16.7746 2.1062 9.1049
# 5 -1.4977 5.1712 9.8207 2.1062 28.4576 0.9000
# 6 26.9133 -0.2431 0.4459 9.1049 0.9000 29.1855
#
#
#
# Elastic Compliance Matrix: (Units=1/GPa)
#
#
# Indices 1 2 3 4 5 6 
#
# 1 0.023346 -0.008177 -0.053197 0.034484 0.019537 -0.032144
# 2 -0.008177 0.020590 0.008700 -0.019308 -0.006181 0.013793
# 3 -0.053197 0.008700 0.211776 -0.128406 -0.070748 0.088132
# 4 0.034484 -0.019308 -0.128406 0.160416 0.040334 -0.081286
# 5 0.019537 -0.006181 -0.070748 0.040334 0.059715 -0.031411
# 6 -0.032144 0.013793 0.088132 -0.081286 -0.031411 0.089001
#
#
# Mechanical properties :
#
#
# Convention : Reuss Voigt Hill
#
# Bulk Modulus (GPa) = 6.65045 44.98418 25.81732
# Shear Modulus (GPa) = 6.94146 25.12707 16.03426
#
# Velocity S-wave (km/s) = 1.86527 3.54884 2.83492
# Velocity P-wave (km/s) = 2.82353 6.27212 4.86373
#
# Compressibility (1/GPa) = 0.15036574
#
# Stress axis : x y z
#
# Youngs Moduli (GPa) = 42.83411 48.56762 4.72198
#
# Poissons Ratio (x) = 0.39712 0.25119
# Poissons Ratio (y) = 0.35023 -0.04108
# Poissons Ratio (z) = 2.27863 -0.42255
#
# Static dielectric constant tensor:
#      x y z
#    x 1.717610 -0.041820 0.007800 
#    y -0.041820 1.729530 -0.045590 
#    z 0.007800 -0.045590 1.734430 
# 
# From -- ./inp_files/329300.got.cif
#   From: 2010.05.17/outbox.cif.g08.bks.cpg/sg2_165_cif.got.tgz:329300.got - 2010.06.03 11:33:40.
