data_PCOD9081165
_publ_section_title
;
Structure prediction by ZEFSAII (Michael W. Deem and Ramdas Pophale) SiO2 
 PCOD9081165
Probable space group: P -1
;
_chemical_formula_sum "Si O2"
_cell_formula_units_Z 16
_cell_length_a 18.921300
_cell_length_b 19.537855
_cell_length_c 11.146199
_cell_angle_alpha 140.918970
_cell_angle_beta 40.306892
_cell_angle_gamma 159.101602
_cell_volume 913.713282
_symmetry_space_group_name_H-M "P -1"
_symmetry_group_IT_number 2
_symmetry_cell_setting 'triclinic'
loop_
_space_group_symop_operation_xyz
x,y,z
-x,-y,-z
loop_
_atom_site_type_symbol
_atom_site_label
_atom_site_fract_x
_atom_site_fract_y
_atom_site_fract_z
Si Si1 0.043167 0.119353 0.214257
Si Si2 0.690479 0.029981 0.207402
Si Si3 0.946797 0.417837 0.320688
Si Si4 0.697709 0.419280 0.861444
Si Si5 0.433105 0.404311 0.254591
Si Si6 0.969711 0.670546 0.623958
Si Si7 0.788774 0.857342 0.417921
Si Si8 0.832024 0.958651 0.747989
O O1 0.257293 0.267845 0.197995
O O2 0.046308 0.243216 0.327333
O O3 0.874627 0.966731 0.328127
O O4 0.000000 0.000000 0.000000
O O5 0.736318 0.180218 0.282564
O O6 0.831829 0.148413 0.303465
O O7 0.465384 0.813339 0.240690
O O8 0.764177 0.996472 0.976642
O O9 0.116217 0.468206 0.145671
O O10 0.000000 0.500000 0.500000
O O11 0.963432 0.544826 0.403099
O O12 0.787135 0.518743 0.749868
O O13 0.585166 0.432943 0.067975
O O14 0.566428 0.623080 0.382756
O O15 0.311926 0.264934 0.339795
O O16 0.809631 0.961704 0.640302
O O17 0.944016 0.891805 0.305122
#
# Coordination Sequence:
#
# PCOD9081165 Si02
#       8
#     2   2   2   2   2   2   2   2
#     4  11  22  34  47  70 102 133 161 185 228 295
#     4   9  16  30  49  71  93 119 156 199 244 279
#     4   8  17  29  45  70  96 120 157 198 233 280
#     4   9  16  28  47  69  93 121 151 193 240 272
#     4  10  19  31  50  74  97 124 159 196 239 286
#     4  10  20  31  45  71 101 126 158 190 228 290
#     4  10  19  32  48  69  98 130 159 196 239 276
#     4   9  18  31  50  72  95 122 160 204 240 281
#
# _framework density 17.510964000000001
#
# number of rings (size 3 to 8) (size 9 to 14) (size 15 to 20)
#    0.000    2.750    0.000    4.875    0.000    7.500 
#    0.000    0.000    0.000    0.750    0.000    4.375 
#    0.000    0.000    0.000    0.000    0.000    0.000 
#
# Total GULP energy -89087.487281 kJ/mol
# GULP energy per Si atom -5567.967955 kJ/mol
# Density = 1.747111 g / cm^3
# Si number density = 17.510964 Si / 1000 Ang^3
#
#
#
# Elastic Constant Matrix: (Units=GPa)
#
#
# Indices 1 2 3 4 5 6 
#
# 1 71.5538 25.7616 26.0471 2.7743 -2.9855 -21.6214
# 2 25.7616 113.6024 6.2354 9.3741 8.5300 -11.4193
# 3 26.0471 6.2354 25.9220 -0.6183 0.3019 -10.7476
# 4 2.7743 9.3741 -0.6183 23.4593 -4.5542 -6.5649
# 5 -2.9855 8.5300 0.3019 -4.5542 25.5319 2.1597
# 6 -21.6214 -11.4193 -10.7476 -6.5649 2.1597 24.6996
#
#
#
# Elastic Compliance Matrix: (Units=1/GPa)
#
#
# Indices 1 2 3 4 5 6 
#
# 1 0.027052 -0.004196 -0.020792 0.002359 0.004136 0.012958
# 2 -0.004196 0.010490 0.002264 -0.004171 -0.004891 0.001481
# 3 -0.020792 0.002264 0.064444 0.006081 -0.003952 0.012850
# 4 0.002359 -0.004171 0.006081 0.050264 0.009266 0.015332
# 5 0.004136 -0.004891 -0.003952 0.009266 0.043125 -0.001669
# 6 0.012958 0.001481 0.012850 0.015332 -0.001669 0.062327
#
#
# Mechanical properties :
#
#
# Convention : Reuss Voigt Hill
#
# Bulk Modulus (GPa) = 17.68704 36.35182 27.01943
# Shear Modulus (GPa) = 15.52817 24.94043 20.23430
#
# Velocity S-wave (km/s) = 2.98110 3.77805 3.40298
# Velocity P-wave (km/s) = 4.68740 6.31158 5.55913
#
# Compressibility (1/GPa) = 0.05653857
#
# Stress axis : x y z
#
# Youngs Moduli (GPa) = 36.96638 95.32711 15.51741
#
# Poissons Ratio (x) = 0.39998 0.32264
# Poissons Ratio (y) = 0.15510 -0.03514
# Poissons Ratio (z) = 0.76861 -0.21586
#
# Static dielectric constant tensor:
#      x y z
#    x 1.603170 -0.008370 -0.029550 
#    y -0.008370 1.638950 0.012550 
#    z -0.029550 0.012550 1.646440 
# 
# From -- ./inp_files/472640.got.cif
#   From: 2010.05.17/outbox.cif.g08.bks.cpg/sg2_237_cif.got.tgz:472640.got - 2010.06.03 11:33:40.
