data_PCOD9081892
_publ_section_title
;
Structure prediction by ZEFSAII (Michael W. Deem and Ramdas Pophale) SiO2 
 PCOD9081892
Probable space group: P -1
;
_chemical_formula_sum "Si O2"
_cell_formula_units_Z 14
_cell_length_a 9.265834
_cell_length_b 7.463951
_cell_length_c 13.054873
_cell_angle_alpha 79.098026
_cell_angle_beta 67.242705
_cell_angle_gamma 125.659983
_cell_volume 563.433756
_symmetry_space_group_name_H-M "P -1"
_symmetry_group_IT_number 2
_symmetry_cell_setting 'triclinic'
loop_
_space_group_symop_operation_xyz
x,y,z
-x,-y,-z
loop_
_atom_site_type_symbol
_atom_site_label
_atom_site_fract_x
_atom_site_fract_y
_atom_site_fract_z
Si Si1 0.132553 0.545595 0.352243
Si Si2 0.593366 0.901303 0.291843
Si Si3 0.688463 0.959542 0.833893
Si Si4 0.775745 0.424665 0.096015
Si Si5 0.178227 0.992060 0.444595
Si Si6 0.929424 0.845728 0.169035
Si Si7 0.570169 0.375614 0.436798
O O1 0.367193 0.655134 0.316945
O O2 0.229754 0.759238 0.213936
O O3 0.000000 0.500000 0.500000
O O4 0.934274 0.238245 0.413698
O O5 0.793836 0.922576 0.213531
O O6 0.499699 0.830530 0.440316
O O7 0.654121 0.159918 0.222378
O O8 0.786663 0.009231 0.686152
O O9 0.808106 0.941581 0.891588
O O10 0.416785 0.703820 0.924209
O O11 0.861229 0.683030 0.100669
O O12 0.000000 0.500000 0.000000
O O13 0.423228 0.247120 0.390253
O O14 0.000000 0.000000 0.500000
O O15 0.825609 0.619507 0.308024
O O16 0.500000 0.500000 0.500000
#
# Coordination Sequence:
#
# PCOD9081892 Si02
#       7
#     2   2   2   2   2   2   2
#     4   9  19  34  53  86 128 164 201 245 309 385
#     4  10  22  41  62  95 131 166 212 260 322 384
#     4  10  22  41  59  91 125 162 211 261 317 378
#     4  11  26  46  66  90 124 173 224 268 316 367
#     4  11  18  30  57  90 129 163 195 246 313 390
#     4  11  22  42  67  93 131 164 209 267 323 385
#     4  10  19  32  56  96 128 158 196 249 315 387
#
# _framework density 24.847642
#
# number of rings (size 3 to 8) (size 9 to 14) (size 15 to 20)
#    0.000    1.714    1.429    5.143    2.000    1.714 
#    0.000    0.714    0.000    0.000    0.000    0.000 
#    0.000    0.000    0.000    0.000    0.000    0.000 
#
# Total GULP energy -77957.796363 kJ/mol
# GULP energy per Si atom -5568.414026 kJ/mol
# Density = 2.479109 g / cm^3
# Si number density = 24.847642 Si / 1000 Ang^3
#
#
#
# Elastic Constant Matrix: (Units=GPa)
#
#
# Indices 1 2 3 4 5 6 
#
# 1 144.0241 47.7172 14.3010 -4.8445 -36.9796 28.8792
# 2 47.7172 81.2150 1.2327 -1.1640 -13.5990 18.1457
# 3 14.3010 1.2327 39.8697 -3.5906 -18.4116 4.9244
# 4 -4.8445 -1.1640 -3.5906 18.9898 1.0785 -9.4379
# 5 -36.9796 -13.5990 -18.4116 1.0785 40.5208 -6.8635
# 6 28.8792 18.1457 4.9244 -9.4379 -6.8635 42.8628
#
#
#
# Elastic Compliance Matrix: (Units=1/GPa)
#
#
# Indices 1 2 3 4 5 6 
#
# 1 0.011383 -0.004265 0.000495 -0.000017 0.008407 -0.004578
# 2 -0.004265 0.016023 0.002234 -0.001923 0.001823 -0.004298
# 3 0.000495 0.002234 0.032691 0.004828 0.015679 -0.001461
# 4 -0.000017 -0.001923 0.004828 0.060228 0.002284 0.013898
# 5 0.008407 0.001823 0.015679 0.002284 0.039796 -0.001362
# 6 -0.004578 -0.004298 -0.001461 0.013898 -0.001362 0.031244
#
#
# Mechanical properties :
#
#
# Convention : Reuss Voigt Hill
#
# Bulk Modulus (GPa) = 17.53613 43.51227 30.52420
# Shear Modulus (GPa) = 23.42513 33.93188 28.67850
#
# Velocity S-wave (km/s) = 3.07376 3.69941 3.40100
# Velocity P-wave (km/s) = 4.43510 5.98307 5.26627
#
# Compressibility (1/GPa) = 0.05702511
#
# Stress axis : x y z
#
# Youngs Moduli (GPa) = 87.84784 62.40996 30.58943
#
# Poissons Ratio (x) = 0.26620 -0.01514
# Poissons Ratio (y) = 0.37470 -0.06834
# Poissons Ratio (z) = -0.04348 -0.13943
#
# Static dielectric constant tensor:
#      x y z
#    x 2.132620 -0.267450 0.176240 
#    y -0.267450 2.709840 -0.704160 
#    z 0.176240 -0.704160 3.064000 
# 
# From -- ./inp_files/202402.got.cif
#   From: 2010.05.17/outbox.cif.g08.bks.cpg/sg2_102_cif.got.tgz:202402.got - 2010.06.03 11:33:40.
