data_PCOD9081362
_publ_section_title
;
Structure prediction by ZEFSAII (Michael W. Deem and Ramdas Pophale) SiO2 
 PCOD9081362
Probable space group: P -1
;
_chemical_formula_sum "Si O2"
_cell_formula_units_Z 14
_cell_length_a 5.303067
_cell_length_b 27.500074
_cell_length_c 17.545785
_cell_angle_alpha 19.223091
_cell_angle_beta 54.944038
_cell_angle_gamma 65.906098
_cell_volume 598.191480
_symmetry_space_group_name_H-M "P -1"
_symmetry_group_IT_number 2
_symmetry_cell_setting 'triclinic'
loop_
_space_group_symop_operation_xyz
x,y,z
-x,-y,-z
loop_
_atom_site_type_symbol
_atom_site_label
_atom_site_fract_x
_atom_site_fract_y
_atom_site_fract_z
Si Si1 0.189888 0.009928 0.584487
Si Si2 0.369701 0.253198 0.335167
Si Si3 0.677726 0.445475 0.441694
Si Si4 0.025682 0.327387 0.808879
Si Si5 0.727656 0.301362 0.358318
Si Si6 0.321681 0.286728 0.049499
Si Si7 0.281758 0.437280 0.293073
O O1 0.330255 0.125435 0.464107
O O2 0.500000 0.000000 0.500000
O O3 0.075842 0.111125 0.395692
O O4 0.932579 0.820938 0.937673
O O5 0.539317 0.226221 0.421336
O O6 0.976762 0.229430 0.450740
O O7 0.614711 0.446288 0.973794
O O8 0.253795 0.363367 0.639264
O O9 0.797966 0.500438 0.426272
O O10 0.846851 0.625431 0.101338
O O11 0.865907 0.351197 0.511312
O O12 0.612420 0.271284 0.969705
O O13 0.437172 0.310446 0.448680
O O14 0.000000 0.500000 0.000000
O O15 0.520354 0.424624 0.878415
#
# Coordination Sequence:
#
# PCOD9081362 Si02
#       7
#     2   2   2   2   2   2   2
#     4   9  19  38  53  81 117 149 189 231 289 345
#     4  10  21  35  56  84 120 148 193 237 294 344
#     4  10  19  31  56  78 111 145 190 238 276 352
#     4   9  19  36  48  79 114 150 187 227 291 341
#     4  10  20  35  56  85 118 151 186 249 293 338
#     4   9  18  31  53  81 106 143 189 235 282 341
#     4   9  19  30  51  80 109 138 189 235 292 327
#
# _framework density 23.403880000000001
#
# number of rings (size 3 to 8) (size 9 to 14) (size 15 to 20)
#    0.000    2.571    0.000    3.000    8.000    0.571 
#    5.143    0.000    0.000    1.714    0.000    0.000 
#    0.000    0.000    0.000    0.000    0.000    0.000 
#
# Total GULP energy -78122.851674 kJ/mol
# GULP energy per Si atom -5580.203691 kJ/mol
# Density = 2.335061 g / cm^3
# Si number density = 23.403880 Si / 1000 Ang^3
#
#
#
# Elastic Constant Matrix: (Units=GPa)
#
#
# Indices 1 2 3 4 5 6 
#
# 1 84.7016 43.4404 10.3514 3.1040 -3.9278 -8.9955
# 2 43.4404 139.9345 22.1160 4.7185 -9.9043 -30.9933
# 3 10.3514 22.1160 59.6812 8.1785 7.3130 -3.8762
# 4 3.1040 4.7185 8.1785 24.3890 3.5372 -10.7758
# 5 -3.9278 -9.9043 7.3130 3.5372 15.5533 -4.3250
# 6 -8.9955 -30.9933 -3.8762 -10.7758 -4.3250 42.1371
#
#
#
# Elastic Compliance Matrix: (Units=1/GPa)
#
#
# Indices 1 2 3 4 5 6 
#
# 1 0.014134 -0.004131 -0.000991 -0.000985 0.001572 -0.000203
# 2 -0.004131 0.011876 -0.004722 0.002275 0.010754 0.009104
# 3 -0.000991 -0.004722 0.020799 -0.006119 -0.012943 -0.004665
# 4 -0.000985 0.002275 -0.006119 0.049018 -0.003433 0.013083
# 5 0.001572 0.010754 -0.012943 -0.003433 0.082478 0.014643
# 6 -0.000203 0.009104 -0.004665 0.013083 0.014643 0.034805
#
#
# Mechanical properties :
#
#
# Convention : Reuss Voigt Hill
#
# Bulk Modulus (GPa) = 36.87537 48.45919 42.66728
# Shear Modulus (GPa) = 20.67492 30.30986 25.49239
#
# Velocity S-wave (km/s) = 2.97542 3.60262 3.30394
# Velocity P-wave (km/s) = 5.25305 6.16894 5.72932
#
# Compressibility (1/GPa) = 0.02711837
#
# Stress axis : x y z
#
# Youngs Moduli (GPa) = 70.75366 84.20323 48.07909
#
# Poissons Ratio (x) = 0.34788 0.04766
# Poissons Ratio (y) = 0.29231 0.22705
# Poissons Ratio (z) = 0.07014 0.39765
#
# Static dielectric constant tensor:
#      x y z
#    x 1.957910 -0.012300 0.002750 
#    y -0.012300 1.943740 0.019140 
#    z 0.002750 0.019140 1.887910 
# 
# From -- ./inp_files/78352.got.cif
#   From: 2010.05.17/outbox.cif.g08.bks.cpg/sg2_40_cif.got.tgz:78352.got - 2010.06.03 11:33:40.
