data_PCOD9081282
_publ_section_title
;
Structure prediction by ZEFSAII (Michael W. Deem and Ramdas Pophale) SiO2 
 PCOD9081282
Probable space group: P -1
;
_chemical_formula_sum "Si O2"
_cell_formula_units_Z 16
_cell_length_a 14.527662
_cell_length_b 8.935721
_cell_length_c 14.607478
_cell_angle_alpha 49.742809
_cell_angle_beta 38.326177
_cell_angle_gamma 78.695679
_cell_volume 676.555610
_symmetry_space_group_name_H-M "P -1"
_symmetry_group_IT_number 2
_symmetry_cell_setting 'triclinic'
loop_
_space_group_symop_operation_xyz
x,y,z
-x,-y,-z
loop_
_atom_site_type_symbol
_atom_site_label
_atom_site_fract_x
_atom_site_fract_y
_atom_site_fract_z
Si Si1 0.586489 0.776197 0.284755
Si Si2 0.452235 0.994583 0.433647
Si Si3 0.290938 0.698547 0.398077
Si Si4 0.902628 0.260105 0.315778
Si Si5 0.289264 0.417219 0.002489
Si Si6 0.181087 0.966782 0.157160
Si Si7 0.627646 0.280396 0.865511
Si Si8 0.796117 0.740714 0.662015
O O1 0.500000 0.500000 0.500000
O O2 0.434613 0.714676 0.349337
O O3 0.577788 0.943141 0.299110
O O4 0.793344 0.938248 0.005174
O O5 0.500000 0.000000 0.500000
O O6 0.229744 0.784872 0.649005
O O7 0.528647 0.281782 0.244362
O O8 0.112323 0.607063 0.637873
O O9 0.272928 0.572038 0.366719
O O10 0.410464 0.994384 0.151105
O O11 0.128433 0.394517 0.074957
O O12 0.798138 0.969716 0.546094
O O13 0.322061 0.240475 0.995801
O O14 0.194025 0.292047 0.225126
O O15 0.241179 0.791234 0.175868
O O16 0.983499 0.818904 0.428054
O O17 0.623808 0.460182 0.864502
#
# Coordination Sequence:
#
# PCOD9081282 Si02
#       8
#     2   2   2   2   2   2   2   2
#     4  10  21  39  60  82 113 156 200 245 298 349
#     4  11  25  43  65  88 115 159 206 249 296 350
#     4   9  19  34  53  81 115 154 193 240 293 351
#     4  10  22  39  59  88 121 153 200 245 295 356
#     4  11  22  39  64  90 122 161 196 243 298 353
#     4  10  20  35  56  83 119 155 190 239 295 349
#     4  10  19  31  53  84 119 156 193 235 296 353
#     4  11  21  34  59  91 123 157 194 243 300 355
#
# _framework density 23.649203
#
# number of rings (size 3 to 8) (size 9 to 14) (size 15 to 20)
#    0.000    1.750    0.000    6.375    0.000    7.500 
#    0.000    1.250    0.000    6.750    0.000    0.000 
#    0.000    0.000    0.000    0.000    0.000    0.000 
#
# Total GULP energy -89333.440581 kJ/mol
# GULP energy per Si atom -5583.340036 kJ/mol
# Density = 2.359538 g / cm^3
# Si number density = 23.649203 Si / 1000 Ang^3
#
#
#
# Elastic Constant Matrix: (Units=GPa)
#
#
# Indices 1 2 3 4 5 6 
#
# 1 108.8983 30.6592 18.2221 14.3713 23.3981 17.7354
# 2 30.6592 129.0394 8.5159 7.4078 15.5901 24.2836
# 3 18.2221 8.5159 46.9657 2.5351 11.2569 2.0086
# 4 14.3713 7.4078 2.5351 39.2602 3.0274 -0.7588
# 5 23.3981 15.5901 11.2569 3.0274 35.0760 4.2130
# 6 17.7354 24.2836 2.0086 -0.7588 4.2130 38.4741
#
#
#
# Elastic Compliance Matrix: (Units=1/GPa)
#
#
# Indices 1 2 3 4 5 6 
#
# 1 0.012460 -0.000995 -0.002795 -0.003806 -0.006119 -0.004375
# 2 -0.000995 0.009379 -0.000390 -0.001276 -0.002648 -0.005176
# 3 -0.002795 -0.000390 0.023774 0.000019 -0.005704 0.000918
# 4 -0.003806 -0.001276 0.000019 0.027132 0.000391 0.003051
# 5 -0.006119 -0.002648 -0.005704 0.000391 0.035455 0.000915
# 6 -0.004375 -0.005176 0.000918 0.003051 0.000915 0.031187
#
#
# Mechanical properties :
#
#
# Convention : Reuss Voigt Hill
#
# Bulk Modulus (GPa) = 26.84283 44.41086 35.62684
# Shear Modulus (GPa) = 31.21793 37.72916 34.47354
#
# Velocity S-wave (km/s) = 3.63718 3.99854 3.82213
# Velocity P-wave (km/s) = 5.38645 6.33542 5.88011
#
# Compressibility (1/GPa) = 0.03725390
#
# Stress axis : x y z
#
# Youngs Moduli (GPa) = 80.25650 106.62228 42.06269
#
# Poissons Ratio (x) = 0.10609 0.11756
# Poissons Ratio (y) = 0.07986 0.01639
# Poissons Ratio (z) = 0.22431 0.04154
#
# Static dielectric constant tensor:
#      x y z
#    x 1.952880 0.038180 -0.047050 
#    y 0.038180 1.909410 0.009800 
#    z -0.047050 0.009800 1.976330 
# 
# From -- ./inp_files/225519.got.cif
#   From: 2010.05.17/outbox.cif.g08.bks.cpg/sg2_113_cif.got.tgz:225519.got - 2010.06.03 11:33:40.
