data_PCOD9081073
_publ_section_title
;
Structure prediction by ZEFSAII (Michael W. Deem and Ramdas Pophale) SiO2 
 PCOD9081073
Probable space group: P -1
;
_chemical_formula_sum "Si O2"
_cell_formula_units_Z 16
_cell_length_a 14.723175
_cell_length_b 11.098788
_cell_length_c 8.600231
_cell_angle_alpha 72.733428
_cell_angle_beta 26.885821
_cell_angle_gamma 71.594499
_cell_volume 602.634314
_symmetry_space_group_name_H-M "P -1"
_symmetry_group_IT_number 2
_symmetry_cell_setting 'triclinic'
loop_
_space_group_symop_operation_xyz
x,y,z
-x,-y,-z
loop_
_atom_site_type_symbol
_atom_site_label
_atom_site_fract_x
_atom_site_fract_y
_atom_site_fract_z
Si Si1 0.888501 0.885261 0.149175
Si Si2 0.875502 0.399115 0.422970
Si Si3 0.581732 0.315614 0.675790
Si Si4 0.694603 0.260670 0.034644
Si Si5 0.807501 0.500808 0.917068
Si Si6 0.326242 0.321189 0.365939
Si Si7 0.171372 0.027505 0.111733
Si Si8 0.531279 0.054343 0.759042
O O1 0.875314 0.749012 0.296962
O O2 0.657327 0.943716 0.513796
O O3 0.916285 0.880163 0.925502
O O4 0.000000 0.000000 0.000000
O O5 0.786331 0.363840 0.407063
O O6 0.825062 0.298420 0.670105
O O7 0.732051 0.530048 0.625966
O O8 0.098305 0.437992 0.098467
O O9 0.634367 0.182729 0.559705
O O10 0.404073 0.412846 0.833676
O O11 0.466535 0.276969 0.023169
O O12 0.749813 0.357294 0.046939
O O13 0.743098 0.109701 0.041082
O O14 0.462899 0.296519 0.320485
O O15 0.000000 0.500000 0.500000
O O16 0.000000 0.000000 0.500000
O O17 0.329912 0.086002 0.955678
O O18 0.500000 0.000000 0.000000
#
# Coordination Sequence:
#
# PCOD9081073 Si02
#       8
#     2   2   2   2   2   2   2   2
#     4  12  28  46  69 103 145 193 240 294 360 424
#     4  10  20  34  62 104 135 176 237 286 347 419
#     4  11  20  38  65 104 143 180 233 289 354 427
#     4  10  19  37  65  98 136 176 236 281 361 415
#     4  10  19  30  61 102 136 180 235 281 347 420
#     4  11  19  39  66  96 140 181 228 292 352 420
#     4  12  28  45  72 103 139 188 247 295 356 435
#     4  12  24  45  71 102 146 190 232 295 363 426
#
# _framework density 26.550097000000001
#
# number of rings (size 3 to 8) (size 9 to 14) (size 15 to 20)
#    0.000    1.000    6.250    2.625    5.250    0.000 
#    0.000    0.000    0.000    6.000    0.000    0.000 
#    0.000    0.000    0.000    0.000    0.000    0.000 
#
# Total GULP energy -89525.246815 kJ/mol
# GULP energy per Si atom -5595.327926 kJ/mol
# Density = 2.648967 g / cm^3
# Si number density = 26.550097 Si / 1000 Ang^3
#
#
#
# Elastic Constant Matrix: (Units=GPa)
#
#
# Indices 1 2 3 4 5 6 
#
# 1 155.8750 38.0438 37.9461 -16.2087 -51.2747 16.2888
# 2 38.0438 121.1638 4.6200 -5.8326 -10.5537 9.9222
# 3 37.9461 4.6200 55.7053 -7.9410 8.6596 -1.0881
# 4 -16.2087 -5.8326 -7.9410 49.2906 -0.4178 -8.3517
# 5 -51.2747 -10.5537 8.6596 -0.4178 49.7180 -11.6862
# 6 16.2888 9.9222 -1.0881 -8.3517 -11.6862 46.0463
#
#
#
# Elastic Compliance Matrix: (Units=1/GPa)
#
#
# Indices 1 2 3 4 5 6 
#
# 1 0.017593 -0.003060 -0.014378 0.003234 0.019967 -0.000250
# 2 -0.003060 0.009106 0.001598 0.000096 -0.001802 -0.001282
# 3 -0.014378 0.001598 0.030736 0.000335 -0.019717 0.000525
# 4 0.003234 0.000096 0.000335 0.022128 0.004418 0.003978
# 5 0.019967 -0.001802 -0.019717 0.004418 0.044988 0.005078
# 6 -0.000250 -0.001282 0.000525 0.003978 0.005078 0.024105
#
#
# Mechanical properties :
#
#
# Convention : Reuss Voigt Hill
#
# Bulk Modulus (GPa) = 38.82801 54.88489 46.85645
# Shear Modulus (GPa) = 26.46601 45.81993 36.14297
#
# Velocity S-wave (km/s) = 3.16069 4.15877 3.69360
# Velocity P-wave (km/s) = 5.28925 6.61646 5.98973
#
# Compressibility (1/GPa) = 0.02575460
#
# Stress axis : x y z
#
# Youngs Moduli (GPa) = 56.84050 109.81897 32.53467
#
# Poissons Ratio (x) = 0.33609 0.46779
# Poissons Ratio (y) = 0.17396 -0.05200
# Poissons Ratio (z) = 0.81727 -0.17553
#
# Static dielectric constant tensor:
#      x y z
#    x 2.085220 0.015120 0.021920 
#    y 0.015120 2.046210 0.006010 
#    z 0.021920 0.006010 2.036850 
# 
# From -- ./inp_files/306871.got.cif
#   From: 2010.05.17/outbox.cif.g08.bks.cpg/sg2_154_cif.got.tgz:306871.got - 2010.06.03 11:33:40.
