data_PCOD9081732
_publ_section_title
;
Structure prediction by ZEFSAII (Michael W. Deem and Ramdas Pophale) SiO2 
 PCOD9081732
Probable space group: P -1
;
_chemical_formula_sum "Si O2"
_cell_formula_units_Z 16
_cell_length_a 13.076983
_cell_length_b 7.805662
_cell_length_c 19.226295
_cell_angle_alpha 79.603065
_cell_angle_beta 150.386579
_cell_angle_gamma 117.068882
_cell_volume 753.266822
_symmetry_space_group_name_H-M "P -1"
_symmetry_group_IT_number 2
_symmetry_cell_setting 'triclinic'
loop_
_space_group_symop_operation_xyz
x,y,z
-x,-y,-z
loop_
_atom_site_type_symbol
_atom_site_label
_atom_site_fract_x
_atom_site_fract_y
_atom_site_fract_z
Si Si1 0.010688 0.882562 0.743061
Si Si2 0.560138 0.914769 0.914358
Si Si3 0.240758 0.224979 0.732694
Si Si4 0.197776 0.482262 0.807573
Si Si5 0.282493 0.010849 0.335527
Si Si6 0.034380 0.706583 0.544258
Si Si7 0.282458 0.531208 0.487567
Si Si8 0.751727 0.648501 0.005924
O O1 0.879945 0.976596 0.699889
O O2 0.778705 0.646278 0.592666
O O3 0.171640 0.032002 0.758557
O O4 0.195354 0.885527 0.910809
O O5 0.389771 0.740612 0.888113
O O6 0.331729 0.885401 0.735862
O O7 0.668951 0.808553 0.939996
O O8 0.199880 0.368909 0.748846
O O9 0.039624 0.171018 0.557550
O O10 0.536721 0.406163 0.864306
O O11 0.284694 0.422494 0.929660
O O12 0.913769 0.414799 0.653793
O O13 0.431413 0.239069 0.363968
O O14 0.500000 0.000000 0.500000
O O15 0.066001 0.803917 0.173708
O O16 0.000000 0.500000 0.500000
O O17 0.828747 0.588775 0.495204
#
# Coordination Sequence:
#
# PCOD9081732 Si02
#       8
#     2   2   2   2   2   2   2   2
#     4  11  22  36  61  83 119 146 187 241 284 342
#     4   9  17  31  55  87 108 143 181 236 288 318
#     4  11  18  35  59  87 112 146 185 238 288 327
#     4  10  15  30  54  82 107 136 188 228 272 319
#     4  11  21  36  58  85 111 150 197 240 273 326
#     4  11  21  34  59  85 122 146 184 240 277 345
#     4  11  23  36  52  87 120 154 184 227 290 337
#     4  10  16  30  58  85 106 141 192 242 270 321
#
# _framework density 21.240811000000001
#
# number of rings (size 3 to 8) (size 9 to 14) (size 15 to 20)
#    0.000    1.500    8.750    1.125    0.000    2.500 
#    0.000    0.625    0.000    0.000    0.000    5.250 
#    0.000    0.000    0.000    0.000    0.000    0.000 
#
# Total GULP energy -89084.685231 kJ/mol
# GULP energy per Si atom -5567.792827 kJ/mol
# Density = 2.119247 g / cm^3
# Si number density = 21.240811 Si / 1000 Ang^3
#
#
#
# Elastic Constant Matrix: (Units=GPa)
#
#
# Indices 1 2 3 4 5 6 
#
# 1 36.3824 3.8982 11.2403 -0.2631 -5.1752 -5.1153
# 2 3.8982 32.9080 29.3597 -3.1854 -4.4481 3.6539
# 3 11.2403 29.3597 125.0437 -20.1392 4.0997 9.4877
# 4 -0.2631 -3.1854 -20.1392 34.6676 10.4874 -5.1972
# 5 -5.1752 -4.4481 4.0997 10.4874 28.1027 3.4490
# 6 -5.1153 3.6539 9.4877 -5.1972 3.4490 23.0703
#
#
#
# Elastic Compliance Matrix: (Units=1/GPa)
#
#
# Indices 1 2 3 4 5 6 
#
# 1 0.030565 -0.000342 -0.003872 -0.002970 0.006414 0.006795
# 2 -0.000342 0.041475 -0.010732 -0.006624 0.011202 -0.005398
# 3 -0.003872 -0.010732 0.012527 0.008210 -0.007132 -0.001395
# 4 -0.002970 -0.006624 0.008210 0.039997 -0.018804 0.008836
# 5 0.006414 0.011202 -0.007132 -0.018804 0.047673 -0.008782
# 6 0.006795 -0.005398 -0.001395 0.008836 -0.008782 0.049584
#
#
# Mechanical properties :
#
#
# Convention : Reuss Voigt Hill
#
# Bulk Modulus (GPa) = 18.28931 31.48116 24.88524
# Shear Modulus (GPa) = 18.52281 27.15717 22.83999
#
# Velocity S-wave (km/s) = 2.95623 3.57954 3.28272
# Velocity P-wave (km/s) = 4.50351 5.65132 5.10975
#
# Compressibility (1/GPa) = 0.05467676
#
# Stress axis : x y z
#
# Youngs Moduli (GPa) = 32.71744 24.11066 79.82757
#
# Poissons Ratio (x) = 0.00824 0.30905
# Poissons Ratio (y) = 0.01118 0.85672
# Poissons Ratio (z) = 0.12667 0.25876
#
# Static dielectric constant tensor:
#      x y z
#    x 1.773460 -0.018710 0.031630 
#    y -0.018710 1.837880 0.032540 
#    z 0.031630 0.032540 1.882520 
# 
# From -- ./inp_files/346868.got.cif
#   From: 2010.05.17/outbox.cif.g08.bks.cpg/sg2_174_cif.got.tgz:346868.got - 2010.06.03 11:33:40.
