data_PCOD9081334
_publ_section_title
;
Structure prediction by ZEFSAII (Michael W. Deem and Ramdas Pophale) SiO2 
 PCOD9081334
Probable space group: P -1
;
_chemical_formula_sum "Si O2"
_cell_formula_units_Z 16
_cell_length_a 19.874950
_cell_length_b 20.161163
_cell_length_c 13.192030
_cell_angle_alpha 154.456386
_cell_angle_beta 40.936293
_cell_angle_gamma 155.978439
_cell_volume 853.911853
_symmetry_space_group_name_H-M "P -1"
_symmetry_group_IT_number 2
_symmetry_cell_setting 'triclinic'
loop_
_space_group_symop_operation_xyz
x,y,z
-x,-y,-z
loop_
_atom_site_type_symbol
_atom_site_label
_atom_site_fract_x
_atom_site_fract_y
_atom_site_fract_z
Si Si1 0.591260 0.550210 0.066318
Si Si2 0.764624 0.977118 0.758354
Si Si3 0.230008 0.651352 0.019272
Si Si4 0.125731 0.351802 0.929713
Si Si5 0.615405 0.007956 0.121434
Si Si6 0.542497 0.465540 0.225647
Si Si7 0.654395 0.269056 0.624103
Si Si8 0.122653 0.860270 0.379419
O O1 0.484862 0.442640 0.146318
O O2 0.779364 0.874194 0.314667
O O3 0.500000 0.500000 0.000000
O O4 0.604573 0.382874 0.811535
O O5 0.579572 0.656800 0.517632
O O6 0.815754 0.068934 0.710558
O O7 0.747678 0.110651 0.026128
O O8 0.917031 0.060261 0.752894
O O9 0.093881 0.411622 0.760032
O O10 0.173039 0.517524 0.009409
O O11 0.436947 0.855399 0.059657
O O12 0.195525 0.791301 0.248739
O O13 0.172541 0.499968 0.182816
O O14 0.262773 0.377844 0.800958
O O15 0.679106 0.207022 0.407268
O O16 0.568404 0.799298 0.954952
O O17 0.500000 0.000000 0.500000
#
# Coordination Sequence:
#
# PCOD9081334 Si02
#       8
#     2   2   2   2   2   2   2   2
#     4  10  19  31  55  80 102 128 175 224 250 298
#     4  10  20  32  48  80 103 131 173 220 262 306
#     4   9  17  33  53  75 103 138 169 216 264 303
#     4   9  18  32  55  71 101 136 173 219 251 306
#     4  11  20  31  52  74 106 138 168 213 267 310
#     4   9  18  34  51  75 100 134 172 214 257 310
#     4  11  19  34  51  77 103 139 179 206 258 315
#     4   9  19  33  52  79 102 132 181 213 257 312
#
# _framework density 18.737297999999999
#
# number of rings (size 3 to 8) (size 9 to 14) (size 15 to 20)
#    0.000    2.250    3.750    1.500    0.000    4.000 
#    0.000    0.000    0.000    0.000    0.000   14.875 
#    0.000    0.000    0.000    0.000    0.000    0.000 
#
# Total GULP energy -89097.361731 kJ/mol
# GULP energy per Si atom -5568.585108 kJ/mol
# Density = 1.869465 g / cm^3
# Si number density = 18.737298 Si / 1000 Ang^3
#
#
#
# Elastic Constant Matrix: (Units=GPa)
#
#
# Indices 1 2 3 4 5 6 
#
# 1 113.1254 5.9818 26.9567 3.3744 5.5254 -9.7155
# 2 5.9818 18.1092 9.2763 -12.6312 10.5329 0.8246
# 3 26.9567 9.2763 113.2685 -12.4329 8.3896 -8.4756
# 4 3.3744 -12.6312 -12.4329 23.7486 -7.0762 0.9158
# 5 5.5254 10.5329 8.3896 -7.0762 32.7451 3.8934
# 6 -9.7155 0.8246 -8.4756 0.9158 3.8934 9.9613
#
#
#
# Elastic Compliance Matrix: (Units=1/GPa)
#
#
# Indices 1 2 3 4 5 6 
#
# 1 0.010927 -0.007131 -0.001841 -0.007330 -0.001986 0.011131
# 2 -0.007131 0.106293 -0.000860 0.051652 -0.020010 -0.013413
# 3 -0.001841 -0.000860 0.010548 0.004414 -0.002071 0.007654
# 4 -0.007330 0.051652 0.004414 0.073876 0.001232 -0.014943
# 5 -0.001986 -0.020010 -0.002071 0.001232 0.040234 -0.017882
# 6 0.011131 -0.013413 0.007654 -0.014943 -0.017882 0.127232
#
#
# Mechanical properties :
#
#
# Convention : Reuss Voigt Hill
#
# Bulk Modulus (GPa) = 9.25030 36.54807 22.89918
# Shear Modulus (GPa) = 11.77002 26.77689 19.27346
#
# Velocity S-wave (km/s) = 2.50903 3.78440 3.21068
# Velocity P-wave (km/s) = 3.65256 6.21639 5.09827
#
# Compressibility (1/GPa) = 0.10810461
#
# Stress axis : x y z
#
# Youngs Moduli (GPa) = 91.51499 9.40793 94.80654
#
# Poissons Ratio (x) = 0.06709 0.17455
# Poissons Ratio (y) = 0.65258 0.08152
# Poissons Ratio (z) = 0.16849 0.00809
#
# Static dielectric constant tensor:
#      x y z
#    x 1.672330 0.019820 0.010060 
#    y 0.019820 1.700480 0.026750 
#    z 0.010060 0.026750 1.691030 
# 
# From -- ./inp_files/255073.got.cif
#   From: 2010.05.17/outbox.cif.g08.bks.cpg/sg2_128_cif.got.tgz:255073.got - 2010.06.03 11:33:40.
