data_PCOD9081469
_publ_section_title
;
Structure prediction by ZEFSAII (Michael W. Deem and Ramdas Pophale) SiO2 
 PCOD9081469
Probable space group: P -1
;
_chemical_formula_sum "Si O2"
_cell_formula_units_Z 16
_cell_length_a 14.629430
_cell_length_b 18.103066
_cell_length_c 15.073703
_cell_angle_alpha 124.446416
_cell_angle_beta 160.588354
_cell_angle_gamma 46.802320
_cell_volume 913.010950
_symmetry_space_group_name_H-M "P -1"
_symmetry_group_IT_number 2
_symmetry_cell_setting 'triclinic'
loop_
_space_group_symop_operation_xyz
x,y,z
-x,-y,-z
loop_
_atom_site_type_symbol
_atom_site_label
_atom_site_fract_x
_atom_site_fract_y
_atom_site_fract_z
Si Si1 0.331740 0.213283 0.376746
Si Si2 0.225185 0.402001 0.008615
Si Si3 0.901023 0.247007 0.179702
Si Si4 0.875491 0.615144 0.421761
Si Si5 0.232453 0.577441 0.538984
Si Si6 0.813850 0.989689 0.737465
Si Si7 0.583536 0.591305 0.622418
Si Si8 0.707063 0.324231 0.762827
O O1 0.649103 0.090652 0.588784
O O2 0.495102 0.281028 0.579899
O O3 0.090096 0.232705 0.250681
O O4 0.080020 0.255288 0.092400
O O5 0.524859 0.381567 0.208149
O O6 0.377346 0.361830 0.218480
O O7 0.005819 0.373067 0.731521
O O8 0.942669 0.526925 0.859473
O O9 0.000978 0.313336 0.375861
O O10 0.510812 0.317901 0.868440
O O11 0.993477 0.128055 0.209415
O O12 0.000000 0.500000 0.500000
O O13 0.005911 0.596043 0.427541
O O14 0.498867 0.449788 0.683797
O O15 0.500000 0.000000 0.500000
O O16 0.000000 0.000000 0.000000
O O17 0.500000 0.500000 0.500000
O O18 0.323148 0.674931 0.370823
#
# Coordination Sequence:
#
# PCOD9081469 Si02
#       8
#     2   2   2   2   2   2   2   2
#     4  11  21  34  52  80 103 135 179 214 275 315
#     4  10  19  32  50  67  99 142 178 210 245 316
#     4  11  22  38  55  73 106 148 182 219 265 303
#     4  12  24  36  51  77 109 144 186 221 249 305
#     4  11  21  34  48  71 106 147 180 209 250 301
#     4  10  20  37  58  76 101 137 182 230 268 325
#     4  10  19  32  49  75 103 143 176 203 267 323
#     4  11  21  31  51  76 112 139 165 218 264 322
#
# _framework density 17.524433999999999
#
# number of rings (size 3 to 8) (size 9 to 14) (size 15 to 20)
#    0.000    1.250    2.500    7.875    1.750    0.000 
#    0.000    0.000    0.000    0.000    0.000    0.000 
#    0.000   20.000    0.000    0.000    0.000    0.000 
#
# Total GULP energy -89096.613987 kJ/mol
# GULP energy per Si atom -5568.538374 kJ/mol
# Density = 1.748455 g / cm^3
# Si number density = 17.524434 Si / 1000 Ang^3
#
#
#
# Elastic Constant Matrix: (Units=GPa)
#
#
# Indices 1 2 3 4 5 6 
#
# 1 55.5816 8.4575 17.4741 -3.7494 -4.2773 -6.6700
# 2 8.4575 72.4668 49.9681 -4.9563 -6.4655 -4.5728
# 3 17.4741 49.9681 140.2300 6.3107 -5.7813 -1.9373
# 4 -3.7494 -4.9563 6.3107 32.1697 4.3857 2.1506
# 5 -4.2773 -6.4655 -5.7813 4.3857 41.3532 4.2740
# 6 -6.6700 -4.5728 -1.9373 2.1506 4.2740 14.4550
#
#
#
# Elastic Compliance Matrix: (Units=1/GPa)
#
#
# Indices 1 2 3 4 5 6 
#
# 1 0.019959 0.000121 -0.002486 0.002184 0.000636 0.008402
# 2 0.000121 0.019201 -0.006923 0.003882 0.001193 0.004272
# 3 -0.002486 -0.006923 0.010058 -0.003298 0.000589 -0.001673
# 4 0.002184 0.003882 -0.003298 0.033133 -0.002907 -0.002276
# 5 0.000636 0.001193 0.000589 -0.002907 0.025481 -0.006352
# 6 0.008402 0.004272 -0.001673 -0.002276 -0.006352 0.076401
#
#
# Mechanical properties :
#
#
# Convention : Reuss Voigt Hill
#
# Bulk Modulus (GPa) = 32.63633 46.67531 39.65582
# Shear Modulus (GPa) = 23.47155 30.42082 26.94618
#
# Velocity S-wave (km/s) = 3.66370 4.17094 3.92552
# Velocity P-wave (km/s) = 6.04654 7.06314 6.57452
#
# Compressibility (1/GPa) = 0.03064070
#
# Stress axis : x y z
#
# Youngs Moduli (GPa) = 50.10190 52.08142 99.42757
#
# Poissons Ratio (x) = -0.00632 0.24722
# Poissons Ratio (y) = -0.00608 0.68838
# Poissons Ratio (z) = 0.12457 0.36058
#
# Static dielectric constant tensor:
#      x y z
#    x 1.641580 0.033080 -0.033450 
#    y 0.033080 1.685990 -0.007870 
#    z -0.033450 -0.007870 1.631380 
# 
# From -- ./inp_files/531782.got.cif
#   From: 2010.05.17/outbox.cif.g08.bks.cpg/sg2_266_cif.got.tgz:531782.got - 2010.06.03 11:33:40.
