data_PCOD9081685
_publ_section_title
;
Structure prediction by ZEFSAII (Michael W. Deem and Ramdas Pophale) SiO2 
 PCOD9081685
Probable space group: P -1
;
_chemical_formula_sum "Si O2"
_cell_formula_units_Z 16
_cell_length_a 15.886916
_cell_length_b 13.080465
_cell_length_c 14.051689
_cell_angle_alpha 65.005575
_cell_angle_beta 49.650319
_cell_angle_gamma 25.473494
_cell_volume 832.093201
_symmetry_space_group_name_H-M "P -1"
_symmetry_group_IT_number 2
_symmetry_cell_setting 'triclinic'
loop_
_space_group_symop_operation_xyz
x,y,z
-x,-y,-z
loop_
_atom_site_type_symbol
_atom_site_label
_atom_site_fract_x
_atom_site_fract_y
_atom_site_fract_z
Si Si1 0.277099 0.188723 0.171897
Si Si2 0.258924 0.342595 0.867433
Si Si3 0.689813 0.339766 0.706913
Si Si4 0.790223 0.090553 0.102143
Si Si5 0.276635 0.719128 0.497345
Si Si6 0.847434 0.461919 0.923487
Si Si7 0.078234 0.668566 0.712735
Si Si8 0.646764 0.193662 0.947501
O O1 0.090841 0.471627 0.189801
O O2 0.105715 0.239217 0.252988
O O3 0.471537 0.982713 0.198327
O O4 0.500000 0.000000 0.000000
O O5 0.260505 0.417911 0.742615
O O6 0.237441 0.437879 0.942822
O O7 0.000000 0.500000 0.000000
O O8 0.483756 0.634343 0.746920
O O9 0.624405 0.336118 0.657241
O O10 0.613490 0.338889 0.855425
O O11 0.015116 0.037100 0.589245
O O12 0.703267 0.162714 0.027530
O O13 0.934533 0.839041 0.120744
O O14 0.000000 0.000000 0.000000
O O15 0.500000 0.500000 0.500000
O O16 0.189390 0.669029 0.570435
O O17 0.604776 0.647066 0.961388
O O18 0.899415 0.896111 0.833941
#
# Coordination Sequence:
#
# PCOD9081685 Si02
#       8
#     2   2   2   2   2   2   2   2
#     4  10  19  32  53  87 124 152 184 249 305 359
#     4  11  18  31  54  88 125 152 189 239 306 359
#     4  10  24  41  55  86 121 152 208 243 292 356
#     4  12  25  36  60  89 124 164 194 243 313 367
#     4  10  25  41  64  82 115 168 209 251 285 344
#     4  11  21  32  54  88 125 155 184 233 314 363
#     4  11  20  34  59  87 121 152 197 248 297 357
#     4  11  21  35  56  89 124 156 190 244 303 366
#
# _framework density 19.228615999999999
#
# number of rings (size 3 to 8) (size 9 to 14) (size 15 to 20)
#    0.000    1.250    7.500    0.375    5.250    1.000 
#    0.000    0.000    0.000    0.750    0.000    2.625 
#    0.000    0.000    0.000    0.000    0.000    0.000 
#
# Total GULP energy -89136.596233 kJ/mol
# GULP energy per Si atom -5571.037265 kJ/mol
# Density = 1.918485 g / cm^3
# Si number density = 19.228616 Si / 1000 Ang^3
#
#
#
# Elastic Constant Matrix: (Units=GPa)
#
#
# Indices 1 2 3 4 5 6 
#
# 1 95.5424 20.1105 15.3850 7.4368 -6.4195 -11.3273
# 2 20.1105 131.9273 15.0508 5.0516 0.9055 2.9919
# 3 15.3850 15.0508 23.7568 6.3083 3.4474 3.6954
# 4 7.4368 5.0516 6.3083 20.8961 6.8301 2.9679
# 5 -6.4195 0.9055 3.4474 6.8301 21.2187 -3.6279
# 6 -11.3273 2.9919 3.6954 2.9679 -3.6279 40.7427
#
#
#
# Elastic Compliance Matrix: (Units=1/GPa)
#
#
# Indices 1 2 3 4 5 6 
#
# 1 0.013837 -0.001066 -0.008954 -0.005577 0.008490 0.005900
# 2 -0.001066 0.008266 -0.004415 -0.000228 0.000033 -0.000483
# 3 -0.008954 -0.004415 0.055489 -0.008090 -0.010217 -0.007519
# 4 -0.005577 -0.000228 -0.008090 0.060184 -0.020941 -0.007049
# 5 0.008490 0.000033 -0.010217 -0.020941 0.059829 0.010138
# 6 0.005900 -0.000483 -0.007519 -0.007049 0.010138 0.028318
#
#
# Mechanical properties :
#
#
# Convention : Reuss Voigt Hill
#
# Bulk Modulus (GPa) = 20.52513 39.14657 29.83585
# Shear Modulus (GPa) = 18.44785 29.95017 24.19901
#
# Velocity S-wave (km/s) = 3.10077 3.95090 3.55137
# Velocity P-wave (km/s) = 4.84945 6.41993 5.68914
#
# Compressibility (1/GPa) = 0.04872077
#
# Stress axis : x y z
#
# Youngs Moduli (GPa) = 72.27089 120.98299 18.02144
#
# Poissons Ratio (x) = 0.12900 0.16137
# Poissons Ratio (y) = 0.07706 0.07957
# Poissons Ratio (z) = 0.64713 0.53415
#
# Static dielectric constant tensor:
#      x y z
#    x 1.700030 0.006630 -0.008580 
#    y 0.006630 1.818840 -0.050480 
#    z -0.008580 -0.050480 1.718120 
# 
# From -- ./inp_files/531794.got.cif
#   From: 2010.05.17/outbox.cif.g08.bks.cpg/sg2_266_cif.got.tgz:531794.got - 2010.06.03 11:33:40.
