data_PCOD9081311
_publ_section_title
;
Structure prediction by ZEFSAII (Michael W. Deem and Ramdas Pophale) SiO2 
 PCOD9081311
Probable space group: P -1
;
_chemical_formula_sum "Si O2"
_cell_formula_units_Z 16
_cell_length_a 14.606615
_cell_length_b 5.965857
_cell_length_c 10.178525
_cell_angle_alpha 63.795353
_cell_angle_beta 60.588886
_cell_angle_gamma 58.224908
_cell_volume 636.481405
_symmetry_space_group_name_H-M "P -1"
_symmetry_group_IT_number 2
_symmetry_cell_setting 'triclinic'
loop_
_space_group_symop_operation_xyz
x,y,z
-x,-y,-z
loop_
_atom_site_type_symbol
_atom_site_label
_atom_site_fract_x
_atom_site_fract_y
_atom_site_fract_z
Si Si1 0.731662 0.260228 0.091053
Si Si2 0.056590 0.176400 0.696121
Si Si3 0.209865 0.272700 0.153287
Si Si4 0.489029 0.316993 0.756769
Si Si5 0.927862 0.818587 0.957758
Si Si6 0.738054 0.139125 0.552616
Si Si7 0.912159 0.308172 0.510447
Si Si8 0.578294 0.134231 0.022956
O O1 0.636552 0.428351 0.225250
O O2 0.653934 0.242652 0.028792
O O3 0.808696 0.422164 0.947114
O O4 0.827997 0.949620 0.104851
O O5 0.071508 0.455654 0.647705
O O6 0.951181 0.319103 0.628543
O O7 0.177838 0.968422 0.602963
O O8 0.011536 0.975451 0.854415
O O9 0.134312 0.162494 0.144432
O O10 0.227196 0.144737 0.317606
O O11 0.336063 0.132335 0.041881
O O12 0.601021 0.300308 0.600759
O O13 0.487506 0.016378 0.809356
O O14 0.524100 0.315857 0.887175
O O15 0.000000 0.500000 0.000000
O O16 0.788369 0.315619 0.561563
O O17 0.000000 0.000000 0.500000
#
# Coordination Sequence:
#
# PCOD9081311 Si02
#       8
#     2   2   2   2   2   2   2   2
#     4  10  20  32  54  74 108 149 185 226 276 320
#     4  10  21  34  54  80 109 150 179 219 286 323
#     4   9  19  33  52  79 110 145 179 224 278 326
#     4   9  17  30  48  79 113 142 177 218 277 337
#     4  11  24  39  55  77 108 148 197 234 264 320
#     4  10  19  31  54  82 118 140 169 224 274 349
#     4   9  19  33  51  81 112 144 177 220 268 335
#     4   8  16  30  44  77 113 144 175 215 270 342
#
# _framework density 25.138206
#
# number of rings (size 3 to 8) (size 9 to 14) (size 15 to 20)
#    0.000    2.500    1.250    1.125    5.250    1.500 
#    0.000    0.000    0.000    0.750    0.000    8.750 
#    0.000    0.000    0.000    0.000    0.000    0.000 
#
# Total GULP energy -89075.611353 kJ/mol
# GULP energy per Si atom -5567.225710 kJ/mol
# Density = 2.508099 g / cm^3
# Si number density = 25.138206 Si / 1000 Ang^3
#
#
#
# Elastic Constant Matrix: (Units=GPa)
#
#
# Indices 1 2 3 4 5 6 
#
# 1 68.3909 18.3107 36.9539 -3.6381 -23.4725 1.9030
# 2 18.3107 157.0862 61.0091 4.1890 -16.7585 -40.7065
# 3 36.9539 61.0091 111.0746 5.3670 -27.2991 -7.3717
# 4 -3.6381 4.1890 5.3670 47.5440 -5.1410 -13.3542
# 5 -23.4725 -16.7585 -27.2991 -5.1410 34.5471 -6.3251
# 6 1.9030 -40.7065 -7.3717 -13.3542 -6.3251 31.1306
#
#
#
# Elastic Compliance Matrix: (Units=1/GPa)
#
#
# Indices 1 2 3 4 5 6 
#
# 1 0.021378 0.001902 -0.004821 0.004784 0.013225 0.004778
# 2 0.001902 0.015139 -0.005336 0.007047 0.009756 0.023421
# 3 -0.004821 -0.005336 0.014619 -0.001879 0.004852 -0.003041
# 4 0.004784 0.007047 -0.001879 0.029182 0.013888 0.023818
# 5 0.013225 0.009756 0.004852 0.013888 0.054064 0.030040
# 6 0.004778 0.023421 -0.003041 0.023818 0.030040 0.078057
#
#
# Mechanical properties :
#
#
# Convention : Reuss Voigt Hill
#
# Bulk Modulus (GPa) = 28.88051 63.23324 46.05688
# Shear Modulus (GPa) = 20.79074 37.32955 29.06015
#
# Velocity S-wave (km/s) = 2.87898 3.85772 3.40371
# Velocity P-wave (km/s) = 4.75026 6.71204 5.81449
#
# Compressibility (1/GPa) = 0.03462543
#
# Stress axis : x y z
#
# Youngs Moduli (GPa) = 46.77729 66.05525 68.40360
#
# Poissons Ratio (x) = -0.12562 0.32975
# Poissons Ratio (y) = -0.08896 0.36502
# Poissons Ratio (z) = 0.22550 0.35249
#
# Static dielectric constant tensor:
#      x y z
#    x 2.075990 -0.012280 0.085920 
#    y -0.012280 2.122030 -0.006690 
#    z 0.085920 -0.006690 2.130280 
# 
# From -- ./inp_files/536247.got.cif
#   From: 2010.05.17/outbox.cif.g08.bks.cpg/sg2_269_cif.got.tgz:536247.got - 2010.06.03 11:33:40.
