data_PCOD9081830
_publ_section_title
;
Structure prediction by ZEFSAII (Michael W. Deem and Ramdas Pophale) SiO2 
 PCOD9081830
Probable space group: P -1
;
_chemical_formula_sum "Si O2"
_cell_formula_units_Z 16
_cell_length_a 21.976687
_cell_length_b 10.486332
_cell_length_c 9.573177
_cell_angle_alpha 38.279448
_cell_angle_beta 26.545178
_cell_angle_gamma 36.032492
_cell_volume 563.851772
_symmetry_space_group_name_H-M "P -1"
_symmetry_group_IT_number 2
_symmetry_cell_setting 'triclinic'
loop_
_space_group_symop_operation_xyz
x,y,z
-x,-y,-z
loop_
_atom_site_type_symbol
_atom_site_label
_atom_site_fract_x
_atom_site_fract_y
_atom_site_fract_z
Si Si1 0.778536 0.157161 0.103520
Si Si2 0.995623 0.508747 0.301500
Si Si3 0.108810 0.992112 0.593304
Si Si4 0.404842 0.996107 0.064022
Si Si5 0.776294 0.187643 0.775990
Si Si6 0.810284 0.756808 0.226093
Si Si7 0.242729 0.475538 0.995714
Si Si8 0.527129 0.768651 0.725320
O O1 0.691005 0.365431 0.199981
O O2 0.941121 0.032342 0.941727
O O3 0.802336 0.259719 0.815775
O O4 0.726839 0.959893 0.335580
O O5 0.942851 0.586476 0.187671
O O6 0.853878 0.580948 0.634397
O O7 0.076432 0.246387 0.387843
O O8 0.118217 0.597638 0.031622
O O9 0.251293 0.955517 0.429074
O O10 0.154427 0.830306 0.503189
O O11 0.358310 0.251416 0.887535
O O12 0.500000 0.000000 0.000000
O O13 0.482890 0.824926 0.928797
O O14 0.836218 0.918254 0.920697
O O15 0.598703 0.297210 0.028079
O O16 0.703763 0.647843 0.472864
O O17 0.500000 0.000000 0.500000
#
# Coordination Sequence:
#
# PCOD9081830 Si02
#       8
#     2   2   2   2   2   2   2   2
#     4   9  18  30  50  74 101 133 159 205 259 298
#     4   9  17  30  48  72  99 129 165 209 246 294
#     4   9  17  32  52  74 101 130 166 210 251 291
#     4  10  19  32  56  76  94 130 177 210 237 297
#     4   8  17  30  51  72  97 137 169 200 245 301
#     4   9  18  29  50  76  95 132 168 202 251 293
#     4   9  18  32  48  71 100 129 163 205 256 293
#     4   9  17  33  51  73  97 133 171 203 241 299
#
# _framework density 28.376251
#
# number of rings (size 3 to 8) (size 9 to 14) (size 15 to 20)
#    0.750    2.250    0.000    1.875    0.000    1.000 
#    0.000    0.625    0.000   16.500    0.000    0.000 
#    0.000    0.000    0.000    0.000    0.000    0.000 
#
# Total GULP energy -89320.304938 kJ/mol
# GULP energy per Si atom -5582.519059 kJ/mol
# Density = 2.831167 g / cm^3
# Si number density = 28.376251 Si / 1000 Ang^3
#
#
#
# Elastic Constant Matrix: (Units=GPa)
#
#
# Indices 1 2 3 4 5 6 
#
# 1 169.4992 15.8466 48.8923 5.1800 -23.1517 -16.1731
# 2 15.8466 66.0384 -6.0447 9.4552 2.9811 15.1374
# 3 48.8923 -6.0447 69.8709 -8.2351 -14.7977 0.8889
# 4 5.1800 9.4552 -8.2351 34.0085 4.9553 -6.7864
# 5 -23.1517 2.9811 -14.7977 4.9553 57.7725 0.2137
# 6 -16.1731 15.1374 0.8889 -6.7864 0.2137 56.6212
#
#
#
# Elastic Compliance Matrix: (Units=1/GPa)
#
#
# Indices 1 2 3 4 5 6 
#
# 1 0.008604 -0.003234 -0.006062 -0.001554 0.002184 0.003223
# 2 -0.003234 0.018464 0.003141 -0.005035 -0.000989 -0.006509
# 3 -0.006062 0.003141 0.019787 0.004050 0.002138 -0.002404
# 4 -0.001554 -0.005035 0.004050 0.033308 -0.002200 0.004839
# 5 0.002184 -0.000989 0.002138 -0.002200 0.018970 0.000519
# 6 0.003223 -0.006509 -0.002404 0.004839 0.000519 0.020938
#
#
# Mechanical properties :
#
#
# Convention : Reuss Voigt Hill
#
# Bulk Modulus (GPa) = 28.94981 46.97745 37.96363
# Shear Modulus (GPa) = 34.74723 46.12806 40.43764
#
# Velocity S-wave (km/s) = 3.50311 4.03623 3.77908
# Velocity P-wave (km/s) = 5.15622 6.18972 5.69646
#
# Compressibility (1/GPa) = 0.03454254
#
# Stress axis : x y z
#
# Youngs Moduli (GPa) = 116.22438 54.15986 50.53907
#
# Poissons Ratio (x) = 0.17517 0.30638
# Poissons Ratio (y) = 0.37591 -0.15872
# Poissons Ratio (z) = 0.70458 -0.17009
#
# Static dielectric constant tensor:
#      x y z
#    x 2.196300 -0.007460 -0.006790 
#    y -0.007460 2.314130 -0.075010 
#    z -0.006790 -0.075010 2.276390 
# 
# From -- ./inp_files/474482.got.cif
#   From: 2010.05.17/outbox.cif.g08.bks.cpg/sg2_238_cif.got.tgz:474482.got - 2010.06.03 11:33:40.
