data_PCOD9081449
_publ_section_title
;
Structure prediction by ZEFSAII (Michael W. Deem and Ramdas Pophale) SiO2 
 PCOD9081449
Probable space group: P -1
;
_chemical_formula_sum "Si O2"
_cell_formula_units_Z 16
_cell_length_a 12.034901
_cell_length_b 17.004163
_cell_length_c 12.435135
_cell_angle_alpha 61.125390
_cell_angle_beta 149.566342
_cell_angle_gamma 130.231030
_cell_volume 965.925184
_symmetry_space_group_name_H-M "P -1"
_symmetry_group_IT_number 2
_symmetry_cell_setting 'triclinic'
loop_
_space_group_symop_operation_xyz
x,y,z
-x,-y,-z
loop_
_atom_site_type_symbol
_atom_site_label
_atom_site_fract_x
_atom_site_fract_y
_atom_site_fract_z
Si Si1 0.450054 0.864260 0.479596
Si Si2 0.110763 0.423168 0.145532
Si Si3 0.072928 0.941691 0.189132
Si Si4 0.556491 0.759508 0.841677
Si Si5 0.687840 0.510816 0.509321
Si Si6 0.740375 0.606257 0.083026
Si Si7 0.834955 0.337277 0.769502
Si Si8 0.004499 0.596276 0.504216
O O1 0.238936 0.896497 0.304424
O O2 0.494309 0.815375 0.657183
O O3 0.343001 0.775030 0.359093
O O4 0.725878 0.969828 0.619804
O O5 0.397346 0.481047 0.298708
O O6 0.146951 0.407663 0.311356
O O7 0.000000 0.500000 0.000000
O O8 0.929162 0.332404 0.970896
O O9 0.794264 0.845468 0.053789
O O10 0.000000 0.000000 0.000000
O O11 0.288959 0.678613 0.728121
O O12 0.648674 0.684315 0.918339
O O13 0.701334 0.406298 0.610077
O O14 0.805818 0.552653 0.463851
O O15 0.910504 0.599427 0.135402
O O16 0.924382 0.650850 0.310860
O O17 0.500000 0.500000 0.000000
O O18 0.000000 0.500000 0.500000
#
# Coordination Sequence:
#
# PCOD9081449 Si02
#       8
#     2   2   2   2   2   2   2   2
#     4  10  19  32  48  74 102 137 178 213 259 313
#     4   9  21  35  50  67  95 140 180 217 254 293
#     4   9  19  32  49  68 104 142 171 211 261 313
#     4  11  19  32  45  71 109 140 166 205 259 306
#     4  10  20  36  49  69 105 139 174 216 252 305
#     4  12  21  28  45  75 106 140 169 202 250 308
#     4  11  19  30  50  73  99 133 175 214 254 303
#     4  12  20  30  47  76 104 135 171 205 256 315
#
# _framework density 16.564430999999999
#
# number of rings (size 3 to 8) (size 9 to 14) (size 15 to 20)
#    0.000    1.500    5.000    0.750    1.750    1.000 
#    0.000    0.000    0.000    0.000    0.000    0.875 
#    0.000   23.000    0.000    2.125    0.000    0.375 
#
# Total GULP energy -89120.017924 kJ/mol
# GULP energy per Si atom -5570.001120 kJ/mol
# Density = 1.652673 g / cm^3
# Si number density = 16.564431 Si / 1000 Ang^3
#
#
#
# Elastic Constant Matrix: (Units=GPa)
#
#
# Indices 1 2 3 4 5 6 
#
# 1 79.1924 17.8405 33.0400 3.3021 1.5998 -6.7164
# 2 17.8405 68.6954 36.1250 16.7401 5.9344 -9.7173
# 3 33.0400 36.1250 100.3723 7.3622 8.4787 -12.5569
# 4 3.3021 16.7401 7.3622 47.0401 -6.4448 0.3627
# 5 1.5998 5.9344 8.4787 -6.4448 37.1906 4.3791
# 6 -6.7164 -9.7173 -12.5569 0.3627 4.3791 15.4707
#
#
#
# Elastic Compliance Matrix: (Units=1/GPa)
#
#
# Indices 1 2 3 4 5 6 
#
# 1 0.014846 -0.001446 -0.004144 0.000148 0.000318 0.002080
# 2 -0.001446 0.021164 -0.004937 -0.007375 -0.004663 0.010152
# 3 -0.004144 -0.004937 0.014413 -0.000728 -0.003361 0.007767
# 4 0.000148 -0.007375 -0.000728 0.024943 0.006554 -0.007599
# 5 0.000318 -0.004663 -0.003361 0.006554 0.031229 -0.014512
# 6 0.002080 0.010152 0.007767 -0.007599 -0.014512 0.082508
#
#
# Mechanical properties :
#
#
# Convention : Reuss Voigt Hill
#
# Bulk Modulus (GPa) = 34.04776 46.91902 40.48339
# Shear Modulus (GPa) = 22.73283 30.69059 26.71171
#
# Velocity S-wave (km/s) = 3.70860 4.30909 4.02007
# Velocity P-wave (km/s) = 6.24000 7.29001 6.78535
#
# Compressibility (1/GPa) = 0.02937051
#
# Stress axis : x y z
#
# Youngs Moduli (GPa) = 67.35854 47.24902 69.38334
#
# Poissons Ratio (x) = 0.06830 0.28753
# Poissons Ratio (y) = 0.09738 0.34252
# Poissons Ratio (z) = 0.27914 0.23325
#
# Static dielectric constant tensor:
#      x y z
#    x 1.543960 -0.007060 0.007720 
#    y -0.007060 1.593590 0.029240 
#    z 0.007720 0.029240 1.634870 
# 
# From -- ./inp_files/77591.got.cif
#   From: 2010.05.17/outbox.cif.g08.bks.cpg/sg2_39_cif.got.tgz:77591.got - 2010.06.03 11:33:40.
