data_PCOD9081843
_publ_section_title
;
Structure prediction by ZEFSAII (Michael W. Deem and Ramdas Pophale) SiO2 
 PCOD9081843
Probable space group: P -1
;
_chemical_formula_sum "Si O2"
_cell_formula_units_Z 16
_cell_length_a 11.318874
_cell_length_b 8.943075
_cell_length_c 12.236644
_cell_angle_alpha 52.658170
_cell_angle_beta 137.951942
_cell_angle_gamma 122.976136
_cell_volume 649.227841
_symmetry_space_group_name_H-M "P -1"
_symmetry_group_IT_number 2
_symmetry_cell_setting 'triclinic'
loop_
_space_group_symop_operation_xyz
x,y,z
-x,-y,-z
loop_
_atom_site_type_symbol
_atom_site_label
_atom_site_fract_x
_atom_site_fract_y
_atom_site_fract_z
Si Si1 0.810977 0.891881 0.374121
Si Si2 0.637283 0.253736 0.047645
Si Si3 0.646285 0.924392 0.897547
Si Si4 0.145058 0.767058 0.980476
Si Si5 0.533268 0.792429 0.654671
Si Si6 0.994884 0.479497 0.192386
Si Si7 0.561025 0.722814 0.466467
Si Si8 0.166308 0.493201 0.537166
O O1 0.716851 0.791605 0.459451
O O2 0.810210 0.727100 0.357836
O O3 0.698530 0.047806 0.188372
O O4 0.000000 0.000000 0.500000
O O5 0.475522 0.216606 0.038363
O O6 0.790141 0.424734 0.119475
O O7 0.666700 0.282084 0.923082
O O8 0.653033 0.819098 0.833710
O O9 0.818551 0.020238 0.041921
O O10 0.566184 0.117103 0.717860
O O11 0.059687 0.643277 0.077883
O O12 0.016832 0.704020 0.816921
O O13 0.613571 0.725266 0.628891
O O14 0.347422 0.645197 0.618376
O O15 0.500000 0.000000 0.500000
O O16 0.111725 0.526759 0.359237
O O17 0.500000 0.500000 0.500000
O O18 0.000000 0.500000 0.500000
#
# Coordination Sequence:
#
# PCOD9081843 Si02
#       8
#     2   2   2   2   2   2   2   2
#     4  11  21  35  57  82 115 149 182 237 287 333
#     4   9  18  33  53  82 107 140 190 227 273 328
#     4  10  19  32  56  81 110 145 186 229 277 326
#     4   9  18  33  56  81 108 146 194 230 261 331
#     4  10  21  34  53  80 117 147 183 228 282 334
#     4   9  18  33  54  82 108 144 190 230 269 327
#     4  10  20  35  52  81 116 148 187 227 282 339
#     4  12  23  36  58  88 118 145 185 237 291 338
#
# _framework density 24.644663000000001
#
# number of rings (size 3 to 8) (size 9 to 14) (size 15 to 20)
#    0.750    1.250    2.500    2.625    3.500    0.000 
#    0.000    0.000    0.000    3.000    0.000    0.000 
#    0.000    0.000    0.000    0.000    0.000    0.000 
#
# Total GULP energy -89124.695462 kJ/mol
# GULP energy per Si atom -5570.293466 kJ/mol
# Density = 2.458857 g / cm^3
# Si number density = 24.644663 Si / 1000 Ang^3
#
#
#
# Elastic Constant Matrix: (Units=GPa)
#
#
# Indices 1 2 3 4 5 6 
#
# 1 103.1295 50.6191 20.3604 -16.0254 -33.1601 10.1172
# 2 50.6191 140.0666 32.6885 9.1113 -13.0952 22.7404
# 3 20.3604 32.6885 82.6890 -1.5138 -29.0089 -4.3231
# 4 -16.0254 9.1113 -1.5138 42.8933 2.0995 -14.5228
# 5 -33.1601 -13.0952 -29.0089 2.0995 32.0029 -0.0855
# 6 10.1172 22.7404 -4.3231 -14.5228 -0.0855 52.2934
#
#
#
# Elastic Compliance Matrix: (Units=1/GPa)
#
#
# Indices 1 2 3 4 5 6 
#
# 1 0.021438 -0.008119 0.006826 0.009685 0.024450 0.002677
# 2 -0.008119 0.012292 -0.006383 -0.007623 -0.008686 -0.006433
# 3 0.006826 -0.006383 0.021594 0.005097 0.023712 0.004695
# 4 0.009685 -0.007623 0.005097 0.031903 0.009472 0.010738
# 5 0.024450 -0.008686 0.023712 0.009472 0.073909 0.003759
# 6 0.002677 -0.006433 0.004695 0.010738 0.003759 0.024779
#
#
# Mechanical properties :
#
#
# Convention : Reuss Voigt Hill
#
# Bulk Modulus (GPa) = 25.01878 59.24679 42.13278
# Shear Modulus (GPa) = 23.30019 40.25240 31.77629
#
# Velocity S-wave (km/s) = 3.07815 4.04581 3.59469
# Velocity P-wave (km/s) = 4.77568 6.77623 5.86193
#
# Compressibility (1/GPa) = 0.03996997
#
# Stress axis : x y z
#
# Youngs Moduli (GPa) = 46.64626 81.35674 46.31001
#
# Poissons Ratio (x) = 0.66055 -0.31610
# Poissons Ratio (y) = 0.37873 0.29560
# Poissons Ratio (z) = -0.31839 0.51931
#
# Static dielectric constant tensor:
#      x y z
#    x 1.988480 0.021420 0.098330 
#    y 0.021420 1.933590 -0.003520 
#    z 0.098330 -0.003520 1.859400 
# 
# From -- ./inp_files/342690.got.cif
#   From: 2010.05.17/outbox.cif.g08.bks.cpg/sg2_172_cif.got.tgz:342690.got - 2010.06.03 11:33:40.
