data_PCOD9081779
_publ_section_title
;
Structure prediction by ZEFSAII (Michael W. Deem and Ramdas Pophale) SiO2 
 PCOD9081779
Probable space group: P -1
;
_chemical_formula_sum "Si O2"
_cell_formula_units_Z 14
_cell_length_a 12.184814
_cell_length_b 9.512489
_cell_length_c 8.746282
_cell_angle_alpha 128.400752
_cell_angle_beta 50.531376
_cell_angle_gamma 102.630925
_cell_volume 586.730340
_symmetry_space_group_name_H-M "P -1"
_symmetry_group_IT_number 2
_symmetry_cell_setting 'triclinic'
loop_
_space_group_symop_operation_xyz
x,y,z
-x,-y,-z
loop_
_atom_site_type_symbol
_atom_site_label
_atom_site_fract_x
_atom_site_fract_y
_atom_site_fract_z
Si Si1 0.135792 0.680075 0.892556
Si Si2 0.663040 0.115098 0.996026
Si Si3 0.193219 0.210394 0.781388
Si Si4 0.487473 0.847584 0.530973
Si Si5 0.325069 0.283901 0.331504
Si Si6 0.762165 0.215498 0.446344
Si Si7 0.171441 0.448696 0.267637
O O1 0.216655 0.774002 0.010421
O O2 0.232582 0.468619 0.628845
O O3 0.139303 0.778212 0.788113
O O4 0.965284 0.705380 0.100426
O O5 0.621002 0.075217 0.180554
O O6 0.504263 0.236936 0.152175
O O7 0.712204 0.912787 0.735953
O O8 0.350416 0.224596 0.589160
O O9 0.207980 0.993200 0.657861
O O10 0.188434 0.325413 0.019864
O O11 0.407503 0.717007 0.422376
O O12 0.500000 0.000000 0.500000
O O13 0.272099 0.339374 0.242179
O O14 0.789483 0.355338 0.643254
O O15 0.000000 0.500000 0.500000
#
# Coordination Sequence:
#
# PCOD9081779 Si02
#       7
#     2   2   2   2   2   2   2
#     4  10  19  32  55  82 106 137 184 226 266 314
#     4  10  21  37  58  76 108 147 183 219 267 325
#     4  11  20  33  55  84 114 138 176 228 276 312
#     4   9  19  36  54  80 110 147 180 214 272 330
#     4  10  20  35  56  82 105 142 184 227 264 310
#     4   9  19  32  52  80 110 146 173 219 273 314
#     4  11  20  32  56  86 110 130 184 233 261 318
#
# _framework density 23.861045000000001
#
# number of rings (size 3 to 8) (size 9 to 14) (size 15 to 20)
#    0.000    2.000    2.857    3.429    2.000    0.571 
#    0.000    5.000    0.000    3.429    0.000    0.000 
#    0.000    0.000    0.000    0.000    0.000    0.000 
#
# Total GULP energy -78231.359692 kJ/mol
# GULP energy per Si atom -5587.954264 kJ/mol
# Density = 2.380674 g / cm^3
# Si number density = 23.861045 Si / 1000 Ang^3
#
#
#
# Elastic Constant Matrix: (Units=GPa)
#
#
# Indices 1 2 3 4 5 6 
#
# 1 159.6170 39.5959 50.4839 23.9023 -1.6205 51.7345
# 2 39.5959 60.5885 37.8452 13.1797 -4.7031 25.0469
# 3 50.4839 37.8452 99.4775 38.8061 -1.0294 38.5325
# 4 23.9023 13.1797 38.8061 37.4237 10.3004 8.6702
# 5 -1.6205 -4.7031 -1.0294 10.3004 35.6276 2.1337
# 6 51.7345 25.0469 38.5325 8.6702 2.1337 52.6276
#
#
#
# Elastic Compliance Matrix: (Units=1/GPa)
#
#
# Indices 1 2 3 4 5 6 
#
# 1 0.010261 -0.002421 0.001641 -0.005937 0.002465 -0.009259
# 2 -0.002421 0.024129 -0.005633 -0.000915 0.003474 -0.004969
# 3 0.001641 -0.005633 0.027802 -0.026784 0.008790 -0.015232
# 4 -0.005937 -0.000915 -0.026784 0.060103 -0.019546 0.016773
# 5 0.002465 0.003474 0.008790 -0.019546 0.035066 -0.008715
# 6 -0.009259 -0.004969 -0.015232 0.016773 -0.008715 0.039211
#
#
# Mechanical properties :
#
#
# Convention : Reuss Voigt Hill
#
# Bulk Modulus (GPa) = 20.25655 63.94811 42.10233
# Shear Modulus (GPa) = 22.13831 37.91964 30.02897
#
# Velocity S-wave (km/s) = 3.04929 3.99078 3.55137
# Velocity P-wave (km/s) = 4.57224 6.93495 5.87362
#
# Compressibility (1/GPa) = 0.04936675
#
# Stress axis : x y z
#
# Youngs Moduli (GPa) = 97.45271 41.44467 35.96801
#
# Poissons Ratio (x) = 0.10034 -0.05903
# Poissons Ratio (y) = 0.23593 0.20261
# Poissons Ratio (z) = -0.15994 0.23346
#
# Static dielectric constant tensor:
#      x y z
#    x 1.983660 -0.036410 0.012860 
#    y -0.036410 1.947110 -0.018660 
#    z 0.012860 -0.018660 1.915850 
# 
# From -- ./inp_files/383374.got.cif
#   From: 2010.05.17/outbox.cif.g08.bks.cpg/sg2_192_cif.got.tgz:383374.got - 2010.06.03 11:33:40.
