data_PCOD9081099
_publ_section_title
;
Structure prediction by ZEFSAII (Michael W. Deem and Ramdas Pophale) SiO2 
 PCOD9081099
Probable space group: P -1
;
_chemical_formula_sum "Si O2"
_cell_formula_units_Z 16
_cell_length_a 11.443338
_cell_length_b 13.908546
_cell_length_c 13.459377
_cell_angle_alpha 21.475122
_cell_angle_beta 100.077761
_cell_angle_gamma 104.825885
_cell_volume 745.982256
_symmetry_space_group_name_H-M "P -1"
_symmetry_group_IT_number 2
_symmetry_cell_setting 'triclinic'
loop_
_space_group_symop_operation_xyz
x,y,z
-x,-y,-z
loop_
_atom_site_type_symbol
_atom_site_label
_atom_site_fract_x
_atom_site_fract_y
_atom_site_fract_z
Si Si1 0.416977 0.695684 0.768991
Si Si2 0.266570 0.462079 0.661175
Si Si3 0.055847 0.266978 0.687322
Si Si4 0.501819 0.326714 0.407394
Si Si5 0.339468 0.722592 0.941882
Si Si6 0.056821 0.746419 0.638669
Si Si7 0.842177 0.071761 0.713732
Si Si8 0.913504 0.173327 0.198739
O O1 0.401673 0.634528 0.708843
O O2 0.322096 0.666646 0.873431
O O3 0.500000 0.000000 0.500000
O O4 0.500000 0.500000 0.000000
O O5 0.200297 0.361547 0.642544
O O6 0.413290 0.544874 0.611165
O O7 0.224728 0.727006 0.434732
O O8 0.209835 0.219605 0.963916
O O9 0.000000 0.500000 0.500000
O O10 0.987993 0.189053 0.647847
O O11 0.000000 0.000000 0.000000
O O12 0.439838 0.005810 0.707251
O O13 0.396398 0.483602 0.220709
O O14 0.212472 0.775145 0.909504
O O15 0.164697 0.899939 0.433066
O O16 0.085475 0.792448 0.714661
O O17 0.944660 0.885869 0.468204
O O18 0.019309 0.421952 0.930231
#
# Coordination Sequence:
#
# PCOD9081099 Si02
#       8
#     2   2   2   2   2   2   2   2
#     4   8  16  28  40  60  89 118 154 188 215 274
#     4  10  19  31  50  78 106 128 156 196 240 301
#     4   8  16  30  48  72 101 127 155 192 242 300
#     4  10  19  31  46  73  97 127 164 187 233 305
#     4  10  19  33  48  65  96 132 161 199 243 276
#     4  10  21  36  51  73  93 125 174 211 242 288
#     4  10  19  33  52  74 101 132 159 198 252 292
#     4  10  21  36  51  69  97 127 170 216 243 269
#
# _framework density 21.448232999999998
#
# number of rings (size 3 to 8) (size 9 to 14) (size 15 to 20)
#    0.000    2.500    0.000    2.250    1.750    0.000 
#    6.750    0.000    0.000    0.000    0.000    5.250 
#    0.000    0.000    0.000    0.000    0.000    0.000 
#
# Total GULP energy -89106.791637 kJ/mol
# GULP energy per Si atom -5569.174477 kJ/mol
# Density = 2.139942 g / cm^3
# Si number density = 21.448233 Si / 1000 Ang^3
#
#
#
# Elastic Constant Matrix: (Units=GPa)
#
#
# Indices 1 2 3 4 5 6 
#
# 1 44.2815 2.2454 0.8091 1.2895 18.8063 9.6584
# 2 2.2454 42.8008 9.1795 -4.6728 -0.0798 17.1956
# 3 0.8091 9.1795 104.3847 -13.2080 17.8452 -1.0072
# 4 1.2895 -4.6728 -13.2080 19.1797 2.6015 -1.3816
# 5 18.8063 -0.0798 17.8452 2.6015 22.3575 3.9995
# 6 9.6584 17.1956 -1.0072 -1.3816 3.9995 18.0988
#
#
#
# Elastic Compliance Matrix: (Units=1/GPa)
#
#
# Indices 1 2 3 4 5 6 
#
# 1 0.041994 0.003689 0.006590 0.006626 -0.038379 -0.016562
# 2 0.003689 0.042458 -0.005537 0.001826 0.009218 -0.044514
# 3 0.006590 -0.005537 0.015100 0.011957 -0.020441 0.008014
# 4 0.006626 0.001826 0.011957 0.063958 -0.023533 0.005477
# 5 -0.038379 0.009218 -0.020441 -0.023533 0.098416 -0.012959
# 6 -0.016562 -0.044514 0.008014 0.005477 -0.012959 0.110110
#
#
# Mechanical properties :
#
#
# Convention : Reuss Voigt Hill
#
# Bulk Modulus (GPa) = 9.17112 23.99277 16.58195
# Shear Modulus (GPa) = 12.53452 23.87608 18.20530
#
# Velocity S-wave (km/s) = 2.42008 3.34008 2.91658
# Velocity P-wave (km/s) = 3.47768 5.10739 4.36919
#
# Compressibility (1/GPa) = 0.10903789
#
# Stress axis : x y z
#
# Youngs Moduli (GPa) = 23.81274 23.55251 66.22341
#
# Poissons Ratio (x) = -0.08689 -0.43640
# Poissons Ratio (y) = -0.08785 0.36665
# Poissons Ratio (z) = -0.15692 0.13040
#
# Static dielectric constant tensor:
#      x y z
#    x 1.831710 0.025900 -0.011160 
#    y 0.025900 1.845170 0.034820 
#    z -0.011160 0.034820 1.750050 
# 
# From -- ./inp_files/441834.got.cif
#   From: 2010.05.17/outbox.cif.g08.bks.cpg/sg2_221_cif.got.tgz:441834.got - 2010.06.03 11:33:40.
