data_PCOD9081536
_publ_section_title
;
Structure prediction by ZEFSAII (Michael W. Deem and Ramdas Pophale) SiO2 
 PCOD9081536
Probable space group: P -1
;
_chemical_formula_sum "Si O2"
_cell_formula_units_Z 14
_cell_length_a 9.163283
_cell_length_b 15.296560
_cell_length_c 12.272187
_cell_angle_alpha 41.700717
_cell_angle_beta 30.199382
_cell_angle_gamma 53.388181
_cell_volume 569.420784
_symmetry_space_group_name_H-M "P -1"
_symmetry_group_IT_number 2
_symmetry_cell_setting 'triclinic'
loop_
_space_group_symop_operation_xyz
x,y,z
-x,-y,-z
loop_
_atom_site_type_symbol
_atom_site_label
_atom_site_fract_x
_atom_site_fract_y
_atom_site_fract_z
Si Si1 0.664120 0.192820 0.403247
Si Si2 0.969396 0.689597 0.566656
Si Si3 0.594001 0.865145 0.022867
Si Si4 0.027620 0.251246 0.727449
Si Si5 0.788542 0.402575 0.304290
Si Si6 0.373738 0.109992 0.268336
Si Si7 0.882187 0.663997 0.175177
O O1 0.314317 0.182030 0.626072
O O2 0.758605 0.258331 0.399274
O O3 0.721661 0.041629 0.491726
O O4 0.813596 0.305108 0.118944
O O5 0.911261 0.663372 0.502009
O O6 0.757832 0.783795 0.669955
O O7 0.292825 0.770242 0.286238
O O8 0.028790 0.577566 0.718521
O O9 0.763580 0.791453 0.071787
O O10 0.724648 0.881085 0.802258
O O11 0.500000 0.000000 0.000000
O O12 0.008060 0.331003 0.776634
O O13 0.726538 0.150045 0.005063
O O14 0.448238 0.423199 0.515681
O O15 0.000000 0.500000 0.000000
#
# Coordination Sequence:
#
# PCOD9081536 Si02
#       7
#     2   2   2   2   2   2   2
#     4  11  22  37  59  86 118 155 192 232 282 337
#     4  10  21  36  58  85 115 150 187 233 287 340
#     4  10  19  32  51  79 114 148 188 232 275 331
#     4  10  22  37  55  87 126 155 184 225 282 350
#     4  10  23  43  63  83 109 146 197 248 288 332
#     4  11  21  35  58  88 121 155 188 227 280 343
#     4  10  21  37  57  84 115 151 192 233 283 338
#
# _framework density 24.586386999999998
#
# number of rings (size 3 to 8) (size 9 to 14) (size 15 to 20)
#    0.000    1.714    0.000    5.571    0.000    8.000 
#    0.000    2.857    0.000    5.143    0.000    0.000 
#    0.000    0.000    0.000    0.000    0.000    0.000 
#
# Total GULP energy -78007.402135 kJ/mol
# GULP energy per Si atom -5571.957295 kJ/mol
# Density = 2.453043 g / cm^3
# Si number density = 24.586387 Si / 1000 Ang^3
#
#
#
# Elastic Constant Matrix: (Units=GPa)
#
#
# Indices 1 2 3 4 5 6 
#
# 1 129.5655 -31.8923 26.2626 13.9247 11.2500 9.8750
# 2 -31.8923 -55.9142 8.6463 38.4684 -40.0959 -1.0036
# 3 26.2626 8.6463 172.2639 3.4342 -3.9522 -1.2838
# 4 13.9247 38.4684 3.4342 22.5264 9.4486 2.2121
# 5 11.2500 -40.0959 -3.9522 9.4486 47.7158 15.2388
# 6 9.8750 -1.0036 -1.2838 2.2121 15.2388 27.8353
#
#
#
# Elastic Compliance Matrix: (Units=1/GPa)
#
#
# Indices 1 2 3 4 5 6 
#
# 1 0.007803 -0.002012 -0.001179 0.000300 -0.003339 -0.001091
# 2 -0.002012 -0.004430 0.000182 0.011182 -0.006475 0.003219
# 3 -0.001179 0.000182 0.006021 -0.000962 0.001055 0.000201
# 4 0.000300 0.011182 -0.000962 0.023121 0.006269 -0.005018
# 5 -0.003339 -0.006475 0.001055 0.006269 0.018165 -0.009443
# 6 -0.001091 0.003219 0.000201 -0.005018 -0.009443 0.042006
#
#
# Mechanical properties :
#
#
# Convention : Reuss Voigt Hill
#
# Bulk Modulus (GPa) = 296.42413 27.99428 162.20921
# Shear Modulus (GPa) = 50.08507 35.80872 42.94689
#
# Velocity S-wave (km/s) = 4.51833 3.82048 4.18398
# Velocity P-wave (km/s) = 12.16743 5.55628 9.45829
#
# Compressibility (1/GPa) = 0.00337354
#
# Stress axis : x y z
#
# Youngs Moduli (GPa) = 128.16127 -225.72252 166.09626
#
# Poissons Ratio (x) = -0.45417 0.19588
# Poissons Ratio (y) = 0.25787 -0.03017
# Poissons Ratio (z) = 0.15114 0.04100
#
# Static dielectric constant tensor:
#      x y z
#    x 1.994220 0.011660 0.005690 
#    y 0.011660 1.905690 -0.006920 
#    z 0.005690 -0.006920 2.041100 
# 
# From -- ./inp_files/335472.got.cif
#   From: 2010.05.17/outbox.cif.g08.bks.cpg/sg2_168_cif.got.tgz:335472.got - 2010.06.03 11:33:40.
