data_PCOD9081326
_publ_section_title
;
Structure prediction by ZEFSAII (Michael W. Deem and Ramdas Pophale) SiO2 
 PCOD9081326
Probable space group: P -1
;
_chemical_formula_sum "Si O2"
_cell_formula_units_Z 16
_cell_length_a 8.935309
_cell_length_b 12.090958
_cell_length_c 16.848934
_cell_angle_alpha 50.202951
_cell_angle_beta 93.259945
_cell_angle_gamma 134.863855
_cell_volume 683.049154
_symmetry_space_group_name_H-M "P -1"
_symmetry_group_IT_number 2
_symmetry_cell_setting 'triclinic'
loop_
_space_group_symop_operation_xyz
x,y,z
-x,-y,-z
loop_
_atom_site_type_symbol
_atom_site_label
_atom_site_fract_x
_atom_site_fract_y
_atom_site_fract_z
Si Si1 0.594697 0.235660 0.043605
Si Si2 0.162346 0.279777 0.904270
Si Si3 0.913884 0.223031 0.455935
Si Si4 0.734715 0.584137 0.764956
Si Si5 0.891528 0.187307 0.092797
Si Si6 0.619396 0.901547 0.368479
Si Si7 0.225080 0.825991 0.361659
Si Si8 0.260969 0.599870 0.641218
O O1 0.845039 0.526424 0.973524
O O2 0.308135 0.970914 0.215350
O O3 0.574367 0.315643 0.928292
O O4 0.718851 0.180368 0.054387
O O5 0.522677 0.543679 0.789962
O O6 0.047056 0.225398 0.012261
O O7 0.100587 0.354675 0.806321
O O8 0.000000 0.000000 0.000000
O O9 0.892504 0.172482 0.571885
O O10 0.923382 0.405288 0.367308
O O11 0.184230 0.381079 0.339874
O O12 0.589673 0.911596 0.548717
O O13 0.062122 0.871394 0.685624
O O14 0.659072 0.908269 0.272985
O O15 0.540505 0.008907 0.317336
O O16 0.359889 0.622648 0.547006
O O17 0.000000 0.500000 0.500000
#
# Coordination Sequence:
#
# PCOD9081326 Si02
#       8
#     2   2   2   2   2   2   2   2
#     4   9  18  36  64  86 105 146 199 248 283 326
#     4  12  26  38  52  84 128 162 185 225 291 355
#     4   9  18  36  64  86 105 146 199 248 283 326
#     4  10  21  36  56  84 112 150 196 229 280 345
#     4   9  18  38  62  83 110 147 198 244 281 334
#     4   8  18  35  58  82 104 138 190 242 280 328
#     4  10  19  31  54  90 118 136 176 242 302 336
#     4   9  18  38  62  83 110 147 198 244 281 334
#
# _framework density 23.424375000000001
#
# number of rings (size 3 to 8) (size 9 to 14) (size 15 to 20)
#    0.000    2.500    0.000    3.000    0.000   10.000 
#    0.000    3.750    0.000    0.000    0.000    0.000 
#    0.000    0.000    0.000    0.000    0.000    0.000 
#
# Total GULP energy -89382.794556 kJ/mol
# GULP energy per Si atom -5586.424660 kJ/mol
# Density = 2.337106 g / cm^3
# Si number density = 23.424375 Si / 1000 Ang^3
#
#
#
# Elastic Constant Matrix: (Units=GPa)
#
#
# Indices 1 2 3 4 5 6 
#
# 1 63.5424 26.2630 15.8945 15.0401 -29.2587 -14.8185
# 2 26.2630 54.7700 24.8666 17.8775 -19.4369 -16.4192
# 3 15.8945 24.8666 98.1651 23.8686 -33.1549 -20.6239
# 4 15.0401 17.8775 23.8686 46.3690 -17.5025 -17.5543
# 5 -29.2587 -19.4369 -33.1549 -17.5025 32.7741 8.8052
# 6 -14.8185 -16.4192 -20.6239 -17.5543 8.8052 29.8218
#
#
#
# Elastic Compliance Matrix: (Units=1/GPa)
#
#
# Indices 1 2 3 4 5 6 
#
# 1 0.033918 -0.005688 0.009475 0.004409 0.035520 0.012383
# 2 -0.005688 0.026921 -0.001753 -0.002625 0.005682 0.007561
# 3 0.009475 -0.001753 0.019424 0.000877 0.024747 0.010385
# 4 0.004409 -0.002625 0.000877 0.032970 0.016614 0.015854
# 5 0.035520 0.005682 0.024747 0.016614 0.094160 0.019870
# 6 0.012383 0.007561 0.010385 0.015854 0.019870 0.054496
#
#
# Mechanical properties :
#
#
# Convention : Reuss Voigt Hill
#
# Bulk Modulus (GPa) = 11.85792 38.94728 25.40260
# Shear Modulus (GPa) = 17.48687 31.75656 24.62171
#
# Velocity S-wave (km/s) = 2.73522 3.68599 3.24561
# Velocity P-wave (km/s) = 3.87924 5.89731 4.99133
#
# Compressibility (1/GPa) = 0.08433186
#
# Stress axis : x y z
#
# Youngs Moduli (GPa) = 29.48314 37.14552 51.48389
#
# Poissons Ratio (x) = 0.21127 -0.48781
# Poissons Ratio (y) = 0.16769 0.09024
# Poissons Ratio (z) = -0.27935 0.06511
#
# Static dielectric constant tensor:
#      x y z
#    x 1.910460 0.090030 -0.061970 
#    y 0.090030 1.973790 -0.051170 
#    z -0.061970 -0.051170 1.948370 
# 
# From -- ./inp_files/332357.got.cif
#   From: 2010.05.17/outbox.cif.g08.bks.cpg/sg2_167_cif.got.tgz:332357.got - 2010.06.03 11:33:40.
