data_PCOD9081119
_publ_section_title
;
Structure prediction by ZEFSAII (Michael W. Deem and Ramdas Pophale) SiO2 
 PCOD9081119
Probable space group: P -1
;
_chemical_formula_sum "Si O2"
_cell_formula_units_Z 16
_cell_length_a 15.205237
_cell_length_b 11.252176
_cell_length_c 5.589840
_cell_angle_alpha 111.184416
_cell_angle_beta 85.804793
_cell_angle_gamma 133.668209
_cell_volume 622.602331
_symmetry_space_group_name_H-M "P -1"
_symmetry_group_IT_number 2
_symmetry_cell_setting 'triclinic'
loop_
_space_group_symop_operation_xyz
x,y,z
-x,-y,-z
loop_
_atom_site_type_symbol
_atom_site_label
_atom_site_fract_x
_atom_site_fract_y
_atom_site_fract_z
Si Si1 0.043323 0.895797 0.369361
Si Si2 0.709082 0.460411 0.401733
Si Si3 0.448485 0.301728 0.401733
Si Si4 0.884421 0.977325 0.053414
Si Si5 0.350856 0.875963 0.401620
Si Si6 0.210336 0.459133 0.055111
Si Si7 0.622481 0.714646 0.094569
Si Si8 0.647930 0.112942 0.089268
O O1 0.081986 0.898328 0.634075
O O2 0.927948 0.692539 0.143417
O O3 0.000000 0.000000 0.500000
O O4 0.134927 0.990930 0.189077
O O5 0.571822 0.345240 0.452560
O O6 0.797301 0.592284 0.700526
O O7 0.720236 0.322774 0.246704
O O8 0.716284 0.527574 0.181537
O O9 0.500000 0.500000 0.500000
O O10 0.367006 0.215921 0.594610
O O11 0.403388 0.224057 0.086937
O O12 0.752921 0.784274 0.038148
O O13 0.000000 0.000000 0.000000
O O14 0.277810 0.665907 0.233856
O O15 0.318089 0.909610 0.679292
O O16 0.500000 0.000000 0.500000
O O17 0.322757 0.919070 0.192787
O O18 0.500000 0.500000 0.000000
O O19 0.500000 0.000000 0.000000
#
# Coordination Sequence:
#
# PCOD9081119 Si02
#       8
#     2   2   2   2   2   2   2   2
#     4  10  21  32  46  68  95 131 175 214 250 300
#     4  10  19  31  48  71 100 136 172 208 254 309
#     4  10  21  32  46  68  95 131 175 214 250 300
#     4  10  21  36  52  70  93 128 176 225 261 297
#     4   8  14  25  42  65  94 129 157 193 253 316
#     4  10  19  31  48  71 100 136 172 208 254 309
#     4  10  21  36  52  70  93 128 176 225 261 297
#     4   8  14  25  42  65  94 129 157 193 253 316
#
# _framework density 25.698585000000001
#
# number of rings (size 3 to 8) (size 9 to 14) (size 15 to 20)
#    0.000    2.500    0.000    2.250    0.000   12.000 
#    0.000    0.000    0.000    0.000    0.000    0.000 
#    0.000    0.000    0.000  360.000    0.000    0.000 
#
# Total GULP energy -89108.333141 kJ/mol
# GULP energy per Si atom -5569.270821 kJ/mol
# Density = 2.564009 g / cm^3
# Si number density = 25.698585 Si / 1000 Ang^3
#
#
#
# Elastic Constant Matrix: (Units=GPa)
#
#
# Indices 1 2 3 4 5 6 
#
# 1 33.6844 26.5285 43.2225 -3.4690 3.2659 0.5199
# 2 26.5285 148.4398 86.5906 -14.8743 -6.0892 12.4313
# 3 43.2225 86.5906 331.9155 -45.1068 26.4832 -14.6377
# 4 -3.4690 -14.8743 -45.1068 77.5231 -12.3387 -1.5873
# 5 3.2659 -6.0892 26.4832 -12.3387 39.3640 1.5726
# 6 0.5199 12.4313 -14.6377 -1.5873 1.5726 29.5417
#
#
#
# Elastic Compliance Matrix: (Units=1/GPa)
#
#
# Indices 1 2 3 4 5 6 
#
# 1 0.038453 -0.004825 -0.003864 -0.001762 -0.001867 -0.000556
# 2 -0.004825 0.009637 -0.002323 0.000796 0.003915 -0.005287
# 3 -0.003864 -0.002323 0.004749 0.001769 -0.002825 0.003644
# 4 -0.001762 0.000796 0.001769 0.014601 0.003609 0.001165
# 5 -0.001867 0.003915 -0.002825 0.003609 0.029371 -0.004384
# 6 -0.000556 -0.005287 0.003644 0.001165 -0.004384 0.038187
#
#
# Mechanical properties :
#
#
# Convention : Reuss Voigt Hill
#
# Bulk Modulus (GPa) = 32.45125 91.85809 62.15467
# Shear Modulus (GPa) = 29.88763 53.13230 41.50997
#
# Velocity S-wave (km/s) = 3.41399 4.55193 4.02339
# Velocity P-wave (km/s) = 5.30994 7.96547 6.76920
#
# Compressibility (1/GPa) = 0.03081546
#
# Stress axis : x y z
#
# Youngs Moduli (GPa) = 26.00576 103.76185 210.59054
#
# Poissons Ratio (x) = 0.50064 0.81364
# Poissons Ratio (y) = 0.12548 0.48926
# Poissons Ratio (z) = 0.10048 0.24107
#
# Static dielectric constant tensor:
#      x y z
#    x 2.043690 -0.036890 0.118520 
#    y -0.036890 2.069070 -0.066240 
#    z 0.118520 -0.066240 2.093640 
# 
# From -- ./inp_files/119938.got.cif
#   From: 2010.05.17/outbox.cif.g08.bks.cpg/sg2_60_cif.got.tgz:119938.got - 2010.06.03 11:33:40.
