data_PCOD9081912
_publ_section_title
;
Structure prediction by ZEFSAII (Michael W. Deem and Ramdas Pophale) SiO2 
 PCOD9081912
Probable space group: P -1
;
_chemical_formula_sum "Si O2"
_cell_formula_units_Z 14
_cell_length_a 14.976546
_cell_length_b 7.771692
_cell_length_c 12.816588
_cell_angle_alpha 45.993805
_cell_angle_beta 149.909517
_cell_angle_gamma 134.785990
_cell_volume 515.386565
_symmetry_space_group_name_H-M "P -1"
_symmetry_group_IT_number 2
_symmetry_cell_setting 'triclinic'
loop_
_space_group_symop_operation_xyz
x,y,z
-x,-y,-z
loop_
_atom_site_type_symbol
_atom_site_label
_atom_site_fract_x
_atom_site_fract_y
_atom_site_fract_z
Si Si1 0.700851 0.212769 0.591488
Si Si2 0.678976 0.937456 0.486438
Si Si3 0.556381 0.674332 0.201995
Si Si4 0.751589 0.518788 0.870215
Si Si5 0.178913 0.381750 0.874163
Si Si6 0.241256 0.895957 0.075994
Si Si7 0.142684 0.897673 0.623609
O O1 0.673386 0.477983 0.421807
O O2 0.500000 0.000000 0.500000
O O3 0.778352 0.119388 0.605398
O O4 0.798589 0.214820 0.800472
O O5 0.700236 0.676132 0.659568
O O6 0.789797 0.005277 0.463602
O O7 0.466742 0.959101 0.263850
O O8 0.442581 0.641312 0.208551
O O9 0.674292 0.956792 0.185219
O O10 0.396611 0.552624 0.008480
O O11 0.846452 0.318148 0.006026
O O12 0.834397 0.678636 0.989242
O O13 0.081187 0.599962 0.674892
O O14 0.169209 0.139568 0.898848
O O15 0.000000 0.000000 0.500000
#
# Coordination Sequence:
#
# PCOD9081912 Si02
#       7
#     2   2   2   2   2   2   2
#     4  10  15  30  61 101 119 134 192 275 308 335
#     4  11  17  36  59  93 121 154 196 248 306 353
#     4  10  18  37  64  87 120 150 203 252 297 342
#     4  10  18  33  67  98 109 148 199 266 304 336
#     4  10  21  40  60  93 123 146 205 262 292 347
#     4  11  16  31  64  99 120 136 195 267 312 332
#     4  12  27  41  55  82 131 176 197 227 301 378
#
# _framework density 27.164075
#
# number of rings (size 3 to 8) (size 9 to 14) (size 15 to 20)
#    0.857    0.571    8.571    1.714    0.000    0.571 
#    2.571    1.429    0.000    1.714    0.000    0.000 
#    0.000    0.000    0.000    0.000    0.000    0.000 
#
# Total GULP energy -78248.281241 kJ/mol
# GULP energy per Si atom -5589.162946 kJ/mol
# Density = 2.710225 g / cm^3
# Si number density = 27.164075 Si / 1000 Ang^3
#
#
#
# Elastic Constant Matrix: (Units=GPa)
#
#
# Indices 1 2 3 4 5 6 
#
# 1 151.9756 37.9444 63.3487 -27.5409 34.6830 -8.1540
# 2 37.9444 121.7710 50.9092 -27.4540 25.7504 -18.9590
# 3 63.3487 50.9092 95.4333 -35.9089 20.7594 12.6072
# 4 -27.5409 -27.4540 -35.9089 56.9466 -6.9252 10.4881
# 5 34.6830 25.7504 20.7594 -6.9252 39.5136 -14.4641
# 6 -8.1540 -18.9590 12.6072 10.4881 -14.4641 51.0230
#
#
#
# Elastic Compliance Matrix: (Units=1/GPa)
#
#
# Indices 1 2 3 4 5 6 
#
# 1 0.010450 0.000981 -0.006237 0.000556 -0.005769 0.001826
# 2 0.000981 0.012584 -0.007206 0.000585 -0.003120 0.005609
# 3 -0.006237 -0.007206 0.026449 0.012039 -0.006982 -0.014664
# 4 0.000556 0.000585 0.012039 0.026783 -0.006128 -0.009911
# 5 -0.005769 -0.003120 -0.006982 -0.006128 0.039421 0.012079
# 6 0.001826 0.005609 -0.014664 -0.009911 0.012079 0.031059
#
#
# Mechanical properties :
#
#
# Convention : Reuss Voigt Hill
#
# Bulk Modulus (GPa) = 40.71968 74.84272 57.78120
# Shear Modulus (GPa) = 27.79972 43.96182 35.88077
#
# Velocity S-wave (km/s) = 3.20253 4.02727 3.63835
# Velocity P-wave (km/s) = 5.35703 7.01692 6.24239
#
# Compressibility (1/GPa) = 0.02455815
#
# Stress axis : x y z
#
# Youngs Moduli (GPa) = 95.69045 79.46499 37.80870
#
# Poissons Ratio (x) = -0.07795 0.23582
# Poissons Ratio (y) = -0.09386 0.27246
# Poissons Ratio (z) = 0.59684 0.57265
#
# Static dielectric constant tensor:
#      x y z
#    x 2.071270 -0.010640 0.017770 
#    y -0.010640 2.262240 0.147200 
#    z 0.017770 0.147200 2.267170 
# 
# From -- ./inp_files/527190.got.cif
#   From: 2010.05.17/outbox.cif.g08.bks.cpg/sg2_264_cif.got.tgz:527190.got - 2010.06.03 11:33:40.
