data_PCOD9081450
_publ_section_title
;
Structure prediction by ZEFSAII (Michael W. Deem and Ramdas Pophale) SiO2 
 PCOD9081450
Probable space group: P -1
;
_chemical_formula_sum "Si O2"
_cell_formula_units_Z 16
_cell_length_a 9.966561
_cell_length_b 16.257902
_cell_length_c 8.771169
_cell_angle_alpha 141.660074
_cell_angle_beta 77.643286
_cell_angle_gamma 119.635505
_cell_volume 725.379458
_symmetry_space_group_name_H-M "P -1"
_symmetry_group_IT_number 2
_symmetry_cell_setting 'triclinic'
loop_
_space_group_symop_operation_xyz
x,y,z
-x,-y,-z
loop_
_atom_site_type_symbol
_atom_site_label
_atom_site_fract_x
_atom_site_fract_y
_atom_site_fract_z
Si Si1 0.839210 0.016551 0.897403
Si Si2 0.738818 0.646979 0.858314
Si Si3 0.777096 0.840483 0.382011
Si Si4 0.979352 0.413969 0.185971
Si Si5 0.573617 0.360831 0.677142
Si Si6 0.758416 0.261168 0.283254
Si Si7 0.827219 0.736732 0.651299
Si Si8 0.873360 0.609485 0.156465
O O1 0.733972 0.092501 0.059388
O O2 0.008569 0.137701 0.115141
O O3 0.858488 0.002554 0.690007
O O4 0.776241 0.845833 0.736308
O O5 0.892570 0.628056 0.831247
O O6 0.590996 0.505071 0.784271
O O7 0.710380 0.634648 0.668555
O O8 0.769764 0.808774 0.157957
O O9 0.593951 0.746840 0.354365
O O10 0.863220 0.752478 0.295422
O O11 0.077331 0.599636 0.469156
O O12 0.810250 0.318683 0.179249
O O13 0.978367 0.382638 0.960238
O O14 0.618493 0.270654 0.413859
O O15 0.715964 0.449868 0.898487
O O16 0.860112 0.637937 0.377758
#
# Coordination Sequence:
#
# PCOD9081450 Si02
#       8
#     2   2   2   2   2   2   2   2
#     4  10  20  32  47  72 108 133 153 197 244 310
#     4   9  16  31  55  75  95 121 167 217 238 278
#     4   9  18  33  50  76  97 130 166 200 244 280
#     4   8  15  30  52  74  96 117 169 211 244 275
#     4   9  18  33  55  73  96 127 169 209 235 278
#     4   9  16  30  52  72  96 129 163 204 238 285
#     4  10  19  32  48  78 102 128 158 196 263 290
#     4   8  16  31  50  75  97 122 157 212 245 278
#
# _framework density 22.057421000000001
#
# number of rings (size 3 to 8) (size 9 to 14) (size 15 to 20)
#    0.000    3.500    1.250    1.500    0.000    1.000 
#    4.500    8.125    0.000    0.750    0.000    0.000 
#    0.000    0.000    0.000    0.000    0.000    0.000 
#
# Total GULP energy -89135.100007 kJ/mol
# GULP energy per Si atom -5570.943750 kJ/mol
# Density = 2.200722 g / cm^3
# Si number density = 22.057421 Si / 1000 Ang^3
#
#
#
# Elastic Constant Matrix: (Units=GPa)
#
#
# Indices 1 2 3 4 5 6 
#
# 1 27.1833 23.5688 34.8084 -5.4167 -9.9441 3.3195
# 2 23.5688 83.2185 45.6079 -26.6907 -0.5313 12.4154
# 3 34.8084 45.6079 187.2782 -38.1551 -19.5916 5.5082
# 4 -5.4167 -26.6907 -38.1551 45.5637 1.3555 -2.3360
# 5 -9.9441 -0.5313 -19.5916 1.3555 30.0780 -4.2029
# 6 3.3195 12.4154 5.5082 -2.3360 -4.2029 25.8706
#
#
#
# Elastic Compliance Matrix: (Units=1/GPa)
#
#
# Indices 1 2 3 4 5 6 
#
# 1 0.067093 -0.018040 -0.008397 -0.009947 0.017367 0.003760
# 2 -0.018040 0.021789 -0.000445 0.010041 -0.007490 -0.008357
# 3 -0.008397 -0.000445 0.008430 0.005747 0.002507 0.000423
# 4 -0.009947 0.010041 0.005747 0.031383 -0.001077 -0.002107
# 5 0.017367 -0.007490 0.002507 -0.001077 0.041584 0.007491
# 6 0.003760 -0.008357 0.000423 -0.002107 0.007491 0.043119
#
#
# Mechanical properties :
#
#
# Convention : Reuss Voigt Hill
#
# Bulk Modulus (GPa) = 22.96412 56.18338 39.57375
# Shear Modulus (GPa) = 17.75066 33.21545 25.48306
#
# Velocity S-wave (km/s) = 2.83989 3.88475 3.40267
# Velocity P-wave (km/s) = 4.60293 6.75637 5.78080
#
# Compressibility (1/GPa) = 0.04354619
#
# Stress axis : x y z
#
# Youngs Moduli (GPa) = 14.90458 45.89413 118.63095
#
# Poissons Ratio (x) = 0.82794 0.99619
# Poissons Ratio (y) = 0.26888 0.05284
# Poissons Ratio (z) = 0.12516 0.02044
#
# Static dielectric constant tensor:
#      x y z
#    x 1.842750 -0.016050 0.011230 
#    y -0.016050 1.910590 -0.023770 
#    z 0.011230 -0.023770 1.889060 
# 
# From -- ./inp_files/318814.got.cif
#   From: 2010.05.17/outbox.cif.g08.bks.cpg/sg2_160_cif.got.tgz:318814.got - 2010.06.03 11:33:40.
