data_PCOD9081820
_publ_section_title
;
Structure prediction by ZEFSAII (Michael W. Deem and Ramdas Pophale) SiO2 
 PCOD9081820
Probable space group: P -1
;
_chemical_formula_sum "Si O2"
_cell_formula_units_Z 16
_cell_length_a 7.883071
_cell_length_b 11.274452
_cell_length_c 17.077269
_cell_angle_alpha 154.716411
_cell_angle_beta 93.340731
_cell_angle_gamma 78.742082
_cell_volume 609.910212
_symmetry_space_group_name_H-M "P -1"
_symmetry_group_IT_number 2
_symmetry_cell_setting 'triclinic'
loop_
_space_group_symop_operation_xyz
x,y,z
-x,-y,-z
loop_
_atom_site_type_symbol
_atom_site_label
_atom_site_fract_x
_atom_site_fract_y
_atom_site_fract_z
Si Si1 0.608754 0.163753 0.881779
Si Si2 0.632789 0.168544 0.305929
Si Si3 0.000528 0.320247 0.759008
Si Si4 0.585941 0.302362 0.210532
Si Si5 0.366511 0.330149 0.696992
Si Si6 0.983964 0.103148 0.843173
Si Si7 0.829407 0.855671 0.827308
Si Si8 0.838447 0.340878 0.605470
O O1 0.783620 0.169250 0.840379
O O2 0.438001 0.075488 0.798328
O O3 0.707143 0.861247 0.752183
O O4 0.572259 0.448662 0.109205
O O5 0.500000 0.500000 0.500000
O O6 0.646712 0.127962 0.188300
O O7 0.832761 0.146493 0.325886
O O8 0.182191 0.315011 0.716705
O O9 0.853016 0.362053 0.712755
O O10 0.054924 0.002992 0.610787
O O11 0.961018 0.606135 0.981218
O O12 0.660286 0.543465 0.316560
O O13 0.373744 0.503550 0.326761
O O14 0.679537 0.045240 0.997153
O O15 0.500000 0.000000 0.500000
O O16 0.950350 0.022187 0.886227
O O17 0.928455 0.550903 0.688601
#
# Coordination Sequence:
#
# PCOD9081820 Si02
#       8
#     2   2   2   2   2   2   2   2
#     4   8  20  37  55  88 116 147 189 242 301 329
#     4  12  25  39  61  83 109 161 210 242 281 332
#     4  10  21  30  49  88 119 151 177 218 301 370
#     4  11  20  33  55  84 118 151 184 241 292 343
#     4  10  19  32  55  89 122 151 177 230 307 371
#     4   9  21  38  58  83 115 147 189 246 292 354
#     4   9  19  34  56  86 114 147 175 241 318 340
#     4  11  20  29  51  86 126 147 181 226 288 375
#
# _framework density 26.233371999999999
#
# number of rings (size 3 to 8) (size 9 to 14) (size 15 to 20)
#    0.750    1.250    3.750    1.125    7.000    1.500 
#    0.000    0.000    0.000    1.500    0.000    0.000 
#    0.000    0.000    0.000    0.000    0.000    0.000 
#
# Total GULP energy -89079.906171 kJ/mol
# GULP energy per Si atom -5567.494136 kJ/mol
# Density = 2.617366 g / cm^3
# Si number density = 26.233372 Si / 1000 Ang^3
#
#
#
# Elastic Constant Matrix: (Units=GPa)
#
#
# Indices 1 2 3 4 5 6 
#
# 1 95.2757 -0.3129 45.8737 -7.4379 -20.8813 1.0783
# 2 -0.3129 80.2076 9.6988 29.6364 10.4043 1.6441
# 3 45.8737 9.6988 137.0563 34.2015 0.2690 10.8605
# 4 -7.4379 29.6364 34.2015 40.7419 8.5202 1.6484
# 5 -20.8813 10.4043 0.2690 8.5202 36.5067 1.5928
# 6 1.0783 1.6441 10.8605 1.6484 1.5928 19.3040
#
#
#
# Elastic Compliance Matrix: (Units=1/GPa)
#
#
# Indices 1 2 3 4 5 6 
#
# 1 0.017385 -0.004376 -0.008668 0.011774 0.008394 0.002580
# 2 -0.004376 0.018934 0.004715 -0.017664 -0.003715 -0.002206
# 3 -0.008668 0.004715 0.014480 -0.016427 -0.002292 -0.006472
# 4 0.011774 -0.017664 -0.016427 0.053271 -0.000788 0.005605
# 5 0.008394 -0.003715 -0.002292 -0.000788 0.033521 -0.001561
# 6 0.002580 -0.002206 -0.006472 0.005605 -0.001561 0.055138
#
#
# Mechanical properties :
#
#
# Convention : Reuss Voigt Hill
#
# Bulk Modulus (GPa) = 29.29076 47.00653 38.14865
# Shear Modulus (GPa) = 22.64808 36.46252 29.55530
#
# Velocity S-wave (km/s) = 2.94144 3.73222 3.36017
# Velocity P-wave (km/s) = 4.76715 6.04402 5.44316
#
# Compressibility (1/GPa) = 0.03414046
#
# Stress axis : x y z
#
# Youngs Moduli (GPa) = 57.52150 52.81427 69.05843
#
# Poissons Ratio (x) = 0.23113 0.59861
# Poissons Ratio (y) = 0.25173 -0.32560
# Poissons Ratio (z) = 0.49861 -0.24901
#
# Static dielectric constant tensor:
#      x y z
#    x 2.227950 0.020260 0.014740 
#    y 0.020260 2.219240 -0.134830 
#    z 0.014740 -0.134830 2.180410 
# 
# From -- ./inp_files/607985.got.cif
#   From: 2010.05.17/outbox.cif.g08.bks.cpg/sg2_304_cif.got.tgz:607985.got - 2010.06.03 11:33:40.
