data_PCOD9081682
_publ_section_title
;
Structure prediction by ZEFSAII (Michael W. Deem and Ramdas Pophale) SiO2 
 PCOD9081682
Probable space group: P -1
;
_chemical_formula_sum "Si O2"
_cell_formula_units_Z 14
_cell_length_a 15.739413
_cell_length_b 16.519268
_cell_length_c 8.583713
_cell_angle_alpha 26.170760
_cell_angle_beta 52.154153
_cell_angle_gamma 35.301691
_cell_volume 503.118211
_symmetry_space_group_name_H-M "P -1"
_symmetry_group_IT_number 2
_symmetry_cell_setting 'triclinic'
loop_
_space_group_symop_operation_xyz
x,y,z
-x,-y,-z
loop_
_atom_site_type_symbol
_atom_site_label
_atom_site_fract_x
_atom_site_fract_y
_atom_site_fract_z
Si Si1 0.424365 0.422962 0.926002
Si Si2 0.049271 0.300675 0.931238
Si Si3 0.868644 0.240705 0.082966
Si Si4 0.735302 0.688633 0.192053
Si Si5 0.021387 0.159182 0.604942
Si Si6 0.493943 0.282352 0.753596
Si Si7 0.744257 0.865877 0.447541
O O1 0.716171 0.426087 0.052689
O O2 0.375893 0.468082 0.718883
O O3 0.494768 0.539478 0.656817
O O4 0.571784 0.079015 0.370575
O O5 0.030967 0.126435 0.172775
O O6 0.887729 0.535941 0.818517
O O7 0.000000 0.500000 0.500000
O O8 0.215196 0.171754 0.045708
O O9 0.803229 0.465863 0.635113
O O10 0.916733 0.991164 0.371931
O O11 0.564599 0.814436 0.113461
O O12 0.857917 0.493219 0.244133
O O13 0.162877 0.089233 0.652038
O O14 0.000000 0.000000 0.000000
O O15 0.667105 0.020993 0.098076
#
# Coordination Sequence:
#
# PCOD9081682 Si02
#       7
#     2   2   2   2   2   2   2
#     4   9  19  32  53  81 112 133 174 220 275 304
#     4   9  19  35  55  78 104 141 181 216 255 316
#     4  10  19  32  53  87 105 135 179 227 250 312
#     4   9  18  35  58  76 104 143 182 211 261 316
#     4   9  17  29  55  79 101 136 179 217 257 306
#     4   9  19  35  54  78 107 145 167 219 275 315
#     4   9  18  34  54  76 104 145 171 213 267 321
#
# _framework density 27.826464999999999
#
# number of rings (size 3 to 8) (size 9 to 14) (size 15 to 20)
#    0.857    2.000    0.000    2.571    0.000    2.857 
#    0.000    4.286    0.000    1.714    0.000    0.000 
#    0.000    0.000    0.000    0.000    0.000    0.000 
#
# Total GULP energy -78345.462677 kJ/mol
# GULP energy per Si atom -5596.104477 kJ/mol
# Density = 2.776313 g / cm^3
# Si number density = 27.826465 Si / 1000 Ang^3
#
#
#
# Elastic Constant Matrix: (Units=GPa)
#
#
# Indices 1 2 3 4 5 6 
#
# 1 229.7802 39.9366 58.4719 0.6500 -55.5439 -19.3777
# 2 39.9366 167.8984 35.5858 -8.9238 -11.9461 14.2625
# 3 58.4719 35.5858 122.1559 -10.1413 -23.8660 -13.2973
# 4 0.6500 -8.9238 -10.1413 40.7140 -1.4136 -3.0811
# 5 -55.5439 -11.9461 -23.8660 -1.4136 49.4244 1.0052
# 6 -19.3777 14.2625 -13.2973 -3.0811 1.0052 39.0406
#
#
#
# Elastic Compliance Matrix: (Units=1/GPa)
#
#
# Indices 1 2 3 4 5 6 
#
# 1 0.006738 -0.001139 -0.001278 -0.000208 0.006611 0.003139
# 2 -0.001139 0.006953 -0.001898 0.000776 -0.000419 -0.003680
# 3 -0.001278 -0.001898 0.010615 0.002648 0.003230 0.003801
# 4 -0.000208 0.000776 0.002648 0.025650 0.001915 0.002490
# 5 0.006611 -0.000419 0.003230 0.001915 0.029095 0.003936
# 6 0.003139 -0.003680 0.003801 0.002490 0.003936 0.029907
#
#
# Mechanical properties :
#
#
# Convention : Reuss Voigt Hill
#
# Bulk Modulus (GPa) = 63.78963 87.53592 75.66277
# Shear Modulus (GPa) = 40.71175 51.55846 46.13510
#
# Velocity S-wave (km/s) = 3.82914 4.30915 4.07622
# Velocity P-wave (km/s) = 6.52102 7.50230 7.02880
#
# Compressibility (1/GPa) = 0.01567653
#
# Stress axis : x y z
#
# Youngs Moduli (GPa) = 148.40352 143.81446 94.20242
#
# Poissons Ratio (x) = 0.16386 0.12035
# Poissons Ratio (y) = 0.16909 0.17883
# Poissons Ratio (z) = 0.18960 0.27301
#
# Static dielectric constant tensor:
#      x y z
#    x 2.224990 0.030280 0.048560 
#    y 0.030280 2.249770 0.039980 
#    z 0.048560 0.039980 2.186470 
# 
# From -- ./inp_files/520332.got.cif
#   From: 2010.05.17/outbox.cif.g08.bks.cpg/sg2_261_cif.got.tgz:520332.got - 2010.06.03 11:33:40.
