data_PCOD9081505
_publ_section_title
;
Structure prediction by ZEFSAII (Michael W. Deem and Ramdas Pophale) SiO2 
 PCOD9081505
Probable space group: P -1
;
_chemical_formula_sum "Si O2"
_cell_formula_units_Z 16
_cell_length_a 9.104734
_cell_length_b 12.276038
_cell_length_c 7.938931
_cell_angle_alpha 76.209113
_cell_angle_beta 99.849561
_cell_angle_gamma 138.356319
_cell_volume 572.598355
_symmetry_space_group_name_H-M "P -1"
_symmetry_group_IT_number 2
_symmetry_cell_setting 'triclinic'
loop_
_space_group_symop_operation_xyz
x,y,z
-x,-y,-z
loop_
_atom_site_type_symbol
_atom_site_label
_atom_site_fract_x
_atom_site_fract_y
_atom_site_fract_z
Si Si1 0.110721 0.539630 0.185993
Si Si2 0.001720 0.846143 0.136325
Si Si3 0.110945 0.186469 0.432482
Si Si4 0.311618 0.228192 0.118862
Si Si5 0.513761 0.679512 0.345398
Si Si6 0.337511 0.693039 0.636128
Si Si7 0.321589 0.861055 0.309893
Si Si8 0.743145 0.049999 0.196508
O O1 0.305405 0.554611 0.225103
O O2 0.228842 0.715117 0.218105
O O3 0.909665 0.416878 0.321280
O O4 0.000000 0.500000 0.000000
O O5 0.110774 0.823752 0.301921
O O6 0.120483 0.027635 0.143368
O O7 0.749470 0.728753 0.069943
O O8 0.121840 0.869667 0.979123
O O9 0.258413 0.264640 0.264111
O O10 0.287894 0.295706 0.577537
O O11 0.000000 0.000000 0.500000
O O12 0.911282 0.153173 0.346976
O O13 0.532798 0.283029 0.185195
O O14 0.385880 0.632456 0.515983
O O15 0.644504 0.867530 0.250585
O O16 0.412378 0.847224 0.497757
O O17 0.542872 0.025000 0.196175
#
# Coordination Sequence:
#
# PCOD9081505 Si02
#       8
#     2   2   2   2   2   2   2   2
#     4  10  20  33  54  77 102 136 186 226 261 307
#     4  10  19  32  50  81 118 132 174 216 264 320
#     4   8  13  27  48  72 102 134 175 199 248 323
#     4   9  19  31  52  78 106 146 170 211 265 315
#     4   8  15  28  49  76  98 137 178 206 258 304
#     4   9  18  34  53  75 102 138 184 214 259 314
#     4  10  20  34  54  80 107 144 175 217 267 305
#     4   8  15  27  48  76 106 136 162 207 258 314
#
# _framework density 27.942796000000001
#
# number of rings (size 3 to 8) (size 9 to 14) (size 15 to 20)
#    0.000    3.250    0.000    2.625    3.500    0.500 
#    0.000    0.625    2.750    0.000    0.000    7.875 
#    0.000    0.000    0.000    0.000    0.000    0.000 
#
# Total GULP energy -89302.064815 kJ/mol
# GULP energy per Si atom -5581.379051 kJ/mol
# Density = 2.787920 g / cm^3
# Si number density = 27.942796 Si / 1000 Ang^3
#
#
#
# Elastic Constant Matrix: (Units=GPa)
#
#
# Indices 1 2 3 4 5 6 
#
# 1 106.1961 41.4451 28.3232 18.6850 34.5747 31.8244
# 2 41.4451 86.4343 24.4647 23.0467 19.2165 39.8990
# 3 28.3232 24.4647 155.0302 38.3686 8.2451 23.4469
# 4 18.6850 23.0467 38.3686 40.2932 23.0042 16.5740
# 5 34.5747 19.2165 8.2451 23.0042 43.0467 26.2804
# 6 31.8244 39.8990 23.4469 16.5740 26.2804 54.3957
#
#
#
# Elastic Compliance Matrix: (Units=1/GPa)
#
#
# Indices 1 2 3 4 5 6 
#
# 1 0.015240 -0.005575 -0.002756 0.005704 -0.012750 0.000783
# 2 -0.005575 0.021054 0.002010 -0.010725 0.009072 -0.014163
# 3 -0.002756 0.002010 0.009978 -0.012578 0.008977 -0.004667
# 4 0.005704 -0.010725 -0.012578 0.055038 -0.032103 0.008692
# 5 -0.012750 0.009072 0.008977 -0.032103 0.057808 -0.021211
# 6 0.000783 -0.014163 -0.004667 0.008692 -0.021211 0.037925
#
#
# Mechanical properties :
#
#
# Convention : Reuss Voigt Hill
#
# Bulk Modulus (GPa) = 29.73587 59.56960 44.65274
# Shear Modulus (GPa) = 22.63491 44.44228 33.53859
#
# Velocity S-wave (km/s) = 2.84922 3.99240 3.46823
# Velocity P-wave (km/s) = 4.63561 6.52817 5.66153
#
# Compressibility (1/GPa) = 0.03362942
#
# Stress axis : x y z
#
# Youngs Moduli (GPa) = 65.61474 47.49590 100.21860
#
# Poissons Ratio (x) = 0.26480 0.27625
# Poissons Ratio (y) = 0.36582 -0.20143
# Poissons Ratio (z) = 0.18087 -0.09546
#
# Static dielectric constant tensor:
#      x y z
#    x 2.380180 -0.014790 0.100090 
#    y -0.014790 2.210520 -0.040720 
#    z 0.100090 -0.040720 2.312600 
# 
# From -- ./inp_files/217347.got.cif
#   From: 2010.05.17/outbox.cif.g08.bks.cpg/sg2_109_cif.got.tgz:217347.got - 2010.06.03 11:33:40.
