data_PCOD9081780
_publ_section_title
;
Structure prediction by ZEFSAII (Michael W. Deem and Ramdas Pophale) SiO2 
 PCOD9081780
Probable space group: P -1
;
_chemical_formula_sum "Si O2"
_cell_formula_units_Z 14
_cell_length_a 11.702526
_cell_length_b 10.344566
_cell_length_c 9.920300
_cell_angle_alpha 129.321883
_cell_angle_beta 36.419423
_cell_angle_gamma 127.930380
_cell_volume 537.012413
_symmetry_space_group_name_H-M "P -1"
_symmetry_group_IT_number 2
_symmetry_cell_setting 'triclinic'
loop_
_space_group_symop_operation_xyz
x,y,z
-x,-y,-z
loop_
_atom_site_type_symbol
_atom_site_label
_atom_site_fract_x
_atom_site_fract_y
_atom_site_fract_z
Si Si1 0.921455 0.226707 0.948781
Si Si2 0.723093 0.847788 0.910655
Si Si3 0.688609 0.039947 0.580883
Si Si4 0.169194 0.690483 0.176592
Si Si5 0.541065 0.310104 0.336086
Si Si6 0.469897 0.517444 0.882723
Si Si7 0.769095 0.816889 0.152193
O O1 0.983585 0.327812 0.814837
O O2 0.071725 0.230403 0.928987
O O3 0.735729 0.295852 0.225620
O O4 0.841256 0.025738 0.853400
O O5 0.813284 0.824587 0.956763
O O6 0.506741 0.885516 0.175792
O O7 0.661008 0.670113 0.768987
O O8 0.636574 0.850480 0.571329
O O9 0.740539 0.999922 0.353699
O O10 0.847666 0.166649 0.604852
O O11 0.369623 0.735519 0.923111
O O12 0.247365 0.549813 0.095370
O O13 0.500000 0.500000 0.500000
O O14 0.434033 0.328799 0.729754
O O15 0.500000 0.500000 0.000000
#
# Coordination Sequence:
#
# PCOD9081780 Si02
#       7
#     2   2   2   2   2   2   2
#     4   9  21  34  59  82 113 147 182 230 282 324
#     4   9  19  37  58  77 109 157 188 221 270 335
#     4  10  19  32  55  82 108 146 191 224 267 330
#     4   9  19  35  55  76 114 142 187 220 277 331
#     4   9  18  34  53  80 103 148 187 225 266 333
#     4   9  19  33  55  79 106 145 183 225 272 320
#     4  11  20  34  55  88 116 139 185 234 280 320
#
# _framework density 26.070159
#
# number of rings (size 3 to 8) (size 9 to 14) (size 15 to 20)
#    0.857    1.714    0.000    2.143    2.000    1.143 
#    0.000    0.000    0.000    0.000    0.000   25.000 
#    0.000    0.000    0.000    0.000    0.000    0.000 
#
# Total GULP energy -77982.117142 kJ/mol
# GULP energy per Si atom -5570.151224 kJ/mol
# Density = 2.601082 g / cm^3
# Si number density = 26.070159 Si / 1000 Ang^3
#
#
#
# Elastic Constant Matrix: (Units=GPa)
#
#
# Indices 1 2 3 4 5 6 
#
# 1 141.0119 -0.4444 10.3062 4.3777 -6.7242 -11.3936
# 2 -0.4444 96.2924 14.6041 33.2412 6.4244 13.9623
# 3 10.3062 14.6041 88.7867 20.6523 1.4717 7.4315
# 4 4.3777 33.2412 20.6523 31.0360 9.8612 5.3196
# 5 -6.7242 6.4244 1.4717 9.8612 33.9152 14.2379
# 6 -11.3936 13.9623 7.4315 5.3196 14.2379 35.2541
#
#
#
# Elastic Compliance Matrix: (Units=1/GPa)
#
#
# Indices 1 2 3 4 5 6 
#
# 1 0.007426 0.000284 -0.000759 -0.001537 0.000931 0.002303
# 2 0.000284 0.018091 0.002505 -0.021735 0.005605 -0.006585
# 3 -0.000759 0.002505 0.014135 -0.012602 0.004091 -0.003968
# 4 -0.001537 -0.021735 -0.012602 0.068763 -0.019024 0.008075
# 5 0.000931 0.005605 0.004091 -0.019024 0.040851 -0.016409
# 6 0.002303 -0.006585 -0.003968 0.008075 -0.016409 0.037963
#
#
# Mechanical properties :
#
#
# Convention : Reuss Voigt Hill
#
# Bulk Modulus (GPa) = 22.87748 41.66920 32.27334
# Shear Modulus (GPa) = 25.28584 40.14938 32.71761
#
# Velocity S-wave (km/s) = 3.11772 3.92861 3.54642
# Velocity P-wave (km/s) = 4.66419 6.04953 5.40146
#
# Compressibility (1/GPa) = 0.04371111
#
# Stress axis : x y z
#
# Youngs Moduli (GPa) = 134.65744 55.27749 70.74866
#
# Poissons Ratio (x) = -0.01569 0.05373
# Poissons Ratio (y) = -0.03823 -0.17726
# Poissons Ratio (z) = 0.10227 -0.13850
#
# Static dielectric constant tensor:
#      x y z
#    x 2.233550 -0.015850 -0.028220 
#    y -0.015850 2.195600 0.038830 
#    z -0.028220 0.038830 2.133650 
# 
# From -- ./inp_files/422849.got.cif
#   From: 2010.05.17/outbox.cif.g08.bks.cpg/sg2_212_cif.got.tgz:422849.got - 2010.06.03 11:33:40.
