data_PCOD9081118
_publ_section_title
;
Structure prediction by ZEFSAII (Michael W. Deem and Ramdas Pophale) SiO2 
 PCOD9081118
Probable space group: P -1
;
_chemical_formula_sum "Si O2"
_cell_formula_units_Z 12
_cell_length_a 8.100718
_cell_length_b 14.700419
_cell_length_c 11.808575
_cell_angle_alpha 26.894027
_cell_angle_beta 121.138725
_cell_angle_gamma 131.689762
_cell_volume 462.807923
_symmetry_space_group_name_H-M "P -1"
_symmetry_group_IT_number 2
_symmetry_cell_setting 'triclinic'
loop_
_space_group_symop_operation_xyz
x,y,z
-x,-y,-z
loop_
_atom_site_type_symbol
_atom_site_label
_atom_site_fract_x
_atom_site_fract_y
_atom_site_fract_z
Si Si1 0.400689 0.594023 0.030074
Si Si2 0.862821 0.294320 0.770393
Si Si3 0.606881 0.018734 0.176568
Si Si4 0.865518 0.929510 0.914863
Si Si5 0.405369 0.168012 0.385360
Si Si6 0.067558 0.184726 0.502296
O O1 0.599221 0.751859 0.014813
O O2 0.453366 0.404728 0.202332
O O3 0.168562 0.426142 0.200298
O O4 0.428955 0.751753 0.754283
O O5 0.000000 0.500000 0.500000
O O6 0.042115 0.220419 0.945266
O O7 0.642639 0.110075 0.822800
O O8 0.749418 0.267720 0.883321
O O9 0.592154 0.994760 0.333342
O O10 0.729372 0.869880 0.355138
O O11 0.000000 0.000000 0.000000
O O12 0.960411 0.162455 0.613033
O O13 0.147037 0.026192 0.406112
#
# Coordination Sequence:
#
# PCOD9081118 Si02
#       6
#     2   2   2   2   2   2
#     4   9  16  28  48  72  96 125 160 197 245 285
#     4  10  19  31  48  70  99 130 161 197 239 287
#     4   9  17  28  45  72  98 120 153 200 248 281
#     4  10  21  34  48  71 102 133 164 196 235 290
#     4   9  16  27  48  77 100 119 156 209 249 282
#     4   9  17  30  49  74 100 124 160 207 244 282
#
# _framework density 25.928682999999999
#
# number of rings (size 3 to 8) (size 9 to 14) (size 15 to 20)
#    0.000    2.667    0.000    4.000    0.000    4.667 
#    0.000    0.000    0.000    4.000    0.000   10.500 
#    0.000    0.000    0.000    0.000    0.000    0.000 
#
# Total GULP energy -66950.995349 kJ/mol
# GULP energy per Si atom -5579.249612 kJ/mol
# Density = 2.586967 g / cm^3
# Si number density = 25.928683 Si / 1000 Ang^3
#
#
#
# Elastic Constant Matrix: (Units=GPa)
#
#
# Indices 1 2 3 4 5 6 
#
# 1 47.5732 26.2104 37.3551 -4.9651 -12.5031 10.7441
# 2 26.2104 154.3778 61.1956 9.2402 -13.8091 -0.4983
# 3 37.3551 61.1956 235.1972 11.0016 -64.7261 -3.4962
# 4 -4.9651 9.2402 11.0016 44.7543 -1.2390 -13.6317
# 5 -12.5031 -13.8091 -64.7261 -1.2390 53.1756 20.8115
# 6 10.7441 -0.4983 -3.4962 -13.6317 20.8115 42.6701
#
#
#
# Elastic Compliance Matrix: (Units=1/GPa)
#
#
# Indices 1 2 3 4 5 6 
#
# 1 0.029158 -0.003678 -0.001589 0.001199 0.008387 -0.011223
# 2 -0.003678 0.007748 -0.001772 -0.001245 -0.001513 0.001211
# 3 -0.001589 -0.001772 0.008049 -0.003100 0.010966 -0.005300
# 4 0.001199 -0.001245 -0.003100 0.026884 -0.007819 0.011831
# 5 0.008387 -0.001513 0.010966 -0.007819 0.043269 -0.024832
# 6 -0.011223 0.001211 -0.005300 0.011831 -0.024832 0.041733
#
#
# Mechanical properties :
#
#
# Convention : Reuss Voigt Hill
#
# Bulk Modulus (GPa) = 32.38638 76.29672 54.34155
# Shear Modulus (GPa) = 27.59229 48.94579 38.26904
#
# Velocity S-wave (km/s) = 3.26569 4.34949 3.84596
# Velocity P-wave (km/s) = 5.17081 7.39686 6.38165
#
# Compressibility (1/GPa) = 0.03087718
#
# Stress axis : x y z
#
# Youngs Moduli (GPa) = 34.29550 129.07307 124.23912
#
# Poissons Ratio (x) = 0.47480 0.19739
# Poissons Ratio (y) = 0.12616 0.22010
# Poissons Ratio (z) = 0.05449 0.22866
#
# Static dielectric constant tensor:
#      x y z
#    x 2.146910 -0.130700 -0.031720 
#    y -0.130700 2.006030 0.045750 
#    z -0.031720 0.045750 2.262920 
# 
# From -- ./inp_files/168169.got.cif
#   From: 2010.05.17/outbox.cif.g08.bks.cpg/sg2_85_cif.got.tgz:168169.got - 2010.06.03 11:33:40.
