data_PCOD9081075
_publ_section_title
;
Structure prediction by ZEFSAII (Michael W. Deem and Ramdas Pophale) SiO2 
 PCOD9081075
Probable space group: P -1
;
_chemical_formula_sum "Si O2"
_cell_formula_units_Z 16
_cell_length_a 5.642030
_cell_length_b 18.445632
_cell_length_c 12.564742
_cell_angle_alpha 29.614526
_cell_angle_beta 84.625277
_cell_angle_gamma 85.047026
_cell_volume 643.304942
_symmetry_space_group_name_H-M "P -1"
_symmetry_group_IT_number 2
_symmetry_cell_setting 'triclinic'
loop_
_space_group_symop_operation_xyz
x,y,z
-x,-y,-z
loop_
_atom_site_type_symbol
_atom_site_label
_atom_site_fract_x
_atom_site_fract_y
_atom_site_fract_z
Si Si1 0.565763 0.581771 0.121554
Si Si2 0.065798 0.587087 0.120243
Si Si3 0.624159 0.318150 0.288712
Si Si4 0.588911 0.093126 0.759750
Si Si5 0.019285 0.679361 0.231727
Si Si6 0.098497 0.001884 0.823821
Si Si7 0.492462 0.649062 0.398506
Si Si8 0.118653 0.312933 0.307442
O O1 0.320642 0.662465 0.000370
O O2 0.595952 0.444081 0.217378
O O3 0.528193 0.501262 0.340132
O O4 0.815408 0.662691 0.006301
O O5 0.038527 0.570393 0.270070
O O6 0.088568 0.429681 0.257997
O O7 0.624363 0.167492 0.547154
O O8 0.376671 0.331045 0.221359
O O9 0.890443 0.336961 0.210860
O O10 0.353854 0.995663 0.880795
O O11 0.522913 0.222268 0.677964
O O12 0.846663 0.026965 0.863478
O O13 0.251603 0.660759 0.322098
O O14 0.752236 0.668577 0.306670
O O15 0.054405 0.844599 0.974000
O O16 0.117265 0.149600 0.564071
#
# Coordination Sequence:
#
# PCOD9081075 Si02
#       8
#     2   2   2   2   2   2   2   2
#     4   9  17  30  41  45  53  67  75  77  85  99
#     4  10  19  31  41  48  56  64  72  80  88  96
#     4   7  12  22  38  50  50  58  78  86  82  90
#     4   9  17  30  41  45  53  67  75  77  85  99
#     4  12  24  29  36  52  60  60  68  84  92  92
#     4  10  19  31  41  48  56  64  72  80  88  96
#     4  11  22  32  40  48  56  64  72  80  88  96
#     4   8  14  27  42  46  52  68  76  76  84 100
#
# _framework density 24.871562999999998
#
# number of rings (size 3 to 8) (size 9 to 14) (size 15 to 20)
#    0.000    2.500    0.000    4.500    0.000    8.000 
#    0.000    0.000    0.000    0.000    0.000    0.000 
#    0.000    0.000    0.000    0.000    0.000    0.000 
#
# Total GULP energy -89237.615631 kJ/mol
# GULP energy per Si atom -5577.350977 kJ/mol
# Density = 2.481495 g / cm^3
# Si number density = 24.871563 Si / 1000 Ang^3
#
#
#
# Elastic Constant Matrix: (Units=GPa)
#
#
# Indices 1 2 3 4 5 6 
#
# 1 339.6066 49.7132 13.2689 11.9367 -7.3163 3.4088
# 2 49.7132 50.9659 31.8635 4.4462 -6.6815 3.4842
# 3 13.2689 31.8635 90.8339 1.0258 -14.6926 -1.9376
# 4 11.9367 4.4462 1.0258 27.7561 1.6634 0.5893
# 5 -7.3163 -6.6815 -14.6926 1.6634 26.2731 4.3824
# 6 3.4088 3.4842 -1.9376 0.5893 4.3824 38.9093
#
#
#
# Elastic Compliance Matrix: (Units=1/GPa)
#
#
# Indices 1 2 3 4 5 6 
#
# 1 0.003520 -0.003868 0.000949 -0.000965 0.000582 0.000034
# 2 -0.003868 0.030192 -0.009763 -0.002858 0.001825 -0.003013
# 3 0.000949 -0.009763 0.015312 0.000201 0.006189 0.000853
# 4 -0.000965 -0.002858 0.000201 0.037085 -0.003257 0.000156
# 5 0.000582 0.001825 0.006189 -0.003257 0.043142 -0.004716
# 6 0.000034 -0.003013 0.000853 0.000156 -0.004716 0.026539
#
#
# Mechanical properties :
#
#
# Convention : Reuss Voigt Hill
#
# Bulk Modulus (GPa) = 42.26647 74.56640 58.41644
# Shear Modulus (GPa) = 26.44913 44.35843 35.40378
#
# Velocity S-wave (km/s) = 3.26456 4.22773 3.77698
# Velocity P-wave (km/s) = 5.58933 7.34012 6.52372
#
# Compressibility (1/GPa) = 0.02365941
#
# Stress axis : x y z
#
# Youngs Moduli (GPa) = 284.10030 33.12107 65.30701
#
# Poissons Ratio (x) = 0.12812 -0.06195
# Poissons Ratio (y) = 1.09897 0.63758
# Poissons Ratio (z) = -0.26949 0.32336
#
# Static dielectric constant tensor:
#      x y z
#    x 2.088730 0.018600 0.002110 
#    y 0.018600 1.968230 0.050600 
#    z 0.002110 0.050600 1.966520 
# 
# From -- ./inp_files/584462.got.cif
#   From: 2010.05.17/outbox.cif.g08.bks.cpg/sg2_293_cif.got.tgz:584462.got - 2010.06.03 11:33:40.
