data_PCOD9081763
_publ_section_title
;
Structure prediction by ZEFSAII (Michael W. Deem and Ramdas Pophale) SiO2 
 PCOD9081763
Probable space group: P -1
;
_chemical_formula_sum "Si O2"
_cell_formula_units_Z 14
_cell_length_a 12.122592
_cell_length_b 14.205105
_cell_length_c 17.239221
_cell_angle_alpha 153.949914
_cell_angle_beta 26.925461
_cell_angle_gamma 143.133021
_cell_volume 590.347601
_symmetry_space_group_name_H-M "P -1"
_symmetry_group_IT_number 2
_symmetry_cell_setting 'triclinic'
loop_
_space_group_symop_operation_xyz
x,y,z
-x,-y,-z
loop_
_atom_site_type_symbol
_atom_site_label
_atom_site_fract_x
_atom_site_fract_y
_atom_site_fract_z
Si Si1 0.045408 0.900699 0.980133
Si Si2 0.230782 0.763353 0.382222
Si Si3 0.676954 0.575032 0.047026
Si Si4 0.031344 0.233772 0.866780
Si Si5 0.382261 0.874763 0.057136
Si Si6 0.867822 0.678627 0.662769
Si Si7 0.571105 0.259736 0.293156
O O1 0.842968 0.730710 0.004851
O O2 0.049381 0.103031 0.185346
O O3 0.308788 0.785969 0.733272
O O4 0.000000 0.000000 0.000000
O O5 0.413367 0.676127 0.269890
O O6 0.973678 0.670666 0.503583
O O7 0.309501 0.658309 0.173877
O O8 0.190928 0.017021 0.596811
O O9 0.787880 0.600188 0.081659
O O10 0.866249 0.240713 0.897759
O O11 0.807836 0.225611 0.063385
O O12 0.579861 0.717384 0.857180
O O13 0.500000 0.000000 0.000000
O O14 0.363810 0.084700 0.278701
O O15 0.000000 0.500000 0.500000
O O16 0.500000 0.500000 0.500000
#
# Coordination Sequence:
#
# PCOD9081763 Si02
#       7
#     2   2   2   2   2   2   2
#     4  10  20  35  52  86 114 140 185 232 279 329
#     4  11  20  37  56  82 115 151 188 230 278 339
#     4  10  22  34  56  86 111 150 190 231 276 334
#     4  10  19  32  55  78 113 140 188 230 272 325
#     4   9  17  32  50  80 110 141 185 228 277 324
#     4  11  21  35  57  83 116 149 181 235 285 330
#     4   9  18  30  51  80 111 145 177 227 282 326
#
# _framework density 23.714842000000001
#
# number of rings (size 3 to 8) (size 9 to 14) (size 15 to 20)
#    0.000    2.000    5.714    1.286    4.000    2.286 
#    0.000    0.000    0.000    0.857    7.429    4.000 
#    0.000    0.000    0.000    0.000    0.000    0.000 
#
# Total GULP energy -77981.064920 kJ/mol
# GULP energy per Si atom -5570.076066 kJ/mol
# Density = 2.366087 g / cm^3
# Si number density = 23.714842 Si / 1000 Ang^3
#
#
#
# Elastic Constant Matrix: (Units=GPa)
#
#
# Indices 1 2 3 4 5 6 
#
# 1 114.6279 32.7731 67.6171 10.2105 -29.5363 32.8679
# 2 32.7731 46.0644 8.1736 2.1481 4.5012 20.5681
# 3 67.6171 8.1736 148.5504 12.7696 -19.2341 16.9623
# 4 10.2105 2.1481 12.7696 15.1131 -6.1497 -7.9060
# 5 -29.5363 4.5012 -19.2341 -6.1497 28.1067 2.8944
# 6 32.8679 20.5681 16.9623 -7.9060 2.8944 40.7264
#
#
#
# Elastic Compliance Matrix: (Units=1/GPa)
#
#
# Indices 1 2 3 4 5 6 
#
# 1 0.030790 -0.014618 -0.006152 -0.011397 0.029976 -0.019247
# 2 -0.014618 0.038685 0.004204 -0.013019 -0.020440 -0.010565
# 3 -0.006152 0.004204 0.009976 -0.006820 -0.001544 -0.002527
# 4 -0.011397 -0.013019 -0.006820 0.103204 0.004071 0.038359
# 5 0.029976 -0.020440 -0.001544 0.004071 0.071994 -0.017552
# 6 -0.019247 -0.010565 -0.002527 0.038359 -0.017552 0.055169
#
#
# Mechanical properties :
#
#
# Convention : Reuss Voigt Hill
#
# Bulk Modulus (GPa) = 21.58949 58.48559 40.03754
# Shear Modulus (GPa) = 13.95130 30.16786 22.05958
#
# Velocity S-wave (km/s) = 2.42811 3.57053 3.05323
# Velocity P-wave (km/s) = 4.12123 6.45862 5.41749
#
# Compressibility (1/GPa) = 0.04631884
#
# Stress axis : x y z
#
# Youngs Moduli (GPa) = 32.47788 25.84991 100.24368
#
# Poissons Ratio (x) = 0.37788 0.61671
# Poissons Ratio (y) = 0.47477 -0.42145
# Poissons Ratio (z) = 0.19981 -0.10868
#
# Static dielectric constant tensor:
#      x y z
#    x 2.158760 0.046050 -0.073930 
#    y 0.046050 1.920100 0.033430 
#    z -0.073930 0.033430 1.886970 
# 
# From -- ./inp_files/422724.got.cif
#   From: 2010.05.17/outbox.cif.g08.bks.cpg/sg2_212_cif.got.tgz:422724.got - 2010.06.03 11:33:40.
