data_PCOD9081834
_publ_section_title
;
Structure prediction by ZEFSAII (Michael W. Deem and Ramdas Pophale) SiO2 
 PCOD9081834
Probable space group: P -1
;
_chemical_formula_sum "Si O2"
_cell_formula_units_Z 16
_cell_length_a 17.921288
_cell_length_b 14.758525
_cell_length_c 15.145276
_cell_angle_alpha 20.357101
_cell_angle_beta 143.606724
_cell_angle_gamma 141.371213
_cell_volume 819.943852
_symmetry_space_group_name_H-M "P -1"
_symmetry_group_IT_number 2
_symmetry_cell_setting 'triclinic'
loop_
_space_group_symop_operation_xyz
x,y,z
-x,-y,-z
loop_
_atom_site_type_symbol
_atom_site_label
_atom_site_fract_x
_atom_site_fract_y
_atom_site_fract_z
Si Si1 0.093799 0.978303 0.389880
Si Si2 0.246335 0.907368 0.123998
Si Si3 0.451104 0.795714 0.563021
Si Si4 0.874588 0.300368 0.959709
Si Si5 0.233524 0.595872 0.656519
Si Si6 0.268713 0.197406 0.207516
Si Si7 0.102266 0.411460 0.534486
Si Si8 0.073546 0.783568 0.722808
O O1 0.187230 0.173420 0.241216
O O2 0.155099 0.877383 0.629378
O O3 0.030248 0.739533 0.486634
O O4 0.976139 0.109660 0.198219
O O5 0.365358 0.902873 0.306750
O O6 0.248591 0.791619 0.132409
O O7 0.141485 0.684451 0.271156
O O8 0.199014 0.192105 0.814019
O O9 0.358594 0.581979 0.726061
O O10 0.580187 0.727046 0.705409
O O11 0.500000 0.000000 0.500000
O O12 0.957519 0.576949 0.766098
O O13 0.854913 0.311137 0.036857
O O14 0.119134 0.493450 0.576839
O O15 0.242035 0.902585 0.409827
O O16 0.232394 0.407199 0.911054
O O17 0.000000 0.000000 0.500000
#
# Coordination Sequence:
#
# PCOD9081834 Si02
#       8
#     2   2   2   2   2   2   2   2
#     4  10  21  32  51  79 115 134 171 215 273 331
#     4  10  19  32  56  79 104 137 181 228 255 301
#     4   9  19  37  55  75 105 144 193 223 249 297
#     4   9  18  33  55  80 106 134 174 213 274 317
#     4  10  21  36  52  73 104 146 190 225 252 301
#     4  11  23  34  53  76 107 148 179 219 266 307
#     4  10  19  33  52  75 106 140 175 222 268 304
#     4   9  17  33  55  79 104 136 166 216 268 332
#
# _framework density 19.513531
#
# number of rings (size 3 to 8) (size 9 to 14) (size 15 to 20)
#    0.000    2.250    1.250    2.625    1.750    4.000 
#    0.000    0.000    0.000    0.750    0.000    7.875 
#    0.000    0.000    0.000    0.000    0.000    0.000 
#
# Total GULP energy -89077.721103 kJ/mol
# GULP energy per Si atom -5567.357569 kJ/mol
# Density = 1.946912 g / cm^3
# Si number density = 19.513531 Si / 1000 Ang^3
#
#
#
# Elastic Constant Matrix: (Units=GPa)
#
#
# Indices 1 2 3 4 5 6 
#
# 1 89.1891 41.3616 25.2554 13.9895 -30.0162 1.8436
# 2 41.3616 89.7413 14.4885 -0.3002 -6.1071 -18.7345
# 3 25.2554 14.4885 69.8193 -10.0874 -16.9040 -10.6045
# 4 13.9895 -0.3002 -10.0874 31.0777 -9.5594 -6.5163
# 5 -30.0162 -6.1071 -16.9040 -9.5594 29.5483 1.5250
# 6 1.8436 -18.7345 -10.6045 -6.5163 1.5250 14.0928
#
#
#
# Elastic Compliance Matrix: (Units=1/GPa)
#
#
# Indices 1 2 3 4 5 6 
#
# 1 0.068918 -0.054617 -0.040936 -0.069303 0.020452 -0.146683
# 2 -0.054617 0.060615 0.036868 0.065318 -0.008295 0.146567
# 3 -0.040936 0.036868 0.051727 0.064246 0.010122 0.121901
# 4 -0.069303 0.065318 0.064246 0.131178 0.011783 0.203622
# 5 0.020452 -0.008295 0.010122 0.011783 0.062891 -0.007443
# 6 -0.146683 0.146567 0.121901 0.203622 -0.007443 0.471674
#
#
# Mechanical properties :
#
#
# Convention : Reuss Voigt Hill
#
# Bulk Modulus (GPa) = 15.65156 45.66230 30.65693
# Shear Modulus (GPa) = 5.07269 26.12004 15.59636
#
# Velocity S-wave (km/s) = 1.61407 3.66260 2.83018
# Velocity P-wave (km/s) = 3.39292 6.42941 5.14049
#
# Compressibility (1/GPa) = 0.06389140
#
# Stress axis : x y z
#
# Youngs Moduli (GPa) = 14.51004 16.49746 19.33216
#
# Poissons Ratio (x) = 0.90104 0.79137
# Poissons Ratio (y) = 0.79249 -0.71274
# Poissons Ratio (z) = 0.59398 -0.60823
#
# Static dielectric constant tensor:
#      x y z
#    x 1.748730 -0.033240 -0.008150 
#    y -0.033240 1.735330 0.033150 
#    z -0.008150 0.033150 1.786470 
# 
# From -- ./inp_files/76318.got.cif
#   From: 2010.05.17/outbox.cif.g08.bks.cpg/sg2_39_cif.got.tgz:76318.got - 2010.06.03 11:33:40.
