data_PCOD9081070
_publ_section_title
;
Structure prediction by ZEFSAII (Michael W. Deem and Ramdas Pophale) SiO2 
 PCOD9081070
Probable space group: P -1
;
_chemical_formula_sum "Si O2"
_cell_formula_units_Z 14
_cell_length_a 8.608654
_cell_length_b 18.529561
_cell_length_c 10.654268
_cell_angle_alpha 39.307738
_cell_angle_beta 42.679880
_cell_angle_gamma 45.468134
_cell_volume 694.243325
_symmetry_space_group_name_H-M "P -1"
_symmetry_group_IT_number 2
_symmetry_cell_setting 'triclinic'
loop_
_space_group_symop_operation_xyz
x,y,z
-x,-y,-z
loop_
_atom_site_type_symbol
_atom_site_label
_atom_site_fract_x
_atom_site_fract_y
_atom_site_fract_z
Si Si1 0.529408 0.937384 0.704901
Si Si2 0.191990 0.243544 0.388635
Si Si3 0.576280 0.177772 0.715835
Si Si4 0.109237 0.829702 0.132950
Si Si5 0.120982 0.093622 0.101822
Si Si6 0.384713 0.831720 0.574022
Si Si7 0.697023 0.373182 0.556592
O O1 0.733951 0.813606 0.714703
O O2 0.295544 0.904495 0.931573
O O3 0.500000 0.000000 0.500000
O O4 0.591728 0.033396 0.626125
O O5 0.430544 0.238950 0.332375
O O6 0.967863 0.364507 0.361562
O O7 0.549368 0.223251 0.527388
O O8 0.620939 0.277499 0.644316
O O9 0.074859 0.159456 0.656849
O O10 0.340546 0.142203 0.941198
O O11 0.967168 0.862452 0.045052
O O12 0.261647 0.689452 0.246210
O O13 0.889206 0.147211 0.253737
O O14 0.210041 0.949028 0.241779
O O15 0.500000 0.500000 0.500000
#
# Coordination Sequence:
#
# PCOD9081070 Si02
#       7
#     2   2   2   2   2   2   2
#     4  10  19  30  59  93 122 149 193 234 292 370
#     4   9  20  36  60  82 117 158 200 239 285 347
#     4  11  24  37  58  88 131 155 182 248 307 350
#     4  10  21  37  62  85 122 157 203 236 290 359
#     4  11  22  37  59  97 124 152 184 238 316 368
#     4  11  21  36  56  93 125 154 185 235 303 372
#     4  10  24  44  63  83 113 164 214 247 285 340
#
# _framework density 20.165838999999998
#
# number of rings (size 3 to 8) (size 9 to 14) (size 15 to 20)
#    0.857    0.857    4.286    1.286    6.000    2.857 
#    0.000    3.571    0.000    1.714    0.000    0.000 
#    0.000    0.000    0.000    0.000    0.000    0.000 
#
# Total GULP energy -78103.254101 kJ/mol
# GULP energy per Si atom -5578.803864 kJ/mol
# Density = 2.011994 g / cm^3
# Si number density = 20.165839 Si / 1000 Ang^3
#
#
#
# Elastic Constant Matrix: (Units=GPa)
#
#
# Indices 1 2 3 4 5 6 
#
# 1 72.0808 29.0285 8.5980 -3.7014 2.2719 -4.2360
# 2 29.0285 112.3307 13.0917 -8.1673 -4.2702 -24.4468
# 3 8.5980 13.0917 34.6139 15.4318 -7.2864 -3.7002
# 4 -3.7014 -8.1673 15.4318 40.6184 -14.3713 0.5557
# 5 2.2719 -4.2702 -7.2864 -14.3713 22.8739 7.4809
# 6 -4.2360 -24.4468 -3.7002 0.5557 7.4809 29.0398
#
#
#
# Elastic Compliance Matrix: (Units=1/GPa)
#
#
# Indices 1 2 3 4 5 6 
#
# 1 0.015962 -0.003880 -0.003632 0.001196 -0.002457 -0.000791
# 2 -0.003880 0.012796 -0.004533 0.004122 0.000870 0.009325
# 3 -0.003632 -0.004533 0.038782 -0.015196 0.002218 0.000315
# 4 0.001196 0.004122 -0.015196 0.039161 0.021950 -0.004696
# 5 -0.002457 0.000870 0.002218 0.021950 0.063931 -0.016233
# 6 -0.000791 0.009325 0.000315 -0.004696 -0.016233 0.046482
#
#
# Mechanical properties :
#
#
# Convention : Reuss Voigt Hill
#
# Bulk Modulus (GPa) = 23.01580 35.60686 29.31133
# Shear Modulus (GPa) = 19.55514 29.72688 24.64101
#
# Velocity S-wave (km/s) = 3.11740 3.84359 3.49939
# Velocity P-wave (km/s) = 4.93920 6.11498 5.55826
#
# Compressibility (1/GPa) = 0.04344842
#
# Stress axis : x y z
#
# Youngs Moduli (GPa) = 62.65072 78.15232 25.78485
#
# Poissons Ratio (x) = 0.30323 0.09365
# Poissons Ratio (y) = 0.24309 0.11689
# Poissons Ratio (z) = 0.22756 0.35429
#
# Static dielectric constant tensor:
#      x y z
#    x 1.769300 -0.055180 0.029360 
#    y -0.055180 1.773070 0.008560 
#    z 0.029360 0.008560 1.737330 
# 
# From -- ./inp_files/403755.got.cif
#   From: 2010.05.17/outbox.cif.g08.bks.cpg/sg2_202_cif.got.tgz:403755.got - 2010.06.03 11:33:40.
