data_PCOD9081126
_publ_section_title
;
Structure prediction by ZEFSAII (Michael W. Deem and Ramdas Pophale) SiO2 
 PCOD9081126
Probable space group: P -1
;
_chemical_formula_sum "Si O2"
_cell_formula_units_Z 16
_cell_length_a 15.791700
_cell_length_b 11.902002
_cell_length_c 13.416748
_cell_angle_alpha 109.496485
_cell_angle_beta 54.093459
_cell_angle_gamma 155.792071
_cell_volume 666.473276
_symmetry_space_group_name_H-M "P -1"
_symmetry_group_IT_number 2
_symmetry_cell_setting 'triclinic'
loop_
_space_group_symop_operation_xyz
x,y,z
-x,-y,-z
loop_
_atom_site_type_symbol
_atom_site_label
_atom_site_fract_x
_atom_site_fract_y
_atom_site_fract_z
Si Si1 0.973645 0.959181 0.164333
Si Si2 0.590303 0.690143 0.893846
Si Si3 0.583405 0.341943 0.152209
Si Si4 0.566986 0.309234 0.809871
Si Si5 0.198019 0.615836 0.454749
Si Si6 0.863421 0.351673 0.288640
Si Si7 0.696264 0.197934 0.057717
Si Si8 0.149346 0.922242 0.794168
O O1 0.135404 0.101200 0.199879
O O2 0.266287 0.276754 0.980522
O O3 0.747970 0.610820 0.191695
O O4 0.820881 0.925738 0.245776
O O5 0.667040 0.851847 0.793231
O O6 0.506990 0.677975 0.046750
O O7 0.565221 0.189791 0.162438
O O8 0.819354 0.574417 0.967426
O O9 0.840776 0.553410 0.623596
O O10 0.349397 0.116905 0.812829
O O11 0.515196 0.131502 0.854550
O O12 0.118673 0.534944 0.602283
O O13 0.000000 0.500000 0.500000
O O14 0.557941 0.037714 0.340086
O O15 0.823625 0.175254 0.308763
O O16 0.168671 0.677386 0.109445
O O17 0.000000 0.500000 0.000000
#
# Coordination Sequence:
#
# PCOD9081126 Si02
#       8
#     2   2   2   2   2   2   2   2
#     4  10  19  31  50  74 111 147 179 226 281 329
#     4  10  20  30  48  79 111 144 177 230 280 330
#     4  10  19  31  48  73 110 149 177 216 277 332
#     4  11  21  34  54  87 116 147 180 225 287 335
#     4  10  21  35  53  75 114 148 195 225 265 335
#     4   9  20  37  53  78 112 152 184 228 274 326
#     4  11  18  36  58  80 119 153 178 226 282 350
#     4   9  16  30  51  72 108 140 175 223 272 323
#
# _framework density 24.006962000000001
#
# number of rings (size 3 to 8) (size 9 to 14) (size 15 to 20)
#    0.000    2.000    5.000    1.500    7.000    0.500 
#    0.000    0.000    0.000    0.000    0.000    0.875 
#    0.000   16.000    0.000    0.000    0.000    0.000 
#
# Total GULP energy -89092.996067 kJ/mol
# GULP energy per Si atom -5568.312254 kJ/mol
# Density = 2.395232 g / cm^3
# Si number density = 24.006962 Si / 1000 Ang^3
#
#
#
# Elastic Constant Matrix: (Units=GPa)
#
#
# Indices 1 2 3 4 5 6 
#
# 1 207.3108 53.9352 9.3269 -7.8831 -19.2366 -1.7394
# 2 53.9352 72.7051 14.1272 8.4481 -1.5292 7.5546
# 3 9.3269 14.1272 50.1043 8.4305 -3.3212 -2.0979
# 4 -7.8831 8.4481 8.4305 23.8928 5.7616 -6.7183
# 5 -19.2366 -1.5292 -3.3212 5.7616 21.8471 -3.4770
# 6 -1.7394 7.5546 -2.0979 -6.7183 -3.4770 51.0202
#
#
#
# Elastic Compliance Matrix: (Units=1/GPa)
#
#
# Indices 1 2 3 4 5 6 
#
# 1 0.006910 -0.005652 0.000127 0.003541 0.005075 0.001890
# 2 -0.005652 0.020028 -0.003559 -0.008341 -0.002645 -0.004583
# 3 0.000127 -0.003559 0.022646 -0.007786 0.005488 0.000811
# 4 0.003541 -0.008341 -0.007786 0.053572 -0.011616 0.007298
# 5 0.005075 -0.002645 0.005488 -0.011616 0.054426 0.002970
# 6 0.001890 -0.004583 0.000811 0.007298 0.002970 0.021540
#
#
# Mechanical properties :
#
#
# Convention : Reuss Voigt Hill
#
# Bulk Modulus (GPa) = 31.82986 53.87764 42.85375
# Shear Modulus (GPa) = 24.06617 36.20073 30.13345
#
# Velocity S-wave (km/s) = 3.16961 3.88742 3.54672
# Velocity P-wave (km/s) = 5.16552 6.52997 5.88741
#
# Compressibility (1/GPa) = 0.03141704
#
# Stress axis : x y z
#
# Youngs Moduli (GPa) = 144.72411 49.92991 44.15816
#
# Poissons Ratio (x) = 0.28218 -0.00561
# Poissons Ratio (y) = 0.81792 0.15715
# Poissons Ratio (z) = -0.01838 0.17769
#
# Static dielectric constant tensor:
#      x y z
#    x 2.114050 -0.005460 -0.042650 
#    y -0.005460 2.112140 0.030840 
#    z -0.042650 0.030840 1.952870 
# 
# From -- ./inp_files/531198.got.cif
#   From: 2010.05.17/outbox.cif.g08.bks.cpg/sg2_266_cif.got.tgz:531198.got - 2010.06.03 11:33:40.
