data_PCOD9081576
_publ_section_title
;
Structure prediction by ZEFSAII (Michael W. Deem and Ramdas Pophale) SiO2 
 PCOD9081576
Probable space group: P -1
;
_chemical_formula_sum "Si O2"
_cell_formula_units_Z 16
_cell_length_a 12.356916
_cell_length_b 19.694841
_cell_length_c 11.507850
_cell_angle_alpha 145.181311
_cell_angle_beta 62.131741
_cell_angle_gamma 141.496798
_cell_volume 866.502259
_symmetry_space_group_name_H-M "P -1"
_symmetry_group_IT_number 2
_symmetry_cell_setting 'triclinic'
loop_
_space_group_symop_operation_xyz
x,y,z
-x,-y,-z
loop_
_atom_site_type_symbol
_atom_site_label
_atom_site_fract_x
_atom_site_fract_y
_atom_site_fract_z
Si Si1 0.164776 0.838922 0.569918
Si Si2 0.484726 0.382313 0.464406
Si Si3 0.514784 0.195649 0.358503
Si Si4 0.813869 0.417889 0.717619
Si Si5 0.085247 0.432098 0.876318
Si Si6 0.240633 0.764307 0.897772
Si Si7 0.429730 0.738237 0.954841
Si Si8 0.147593 0.222779 0.265001
O O1 0.187042 0.719985 0.432974
O O2 0.086225 0.779888 0.393729
O O3 0.993297 0.771877 0.636958
O O4 0.371833 0.063020 0.803540
O O5 0.472485 0.288357 0.449049
O O6 0.515153 0.317045 0.246999
O O7 0.282237 0.295928 0.413439
O O8 0.682384 0.616473 0.690304
O O9 0.614529 0.287624 0.562670
O O10 0.671701 0.243498 0.264894
O O11 0.325995 0.962852 0.128352
O O12 0.003975 0.579448 0.765578
O O13 0.852454 0.529646 0.967760
O O14 0.275821 0.571970 0.893030
O O15 0.000000 0.500000 0.000000
O O16 0.326414 0.765679 0.972498
O O17 0.000000 0.000000 0.000000
#
# Coordination Sequence:
#
# PCOD9081576 Si02
#       8
#     2   2   2   2   2   2   2   2
#     4  11  20  33  55  82 114 142 185 227 275 322
#     4  10  22  37  56  84 115 138 182 230 279 328
#     4  10  21  34  52  80 113 149 174 221 276 341
#     4  11  21  35  54  81 117 151 180 217 274 334
#     4  10  21  34  52  79 116 152 182 228 264 327
#     4  10  19  32  52  78 112 146 179 215 276 333
#     4  11  18  34  55  81 115 145 177 228 278 325
#     4  11  21  36  60  84 108 144 183 233 281 321
#
# _framework density 18.465042
#
# number of rings (size 3 to 8) (size 9 to 14) (size 15 to 20)
#    0.000    1.500    6.250    1.125    0.000    4.000 
#    0.000    0.000    0.000    0.750    0.000    2.625 
#    0.000    0.000    0.000    0.000    0.000    0.000 
#
# Total GULP energy -89277.887324 kJ/mol
# GULP energy per Si atom -5579.867958 kJ/mol
# Density = 1.842302 g / cm^3
# Si number density = 18.465042 Si / 1000 Ang^3
#
#
#
# Elastic Constant Matrix: (Units=GPa)
#
#
# Indices 1 2 3 4 5 6 
#
# 1 81.4810 3.4522 18.8629 7.6011 3.4162 -9.6296
# 2 3.4522 24.6883 19.4740 8.4879 3.1907 -0.3201
# 3 18.8629 19.4740 92.6998 21.3491 19.1704 -6.0395
# 4 7.6011 8.4879 21.3491 30.4277 -1.9437 2.4446
# 5 3.4162 3.1907 19.1704 -1.9437 24.1927 3.9718
# 6 -9.6296 -0.3201 -6.0395 2.4446 3.9718 24.3510
#
#
#
# Elastic Compliance Matrix: (Units=1/GPa)
#
#
# Indices 1 2 3 4 5 6 
#
# 1 0.013627 0.000615 -0.001339 -0.003234 -0.002146 0.005739
# 2 0.000615 0.050119 -0.008788 -0.007953 -0.000302 -0.000430
# 3 -0.001339 -0.008788 0.019908 -0.012927 -0.016834 0.008336
# 4 -0.003234 -0.007953 -0.012927 0.047059 0.017528 -0.012173
# 5 -0.002146 -0.000302 -0.016834 0.017528 0.059123 -0.016431
# 6 0.005739 -0.000430 0.008336 -0.012173 -0.016431 0.049300
#
#
# Mechanical properties :
#
#
# Convention : Reuss Voigt Hill
#
# Bulk Modulus (GPa) = 15.47317 31.38304 23.42810
# Shear Modulus (GPa) = 17.87617 26.26627 22.07122
#
# Velocity S-wave (km/s) = 3.11482 3.77568 3.46106
# Velocity P-wave (km/s) = 4.61888 6.00337 5.35605
#
# Compressibility (1/GPa) = 0.06462801
#
# Stress axis : x y z
#
# Youngs Moduli (GPa) = 73.38497 19.95266 50.23195
#
# Poissons Ratio (x) = -0.01227 0.06728
# Poissons Ratio (y) = -0.04511 0.44143
# Poissons Ratio (z) = 0.09830 0.17534
#
# Static dielectric constant tensor:
#      x y z
#    x 1.653480 0.016460 0.000930 
#    y 0.016460 1.662850 -0.006810 
#    z 0.000930 -0.006810 1.661010 
# 
# From -- ./inp_files/431530.got.cif
#   From: 2010.05.17/outbox.cif.g08.bks.cpg/sg2_216_cif.got.tgz:431530.got - 2010.06.03 11:33:40.
