data_PCOD9081082
_publ_section_title
;
Structure prediction by ZEFSAII (Michael W. Deem and Ramdas Pophale) SiO2 
 PCOD9081082
Probable space group: P -1
;
_chemical_formula_sum "Si O2"
_cell_formula_units_Z 14
_cell_length_a 11.693909
_cell_length_b 27.786726
_cell_length_c 6.102459
_cell_angle_alpha 50.184694
_cell_angle_beta 140.942131
_cell_angle_gamma 148.085707
_cell_volume 659.460985
_symmetry_space_group_name_H-M "P -1"
_symmetry_group_IT_number 2
_symmetry_cell_setting 'triclinic'
loop_
_space_group_symop_operation_xyz
x,y,z
-x,-y,-z
loop_
_atom_site_type_symbol
_atom_site_label
_atom_site_fract_x
_atom_site_fract_y
_atom_site_fract_z
Si Si1 0.784831 0.938619 0.164701
Si Si2 0.835204 0.526846 0.890974
Si Si3 0.330330 0.423499 0.156391
Si Si4 0.760464 0.368969 0.171303
Si Si5 0.229400 0.260142 0.413376
Si Si6 0.021554 0.907018 0.236020
Si Si7 0.584464 0.782726 0.570210
O O1 0.911425 0.924773 0.210877
O O2 0.555541 0.839153 0.221681
O O3 0.000000 0.000000 0.500000
O O4 0.741940 0.994617 0.816371
O O5 0.542134 0.456129 0.560840
O O6 0.841303 0.567860 0.000082
O O7 0.885117 0.465222 0.164737
O O8 0.033164 0.604146 0.778443
O O9 0.195491 0.326194 0.153695
O O10 0.500000 0.500000 0.000000
O O11 0.490571 0.314526 0.792890
O O12 0.669103 0.302061 0.425771
O O13 0.986095 0.162557 0.453998
O O14 0.306988 0.245111 0.346092
O O15 0.807079 0.849078 0.892595
#
# Coordination Sequence:
#
# PCOD9081082 Si02
#       7
#     2   2   2   2   2   2   2
#     4   8  13  22  38  61  89 115 139 170 212 255
#     4   9  19  32  45  62  86 115 147 183 221 256
#     4  10  19  31  45  62  85 115 149 183 217 256
#     4   9  17  30  45  63  87 114 145 182 220 258
#     4   9  17  27  43  64  87 116 146 178 217 256
#     4   8  14  24  38  60  90 116 139 172 213 255
#     4   9  15  24  40  63  89 113 140 175 216 258
#
# _framework density 21.229458999999999
#
# number of rings (size 3 to 8) (size 9 to 14) (size 15 to 20)
#    0.000    3.143    0.000    0.857    0.000    2.286 
#    0.000    4.286    0.000    0.000    0.000    1.000 
#    0.000  104.000    0.000   17.143    0.000    2.429 
#
# Total GULP energy -77942.728531 kJ/mol
# GULP energy per Si atom -5567.337752 kJ/mol
# Density = 2.118114 g / cm^3
# Si number density = 21.229459 Si / 1000 Ang^3
#
#
#
# Elastic Constant Matrix: (Units=GPa)
#
#
# Indices 1 2 3 4 5 6 
#
# 1 120.9408 73.1070 28.2126 -24.9243 -38.4709 -7.0606
# 2 73.1070 134.0222 33.5997 -45.0282 -34.7195 -9.9516
# 3 28.2126 33.5997 37.9244 -4.0434 -19.0872 -9.0106
# 4 -24.9243 -45.0282 -4.0434 43.1098 10.8424 -16.7732
# 5 -38.4709 -34.7195 -19.0872 10.8424 28.9926 -3.8065
# 6 -7.0606 -9.9516 -9.0106 -16.7732 -3.8065 36.2466
#
#
#
# Elastic Compliance Matrix: (Units=1/GPa)
#
#
# Indices 1 2 3 4 5 6 
#
# 1 0.017357 -0.001667 0.001842 0.006554 0.020928 0.008612
# 2 -0.001667 0.024713 -0.004606 0.028066 0.016485 0.020034
# 3 0.001842 -0.004606 0.047414 -0.001834 0.030569 0.013243
# 4 0.006554 0.028066 -0.001834 0.066966 0.021541 0.041777
# 5 0.020928 0.016485 0.030569 0.021541 0.098871 0.036553
# 6 0.008612 0.020034 0.013243 0.041777 0.036553 0.061230
#
#
# Mechanical properties :
#
#
# Convention : Reuss Voigt Hill
#
# Bulk Modulus (GPa) = 12.40321 62.52511 37.46416
# Shear Modulus (GPa) = 14.19303 32.20101 23.19702
#
# Velocity S-wave (km/s) = 2.58845 3.89885 3.30916
# Velocity P-wave (km/s) = 3.84559 7.05578 5.68210
#
# Compressibility (1/GPa) = 0.08062426
#
# Stress axis : x y z
#
# Youngs Moduli (GPa) = 57.61444 40.46450 21.09079
#
# Poissons Ratio (x) = 0.06744 -0.03886
# Poissons Ratio (y) = 0.09603 0.09714
# Poissons Ratio (z) = -0.10615 0.18636
#
# Static dielectric constant tensor:
#      x y z
#    x 1.749340 0.011540 -0.001460 
#    y 0.011540 1.837140 -0.044540 
#    z -0.001460 -0.044540 1.810340 
# 
# From -- ./inp_files/83981.got.cif
#   From: 2010.05.17/outbox.cif.g08.bks.cpg/sg2_42_cif.got.tgz:83981.got - 2010.06.03 11:33:40.
