data_PCOD9081470
_publ_section_title
;
Structure prediction by ZEFSAII (Michael W. Deem and Ramdas Pophale) SiO2 
 PCOD9081470
Probable space group: P -1
;
_chemical_formula_sum "Si O2"
_cell_formula_units_Z 14
_cell_length_a 11.082586
_cell_length_b 15.374666
_cell_length_c 13.067050
_cell_angle_alpha 134.250515
_cell_angle_beta 44.792752
_cell_angle_gamma 154.891493
_cell_volume 654.198613
_symmetry_space_group_name_H-M "P -1"
_symmetry_group_IT_number 2
_symmetry_cell_setting 'triclinic'
loop_
_space_group_symop_operation_xyz
x,y,z
-x,-y,-z
loop_
_atom_site_type_symbol
_atom_site_label
_atom_site_fract_x
_atom_site_fract_y
_atom_site_fract_z
Si Si1 0.125237 0.597959 0.118438
Si Si2 0.610510 0.142127 0.148458
Si Si3 0.586257 0.670310 0.954878
Si Si4 0.146924 0.049264 0.301450
Si Si5 0.010804 0.213478 0.596116
Si Si6 0.950913 0.791095 0.009549
Si Si7 0.591181 0.582591 0.657985
O O1 0.874744 0.387409 0.164488
O O2 0.153664 0.758130 0.251505
O O3 0.434999 0.708205 0.040969
O O4 0.000000 0.500000 0.000000
O O5 0.320970 0.055744 0.275202
O O6 0.770935 0.135922 0.117698
O O7 0.500000 0.000000 0.000000
O O8 0.318472 0.450370 0.994390
O O9 0.658312 0.636584 0.780583
O O10 0.851077 0.816092 0.995790
O O11 0.934786 0.030766 0.459431
O O12 0.400028 0.277902 0.283138
O O13 0.007105 0.899641 0.167644
O O14 0.269244 0.346248 0.634586
O O15 0.175228 0.348102 0.499311
#
# Coordination Sequence:
#
# PCOD9081470 Si02
#       7
#     2   2   2   2   2   2   2
#     4  11  17  30  54  75  92 124 167 206 240 285
#     4   9  16  29  50  71  96 125 161 201 238 279
#     4  10  19  32  49  76 100 132 164 195 242 296
#     4   9  16  32  52  74  96 127 163 210 242 279
#     4   9  17  30  52  77  96 121 162 210 251 276
#     4   9  20  31  47  73 107 133 159 196 243 291
#     4   9  16  30  53  73  97 120 165 205 244 280
#
# _framework density 21.400230000000001
#
# number of rings (size 3 to 8) (size 9 to 14) (size 15 to 20)
#    0.857    1.714    2.857    0.000    0.000    0.571 
#    0.000    1.429    3.143   13.714    0.000    0.000 
#    0.000    0.000    0.000    0.000    0.000    0.000 
#
# Total GULP energy -77952.051290 kJ/mol
# GULP energy per Si atom -5568.003664 kJ/mol
# Density = 2.135152 g / cm^3
# Si number density = 21.400230 Si / 1000 Ang^3
#
#
#
# Elastic Constant Matrix: (Units=GPa)
#
#
# Indices 1 2 3 4 5 6 
#
# 1 161.6048 26.8134 83.6982 5.0067 -14.8252 22.9359
# 2 26.8134 51.3295 21.4919 5.3884 -18.7571 1.9731
# 3 83.6982 21.4919 141.7159 -13.4692 -14.9672 20.4838
# 4 5.0067 5.3884 -13.4692 20.8427 -8.3372 -4.7349
# 5 -14.8252 -18.7571 -14.9672 -8.3372 28.2082 5.1607
# 6 22.9359 1.9731 20.4838 -4.7349 5.1607 33.3288
#
#
#
# Elastic Compliance Matrix: (Units=1/GPa)
#
#
# Indices 1 2 3 4 5 6 
#
# 1 0.010383 -0.002216 -0.005856 -0.006830 -0.000350 -0.004331
# 2 -0.002216 0.027261 -0.000815 -0.000889 0.016687 -0.002298
# 3 -0.005856 -0.000815 0.013109 0.012361 0.007611 -0.003401
# 4 -0.006830 -0.000889 0.012361 0.067257 0.021642 0.003359
# 5 -0.000350 0.016687 0.007611 0.021642 0.058896 -0.011470
# 6 -0.004331 -0.002298 -0.003401 0.003359 -0.011470 0.037464
#
#
# Mechanical properties :
#
#
# Convention : Reuss Voigt Hill
#
# Bulk Modulus (GPa) = 30.32423 68.73970 49.53197
# Shear Modulus (GPa) = 20.56457 31.31906 25.94181
#
# Velocity S-wave (km/s) = 3.10328 3.82971 3.48547
# Velocity P-wave (km/s) = 5.20013 7.19349 6.27645
#
# Compressibility (1/GPa) = 0.03297693
#
# Stress axis : x y z
#
# Youngs Moduli (GPa) = 96.31344 36.68294 76.28402
#
# Poissons Ratio (x) = 0.08130 0.44673
# Poissons Ratio (y) = 0.21347 0.06218
# Poissons Ratio (z) = 0.56402 0.02990
#
# Static dielectric constant tensor:
#      x y z
#    x 1.790690 -0.054580 -0.005780 
#    y -0.054580 1.907660 -0.059870 
#    z -0.005780 -0.059870 1.805380 
# 
# From -- ./inp_files/462816.got.cif
#   From: 2010.05.17/outbox.cif.g08.bks.cpg/sg2_232_cif.got.tgz:462816.got - 2010.06.03 11:33:40.
