data_PCOD9081381
_publ_section_title
;
Structure prediction by ZEFSAII (Michael W. Deem and Ramdas Pophale) SiO2 
 PCOD9081381
Probable space group: P -1
;
_chemical_formula_sum "Si O2"
_cell_formula_units_Z 16
_cell_length_a 5.015812
_cell_length_b 26.603593
_cell_length_c 15.438411
_cell_angle_alpha 20.736321
_cell_angle_beta 107.235495
_cell_angle_gamma 108.319742
_cell_volume 692.422803
_symmetry_space_group_name_H-M "P -1"
_symmetry_group_IT_number 2
_symmetry_cell_setting 'triclinic'
loop_
_space_group_symop_operation_xyz
x,y,z
-x,-y,-z
loop_
_atom_site_type_symbol
_atom_site_label
_atom_site_fract_x
_atom_site_fract_y
_atom_site_fract_z
Si Si1 0.897953 0.993603 0.241948
Si Si2 0.711448 0.398242 0.647342
Si Si3 0.285604 0.585398 0.791368
Si Si4 0.158636 0.428380 0.865605
Si Si5 0.487201 0.105579 0.132472
Si Si6 0.805488 0.758109 0.478475
Si Si7 0.830782 0.898425 0.578565
Si Si8 0.329765 0.395378 0.458101
O O1 0.893943 0.909433 0.287883
O O2 0.928973 0.900761 0.482844
O O3 0.158551 0.116554 0.076091
O O4 0.602689 0.049757 0.143082
O O5 0.500000 0.500000 0.500000
O O6 0.550332 0.346101 0.627273
O O7 0.000000 0.500000 0.500000
O O8 0.683431 0.251885 0.935833
O O9 0.137785 0.471868 0.893342
O O10 0.493177 0.706055 0.566958
O O11 0.040770 0.659508 0.694334
O O12 0.500000 0.500000 0.000000
O O13 0.463286 0.493479 0.756999
O O14 0.909781 0.517047 0.662981
O O15 0.160318 0.260137 0.129862
O O16 0.549285 0.978951 0.408507
O O17 0.798644 0.726654 0.425048
O O18 0.000000 0.000000 0.500000
#
# Coordination Sequence:
#
# PCOD9081381 Si02
#       8
#     2   2   2   2   2   2   2   2
#     4  10  22  40  63  89 133 163 206 250 316 375
#     4  12  26  46  73  90 123 164 212 270 312 367
#     4  10  19  31  56  86 126 165 212 243 298 371
#     4  10  22  38  59  95 127 168 199 262 311 363
#     4  10  25  43  62  96 119 168 212 255 313 377
#     4  10  20  37  58  89 126 165 201 259 305 368
#     4  10  25  39  63  88 133 163 210 251 313 379
#     4  10  24  40  64  95 127 158 220 255 311 370
#
# _framework density 23.107271000000001
#
# number of rings (size 3 to 8) (size 9 to 14) (size 15 to 20)
#    0.750    1.000    0.000    3.375    7.000    1.500 
#    0.000    1.250    0.000    0.000    0.000    0.000 
#    0.000    0.000    0.000    0.000    0.000    0.000 
#
# Total GULP energy -89083.508643 kJ/mol
# GULP energy per Si atom -5567.719290 kJ/mol
# Density = 2.305468 g / cm^3
# Si number density = 23.107271 Si / 1000 Ang^3
#
#
#
# Elastic Constant Matrix: (Units=GPa)
#
#
# Indices 1 2 3 4 5 6 
#
# 1 91.2293 0.5327 -7.3299 0.2245 2.0145 16.3991
# 2 0.5327 84.5433 19.1778 -1.6624 2.1937 9.6631
# 3 -7.3299 19.1778 47.1431 -8.7430 2.3768 3.4711
# 4 0.2245 -1.6624 -8.7430 29.8287 5.8864 6.8139
# 5 2.0145 2.1937 2.3768 5.8864 22.8000 -3.0362
# 6 16.3991 9.6631 3.4711 6.8139 -3.0362 31.6919
#
#
#
# Elastic Compliance Matrix: (Units=1/GPa)
#
#
# Indices 1 2 3 4 5 6 
#
# 1 0.012747 0.000258 0.003280 0.003411 -0.003452 -0.008098
# 2 0.000258 0.013453 -0.004984 0.000469 -0.001442 -0.003928
# 3 0.003280 -0.004984 0.026299 0.009876 -0.005866 -0.005743
# 4 0.003411 0.000469 0.009876 0.042264 -0.014075 -0.013425
# 5 -0.003452 -0.001442 -0.005866 -0.014075 0.049971 0.010682
# 6 -0.008098 -0.003928 -0.005743 -0.013425 0.010682 0.041481
#
#
# Mechanical properties :
#
#
# Convention : Reuss Voigt Hill
#
# Bulk Modulus (GPa) = 20.15831 27.51965 23.83898
# Shear Modulus (GPa) = 24.31400 30.89980 27.60690
#
# Velocity S-wave (km/s) = 3.24732 3.66079 3.46023
# Velocity P-wave (km/s) = 4.77523 5.45929 5.12868
#
# Compressibility (1/GPa) = 0.04960732
#
# Stress axis : x y z
#
# Youngs Moduli (GPa) = 78.45058 74.33425 38.02369
#
# Poissons Ratio (x) = -0.01917 -0.12471
# Poissons Ratio (y) = -0.02023 0.18949
# Poissons Ratio (z) = -0.25730 0.37045
#
# Static dielectric constant tensor:
#      x y z
#    x 1.869650 0.027700 0.036770 
#    y 0.027700 2.013260 0.145600 
#    z 0.036770 0.145600 1.979870 
# 
# From -- ./inp_files/551480.got.cif
#   From: 2010.05.17/outbox.cif.g08.bks.cpg/sg2_276_cif.got.tgz:551480.got - 2010.06.03 11:33:40.
