data_PCOD9081591
_publ_section_title
;
Structure prediction by ZEFSAII (Michael W. Deem and Ramdas Pophale) SiO2 
 PCOD9081591
Probable space group: P -1
;
_chemical_formula_sum "Si O2"
_cell_formula_units_Z 14
_cell_length_a 10.215689
_cell_length_b 8.716823
_cell_length_c 11.890423
_cell_angle_alpha 51.217939
_cell_angle_beta 46.095672
_cell_angle_gamma 45.915543
_cell_volume 526.377421
_symmetry_space_group_name_H-M "P -1"
_symmetry_group_IT_number 2
_symmetry_cell_setting 'triclinic'
loop_
_space_group_symop_operation_xyz
x,y,z
-x,-y,-z
loop_
_atom_site_type_symbol
_atom_site_label
_atom_site_fract_x
_atom_site_fract_y
_atom_site_fract_z
Si Si1 0.195686 0.670913 0.610411
Si Si2 0.333145 0.507726 0.832911
Si Si3 0.212725 0.222228 0.470190
Si Si4 0.790385 0.207569 0.690091
Si Si5 0.357553 0.202607 0.637232
Si Si6 0.670471 0.936813 0.055879
Si Si7 0.775490 0.646558 0.830918
O O1 0.234666 0.688206 0.710841
O O2 0.211497 0.823188 0.431242
O O3 0.354091 0.420494 0.592678
O O4 0.976133 0.671951 0.730040
O O5 0.574065 0.426566 0.740148
O O6 0.313580 0.292299 0.896703
O O7 0.231784 0.543225 0.999396
O O8 0.234076 0.271235 0.564017
O O9 0.223287 0.378697 0.292544
O O10 0.999228 0.217586 0.582709
O O11 0.414936 0.989156 0.434045
O O12 0.778476 0.030775 0.863295
O O13 0.260678 0.112507 0.832881
O O14 0.434180 0.129196 0.117647
#
# Coordination Sequence:
#
# PCOD9081591 Si02
#       7
#     2   2   2   2   2   2   2
#     4  10  20  33  53  78 104 134 170 214 258 300
#     4  10  19  36  53  75 107 140 171 206 253 309
#     4   9  19  35  57  76  99 135 178 213 248 305
#     4  10  19  32  52  81 105 131 170 216 256 296
#     4   9  19  38  56  74 101 137 174 210 257 307
#     4   9  19  36  55  74 104 141 172 206 253 307
#     4   9  17  31  52  76 101 135 168 204 256 304
#
# _framework density 26.596885
#
# number of rings (size 3 to 8) (size 9 to 14) (size 15 to 20)
#    0.000    2.571    0.000    2.571    0.000    2.857 
#    0.000   34.286    0.000   17.143    0.000    0.000 
#    0.000    0.000    0.000    0.000    0.000    0.000 
#
# Total GULP energy -78394.646959 kJ/mol
# GULP energy per Si atom -5599.617640 kJ/mol
# Density = 2.653635 g / cm^3
# Si number density = 26.596885 Si / 1000 Ang^3
#
#
#
# Elastic Constant Matrix: (Units=GPa)
#
#
# Indices 1 2 3 4 5 6 
#
# 1 138.5543 21.5669 103.5713 -14.8012 40.8284 -36.0731
# 2 21.5669 96.8142 44.4718 17.1208 4.3367 -16.9264
# 3 103.5713 44.4718 275.4290 -42.2467 42.0557 -33.3484
# 4 -14.8012 17.1208 -42.2467 44.5358 -22.8327 -5.4213
# 5 40.8284 4.3367 42.0557 -22.8327 54.8683 -1.2349
# 6 -36.0731 -16.9264 -33.3484 -5.4213 -1.2349 24.3874
#
#
#
# Elastic Compliance Matrix: (Units=1/GPa)
#
#
# Indices 1 2 3 4 5 6 
#
# 1 0.018747 0.001812 -0.002508 0.000321 -0.011473 0.025048
# 2 0.001812 0.014109 -0.002987 -0.008787 -0.003690 0.006248
# 3 -0.002508 -0.002987 0.006815 0.007466 0.000102 0.005201
# 4 0.000321 -0.008787 0.007466 0.040967 0.012103 0.014306
# 5 -0.011473 -0.003690 0.000102 0.012103 0.031672 -0.015097
# 6 0.025048 0.006248 0.005201 0.014306 -0.015097 0.091919
#
#
# Mechanical properties :
#
#
# Convention : Reuss Voigt Hill
#
# Bulk Modulus (GPa) = 30.95535 94.44639 62.70087
# Shear Modulus (GPa) = 22.48564 47.50414 34.99489
#
# Velocity S-wave (km/s) = 2.91077 4.23079 3.63126
# Velocity P-wave (km/s) = 4.79174 7.71061 6.41928
#
# Compressibility (1/GPa) = 0.03230459
#
# Stress axis : x y z
#
# Youngs Moduli (GPa) = 53.34312 70.87616 146.72558
#
# Poissons Ratio (x) = -0.12845 0.36801
# Poissons Ratio (y) = -0.09667 0.43833
# Poissons Ratio (z) = 0.13379 0.21174
#
# Static dielectric constant tensor:
#      x y z
#    x 2.059820 -0.008770 0.036830 
#    y -0.008770 2.111150 -0.017520 
#    z 0.036830 -0.017520 2.094860 
# 
# From -- ./inp_files/157460.got.cif
#   From: 2010.05.17/outbox.cif.g08.bks.cpg/sg2_79_cif.got.tgz:157460.got - 2010.06.03 11:33:40.
