data_PCOD9081569
_publ_section_title
;
Structure prediction by ZEFSAII (Michael W. Deem and Ramdas Pophale) SiO2 
 PCOD9081569
Probable space group: P -1
;
_chemical_formula_sum "Si O2"
_cell_formula_units_Z 16
_cell_length_a 11.413689
_cell_length_b 12.688269
_cell_length_c 5.652615
_cell_angle_alpha 54.880089
_cell_angle_beta 79.357058
_cell_angle_gamma 93.562695
_cell_volume 643.465083
_symmetry_space_group_name_H-M "P -1"
_symmetry_group_IT_number 2
_symmetry_cell_setting 'triclinic'
loop_
_space_group_symop_operation_xyz
x,y,z
-x,-y,-z
loop_
_atom_site_type_symbol
_atom_site_label
_atom_site_fract_x
_atom_site_fract_y
_atom_site_fract_z
Si Si1 0.953212 0.726166 0.744759
Si Si2 0.504831 0.165129 0.928081
Si Si3 0.288364 0.190829 0.233736
Si Si4 0.663733 0.530271 0.639243
Si Si5 0.327735 0.995860 0.861545
Si Si6 0.071187 0.288485 0.721787
Si Si7 0.600496 0.398016 0.322496
Si Si8 0.107652 0.002727 0.198583
O O1 0.806287 0.715850 0.809772
O O2 0.984480 0.670969 0.553125
O O3 0.015407 0.881712 0.505093
O O4 0.982856 0.676683 0.053719
O O5 0.584051 0.244357 0.587639
O O6 0.405026 0.051485 0.991629
O O7 0.418109 0.247875 0.989233
O O8 0.596953 0.107080 0.134634
O O9 0.324091 0.120653 0.541743
O O10 0.203750 0.075768 0.261852
O O11 0.785382 0.643809 0.425787
O O12 0.653697 0.461348 0.472980
O O13 0.538542 0.580208 0.665695
O O14 0.666980 0.443866 0.990519
O O15 0.189522 0.942589 0.057264
O O16 0.063485 0.128745 0.937985
#
# Coordination Sequence:
#
# PCOD9081569 Si02
#       8
#     2   2   2   2   2   2   2   2
#     4  11  22  32  58  84 118 144 177 225 284 331
#     4  10  22  35  52  82 110 153 185 220 276 322
#     4  10  19  32  52  77 116 147 178 221 267 341
#     4  10  21  35  54  79 106 143 185 225 281 315
#     4  10  20  35  54  77 116 149 186 217 269 341
#     4  11  20  35  53  82 114 145 173 226 281 332
#     4  10  21  36  54  77 108 142 186 233 262 327
#     4  10  21  34  51  86 115 143 180 224 275 336
#
# _framework density 24.865373000000002
#
# number of rings (size 3 to 8) (size 9 to 14) (size 15 to 20)
#    0.000    1.750    1.250    5.250    3.500    1.000 
#    0.000    0.000    0.000    0.000    0.000    5.250 
#    0.000    0.000    0.000    0.000    0.000    0.000 
#
# Total GULP energy -89251.390626 kJ/mol
# GULP energy per Si atom -5578.211914 kJ/mol
# Density = 2.480878 g / cm^3
# Si number density = 24.865373 Si / 1000 Ang^3
#
#
#
# Elastic Constant Matrix: (Units=GPa)
#
#
# Indices 1 2 3 4 5 6 
#
# 1 39.2843 11.9910 24.8961 2.3957 -9.7187 8.0151
# 2 11.9910 52.8438 32.9761 11.9104 3.3555 21.3255
# 3 24.8961 32.9761 169.1377 26.3086 -24.0107 3.8346
# 4 2.3957 11.9104 26.3086 43.6325 12.8834 4.2035
# 5 -9.7187 3.3555 -24.0107 12.8834 26.6689 -3.4409
# 6 8.0151 21.3255 3.8346 4.2035 -3.4409 18.0933
#
#
#
# Elastic Compliance Matrix: (Units=1/GPa)
#
#
# Indices 1 2 3 4 5 6 
#
# 1 0.031931 -0.002581 -0.002420 -0.001569 0.009453 -0.008428
# 2 -0.002581 0.063096 -0.018434 0.014491 -0.042906 -0.080844
# 3 -0.002420 -0.018434 0.015006 -0.014018 0.025291 0.027685
# 4 -0.001569 0.014491 -0.014018 0.042055 -0.039287 -0.030655
# 5 0.009453 -0.042906 0.025291 -0.039287 0.096939 0.068587
# 6 -0.008428 -0.080844 0.027685 -0.030655 0.068587 0.168586
#
#
# Mechanical properties :
#
#
# Convention : Reuss Voigt Hill
#
# Bulk Modulus (GPa) = 15.83201 44.55468 30.19335
# Shear Modulus (GPa) = 10.29791 30.43913 20.36852
#
# Velocity S-wave (km/s) = 2.03727 3.50259 2.86519
# Velocity P-wave (km/s) = 3.45179 5.85788 4.80779
#
# Compressibility (1/GPa) = 0.06316315
#
# Stress axis : x y z
#
# Youngs Moduli (GPa) = 31.31801 15.84886 66.64208
#
# Poissons Ratio (x) = 0.04090 0.16126
# Poissons Ratio (y) = 0.08083 1.22846
# Poissons Ratio (z) = 0.07578 0.29215
#
# Static dielectric constant tensor:
#      x y z
#    x 1.984410 -0.038800 -0.002590 
#    y -0.038800 2.118870 0.069530 
#    z -0.002590 0.069530 2.039050 
# 
# From -- ./inp_files/76969.got.cif
#   From: 2010.05.17/outbox.cif.g08.bks.cpg/sg2_39_cif.got.tgz:76969.got - 2010.06.03 11:33:40.
