data_PCOD9081941
_publ_section_title
;
Structure prediction by ZEFSAII (Michael W. Deem and Ramdas Pophale) SiO2 
 PCOD9081941
Probable space group: P -1
;
_chemical_formula_sum "Si O2"
_cell_formula_units_Z 14
_cell_length_a 11.770742
_cell_length_b 13.677588
_cell_length_c 8.221868
_cell_angle_alpha 104.514423
_cell_angle_beta 55.022881
_cell_angle_gamma 146.928784
_cell_volume 507.731058
_symmetry_space_group_name_H-M "P -1"
_symmetry_group_IT_number 2
_symmetry_cell_setting 'triclinic'
loop_
_space_group_symop_operation_xyz
x,y,z
-x,-y,-z
loop_
_atom_site_type_symbol
_atom_site_label
_atom_site_fract_x
_atom_site_fract_y
_atom_site_fract_z
Si Si1 0.305871 0.099882 0.595492
Si Si2 0.928178 0.045695 0.817136
Si Si3 0.650355 0.597327 0.593817
Si Si4 0.737349 0.236775 0.449367
Si Si5 0.091863 0.715225 0.315200
Si Si6 0.913259 0.702440 0.926352
Si Si7 0.528092 0.184506 0.111283
O O1 0.111495 0.075060 0.765265
O O2 0.563376 0.227932 0.555477
O O3 0.468909 0.205180 0.334092
O O4 0.063481 0.857248 0.717549
O O5 0.090104 0.162763 0.559621
O O6 0.957492 0.160999 0.961100
O O7 0.599521 0.833456 0.943331
O O8 0.500000 0.500000 0.500000
O O9 0.421860 0.488692 0.865096
O O10 0.786312 0.575015 0.503126
O O11 0.835985 0.289080 0.574108
O O12 0.500000 0.000000 0.500000
O O13 0.000104 0.359258 0.178648
O O14 0.314847 0.950083 0.203420
O O15 0.169687 0.678010 0.106853
#
# Coordination Sequence:
#
# PCOD9081941 Si02
#       7
#     2   2   2   2   2   2   2
#     4  11  21  34  59  89 112 141 186 243 282 321
#     4  10  21  37  56  85 115 148 182 231 293 325
#     4   9  21  37  60  80 112 151 193 222 279 338
#     4  10  19  34  55  87 112 143 190 230 275 327
#     4  10  19  34  57  85 109 151 189 233 269 330
#     4  10  20  37  58  82 112 147 190 228 273 336
#     4  10  19  32  58  82 114 141 191 232 279 326
#
# _framework density 27.573653
#
# number of rings (size 3 to 8) (size 9 to 14) (size 15 to 20)
#    0.000    2.000    2.857    2.571    6.000    0.571 
#    0.000    0.714    0.000    4.286    0.000    0.000 
#    0.000    0.000    0.000    0.000    0.000    0.000 
#
# Total GULP energy -78293.250370 kJ/mol
# GULP energy per Si atom -5592.375026 kJ/mol
# Density = 2.751089 g / cm^3
# Si number density = 27.573653 Si / 1000 Ang^3
#
#
#
# Elastic Constant Matrix: (Units=GPa)
#
#
# Indices 1 2 3 4 5 6 
#
# 1 187.0499 34.0421 68.9843 4.2289 -53.8191 23.9482
# 2 34.0421 54.0561 15.8516 -4.2904 -9.2096 -0.9878
# 3 68.9843 15.8516 193.5073 -10.5893 -34.2130 16.6509
# 4 4.2289 -4.2904 -10.5893 33.3656 16.8577 -6.5210
# 5 -53.8191 -9.2096 -34.2130 16.8577 45.5681 0.8635
# 6 23.9482 -0.9878 16.6509 -6.5210 0.8635 54.1591
#
#
#
# Elastic Compliance Matrix: (Units=1/GPa)
#
#
# Indices 1 2 3 4 5 6 
#
# 1 0.014051 -0.006433 -0.001034 -0.014675 0.020100 -0.008100
# 2 -0.006433 0.022324 -0.000648 0.007628 -0.006480 0.004473
# 3 -0.001034 -0.000648 0.006329 0.000025 0.003419 -0.001552
# 4 -0.014675 0.007628 0.000025 0.053605 -0.035861 0.013646
# 5 0.020100 -0.006480 0.003419 -0.035861 0.060500 -0.015340
# 6 -0.008100 0.004473 -0.001552 0.013646 -0.015340 0.024492
#
#
# Mechanical properties :
#
#
# Convention : Reuss Voigt Hill
#
# Bulk Modulus (GPa) = 37.77625 74.70771 56.24198
# Shear Modulus (GPa) = 24.22988 47.66758 35.94873
#
# Velocity S-wave (km/s) = 2.96756 4.16232 3.61464
# Velocity P-wave (km/s) = 5.04695 7.08890 6.15322
#
# Compressibility (1/GPa) = 0.02647166
#
# Stress axis : x y z
#
# Youngs Moduli (GPa) = 71.17125 44.79470 158.00142
#
# Poissons Ratio (x) = 0.28818 0.16341
# Poissons Ratio (y) = 0.45787 0.10245
# Poissons Ratio (z) = 0.07361 0.02905
#
# Static dielectric constant tensor:
#      x y z
#    x 2.196510 -0.061170 0.017640 
#    y -0.061170 2.290790 -0.122840 
#    z 0.017640 -0.122840 2.234660 
# 
# From -- ./inp_files/168547.got.cif
#   From: 2010.05.17/outbox.cif.g08.bks.cpg/sg2_85_cif.got.tgz:168547.got - 2010.06.03 11:33:40.
