data_PCOD9081837
_publ_section_title
;
Structure prediction by ZEFSAII (Michael W. Deem and Ramdas Pophale) SiO2 
 PCOD9081837
Probable space group: P -1
;
_chemical_formula_sum "Si O2"
_cell_formula_units_Z 16
_cell_length_a 12.991061
_cell_length_b 14.625888
_cell_length_c 11.715085
_cell_angle_alpha 45.891458
_cell_angle_beta 39.237731
_cell_angle_gamma 29.848142
_cell_volume 698.681899
_symmetry_space_group_name_H-M "P -1"
_symmetry_group_IT_number 2
_symmetry_cell_setting 'triclinic'
loop_
_space_group_symop_operation_xyz
x,y,z
-x,-y,-z
loop_
_atom_site_type_symbol
_atom_site_label
_atom_site_fract_x
_atom_site_fract_y
_atom_site_fract_z
Si Si1 0.589592 0.103074 0.244398
Si Si2 0.286403 0.276307 0.014210
Si Si3 0.622330 0.793203 0.440658
Si Si4 0.053840 0.137851 0.283101
Si Si5 0.256057 0.630173 0.449869
Si Si6 0.245749 0.911807 0.111449
Si Si7 0.468378 0.762515 0.376681
Si Si8 0.073841 0.395309 0.323196
O O1 0.561198 0.160164 0.350116
O O2 0.320270 0.261034 0.292318
O O3 0.663474 0.914398 0.336999
O O4 0.753068 0.081954 0.031148
O O5 0.534311 0.127621 0.997672
O O6 0.348945 0.327204 0.808016
O O7 0.188773 0.197324 0.122366
O O8 0.116568 0.423429 0.132723
O O9 0.518002 0.839477 0.363995
O O10 0.872484 0.582682 0.400801
O O11 0.821328 0.292114 0.422593
O O12 0.036685 0.091069 0.210724
O O13 0.220741 0.944601 0.377234
O O14 0.298775 0.737696 0.255690
O O15 0.461437 0.409145 0.472543
O O16 0.032177 0.685386 0.536966
#
# Coordination Sequence:
#
# PCOD9081837 Si02
#       8
#     2   2   2   2   2   2   2   2
#     4  10  20  35  55  75 100 128 171 214 244 290
#     4   9  18  32  55  77 101 132 164 209 254 290
#     4  10  19  32  56  79  94 130 172 210 250 287
#     4  10  19  34  54  75 103 135 162 207 255 291
#     4  10  21  32  50  77 103 136 166 196 253 307
#     4  10  19  34  51  75 105 134 166 203 248 299
#     4  10  19  33  51  76 105 130 166 207 249 300
#     4   9  19  35  52  75 103 131 164 207 251 295
#
# _framework density 22.900262999999999
#
# number of rings (size 3 to 8) (size 9 to 14) (size 15 to 20)
#    0.000    2.250    0.000    5.250    0.000    7.500 
#    0.000    5.000    0.000    6.750    0.000    0.000 
#    0.000    0.000    0.000    0.000    0.000    0.000 
#
# Total GULP energy -89339.165717 kJ/mol
# GULP energy per Si atom -5583.697857 kJ/mol
# Density = 2.284814 g / cm^3
# Si number density = 22.900263 Si / 1000 Ang^3
#
#
#
# Elastic Constant Matrix: (Units=GPa)
#
#
# Indices 1 2 3 4 5 6 
#
# 1 28.6175 -3.5695 6.7189 0.2702 8.0062 9.0483
# 2 -3.5695 97.6523 30.5933 4.7989 7.4464 29.4475
# 3 6.7189 30.5933 129.9888 10.2236 21.0198 28.8232
# 4 0.2702 4.7989 10.2236 28.4623 12.5336 6.9044
# 5 8.0062 7.4464 21.0198 12.5336 31.0400 10.1659
# 6 9.0483 29.4475 28.8232 6.9044 10.1659 34.3761
#
#
#
# Elastic Compliance Matrix: (Units=1/GPa)
#
#
# Indices 1 2 3 4 5 6 
#
# 1 0.043667 0.006658 0.001000 0.006877 -0.011023 -0.016157
# 2 0.006658 0.014916 -0.000743 0.001425 -0.000797 -0.013958
# 3 0.001000 -0.000743 0.010056 0.000238 -0.004795 -0.006688
# 4 0.006877 0.001425 0.000238 0.044293 -0.017926 -0.006825
# 5 -0.011023 -0.000797 -0.004795 -0.017926 0.046578 -0.002570
# 6 -0.016157 -0.013958 -0.006688 -0.006825 -0.002570 0.053038
#
#
# Mechanical properties :
#
#
# Convention : Reuss Voigt Hill
#
# Bulk Modulus (GPa) = 12.12588 35.97155 24.04871
# Shear Modulus (GPa) = 22.10366 33.61009 27.85687
#
# Velocity S-wave (km/s) = 3.11016 3.83518 3.49154
# Velocity P-wave (km/s) = 4.26662 5.94588 5.17482
#
# Compressibility (1/GPa) = 0.08246826
#
# Stress axis : x y z
#
# Youngs Moduli (GPa) = 22.90075 67.04089 99.44525
#
# Poissons Ratio (x) = -0.44633 -0.09947
# Poissons Ratio (y) = -0.15246 0.07389
# Poissons Ratio (z) = -0.02291 0.04982
#
# Static dielectric constant tensor:
#      x y z
#    x 1.899170 -0.016040 -0.013020 
#    y -0.016040 1.860190 0.038340 
#    z -0.013020 0.038340 1.952120 
# 
# From -- ./inp_files/328582.got.cif
#   From: 2010.05.17/outbox.cif.g08.bks.cpg/sg2_165_cif.got.tgz:328582.got - 2010.06.03 11:33:40.
