data_PCOD9081844
_publ_section_title
;
Structure prediction by ZEFSAII (Michael W. Deem and Ramdas Pophale) SiO2 
 PCOD9081844
Probable space group: P -1
;
_chemical_formula_sum "Si O2"
_cell_formula_units_Z 16
_cell_length_a 11.341284
_cell_length_b 9.098879
_cell_length_c 10.846915
_cell_angle_alpha 103.329983
_cell_angle_beta 125.854906
_cell_angle_gamma 107.160175
_cell_volume 739.955605
_symmetry_space_group_name_H-M "P -1"
_symmetry_group_IT_number 2
_symmetry_cell_setting 'triclinic'
loop_
_space_group_symop_operation_xyz
x,y,z
-x,-y,-z
loop_
_atom_site_type_symbol
_atom_site_label
_atom_site_fract_x
_atom_site_fract_y
_atom_site_fract_z
Si Si1 0.066216 0.226866 0.157231
Si Si2 0.642007 0.135880 0.764814
Si Si3 0.747152 0.051399 0.480452
Si Si4 0.436960 0.386634 0.110146
Si Si5 0.782026 0.376056 0.670801
Si Si6 0.412729 0.248179 0.340612
Si Si7 0.049390 0.103026 0.844569
Si Si8 0.493629 0.250505 0.882140
O O1 0.081552 0.413637 0.215538
O O2 0.254381 0.253791 0.299739
O O3 0.026617 0.166287 0.978221
O O4 0.943765 0.069380 0.146725
O O5 0.774390 0.281531 0.776904
O O6 0.640811 0.225667 0.910176
O O7 0.440423 0.056038 0.584820
O O8 0.647367 0.959962 0.750808
O O9 0.795156 0.255299 0.550695
O O10 0.894549 0.050339 0.646238
O O11 0.686996 0.939370 0.295237
O O12 0.229948 0.266915 0.935152
O O13 0.517029 0.314405 0.048295
O O14 0.455326 0.342820 0.251934
O O15 0.506266 0.593154 0.165307
O O16 0.592717 0.346643 0.542186
#
# Coordination Sequence:
#
# PCOD9081844 Si02
#       8
#     2   2   2   2   2   2   2   2
#     4  10  21  31  52  83 112 142 174 217 272 323
#     4   9  18  33  53  82 109 139 177 218 263 316
#     4   9  20  34  55  78 108 143 175 218 269 320
#     4  10  21  38  57  81 106 139 185 227 266 309
#     4  11  19  33  56  84 111 141 179 218 266 322
#     4  10  19  32  56  82 108 141 175 224 266 310
#     4  10  20  36  51  78 116 138 174 221 274 319
#     4   9  21  38  57  82 101 142 190 221 261 315
#
# _framework density 21.622919
#
# number of rings (size 3 to 8) (size 9 to 14) (size 15 to 20)
#    0.750    1.500    0.000    4.875    1.750    1.500 
#    0.000    3.750    0.000    0.750    0.000    0.000 
#    0.000    0.000    0.000    0.000    0.000    0.000 
#
# Total GULP energy -89263.351490 kJ/mol
# GULP energy per Si atom -5578.959468 kJ/mol
# Density = 2.157370 g / cm^3
# Si number density = 21.622919 Si / 1000 Ang^3
#
#
#
# Elastic Constant Matrix: (Units=GPa)
#
#
# Indices 1 2 3 4 5 6 
#
# 1 32.4549 7.3839 6.7182 8.1635 -3.4007 -8.8794
# 2 7.3839 85.3134 16.1650 28.8287 -9.9206 -15.1982
# 3 6.7182 16.1650 36.9978 8.6554 9.3231 -11.1263
# 4 8.1635 28.8287 8.6554 36.4613 -16.7759 -9.6016
# 5 -3.4007 -9.9206 9.3231 -16.7759 31.5999 2.8339
# 6 -8.8794 -15.1982 -11.1263 -9.6016 2.8339 19.9778
#
#
#
# Elastic Compliance Matrix: (Units=1/GPa)
#
#
# Indices 1 2 3 4 5 6 
#
# 1 0.035908 0.001377 -0.002495 -0.004316 0.001547 0.013324
# 2 0.001377 0.017231 -0.003022 -0.011655 -0.000319 0.006481
# 3 -0.002495 -0.003022 0.042561 -0.012772 -0.022106 0.017293
# 4 -0.004316 -0.011655 -0.012772 0.054864 0.028373 0.004446
# 5 0.001547 -0.000319 -0.022106 0.028373 0.053822 -0.005865
# 6 0.013324 0.006481 0.017293 0.004446 -0.005865 0.073508
#
#
# Mechanical properties :
#
#
# Convention : Reuss Voigt Hill
#
# Bulk Modulus (GPa) = 11.43926 23.92226 17.68076
# Shear Modulus (GPa) = 15.85712 25.90775 20.88243
#
# Velocity S-wave (km/s) = 2.71098 3.46520 3.11103
# Velocity P-wave (km/s) = 3.88600 5.20553 4.59340
#
# Compressibility (1/GPa) = 0.08741821
#
# Stress axis : x y z
#
# Youngs Moduli (GPa) = 27.84882 58.03578 23.49567
#
# Poissons Ratio (x) = -0.07989 0.05862
# Poissons Ratio (y) = -0.03834 0.07101
# Poissons Ratio (z) = 0.06948 0.17541
#
# Static dielectric constant tensor:
#      x y z
#    x 1.825510 -0.022340 0.006990 
#    y -0.022340 1.782520 0.032740 
#    z 0.006990 0.032740 1.858010 
# 
# From -- ./inp_files/445993.got.cif
#   From: 2010.05.17/outbox.cif.g08.bks.cpg/sg2_223_cif.got.tgz:445993.got - 2010.06.03 11:33:40.
