data_PCOD9081451
_publ_section_title
;
Structure prediction by ZEFSAII (Michael W. Deem and Ramdas Pophale) SiO2 
 PCOD9081451
Probable space group: P -1
;
_chemical_formula_sum "Si O2"
_cell_formula_units_Z 16
_cell_length_a 10.278746
_cell_length_b 14.981215
_cell_length_c 9.673557
_cell_angle_alpha 125.076333
_cell_angle_beta 136.328741
_cell_angle_gamma 79.258286
_cell_volume 769.398304
_symmetry_space_group_name_H-M "P -1"
_symmetry_group_IT_number 2
_symmetry_cell_setting 'triclinic'
loop_
_space_group_symop_operation_xyz
x,y,z
-x,-y,-z
loop_
_atom_site_type_symbol
_atom_site_label
_atom_site_fract_x
_atom_site_fract_y
_atom_site_fract_z
Si Si1 0.109897 0.756136 0.631855
Si Si2 0.503627 0.291277 0.826446
Si Si3 0.776902 0.678158 0.555669
Si Si4 0.945893 0.914158 0.015318
Si Si5 0.646273 0.116182 0.630315
Si Si6 0.550289 0.966218 0.158346
Si Si7 0.181794 0.546746 0.568659
Si Si8 0.117859 0.107982 0.528768
O O1 0.129079 0.632672 0.501296
O O2 0.968401 0.730366 0.639390
O O3 0.999998 0.803967 0.471595
O O4 0.337332 0.853546 0.931907
O O5 0.422664 0.369174 0.737282
O O6 0.625689 0.232507 0.776171
O O7 0.302873 0.178839 0.626542
O O8 0.623490 0.366403 0.115749
O O9 0.791469 0.571873 0.560917
O O10 0.764563 0.789207 0.727317
O O11 0.127338 0.873557 0.155636
O O12 0.948509 0.995538 0.218589
O O13 0.000000 0.000000 0.000000
O O14 0.500000 0.000000 0.500000
O O15 0.589934 0.074289 0.392030
O O16 0.751775 0.933445 0.298224
O O17 0.500000 0.000000 0.000000
O O18 0.000000 0.500000 0.500000
#
# Coordination Sequence:
#
# PCOD9081451 Si02
#       8
#     2   2   2   2   2   2   2   2
#     4  10  19  33  54  70 112 146 178 222 276 320
#     4  11  18  30  51  81 112 142 182 225 277 329
#     4  10  20  29  50  85 115 143 181 228 279 326
#     4  11  17  27  47  77 112 140 172 219 275 323
#     4  11  18  30  52  79 105 144 179 218 275 331
#     4  11  23  37  53  81 117 148 184 230 279 328
#     4  10  19  32  48  78 116 147 179 226 280 322
#     4  10  21  31  55  84 106 147 188 219 281 332
#
# _framework density 20.795472
#
# number of rings (size 3 to 8) (size 9 to 14) (size 15 to 20)
#    0.000    1.500    6.250    2.625    1.750    0.500 
#    0.000    0.000    0.000    0.000    0.000   14.875 
#    0.000    0.000    0.000    0.000    0.000    0.000 
#
# Total GULP energy -89193.291465 kJ/mol
# GULP energy per Si atom -5574.580717 kJ/mol
# Density = 2.074814 g / cm^3
# Si number density = 20.795472 Si / 1000 Ang^3
#
#
#
# Elastic Constant Matrix: (Units=GPa)
#
#
# Indices 1 2 3 4 5 6 
#
# 1 26.1450 21.8186 13.8309 -3.4223 -4.0104 -4.5011
# 2 21.8186 149.7589 45.9835 -9.2236 -12.5927 -29.2429
# 3 13.8309 45.9835 75.5310 -15.8079 -2.6342 -2.4616
# 4 -3.4223 -9.2236 -15.8079 37.5397 0.9706 -0.7475
# 5 -4.0104 -12.5927 -2.6342 0.9706 18.2991 -5.3388
# 6 -4.5011 -29.2429 -2.4616 -0.7475 -5.3388 16.7986
#
#
#
# Elastic Compliance Matrix: (Units=1/GPa)
#
#
# Indices 1 2 3 4 5 6 
#
# 1 0.047227 -0.000690 -0.007062 0.001115 0.013065 0.014620
# 2 -0.000690 0.019488 -0.009422 0.000944 0.023484 0.039864
# 3 -0.007062 -0.009422 0.020456 0.005566 -0.010771 -0.018472
# 4 0.001115 0.000944 0.005566 0.029368 0.001459 0.004529
# 5 0.013065 0.023484 -0.010771 0.001459 0.093191 0.072484
# 6 0.014620 0.039864 -0.018472 0.004529 0.072484 0.153372
#
#
# Mechanical properties :
#
#
# Convention : Reuss Voigt Hill
#
# Bulk Modulus (GPa) = 18.93142 46.07788 32.50465
# Shear Modulus (GPa) = 12.04649 25.84760 18.94704
#
# Velocity S-wave (km/s) = 2.40944 3.52937 3.02174
# Velocity P-wave (km/s) = 4.10657 6.23011 5.27628
#
# Compressibility (1/GPa) = 0.05282224
#
# Stress axis : x y z
#
# Youngs Moduli (GPa) = 21.17429 51.31383 48.88491
#
# Poissons Ratio (x) = 0.03541 0.34524
# Poissons Ratio (y) = 0.01461 0.46060
# Poissons Ratio (z) = 0.14954 0.48348
#
# Static dielectric constant tensor:
#      x y z
#    x 1.784750 -0.043990 0.122100 
#    y -0.043990 1.855060 -0.209850 
#    z 0.122100 -0.209850 3.891880 
# 
# From -- ./inp_files/271004.got.cif
#   From: 2010.05.17/outbox.cif.g08.bks.cpg/sg2_136_cif.got.tgz:271004.got - 2010.06.03 11:33:40.
