data_PCOD9081210
_publ_section_title
;
Structure prediction by ZEFSAII (Michael W. Deem and Ramdas Pophale) SiO2 
 PCOD9081210
Probable space group: P -1
;
_chemical_formula_sum "Si O2"
_cell_formula_units_Z 16
_cell_length_a 8.100336
_cell_length_b 20.809223
_cell_length_c 5.559348
_cell_angle_alpha 55.460607
_cell_angle_beta 98.958563
_cell_angle_gamma 108.214590
_cell_volume 732.962086
_symmetry_space_group_name_H-M "P -1"
_symmetry_group_IT_number 2
_symmetry_cell_setting 'triclinic'
loop_
_space_group_symop_operation_xyz
x,y,z
-x,-y,-z
loop_
_atom_site_type_symbol
_atom_site_label
_atom_site_fract_x
_atom_site_fract_y
_atom_site_fract_z
Si Si1 0.690201 0.808139 0.573270
Si Si2 0.893464 0.994317 0.234852
Si Si3 0.047862 0.752166 0.805178
Si Si4 0.485991 0.427613 0.461125
Si Si5 0.255924 0.512971 0.977067
Si Si6 0.335488 0.241964 0.835640
Si Si7 0.069514 0.573618 0.172512
Si Si8 0.912361 0.172447 0.852681
O O1 0.595037 0.773651 0.377625
O O2 0.852796 0.766346 0.719380
O O3 0.763730 0.905034 0.378773
O O4 0.592925 0.790728 0.842102
O O5 0.833065 0.075877 0.032249
O O6 0.000000 0.000000 0.500000
O O7 0.000000 0.000000 0.000000
O O8 0.124235 0.783936 0.492117
O O9 0.057483 0.661433 0.055326
O O10 0.137446 0.800330 0.957382
O O11 0.500000 0.500000 0.500000
O O12 0.367828 0.450946 0.179972
O O13 0.383418 0.337578 0.698809
O O14 0.666526 0.433869 0.351276
O O15 0.243932 0.567710 0.089406
O O16 0.071819 0.450422 0.020228
O O17 0.127121 0.196747 0.862046
O O18 0.000000 0.500000 0.500000
#
# Coordination Sequence:
#
# PCOD9081210 Si02
#       8
#     2   2   2   2   2   2   2   2
#     4  10  19  31  51  79 113 152 183 241 292 363
#     4  12  16  30  46  78 116 150 187 226 303 362
#     4  10  20  31  50  75 107 149 189 228 289 345
#     4  11  24  39  60  81 117 156 208 253 301 352
#     4  10  24  40  56  84 106 158 198 256 300 350
#     4  10  20  31  50  75 107 149 189 228 289 345
#     4  11  24  39  60  81 117 156 208 253 301 352
#     4  10  19  31  51  79 113 152 183 241 292 363
#
# _framework density 21.829234
#
# number of rings (size 3 to 8) (size 9 to 14) (size 15 to 20)
#    0.000    1.500    5.000    2.250   14.000    0.000 
#    0.000    0.000    0.000    0.000    0.000    0.000 
#    0.000   11.000    0.000    0.000    0.000    0.000 
#
# Total GULP energy -89083.917566 kJ/mol
# GULP energy per Si atom -5567.744848 kJ/mol
# Density = 2.177955 g / cm^3
# Si number density = 21.829234 Si / 1000 Ang^3
#
#
#
# Elastic Constant Matrix: (Units=GPa)
#
#
# Indices 1 2 3 4 5 6 
#
# 1 22.9002 3.4065 -1.2433 -6.2424 -2.3685 -5.5115
# 2 3.4065 156.6253 59.1164 -4.7856 -4.6366 -16.3444
# 3 -1.2433 59.1164 145.3836 8.0608 -9.3762 -11.7549
# 4 -6.2424 -4.7856 8.0608 65.0146 -5.8124 -2.1983
# 5 -2.3685 -4.6366 -9.3762 -5.8124 16.0037 2.7279
# 6 -5.5115 -16.3444 -11.7549 -2.1983 2.7279 17.3042
#
#
#
# Elastic Compliance Matrix: (Units=1/GPa)
#
#
# Indices 1 2 3 4 5 6 
#
# 1 0.050258 0.000422 0.001824 0.005913 0.007852 0.017159
# 2 0.000422 0.008127 -0.002874 0.001211 0.000152 0.005988
# 3 0.001824 -0.002874 0.008584 -0.000667 0.003708 0.003028
# 4 0.005913 0.001211 -0.000667 0.016810 0.006307 0.003715
# 5 0.007852 0.000152 0.003708 0.006307 0.068992 -0.004911
# 6 0.017159 0.005988 0.003028 0.003715 -0.004911 0.072213
#
#
# Mechanical properties :
#
#
# Convention : Reuss Voigt Hill
#
# Bulk Modulus (GPa) = 15.21794 49.71869 32.46832
# Shear Modulus (GPa) = 20.14966 37.23981 28.69473
#
# Velocity S-wave (km/s) = 3.04148 4.13481 3.62955
# Velocity P-wave (km/s) = 4.39553 6.75434 5.69832
#
# Compressibility (1/GPa) = 0.06571193
#
# Stress axis : x y z
#
# Youngs Moduli (GPa) = 19.89751 123.05234 116.50202
#
# Poissons Ratio (x) = -0.05194 -0.21251
# Poissons Ratio (y) = -0.00840 0.33483
# Poissons Ratio (z) = -0.03629 0.35366
#
# Static dielectric constant tensor:
#      x y z
#    x 1.248760 2.438440 -0.227510 
#    y 2.438440 -4.467450 0.349870 
#    z -0.227510 0.349870 1.914850 
# 
# From -- ./inp_files/50919.got.cif
#   From: 2010.05.17/outbox.cif.g08.bks.cpg/sg2_26_cif.got.tgz:50919.got - 2010.06.03 11:33:40.
