data_PCOD9081007
_publ_section_title
;
Structure prediction by ZEFSAII (Michael W. Deem and Ramdas Pophale) SiO2 
 PCOD9081007
Probable space group: P -1
;
_chemical_formula_sum "Si O2"
_cell_formula_units_Z 16
_cell_length_a 16.984278
_cell_length_b 13.494375
_cell_length_c 24.662827
_cell_angle_alpha 30.948329
_cell_angle_beta 22.196320
_cell_angle_gamma 20.960553
_cell_volume 762.869457
_symmetry_space_group_name_H-M "P -1"
_symmetry_group_IT_number 2
_symmetry_cell_setting 'triclinic'
loop_
_space_group_symop_operation_xyz
x,y,z
-x,-y,-z
loop_
_atom_site_type_symbol
_atom_site_label
_atom_site_fract_x
_atom_site_fract_y
_atom_site_fract_z
Si Si1 0.808049 0.333290 0.651760
Si Si2 0.131722 0.125847 0.000892
Si Si3 0.241845 0.985429 0.711980
Si Si4 0.237193 0.103384 0.283096
Si Si5 0.167666 0.095104 0.114055
Si Si6 0.130293 0.326670 0.136674
Si Si7 0.610363 0.048856 0.489899
Si Si8 0.287155 0.653885 0.418806
O O1 0.540923 0.656279 0.682850
O O2 0.760393 0.294467 0.639240
O O3 0.801611 0.152260 0.779380
O O4 0.139342 0.197947 0.513405
O O5 0.962076 0.392031 0.946582
O O6 0.484186 0.941250 0.861471
O O7 0.025857 0.229746 0.082556
O O8 0.035389 0.972147 0.121006
O O9 0.251133 0.044684 0.615401
O O10 0.306680 0.126255 0.641999
O O11 0.037864 0.310460 0.261982
O O12 0.020735 0.212169 0.420409
O O13 0.360488 0.811562 0.323593
O O14 0.027832 0.282712 0.168687
O O15 0.510316 0.940277 0.964858
O O16 0.526380 0.323874 0.428973
#
# Coordination Sequence:
#
# PCOD9081007 Si02
#       8
#     2   2   2   2   2   2   2   2
#     4  11  19  35  59  85 115 147 181 232 286 333
#     4  11  21  34  58  84 118 149 182 234 286 337
#     4  10  21  37  56  90 116 143 190 233 282 345
#     4  10  23  39  57  84 113 155 192 232 278 330
#     4  10  19  30  51  87 117 143 180 220 288 345
#     4  10  20  33  52  82 120 150 180 226 284 340
#     4  10  22  37  60  82 115 155 186 232 285 330
#     4  10  23  41  57  81 117 149 199 233 268 342
#
# _framework density 20.973444000000001
#
# number of rings (size 3 to 8) (size 9 to 14) (size 15 to 20)
#    0.000    1.750    3.750    0.750    1.750    1.000 
#    0.000    3.125    0.000    1.500    0.000    0.000 
#    0.000    0.000    0.000    0.000    0.000    0.000 
#
# Total GULP energy -89330.587676 kJ/mol
# GULP energy per Si atom -5583.161730 kJ/mol
# Density = 2.092571 g / cm^3
# Si number density = 20.973444 Si / 1000 Ang^3
#
#
#
# Elastic Constant Matrix: (Units=GPa)
#
#
# Indices 1 2 3 4 5 6 
#
# 1 23.1437 16.3630 15.6454 6.3385 -8.9932 -5.8417
# 2 16.3630 50.4011 9.3727 -3.5013 6.5611 -14.6216
# 3 15.6454 9.3727 92.1552 -8.0452 -18.8839 -6.2185
# 4 6.3385 -3.5013 -8.0452 25.8900 -4.7574 -7.1244
# 5 -8.9932 6.5611 -18.8839 -4.7574 29.1023 -3.6283
# 6 -5.8417 -14.6216 -6.2185 -7.1244 -3.6283 18.4928
#
#
#
# Elastic Compliance Matrix: (Units=1/GPa)
#
#
# Indices 1 2 3 4 5 6 
#
# 1 0.088367 -0.034239 -0.009718 -0.027333 0.023205 -0.008403
# 2 -0.034239 0.041719 0.003153 0.021047 -0.010858 0.029209
# 3 -0.009718 0.003153 0.016283 0.013095 0.010488 0.012001
# 4 -0.027333 0.021047 0.013095 0.065145 0.010898 0.039646
# 5 0.023205 -0.010858 0.010488 0.010898 0.054712 0.017205
# 6 -0.008403 0.029209 0.012001 0.039646 0.017205 0.097201
#
#
# Mechanical properties :
#
#
# Convention : Reuss Voigt Hill
#
# Bulk Modulus (GPa) = 15.44125 27.60693 21.52409
# Shear Modulus (GPa) = 10.71532 22.98495 16.85014
#
# Velocity S-wave (km/s) = 2.26276 3.31404 2.83751
# Velocity P-wave (km/s) = 3.76896 5.27591 4.58477
#
# Compressibility (1/GPa) = 0.06476161
#
# Stress axis : x y z
#
# Youngs Moduli (GPa) = 11.31644 23.96964 61.41459
#
# Poissons Ratio (x) = 0.82069 0.59684
# Poissons Ratio (y) = 0.38746 -0.19365
# Poissons Ratio (z) = 0.10998 -0.07558
#
# Static dielectric constant tensor:
#      x y z
#    x 1.757430 -0.009020 -0.044080 
#    y -0.009020 1.743700 -0.000770 
#    z -0.044080 -0.000770 1.828940 
# 
# From -- ./inp_files/82699.got.cif
#   From: 2010.05.17/outbox.cif.g08.bks.cpg/sg2_42_cif.got.tgz:82699.got - 2010.06.03 11:33:40.
