data_PCOD9081324
_publ_section_title
;
Structure prediction by ZEFSAII (Michael W. Deem and Ramdas Pophale) SiO2 
 PCOD9081324
Probable space group: P -1
;
_chemical_formula_sum "Si O2"
_cell_formula_units_Z 16
_cell_length_a 12.261398
_cell_length_b 9.916328
_cell_length_c 15.874151
_cell_angle_alpha 125.249138
_cell_angle_beta 154.964289
_cell_angle_gamma 56.717665
_cell_volume 665.160940
_symmetry_space_group_name_H-M "P -1"
_symmetry_group_IT_number 2
_symmetry_cell_setting 'triclinic'
loop_
_space_group_symop_operation_xyz
x,y,z
-x,-y,-z
loop_
_atom_site_type_symbol
_atom_site_label
_atom_site_fract_x
_atom_site_fract_y
_atom_site_fract_z
Si Si1 0.613741 0.822790 0.549409
Si Si2 0.529490 0.622427 0.673305
Si Si3 0.193588 0.257857 0.523015
Si Si4 0.554818 0.519573 0.946489
Si Si5 0.888500 0.612891 0.782138
Si Si6 0.213605 0.775138 0.639147
Si Si7 0.217998 0.155710 0.785612
Si Si8 0.248956 0.866930 0.442325
O O1 0.766607 0.734407 0.546978
O O2 0.815996 0.796495 0.758786
O O3 0.348594 0.778229 0.394315
O O4 0.500000 0.000000 0.500000
O O5 0.813943 0.596042 0.822197
O O6 0.328360 0.493950 0.452303
O O7 0.448052 0.653242 0.723612
O O8 0.423713 0.791538 0.613159
O O9 0.923632 0.281176 0.392260
O O10 0.272752 0.063632 0.528191
O O11 0.367323 0.394905 0.729236
O O12 0.564916 0.717383 0.013477
O O13 0.836173 0.453303 0.082931
O O14 0.500000 0.500000 0.000000
O O15 0.973220 0.791533 0.408333
O O16 0.301747 0.961628 0.769721
O O17 0.038442 0.169667 0.747759
#
# Coordination Sequence:
#
# PCOD9081324 Si02
#       8
#     2   2   2   2   2   2   2   2
#     4   9  19  36  55  79 111 151 186 218 264 335
#     4   9  16  30  55  78 105 126 199 227 259 296
#     4  10  19  31  54  85 112 141 175 223 285 326
#     4  12  21  33  51  89 122 135 168 235 297 312
#     4  10  19  33  56  83 108 141 182 233 267 321
#     4   9  15  30  52  80  98 147 186 221 252 327
#     4   9  16  28  53  75 106 141 184 218 261 318
#     4   8  15  32  55  76 102 144 189 219 250 326
#
# _framework density 24.054328999999999
#
# number of rings (size 3 to 8) (size 9 to 14) (size 15 to 20)
#    0.000    2.500    3.750    0.750    0.000    0.000 
#    0.000    8.750    0.000    0.000    3.250    3.500 
#    0.000    0.000    0.000    0.000    0.000    0.000 
#
# Total GULP energy -89133.019302 kJ/mol
# GULP energy per Si atom -5570.813706 kJ/mol
# Density = 2.399958 g / cm^3
# Si number density = 24.054329 Si / 1000 Ang^3
#
#
#
# Elastic Constant Matrix: (Units=GPa)
#
#
# Indices 1 2 3 4 5 6 
#
# 1 213.9593 38.9221 53.3529 9.1907 37.4720 -32.8192
# 2 38.9221 82.4854 53.9934 12.9154 25.4719 3.3522
# 3 53.3529 53.9934 114.0620 23.6263 22.5041 0.5680
# 4 9.1907 12.9154 23.6263 29.3674 4.2246 12.3211
# 5 37.4720 25.4719 22.5041 4.2246 29.4928 -3.9735
# 6 -32.8192 3.3522 0.5680 12.3211 -3.9735 40.8056
#
#
#
# Elastic Compliance Matrix: (Units=1/GPa)
#
#
# Indices 1 2 3 4 5 6 
#
# 1 0.007304 -0.000238 -0.001468 -0.002553 -0.006777 0.006025
# 2 -0.000238 0.021104 -0.007303 -0.000249 -0.012719 -0.002987
# 3 -0.001468 -0.007303 0.015122 -0.008956 -0.001850 0.001733
# 4 -0.002553 -0.000249 -0.008956 0.048978 0.001041 -0.016596
# 5 -0.006777 -0.012719 -0.001850 0.001041 0.054852 0.000647
# 6 0.006025 -0.002987 0.001733 -0.016596 0.000647 0.034648
#
#
# Mechanical properties :
#
#
# Convention : Reuss Voigt Hill
#
# Bulk Modulus (GPa) = 39.19621 78.11597 58.65609
# Shear Modulus (GPa) = 23.97751 37.54905 30.76328
#
# Velocity S-wave (km/s) = 3.16065 3.95525 3.58006
# Velocity P-wave (km/s) = 5.44517 7.30780 6.44414
#
# Compressibility (1/GPa) = 0.02551267
#
# Stress axis : x y z
#
# Youngs Moduli (GPa) = 136.91348 47.38452 66.12814
#
# Poissons Ratio (x) = 0.01128 0.09706
# Poissons Ratio (y) = 0.03259 0.48292
# Poissons Ratio (z) = 0.20096 0.34604
#
# Static dielectric constant tensor:
#      x y z
#    x 2.035380 0.002920 -0.008930 
#    y 0.002920 2.071500 -0.042310 
#    z -0.008930 -0.042310 1.898720 
# 
# From -- ./inp_files/436783.got.cif
#   From: 2010.05.17/outbox.cif.g08.bks.cpg/sg2_219_cif.got.tgz:436783.got - 2010.06.03 11:33:40.
