data_PCOD9081798
_publ_section_title
;
Structure prediction by ZEFSAII (Michael W. Deem and Ramdas Pophale) SiO2 
 PCOD9081798
Probable space group: P -1
;
_chemical_formula_sum "Si O2"
_cell_formula_units_Z 16
_cell_length_a 11.933835
_cell_length_b 9.113651
_cell_length_c 10.147590
_cell_angle_alpha 82.210169
_cell_angle_beta 55.935484
_cell_angle_gamma 90.334086
_cell_volume 901.338606
_symmetry_space_group_name_H-M "P -1"
_symmetry_group_IT_number 2
_symmetry_cell_setting 'triclinic'
loop_
_space_group_symop_operation_xyz
x,y,z
-x,-y,-z
loop_
_atom_site_type_symbol
_atom_site_label
_atom_site_fract_x
_atom_site_fract_y
_atom_site_fract_z
Si Si1 0.454221 0.109880 0.625841
Si Si2 0.609031 0.925578 0.024716
Si Si3 0.435270 0.430326 0.918634
Si Si4 0.872631 0.075125 0.911053
Si Si5 0.170916 0.596639 0.012828
Si Si6 0.845678 0.846022 0.200912
Si Si7 0.403454 0.576259 0.452219
Si Si8 0.876178 0.509297 0.227639
O O1 0.424237 0.047948 0.801305
O O2 0.312020 0.160486 0.658740
O O3 0.564935 0.249393 0.557879
O O4 0.500000 0.000000 0.500000
O O5 0.599774 0.748228 0.030124
O O6 0.500000 0.000000 0.000000
O O7 0.763238 0.998568 0.890754
O O8 0.540836 0.455031 0.725072
O O9 0.500000 0.500000 0.000000
O O10 0.301532 0.512449 0.967155
O O11 0.822491 0.234840 0.961090
O O12 0.035357 0.106574 0.777518
O O13 0.863361 0.962367 0.055151
O O14 0.031349 0.508969 0.171191
O O15 0.152278 0.595374 0.867127
O O16 0.869042 0.679321 0.162195
O O17 0.500000 0.500000 0.500000
O O18 0.245690 0.524637 0.585872
#
# Coordination Sequence:
#
# PCOD9081798 Si02
#       8
#     2   2   2   2   2   2   2   2
#     4  10  21  33  53  85 111 138 180 222 272 330
#     4  10  21  38  56  78 109 143 181 226 272 325
#     4  11  23  39  58  82 109 146 191 228 271 335
#     4   9  18  30  53  77 109 144 176 222 273 318
#     4  10  19  32  55  85 109 144 187 223 271 333
#     4   9  17  32  47  78 113 143 173 223 271 320
#     4  11  20  35  57  82 117 144 177 231 281 315
#     4  10  19  33  53  83 116 143 179 229 277 324
#
# _framework density 17.751374999999999
#
# number of rings (size 3 to 8) (size 9 to 14) (size 15 to 20)
#    0.000    2.000    2.500    2.250    3.500    2.000 
#    0.000    0.625    0.000    0.750    0.000    0.000 
#    0.000    0.000    0.000    0.000    0.000    0.000 
#
# Total GULP energy -89130.056586 kJ/mol
# GULP energy per Si atom -5570.628537 kJ/mol
# Density = 1.771097 g / cm^3
# Si number density = 17.751375 Si / 1000 Ang^3
#
#
#
# Elastic Constant Matrix: (Units=GPa)
#
#
# Indices 1 2 3 4 5 6 
#
# 1 115.3443 42.1994 49.5488 2.8719 -19.7852 10.3443
# 2 42.1994 71.4263 46.3713 7.2869 -3.9258 6.0695
# 3 49.5488 46.3713 81.5479 10.6229 -14.3106 9.5952
# 4 2.8719 7.2869 10.6229 26.6531 4.3221 -1.8199
# 5 -19.7852 -3.9258 -14.3106 4.3221 30.4608 2.7009
# 6 10.3443 6.0695 9.5952 -1.8199 2.7009 29.9170
#
#
#
# Elastic Compliance Matrix: (Units=1/GPa)
#
#
# Indices 1 2 3 4 5 6 
#
# 1 0.013534 -0.004786 -0.004031 0.000196 0.006517 -0.002992
# 2 -0.004786 0.024206 -0.011921 -0.000366 -0.005631 0.001053
# 3 -0.004031 -0.011921 0.024775 -0.008030 0.009107 -0.005444
# 4 0.000196 -0.000366 -0.008030 0.042890 -0.010321 0.006123
# 5 0.006517 -0.005631 0.009107 -0.010321 0.042836 -0.008527
# 6 -0.002992 0.001053 -0.005444 0.006123 -0.008527 0.037135
#
#
# Mechanical properties :
#
#
# Convention : Reuss Voigt Hill
#
# Bulk Modulus (GPa) = 47.53166 60.50640 54.01903
# Shear Modulus (GPa) = 21.37985 26.08609 23.73297
#
# Velocity S-wave (km/s) = 3.47422 3.83760 3.66042
# Velocity P-wave (km/s) = 6.55195 7.33455 6.95427
#
# Compressibility (1/GPa) = 0.02103861
#
# Stress axis : x y z
#
# Youngs Moduli (GPa) = 73.88832 41.31271 40.36255
#
# Poissons Ratio (x) = 0.19773 0.16271
# Poissons Ratio (y) = 0.35365 0.48114
# Poissons Ratio (z) = 0.29787 0.49247
#
# Static dielectric constant tensor:
#      x y z
#    x 1.645040 0.017560 -0.037560 
#    y 0.017560 1.625460 -0.023080 
#    z -0.037560 -0.023080 1.613830 
# 
# From -- ./inp_files/175219.got.cif
#   From: 2010.05.17/outbox.cif.g08.bks.cpg/sg2_88_cif.got.tgz:175219.got - 2010.06.03 11:33:40.
