data_PCOD9081910
_publ_section_title
;
Structure prediction by ZEFSAII (Michael W. Deem and Ramdas Pophale) SiO2 
 PCOD9081910
Probable space group: P -1
;
_chemical_formula_sum "Si O2"
_cell_formula_units_Z 12
_cell_length_a 7.432518
_cell_length_b 9.348782
_cell_length_c 8.717406
_cell_angle_alpha 53.789041
_cell_angle_beta 87.074810
_cell_angle_gamma 69.961472
_cell_volume 449.893192
_symmetry_space_group_name_H-M "P -1"
_symmetry_group_IT_number 2
_symmetry_cell_setting 'triclinic'
loop_
_space_group_symop_operation_xyz
x,y,z
-x,-y,-z
loop_
_atom_site_type_symbol
_atom_site_label
_atom_site_fract_x
_atom_site_fract_y
_atom_site_fract_z
Si Si1 0.238757 0.408469 0.873155
Si Si2 0.029697 0.756004 0.850463
Si Si3 0.794170 0.154327 0.685819
Si Si4 0.410024 0.141860 0.555675
Si Si5 0.881918 0.426396 0.720424
Si Si6 0.629610 0.093809 0.024210
O O1 0.157873 0.629302 0.788296
O O2 0.469358 0.311314 0.910025
O O3 0.112068 0.386240 0.749525
O O4 0.160269 0.300749 0.077314
O O5 0.146507 0.676714 0.054684
O O6 0.953736 0.982792 0.694946
O O7 0.585657 0.188620 0.597921
O O8 0.828699 0.339414 0.624837
O O9 0.794708 0.061339 0.913294
O O10 0.243413 0.348475 0.398300
O O11 0.500000 0.000000 0.500000
O O12 0.327730 0.019305 0.748340
O O13 0.500000 0.000000 0.000000
#
# Coordination Sequence:
#
# PCOD9081910 Si02
#       6
#     2   2   2   2   2   2
#     4   9  17  34  57  78 106 150 189 205 262 346
#     4   9  17  33  57  78 106 149 187 208 261 345
#     4  11  21  36  57  85 113 134 182 237 275 299
#     4  11  20  35  56  80 112 148 182 214 271 336
#     4  10  19  32  57  84 104 141 185 230 262 316
#     4  10  19  36  57  84 108 142 180 229 266 323
#
# _framework density 26.672999000000001
#
# number of rings (size 3 to 8) (size 9 to 14) (size 15 to 20)
#    1.000    1.000    3.333    3.000    0.000    0.000 
#    0.000   10.833    0.000    0.000    0.000   26.833 
#    0.000    0.000    0.000    0.000    0.000    0.000 
#
# Total GULP energy -67120.806939 kJ/mol
# GULP energy per Si atom -5593.400578 kJ/mol
# Density = 2.661229 g / cm^3
# Si number density = 26.672999 Si / 1000 Ang^3
#
#
#
# Elastic Constant Matrix: (Units=GPa)
#
#
# Indices 1 2 3 4 5 6 
#
# 1 104.5855 18.1038 19.2226 -2.0818 36.8623 1.2592
# 2 18.1038 171.2559 26.5159 -20.6231 15.4566 -6.8185
# 3 19.2226 26.5159 85.4458 -13.4097 10.4673 -6.7227
# 4 -2.0818 -20.6231 -13.4097 45.8176 -10.3346 13.8029
# 5 36.8623 15.4566 10.4673 -10.3346 35.5990 -0.7723
# 6 1.2592 -6.8185 -6.7227 13.8029 -0.7723 37.4869
#
#
#
# Elastic Compliance Matrix: (Units=1/GPa)
#
#
# Indices 1 2 3 4 5 6 
#
# 1 0.015811 -0.000305 -0.002000 -0.003819 -0.016758 0.000116
# 2 -0.000305 0.006484 -0.001422 0.002121 -0.001463 0.000123
# 3 -0.002000 -0.001422 0.013153 0.002681 -0.000376 0.001173
# 4 -0.003819 0.002121 0.002681 0.028520 0.010323 -0.009294
# 5 -0.016758 -0.001463 -0.000376 0.010323 0.049130 -0.002559
# 6 0.000116 0.000123 0.001173 -0.009294 -0.002559 0.030274
#
#
# Mechanical properties :
#
#
# Convention : Reuss Voigt Hill
#
# Bulk Modulus (GPa) = 35.71908 54.33018 45.02463
# Shear Modulus (GPa) = 31.21944 43.61037 37.41490
#
# Velocity S-wave (km/s) = 3.42490 4.04790 3.74936
# Velocity P-wave (km/s) = 5.39077 6.50081 5.97164
#
# Compressibility (1/GPa) = 0.02799624
#
# Stress axis : x y z
#
# Youngs Moduli (GPa) = 63.24739 154.22622 76.02579
#
# Poissons Ratio (x) = 0.04697 0.15203
# Poissons Ratio (y) = 0.01926 0.10809
# Poissons Ratio (z) = 0.12648 0.21927
#
# Static dielectric constant tensor:
#      x y z
#    x 2.228430 0.044520 -0.021610 
#    y 0.044520 2.083140 -0.026970 
#    z -0.021610 -0.026970 2.138800 
# 
# From -- ./inp_files/156723.got.cif
#   From: 2010.05.17/outbox.cif.g08.bks.cpg/sg2_79_cif.got.tgz:156723.got - 2010.06.03 11:33:40.
