data_PCOD9081810
_publ_section_title
;
Structure prediction by ZEFSAII (Michael W. Deem and Ramdas Pophale) SiO2 
 PCOD9081810
Probable space group: P -1
;
_chemical_formula_sum "Si O2"
_cell_formula_units_Z 16
_cell_length_a 7.290699
_cell_length_b 23.318712
_cell_length_c 11.317015
_cell_angle_alpha 29.776985
_cell_angle_beta 105.951923
_cell_angle_gamma 124.219082
_cell_volume 675.188860
_symmetry_space_group_name_H-M "P -1"
_symmetry_group_IT_number 2
_symmetry_cell_setting 'triclinic'
loop_
_space_group_symop_operation_xyz
x,y,z
-x,-y,-z
loop_
_atom_site_type_symbol
_atom_site_label
_atom_site_fract_x
_atom_site_fract_y
_atom_site_fract_z
Si Si1 0.012455 0.338331 0.036178
Si Si2 0.755548 0.587449 0.568991
Si Si3 0.181790 0.687790 0.179697
Si Si4 0.215095 0.340873 0.283295
Si Si5 0.301636 0.690113 0.433251
Si Si6 0.685074 0.870277 0.391779
Si Si7 0.905572 0.801011 0.028432
Si Si8 0.704828 0.769966 0.819264
O O1 0.236161 0.526687 0.716539
O O2 0.778883 0.279147 0.013326
O O3 0.001261 0.325254 0.199173
O O4 0.113949 0.253505 0.168369
O O5 0.792371 0.645596 0.603909
O O6 0.693943 0.660489 0.330817
O O7 0.023517 0.636775 0.492967
O O8 0.535221 0.402137 0.867155
O O9 0.394563 0.762578 0.187598
O O10 0.000000 0.500000 0.500000
O O11 0.024843 0.739489 0.092342
O O12 0.182037 0.192760 0.516556
O O13 0.500000 0.500000 0.000000
O O14 0.467222 0.795921 0.386305
O O15 0.613708 0.814992 0.616007
O O16 0.881751 0.055995 0.104246
O O17 0.833682 0.861110 0.803644
#
# Coordination Sequence:
#
# PCOD9081810 Si02
#       8
#     2   2   2   2   2   2   2   2
#     4   9  16  33  55  77 104 145 192 221 260 332
#     4  11  21  34  56  85 113 143 188 239 273 319
#     4   8  17  32  52  77 108 143 180 219 268 326
#     4  11  19  36  56  80 108 151 193 225 276 337
#     4  10  19  32  55  87 113 141 186 229 279 324
#     4  11  21  36  58  82 116 151 185 223 281 339
#     4  10  22  35  56  87 113 145 188 235 276 321
#     4  10  19  37  58  80 111 150 191 227 271 333
#
# _framework density 23.697073
#
# number of rings (size 3 to 8) (size 9 to 14) (size 15 to 20)
#    0.000    2.000    3.750    0.750    0.000    4.500 
#    0.000    0.000    0.000    7.500    0.000   21.875 
#    0.000    0.000    0.000    0.000    0.000    0.000 
#
# Total GULP energy -89181.307568 kJ/mol
# GULP energy per Si atom -5573.831723 kJ/mol
# Density = 2.364314 g / cm^3
# Si number density = 23.697073 Si / 1000 Ang^3
#
#
#
# Elastic Constant Matrix: (Units=GPa)
#
#
# Indices 1 2 3 4 5 6 
#
# 1 39.8512 -1.6087 -7.2858 4.4520 13.6490 -6.8583
# 2 -1.6087 173.2153 1.1521 35.3373 -1.0492 4.9371
# 3 -7.2858 1.1521 39.0375 7.7751 4.3961 -5.4895
# 4 4.4520 35.3373 7.7751 48.7672 -3.9021 10.6941
# 5 13.6490 -1.0492 4.3961 -3.9021 13.5796 -2.2334
# 6 -6.8583 4.9371 -5.4895 10.6941 -2.2334 29.7620
#
#
#
# Elastic Compliance Matrix: (Units=1/GPa)
#
#
# Indices 1 2 3 4 5 6 
#
# 1 0.062241 0.004191 0.027689 -0.023860 -0.074480 0.021739
# 2 0.004191 0.007125 0.003022 -0.007057 -0.006272 0.002406
# 3 0.027689 0.003022 0.041697 -0.018579 -0.043643 0.016971
# 4 -0.023860 -0.007057 -0.018579 0.037807 0.037265 -0.018543
# 5 -0.074480 -0.006272 -0.043643 0.037265 0.168757 -0.024898
# 6 0.021739 0.002406 0.016971 -0.018543 -0.024898 0.046135
#
#
# Mechanical properties :
#
#
# Convention : Reuss Voigt Hill
#
# Bulk Modulus (GPa) = 5.52896 26.29100 15.90998
# Shear Modulus (GPa) = 14.11448 35.74488 24.92968
#
# Velocity S-wave (km/s) = 2.44318 3.88804 3.24700
# Velocity P-wave (km/s) = 3.20891 5.59236 4.55914
#
# Compressibility (1/GPa) = 0.18086595
#
# Stress axis : x y z
#
# Youngs Moduli (GPa) = 16.06666 140.35014 23.98278
#
# Poissons Ratio (x) = -0.58816 -0.66406
# Poissons Ratio (y) = -0.06733 -0.07248
# Poissons Ratio (z) = -0.44487 -0.42414
#
# Static dielectric constant tensor:
#      x y z
#    x 2.009750 0.187940 -0.043780 
#    y 0.187940 2.427850 -0.040180 
#    z -0.043780 -0.040180 1.933980 
# 
# From -- ./inp_files/252610.got.cif
#   From: 2010.05.17/outbox.cif.g08.bks.cpg/sg2_127_cif.got.tgz:252610.got - 2010.06.03 11:33:40.
