data_PCOD9081076
_publ_section_title
;
Structure prediction by ZEFSAII (Michael W. Deem and Ramdas Pophale) SiO2 
 PCOD9081076
Probable space group: P -1
;
_chemical_formula_sum "Si O2"
_cell_formula_units_Z 12
_cell_length_a 6.654422
_cell_length_b 5.143811
_cell_length_c 14.065085
_cell_angle_alpha 72.546490
_cell_angle_beta 98.199717
_cell_angle_gamma 89.542176
_cell_volume 453.917377
_symmetry_space_group_name_H-M "P -1"
_symmetry_group_IT_number 2
_symmetry_cell_setting 'triclinic'
loop_
_space_group_symop_operation_xyz
x,y,z
-x,-y,-z
loop_
_atom_site_type_symbol
_atom_site_label
_atom_site_fract_x
_atom_site_fract_y
_atom_site_fract_z
Si Si1 0.230916 0.613962 0.711352
Si Si2 0.118335 0.490097 0.107106
Si Si3 0.101070 0.284529 0.456891
Si Si4 0.483598 0.250413 0.898694
Si Si5 0.566889 0.811226 0.376939
Si Si6 0.779973 0.098878 0.777247
O O1 0.346034 0.438293 0.654871
O O2 0.677720 0.166945 0.660164
O O3 0.292959 0.446246 0.829994
O O4 0.995851 0.627043 0.659987
O O5 0.349954 0.536692 0.085340
O O6 0.107065 0.192906 0.182973
O O7 0.094227 0.720955 0.161238
O O8 0.000000 0.500000 0.000000
O O9 0.672943 0.089620 0.320147
O O10 0.000000 0.500000 0.500000
O O11 0.338873 0.245200 0.504916
O O12 0.573214 0.105797 0.824893
O O13 0.500000 0.000000 0.000000
O O14 0.000000 0.000000 0.500000
#
# Coordination Sequence:
#
# PCOD9081076 Si02
#       6
#     2   2   2   2   2   2
#     4   9  15  25  35  56  82 109 132 162 199 246
#     4  10  19  31  44  59  83 112 142 177 208 239
#     4   8  14  20  36  52  77 106 128 157 201 248
#     4   9  19  29  44  62  87 116 141 168 205 247
#     4   9  13  25  37  57  78 107 130 164 207 246
#     4   9  17  29  44  60  84 110 139 173 207 248
#
# _framework density 26.436529
#
# number of rings (size 3 to 8) (size 9 to 14) (size 15 to 20)
#    1.000    2.000    1.667    0.500    0.000    0.667 
#    0.000    0.000    0.000    0.000    0.000    0.000 
#    0.000    2.667    0.000    0.167    0.000    0.333 
#
# Total GULP energy -66896.804503 kJ/mol
# GULP energy per Si atom -5574.733709 kJ/mol
# Density = 2.637636 g / cm^3
# Si number density = 26.436529 Si / 1000 Ang^3
#
#
#
# Elastic Constant Matrix: (Units=GPa)
#
#
# Indices 1 2 3 4 5 6 
#
# 1 59.2876 23.6140 63.3983 17.9494 35.5702 16.2879
# 2 23.6140 188.0714 58.8835 30.6989 18.5096 -2.6339
# 3 63.3983 58.8835 231.4814 8.2247 64.1846 14.5181
# 4 17.9494 30.6989 8.2247 37.8024 14.4881 13.9381
# 5 35.5702 18.5096 64.1846 14.4881 64.4263 9.1533
# 6 16.2879 -2.6339 14.5181 13.9381 9.1533 30.7201
#
#
#
# Elastic Compliance Matrix: (Units=1/GPa)
#
#
# Indices 1 2 3 4 5 6 
#
# 1 0.033596 -0.000463 -0.005473 -0.007212 -0.010064 -0.008996
# 2 -0.000463 0.007186 -0.002089 -0.007429 0.001254 0.004846
# 3 -0.005473 -0.002089 0.007635 0.005162 -0.004894 -0.001769
# 4 -0.007212 -0.007429 0.005162 0.043543 -0.006388 -0.017105
# 5 -0.010064 0.001254 -0.004894 -0.006388 0.026644 0.002716
# 6 -0.008996 0.004846 -0.001769 -0.017105 0.002716 0.045525
#
#
# Mechanical properties :
#
#
# Convention : Reuss Voigt Hill
#
# Bulk Modulus (GPa) = 30.89524 85.62577 58.26051
# Shear Modulus (GPa) = 26.18255 48.78606 37.48430
#
# Velocity S-wave (km/s) = 3.15046 4.30048 3.76958
# Velocity P-wave (km/s) = 4.99458 7.55767 6.40563
#
# Compressibility (1/GPa) = 0.03236744
#
# Stress axis : x y z
#
# Youngs Moduli (GPa) = 29.76557 139.15233 130.97984
#
# Poissons Ratio (x) = 0.06446 0.71680
# Poissons Ratio (y) = 0.01379 0.27361
# Poissons Ratio (z) = 0.16289 0.29068
#
# Static dielectric constant tensor:
#      x y z
#    x 2.189000 0.070390 0.085880 
#    y 0.070390 2.036790 -0.023000 
#    z 0.085880 -0.023000 2.184890 
# 
# From -- ./inp_files/486937.got.cif
#   From: 2010.05.17/outbox.cif.g08.bks.cpg/sg2_244_cif.got.tgz:486937.got - 2010.06.03 11:33:40.
