data_PCOD9081245
_publ_section_title
;
Structure prediction by ZEFSAII (Michael W. Deem and Ramdas Pophale) SiO2 
 PCOD9081245
Probable space group: P -1
;
_chemical_formula_sum "Si O2"
_cell_formula_units_Z 16
_cell_length_a 15.257262
_cell_length_b 13.672016
_cell_length_c 10.621261
_cell_angle_alpha 148.351231
_cell_angle_beta 35.112570
_cell_angle_gamma 133.312480
_cell_volume 668.274607
_symmetry_space_group_name_H-M "P -1"
_symmetry_group_IT_number 2
_symmetry_cell_setting 'triclinic'
loop_
_space_group_symop_operation_xyz
x,y,z
-x,-y,-z
loop_
_atom_site_type_symbol
_atom_site_label
_atom_site_fract_x
_atom_site_fract_y
_atom_site_fract_z
Si Si1 0.309133 0.302218 0.012889
Si Si2 0.181329 0.116543 0.461601
Si Si3 0.723849 0.510740 0.166507
Si Si4 0.155207 0.728366 0.003081
Si Si5 0.555928 0.437661 0.045517
Si Si6 0.978251 0.037863 0.275806
Si Si7 0.056008 0.442494 0.604806
Si Si8 0.217329 0.886434 0.661489
O O1 0.400236 0.367649 0.855943
O O2 0.141126 0.402890 0.329309
O O3 0.395001 0.376720 0.116603
O O4 0.300390 0.081627 0.787327
O O5 0.024658 0.216453 0.705748
O O6 0.225530 0.932618 0.127429
O O7 0.128113 0.034503 0.569179
O O8 0.297086 0.279449 0.526741
O O9 0.766843 0.374732 0.082634
O O10 0.589526 0.447282 0.164337
O O11 0.877968 0.507208 0.893800
O O12 0.144917 0.584609 0.743701
O O13 0.669468 0.286575 0.679596
O O14 0.879483 0.092696 0.329717
O O15 0.059153 0.230199 0.422257
O O16 0.102306 0.884582 0.912708
#
# Coordination Sequence:
#
# PCOD9081245 Si02
#       8
#     2   2   2   2   2   2   2   2
#     4  10  24  38  55  85 109 146 190 223 269 335
#     4  10  19  31  52  83 112 143 173 226 278 321
#     4  11  21  35  57  83 109 145 182 228 273 320
#     4  10  21  33  54  82 115 142 179 223 279 323
#     4  11  22  39  59  77 113 151 183 223 278 325
#     4  10  19  32  54  90 113 137 184 228 269 328
#     4  10  19  36  55  83 115 136 182 230 266 322
#     4  10  20  36  55  81 116 143 180 227 275 323
#
# _framework density 23.942256
#
# number of rings (size 3 to 8) (size 9 to 14) (size 15 to 20)
#    0.000    1.750    2.500    2.625    5.250    0.500 
#    0.000    0.625    0.000    0.750    0.000    0.000 
#    0.000    0.000    0.000    0.000    0.000    0.000 
#
# Total GULP energy -89409.833048 kJ/mol
# GULP energy per Si atom -5588.114566 kJ/mol
# Density = 2.388776 g / cm^3
# Si number density = 23.942256 Si / 1000 Ang^3
#
#
#
# Elastic Constant Matrix: (Units=GPa)
#
#
# Indices 1 2 3 4 5 6 
#
# 1 101.1066 21.0714 8.8385 14.0357 3.0681 -5.3391
# 2 21.0714 56.2910 20.9671 23.3939 3.7408 -0.5491
# 3 8.8385 20.9671 48.9844 13.7854 1.4335 6.1331
# 4 14.0357 23.3939 13.7854 25.9083 5.1968 0.3485
# 5 3.0681 3.7408 1.4335 5.1968 20.5152 3.3189
# 6 -5.3391 -0.5491 6.1331 0.3485 3.3189 20.2098
#
#
#
# Elastic Compliance Matrix: (Units=1/GPa)
#
#
# Indices 1 2 3 4 5 6 
#
# 1 0.011115 -0.002519 -0.000328 -0.003451 -0.000817 0.003161
# 2 -0.002519 0.030695 -0.006522 -0.023051 0.000681 0.002433
# 3 -0.000328 -0.006522 0.026692 -0.008613 0.002963 -0.008702
# 4 -0.003451 -0.023051 -0.008613 0.068303 -0.012291 0.001917
# 5 -0.000817 0.000681 0.002963 -0.012291 0.053205 -0.009622
# 6 0.003161 0.002433 -0.008702 0.001917 -0.009622 0.054570
#
#
# Mechanical properties :
#
#
# Convention : Reuss Voigt Hill
#
# Bulk Modulus (GPa) = 20.09456 34.23732 27.16594
# Shear Modulus (GPa) = 17.86305 23.69365 20.77835
#
# Velocity S-wave (km/s) = 2.73443 3.14923 2.94913
# Velocity P-wave (km/s) = 4.28726 5.24924 4.79245
#
# Compressibility (1/GPa) = 0.04976472
#
# Stress axis : x y z
#
# Youngs Moduli (GPa) = 89.96829 32.57848 37.46411
#
# Poissons Ratio (x) = 0.08207 0.01229
# Poissons Ratio (y) = 0.22665 0.24433
# Poissons Ratio (z) = 0.02950 0.21246
#
# Static dielectric constant tensor:
#      x y z
#    x 1.926700 0.009580 0.037320 
#    y 0.009580 1.947980 -0.002740 
#    z 0.037320 -0.002740 1.948240 
# 
# From -- ./inp_files/313449.got.cif
#   From: 2010.05.17/outbox.cif.g08.bks.cpg/sg2_157_cif.got.tgz:313449.got - 2010.06.03 11:33:40.
