data_PCOD9081173
_publ_section_title
;
Structure prediction by ZEFSAII (Michael W. Deem and Ramdas Pophale) SiO2 
 PCOD9081173
Probable space group: P -1
;
_chemical_formula_sum "Si O2"
_cell_formula_units_Z 16
_cell_length_a 18.948280
_cell_length_b 12.852375
_cell_length_c 11.186087
_cell_angle_alpha 61.297761
_cell_angle_beta 34.856219
_cell_angle_gamma 37.754192
_cell_volume 835.405901
_symmetry_space_group_name_H-M "P -1"
_symmetry_group_IT_number 2
_symmetry_cell_setting 'triclinic'
loop_
_space_group_symop_operation_xyz
x,y,z
-x,-y,-z
loop_
_atom_site_type_symbol
_atom_site_label
_atom_site_fract_x
_atom_site_fract_y
_atom_site_fract_z
Si Si1 0.031623 0.608759 0.089501
Si Si2 0.378276 0.871750 0.412459
Si Si3 0.809076 0.658508 0.765932
Si Si4 0.503238 0.532319 0.336914
Si Si5 0.413961 0.159201 0.437521
Si Si6 0.552794 0.004597 0.074568
Si Si7 0.041983 0.836728 0.078728
Si Si8 0.368958 0.387919 0.561639
O O1 0.155924 0.461939 0.110072
O O2 0.020951 0.757166 0.045540
O O3 0.815353 0.710434 0.339355
O O4 0.163144 0.495353 0.849491
O O5 0.436941 0.719210 0.327366
O O6 0.461037 0.771713 0.485348
O O7 0.459602 0.942139 0.244555
O O8 0.137640 0.060524 0.640766
O O9 0.610248 0.796923 0.883500
O O10 0.000000 0.500000 0.500000
O O11 0.760570 0.819156 0.817035
O O12 0.500000 0.500000 0.500000
O O13 0.371726 0.527796 0.464079
O O14 0.734729 0.343483 0.080028
O O15 0.547088 0.054470 0.190097
O O16 0.410632 0.286913 0.438385
O O17 0.500000 0.000000 0.500000
O O18 0.000000 0.000000 0.000000
#
# Coordination Sequence:
#
# PCOD9081173 Si02
#       8
#     2   2   2   2   2   2   2   2
#     4  12  21  36  55  83 115 152 187 225 282 330
#     4  11  18  35  51  80 115 139 187 229 270 329
#     4  11  21  38  57  79 111 144 194 241 272 317
#     4  10  19  31  50  76 114 146 180 226 267 331
#     4  12  22  35  52  81 122 152 180 220 280 356
#     4  11  22  35  59  84 110 148 188 232 280 327
#     4  12  18  28  53  77 110 145 179 229 272 321
#     4  11  20  34  51  81 120 151 176 216 282 343
#
# _framework density 19.152365
#
# number of rings (size 3 to 8) (size 9 to 14) (size 15 to 20)
#    0.000    0.750   10.000    0.375    0.000    0.000 
#    0.000    0.000    0.000    0.000    0.000    8.750 
#    0.000    0.500    0.000    0.000    0.000    0.000 
#
# Total GULP energy -89197.120735 kJ/mol
# GULP energy per Si atom -5574.820046 kJ/mol
# Density = 1.910877 g / cm^3
# Si number density = 19.152365 Si / 1000 Ang^3
#
#
#
# Elastic Constant Matrix: (Units=GPa)
#
#
# Indices 1 2 3 4 5 6 
#
# 1 89.6917 33.7862 19.6481 2.8100 25.6707 20.3580
# 2 33.7862 69.7045 14.4615 9.0157 6.8336 14.0155
# 3 19.6481 14.4615 104.4014 23.4745 15.7222 8.8871
# 4 2.8100 9.0157 23.4745 27.9204 7.9828 -1.7109
# 5 25.6707 6.8336 15.7222 7.9828 36.4023 4.1109
# 6 20.3580 14.0155 8.8871 -1.7109 4.1109 33.5071
#
#
#
# Elastic Compliance Matrix: (Units=1/GPa)
#
#
# Indices 1 2 3 4 5 6 
#
# 1 0.018663 -0.006910 -0.001229 0.004288 -0.011541 -0.006488
# 2 -0.006910 0.019157 0.000066 -0.006755 0.003246 -0.004576
# 3 -0.001229 0.000066 0.012629 -0.010105 -0.002057 -0.002894
# 4 0.004288 -0.006755 -0.010105 0.048995 -0.008869 0.006490
# 5 -0.011541 0.003246 -0.002057 -0.008869 0.037707 0.001121
# 6 -0.006488 -0.004576 -0.002894 0.006490 0.001121 0.036662
#
#
# Mechanical properties :
#
#
# Convention : Reuss Voigt Hill
#
# Bulk Modulus (GPa) = 29.15165 44.39881 36.77523
# Shear Modulus (GPa) = 24.82728 32.62608 28.72668
#
# Velocity S-wave (km/s) = 3.60433 4.13183 3.87706
# Velocity P-wave (km/s) = 5.70750 6.78195 6.26779
#
# Compressibility (1/GPa) = 0.03430338
#
# Stress axis : x y z
#
# Youngs Moduli (GPa) = 53.58300 52.19971 79.18441
#
# Poissons Ratio (x) = 0.36068 0.09733
# Poissons Ratio (y) = 0.37024 -0.00525
# Poissons Ratio (z) = 0.06586 -0.00346
#
# Static dielectric constant tensor:
#      x y z
#    x 1.675010 0.010980 0.008630 
#    y 0.010980 1.707390 0.026270 
#    z 0.008630 0.026270 1.809460 
# 
# From -- ./inp_files/432959.got.cif
#   From: 2010.05.17/outbox.cif.g08.bks.cpg/sg2_217_cif.got.tgz:432959.got - 2010.06.03 11:33:40.
