data_PCOD9081455
_publ_section_title
;
Structure prediction by ZEFSAII (Michael W. Deem and Ramdas Pophale) SiO2 
 PCOD9081455
Probable space group: P -1
;
_chemical_formula_sum "Si O2"
_cell_formula_units_Z 16
_cell_length_a 6.399684
_cell_length_b 11.184662
_cell_length_c 18.379715
_cell_angle_alpha 38.936689
_cell_angle_beta 111.609255
_cell_angle_gamma 121.778753
_cell_volume 700.739703
_symmetry_space_group_name_H-M "P -1"
_symmetry_group_IT_number 2
_symmetry_cell_setting 'triclinic'
loop_
_space_group_symop_operation_xyz
x,y,z
-x,-y,-z
loop_
_atom_site_type_symbol
_atom_site_label
_atom_site_fract_x
_atom_site_fract_y
_atom_site_fract_z
Si Si1 0.208797 0.852033 0.529205
Si Si2 0.523028 0.936013 0.951297
Si Si3 0.132174 0.893511 0.655377
Si Si4 0.232595 0.277902 0.192178
Si Si5 0.911122 0.196733 0.769885
Si Si6 0.254398 0.397573 0.845290
Si Si7 0.974463 0.760438 0.962326
Si Si8 0.291627 0.846346 0.387365
O O1 0.138159 0.765633 0.643436
O O2 0.500000 0.000000 0.500000
O O3 0.044625 0.985901 0.437292
O O4 0.192922 0.738177 0.503848
O O5 0.679321 0.801238 0.042770
O O6 0.248090 0.802734 0.952395
O O7 0.500000 0.000000 0.000000
O O8 0.669032 0.118257 0.827523
O O9 0.005476 0.754197 0.774771
O O10 0.410941 0.064132 0.622969
O O11 0.481467 0.413131 0.202295
O O12 0.212381 0.353750 0.072608
O O13 0.241110 0.054697 0.287077
O O14 0.121718 0.365653 0.766000
O O15 0.973047 0.991816 0.863457
O O16 0.844001 0.261466 0.652642
O O17 0.087799 0.365625 0.910747
#
# Coordination Sequence:
#
# PCOD9081455 Si02
#       8
#     2   2   2   2   2   2   2   2
#     4   8  15  29  53  77  99 122 152 193 236 279
#     4  11  18  32  51  65  87 131 174 207 237 272
#     4   9  16  31  50  76 100 123 155 190 238 291
#     4  10  21  31  46  72 102 125 156 203 246 285
#     4  10  19  32  49  68  93 125 169 202 235 283
#     4  11  21  32  46  69  96 132 165 198 246 288
#     4  10  19  34  48  65  93 128 169 207 238 278
#     4   9  18  32  50  74  97 124 156 200 238 279
#
# _framework density 22.833013999999999
#
# number of rings (size 3 to 8) (size 9 to 14) (size 15 to 20)
#    0.000    2.250    2.500    1.875    0.000    1.500 
#    0.000    0.000    0.000    0.750    0.000   29.750 
#    0.000    0.000    0.000    0.000    0.000    0.000 
#
# Total GULP energy -89276.779405 kJ/mol
# GULP energy per Si atom -5579.798713 kJ/mol
# Density = 2.278105 g / cm^3
# Si number density = 22.833014 Si / 1000 Ang^3
#
#
#
# Elastic Constant Matrix: (Units=GPa)
#
#
# Indices 1 2 3 4 5 6 
#
# 1 97.7675 46.1529 30.7493 23.2340 -11.1557 14.8967
# 2 46.1529 139.7030 62.0189 42.6360 -21.9934 8.9247
# 3 30.7493 62.0189 114.8608 41.1774 -20.6483 2.1263
# 4 23.2340 42.6360 41.1774 38.1964 -6.9148 4.5828
# 5 -11.1557 -21.9934 -20.6483 -6.9148 27.7785 0.8516
# 6 14.8967 8.9247 2.1263 4.5828 0.8516 22.7588
#
#
#
# Elastic Compliance Matrix: (Units=1/GPa)
#
#
# Indices 1 2 3 4 5 6 
#
# 1 0.013821 -0.002242 -0.000401 -0.004099 0.002685 -0.007405
# 2 -0.002242 0.012552 -0.001728 -0.009618 0.005407 -0.001559
# 3 -0.000401 -0.001728 0.015967 -0.014056 0.006778 0.002025
# 4 -0.004099 -0.009618 -0.014056 0.053772 -0.006237 -0.002827
# 5 0.002685 0.005407 0.006778 -0.006237 0.044995 -0.004938
# 6 -0.007405 -0.001559 0.002025 -0.002827 -0.004938 0.049962
#
#
# Mechanical properties :
#
#
# Convention : Reuss Voigt Hill
#
# Bulk Modulus (GPa) = 29.76325 70.01925 49.89125
# Shear Modulus (GPa) = 23.69550 31.97409 27.83480
#
# Velocity S-wave (km/s) = 3.22494 3.74618 3.49529
# Velocity P-wave (km/s) = 5.18946 7.03165 6.17959
#
# Compressibility (1/GPa) = 0.03359848
#
# Stress axis : x y z
#
# Youngs Moduli (GPa) = 72.35239 79.66815 62.63076
#
# Poissons Ratio (x) = 0.17858 0.02510
# Poissons Ratio (y) = 0.16218 0.10825
# Poissons Ratio (z) = 0.02899 0.13770
#
# Static dielectric constant tensor:
#      x y z
#    x 1.864590 -0.034450 -0.011360 
#    y -0.034450 1.864500 0.022530 
#    z -0.011360 0.022530 1.954420 
# 
# From -- ./inp_files/44218.got.cif
#   From: 2010.05.17/outbox.cif.g08.bks.cpg/sg2_23_cif.got.tgz:44218.got - 2010.06.03 11:33:40.
