data_PCOD9081540
_publ_section_title
;
Structure prediction by ZEFSAII (Michael W. Deem and Ramdas Pophale) SiO2 
 PCOD9081540
Probable space group: P -1
;
_chemical_formula_sum "Si O2"
_cell_formula_units_Z 16
_cell_length_a 9.116725
_cell_length_b 11.392658
_cell_length_c 15.609168
_cell_angle_alpha 149.526594
_cell_angle_beta 92.578581
_cell_angle_gamma 68.845577
_cell_volume 633.970535
_symmetry_space_group_name_H-M "P -1"
_symmetry_group_IT_number 2
_symmetry_cell_setting 'triclinic'
loop_
_space_group_symop_operation_xyz
x,y,z
-x,-y,-z
loop_
_atom_site_type_symbol
_atom_site_label
_atom_site_fract_x
_atom_site_fract_y
_atom_site_fract_z
Si Si1 0.333849 0.264547 0.224047
Si Si2 0.004883 0.871382 0.161098
Si Si3 0.926056 0.315497 0.653587
Si Si4 0.494160 0.628346 0.300357
Si Si5 0.657762 0.465623 0.925852
Si Si6 0.240055 0.253010 0.700828
Si Si7 0.862176 0.014642 0.938217
Si Si8 0.659984 0.934563 0.152762
O O1 0.204552 0.579884 0.368476
O O2 0.461333 0.199871 0.268968
O O3 0.500000 0.000000 0.000000
O O4 0.179547 0.216241 0.209082
O O5 0.095550 0.525417 0.929430
O O6 0.072808 0.962417 0.139858
O O7 0.132353 0.811117 0.208729
O O8 0.783920 0.029609 0.245466
O O9 0.613336 0.422728 0.802343
O O10 0.121604 0.270997 0.627987
O O11 0.000000 0.000000 0.500000
O O12 0.613491 0.698672 0.294091
O O13 0.655356 0.318298 0.152549
O O14 0.348137 0.926255 0.536573
O O15 0.205188 0.363250 0.094093
O O16 0.500000 0.500000 0.000000
O O17 0.618830 0.778651 0.123885
O O18 0.000000 0.000000 0.000000
#
# Coordination Sequence:
#
# PCOD9081540 Si02
#       8
#     2   2   2   2   2   2   2   2
#     4  10  19  32  51  80 117 148 188 235 288 338
#     4  10  21  36  55  88 115 149 193 243 282 337
#     4  10  20  33  53  82 119 149 185 231 293 342
#     4  10  19  32  55  83 112 146 188 232 286 330
#     4  12  19  34  56  85 117 150 194 238 281 342
#     4   9  18  33  50  82 113 142 184 233 280 330
#     4  11  19  33  53  81 117 148 187 242 286 331
#     4  10  20  35  53  85 113 149 193 238 285 335
#
# _framework density 25.237767999999999
#
# number of rings (size 3 to 8) (size 9 to 14) (size 15 to 20)
#    0.000    1.750    3.750    4.125    1.750    0.000 
#    0.000    0.000    0.000    0.000    6.500   17.500 
#    0.000    0.000    0.000    0.000    0.000    0.000 
#
# Total GULP energy -89250.653429 kJ/mol
# GULP energy per Si atom -5578.165839 kJ/mol
# Density = 2.518033 g / cm^3
# Si number density = 25.237768 Si / 1000 Ang^3
#
#
#
# Elastic Constant Matrix: (Units=GPa)
#
#
# Indices 1 2 3 4 5 6 
#
# 1 209.2552 69.1126 41.0747 30.1153 -14.4101 -25.4961
# 2 69.1126 95.0342 30.0622 36.1290 -8.8764 -18.9426
# 3 41.0747 30.0622 101.3596 38.0127 -11.0424 -13.7012
# 4 30.1153 36.1290 38.0127 39.5680 -10.3037 -8.2826
# 5 -14.4101 -8.8764 -11.0424 -10.3037 32.7160 14.5188
# 6 -25.4961 -18.9426 -13.7012 -8.2826 14.5188 51.8189
#
#
#
# Elastic Compliance Matrix: (Units=1/GPa)
#
#
# Indices 1 2 3 4 5 6 
#
# 1 0.006575 -0.004318 -0.001423 0.000801 0.000995 0.001130
# 2 -0.004318 0.019933 0.002529 -0.017263 -0.002787 0.003852
# 3 -0.001423 0.002529 0.016038 -0.016362 -0.000573 0.002010
# 4 0.000801 -0.017263 -0.016362 0.057978 0.010094 -0.003804
# 5 0.000995 -0.002787 -0.000573 0.010094 0.037481 -0.009568
# 6 0.001130 0.003852 0.002010 -0.003804 -0.009568 0.023866
#
#
# Mechanical properties :
#
#
# Convention : Reuss Voigt Hill
#
# Bulk Modulus (GPa) = 27.68349 76.23868 51.96108
# Shear Modulus (GPa) = 27.72602 42.51386 35.11994
#
# Velocity S-wave (km/s) = 3.31810 4.10876 3.73441
# Velocity P-wave (km/s) = 5.06681 7.26519 6.26321
#
# Compressibility (1/GPa) = 0.03612262
#
# Stress axis : x y z
#
# Youngs Moduli (GPa) = 152.08569 50.16732 62.35157
#
# Poissons Ratio (x) = 0.21662 0.08874
# Poissons Ratio (y) = 0.65671 -0.15770
# Poissons Ratio (z) = 0.21645 -0.12689
#
# Static dielectric constant tensor:
#      x y z
#    x 2.038600 0.013230 -0.008550 
#    y 0.013230 2.154830 -0.021380 
#    z -0.008550 -0.021380 2.044780 
# 
# From -- ./inp_files/607673.got.cif
#   From: 2010.05.17/outbox.cif.g08.bks.cpg/sg2_304_cif.got.tgz:607673.got - 2010.06.03 11:33:40.
