data_PCOD9081725
_publ_section_title
;
Structure prediction by ZEFSAII (Michael W. Deem and Ramdas Pophale) SiO2 
 PCOD9081725
Probable space group: P -1
;
_chemical_formula_sum "Si O2"
_cell_formula_units_Z 10
_cell_length_a 12.165310
_cell_length_b 10.098628
_cell_length_c 9.851977
_cell_angle_alpha 28.239582
_cell_angle_beta 61.335148
_cell_angle_gamma 48.626638
_cell_volume 411.418545
_symmetry_space_group_name_H-M "P -1"
_symmetry_group_IT_number 2
_symmetry_cell_setting 'triclinic'
loop_
_space_group_symop_operation_xyz
x,y,z
-x,-y,-z
loop_
_atom_site_type_symbol
_atom_site_label
_atom_site_fract_x
_atom_site_fract_y
_atom_site_fract_z
Si Si1 0.156594 0.847317 0.716569
Si Si2 0.028021 0.419308 0.895357
Si Si3 0.557044 0.411787 0.737558
Si Si4 0.721820 0.469842 0.357492
Si Si5 0.464679 0.126153 0.254276
O O1 0.181294 0.782441 0.597367
O O2 0.102388 0.232430 0.419512
O O3 0.017373 0.841581 0.861166
O O4 0.309220 0.507576 0.990660
O O5 0.807656 0.651853 0.166243
O O6 0.000000 0.500000 0.000000
O O7 0.696188 0.343838 0.627137
O O8 0.448085 0.345824 0.773055
O O9 0.465564 0.820609 0.455523
O O10 0.584097 0.188958 0.056011
O O11 0.500000 0.000000 0.500000
#
# Coordination Sequence:
#
# PCOD9081725 Si02
#       5
#     2   2   2   2   2
#     4  10  20  33  55  83 109 144 180 218 268 326
#     4  10  19  32  54  83 116 143 168 215 277 336
#     4  10  22  35  57  83 109 144 179 227 277 323
#     4   9  19  34  55  86 116 134 173 223 286 334
#     4  11  23  40  57  76 107 149 194 227 259 313
#
# _framework density 24.306149000000001
#
# number of rings (size 3 to 8) (size 9 to 14) (size 15 to 20)
#    0.000    2.000    0.000    5.400    0.000   15.200 
#    0.000    0.000    0.000    7.200    0.000    0.000 
#    0.000    0.000    0.000    0.000    0.000    0.000 
#
# Total GULP energy -55770.251919 kJ/mol
# GULP energy per Si atom -5577.025192 kJ/mol
# Density = 2.425083 g / cm^3
# Si number density = 24.306149 Si / 1000 Ang^3
#
#
#
# Elastic Constant Matrix: (Units=GPa)
#
#
# Indices 1 2 3 4 5 6 
#
# 1 55.5193 50.8268 48.8607 15.2752 -22.3551 -20.3028
# 2 50.8268 85.3830 59.8582 11.8365 -6.9611 -31.9416
# 3 48.8607 59.8582 208.3354 17.1623 -13.7475 -14.3470
# 4 15.2752 11.8365 17.1623 58.6211 -13.7659 -21.5002
# 5 -22.3551 -6.9611 -13.7475 -13.7659 51.2664 6.6921
# 6 -20.3028 -31.9416 -14.3470 -21.5002 6.6921 37.7871
#
#
#
# Elastic Compliance Matrix: (Units=1/GPa)
#
#
# Indices 1 2 3 4 5 6 
#
# 1 0.055882 -0.029653 -0.003153 -0.003916 0.018676 -0.001773
# 2 -0.029653 0.037667 -0.003656 0.006148 -0.009722 0.019739
# 3 -0.003153 -0.003656 0.006490 -0.001533 -0.000129 -0.003171
# 4 -0.003916 0.006148 -0.001533 0.023665 0.003056 0.015435
# 5 0.018676 -0.009722 -0.000129 0.003056 0.027289 -0.001327
# 6 -0.001773 0.019739 -0.003171 0.015435 -0.001327 0.050011
#
#
# Mechanical properties :
#
#
# Convention : Reuss Voigt Hill
#
# Bulk Modulus (GPa) = 36.88270 74.25879 55.57075
# Shear Modulus (GPa) = 17.66995 42.18104 29.92550
#
# Velocity S-wave (km/s) = 2.69917 4.17034 3.51264
# Velocity P-wave (km/s) = 4.99211 7.33531 6.27407
#
# Compressibility (1/GPa) = 0.02711298
#
# Stress axis : x y z
#
# Youngs Moduli (GPa) = 17.89470 26.54878 154.09462
#
# Poissons Ratio (x) = 0.78725 0.48593
# Poissons Ratio (y) = 0.53063 0.56344
# Poissons Ratio (z) = 0.05643 0.09707
#
# Static dielectric constant tensor:
#      x y z
#    x 1.996650 -0.044120 0.026560 
#    y -0.044120 2.094120 -0.075960 
#    z 0.026560 -0.075960 1.997620 
# 
# From -- ./inp_files/301985.got.cif
#   From: 2010.05.17/outbox.cif.g08.bks.cpg/sg2_151_cif.got.tgz:301985.got - 2010.06.03 11:33:40.
