data_PCOD9081154
_publ_section_title
;
Structure prediction by ZEFSAII (Michael W. Deem and Ramdas Pophale) SiO2 
 PCOD9081154
Probable space group: P -1
;
_chemical_formula_sum "Si O2"
_cell_formula_units_Z 16
_cell_length_a 10.289249
_cell_length_b 11.459096
_cell_length_c 18.309072
_cell_angle_alpha 38.112951
_cell_angle_beta 33.098162
_cell_angle_gamma 57.546686
_cell_volume 677.821921
_symmetry_space_group_name_H-M "P -1"
_symmetry_group_IT_number 2
_symmetry_cell_setting 'triclinic'
loop_
_space_group_symop_operation_xyz
x,y,z
-x,-y,-z
loop_
_atom_site_type_symbol
_atom_site_label
_atom_site_fract_x
_atom_site_fract_y
_atom_site_fract_z
Si Si1 0.415386 0.856498 0.043002
Si Si2 0.489353 0.750881 0.915919
Si Si3 0.092617 0.304913 0.825648
Si Si4 0.596001 0.676987 0.755873
Si Si5 0.759766 0.556920 0.605215
Si Si6 0.300732 0.568523 0.731384
Si Si7 0.822976 0.219550 0.191280
Si Si8 0.911840 0.905920 0.206552
O O1 0.554016 0.909994 0.873602
O O2 0.428579 0.648313 0.167601
O O3 0.125054 0.834394 0.176077
O O4 0.500000 0.000000 0.000000
O O5 0.489362 0.543014 0.055503
O O6 0.193303 0.706441 0.054740
O O7 0.651041 0.815492 0.734157
O O8 0.226921 0.503222 0.714672
O O9 0.217684 0.259508 0.714600
O O10 0.055468 0.110980 0.990280
O O11 0.806289 0.707659 0.578411
O O12 0.365236 0.704276 0.806081
O O13 0.591317 0.593606 0.601212
O O14 0.000000 0.500000 0.500000
O O15 0.241632 0.753590 0.706995
O O16 0.106520 0.376095 0.962767
O O17 0.793532 0.002242 0.278807
#
# Coordination Sequence:
#
# PCOD9081154 Si02
#       8
#     2   2   2   2   2   2   2   2
#     4  10  19  31  49  76 102 127 170 213 251 290
#     4   9  16  27  47  76 102 127 159 216 259 283
#     4   9  15  26  42  72 103 124 156 202 263 297
#     4   9  16  29  48  72 100 131 164 207 250 294
#     4  10  21  35  51  70 101 142 171 198 248 308
#     4   9  16  27  47  68  94 124 170 208 235 286
#     4   9  15  26  44  75  99 121 160 213 256 286
#     4   9  16  25  42  68 104 124 145 201 267 303
#
# _framework density 23.605018999999999
#
# number of rings (size 3 to 8) (size 9 to 14) (size 15 to 20)
#    0.000    2.750    2.500    1.500    0.000    1.000 
#    0.000    0.000    0.000   10.500    0.000    0.000 
#    0.000    0.000    0.000    0.000    0.000    0.000 
#
# Total GULP energy -89091.791329 kJ/mol
# GULP energy per Si atom -5568.236958 kJ/mol
# Density = 2.355129 g / cm^3
# Si number density = 23.605019 Si / 1000 Ang^3
#
#
#
# Elastic Constant Matrix: (Units=GPa)
#
#
# Indices 1 2 3 4 5 6 
#
# 1 130.0954 75.9661 16.9282 9.2989 7.9376 46.0620
# 2 75.9661 135.1638 18.4096 30.8106 10.0231 45.1723
# 3 16.9282 18.4096 47.4117 18.9114 -3.4319 15.4434
# 4 9.2989 30.8106 18.9114 30.3463 -6.4410 23.1871
# 5 7.9376 10.0231 -3.4319 -6.4410 11.3751 12.9196
# 6 46.0620 45.1723 15.4434 23.1871 12.9196 81.6265
#
#
#
# Elastic Compliance Matrix: (Units=1/GPa)
#
#
# Indices 1 2 3 4 5 6 
#
# 1 0.017178 -0.012895 -0.005749 0.029046 0.030636 -0.014569
# 2 -0.012895 0.023113 0.004982 -0.044360 -0.051159 0.014242
# 3 -0.005749 0.004982 0.030053 -0.028739 -0.013352 0.005078
# 4 0.029046 -0.044360 -0.028739 0.176502 0.184818 -0.065794
# 5 0.030636 -0.051159 -0.013352 0.184818 0.312683 -0.088441
# 6 -0.014569 0.014242 0.005078 -0.065794 -0.088441 0.044318
#
#
# Mechanical properties :
#
#
# Convention : Reuss Voigt Hill
#
# Bulk Modulus (GPa) = 23.24504 59.47542 41.36023
# Shear Modulus (GPa) = 7.74581 38.09406 22.91993
#
# Velocity S-wave (km/s) = 1.81344 4.02159 3.11943
# Velocity P-wave (km/s) = 3.77540 6.84215 5.52578
#
# Compressibility (1/GPa) = 0.04301992
#
# Stress axis : x y z
#
# Youngs Moduli (GPa) = 58.21548 43.26501 33.27478
#
# Poissons Ratio (x) = 0.55790 0.19129
# Poissons Ratio (y) = 0.75069 -0.16577
# Poissons Ratio (z) = 0.33466 -0.21553
#
# Static dielectric constant tensor:
#      x y z
#    x 1.927990 0.132190 0.016460 
#    y 0.132190 2.038040 0.004380 
#    z 0.016460 0.004380 1.914170 
# 
# From -- ./inp_files/258003.got.cif
#   From: 2010.05.17/outbox.cif.g08.bks.cpg/sg2_130_cif.got.tgz:258003.got - 2010.06.03 11:33:40.
