data_PCOD9081384
_publ_section_title
;
Structure prediction by ZEFSAII (Michael W. Deem and Ramdas Pophale) SiO2 
 PCOD9081384
Probable space group: P -1
;
_chemical_formula_sum "Si O2"
_cell_formula_units_Z 14
_cell_length_a 10.205859
_cell_length_b 12.521651
_cell_length_c 9.689003
_cell_angle_alpha 39.479463
_cell_angle_beta 124.351094
_cell_angle_gamma 101.969959
_cell_volume 585.358851
_symmetry_space_group_name_H-M "P -1"
_symmetry_group_IT_number 2
_symmetry_cell_setting 'triclinic'
loop_
_space_group_symop_operation_xyz
x,y,z
-x,-y,-z
loop_
_atom_site_type_symbol
_atom_site_label
_atom_site_fract_x
_atom_site_fract_y
_atom_site_fract_z
Si Si1 0.622582 0.910762 0.884586
Si Si2 0.743441 0.335281 0.686237
Si Si3 0.470237 0.261135 0.747322
Si Si4 0.761633 0.345727 0.200186
Si Si5 0.854936 0.459970 0.875211
Si Si6 0.500224 0.752209 0.724990
Si Si7 0.017468 0.681267 0.389862
O O1 0.613437 0.770488 0.901446
O O2 0.526496 0.104732 0.555972
O O3 0.536730 0.885600 0.001145
O O4 0.826892 0.850585 0.093459
O O5 0.650171 0.218094 0.816601
O O6 0.586814 0.547429 0.385730
O O7 0.889691 0.348523 0.863135
O O8 0.833497 0.289902 0.637950
O O9 0.309283 0.344175 0.459339
O O10 0.685803 0.209653 0.353207
O O11 0.920716 0.340010 0.394374
O O12 0.805285 0.335305 0.076819
O O13 0.602097 0.549627 0.923174
O O14 0.000000 0.500000 0.000000
O O15 0.000000 0.500000 0.500000
#
# Coordination Sequence:
#
# PCOD9081384 Si02
#       7
#     2   2   2   2   2   2   2
#     4  11  21  41  60  90 119 158 195 248 296 348
#     4   9  19  32  55  87 112 155 195 232 288 360
#     4   9  18  33  57  78 117 154 191 228 291 353
#     4  11  22  38  62  90 115 154 204 242 290 354
#     4  10  19  31  56  88 115 147 194 248 283 344
#     4  10  24  36  63  87 121 149 203 248 292 344
#     4  12  20  35  64  90 117 155 203 242 289 355
#
# _framework density 23.916951999999998
#
# number of rings (size 3 to 8) (size 9 to 14) (size 15 to 20)
#    0.857    0.857    2.857    2.571    4.000    0.571 
#    0.000    0.714    3.143    2.571    0.000    0.000 
#    0.000    0.000    0.000    0.000    0.000    0.000 
#
# Total GULP energy -78244.317790 kJ/mol
# GULP energy per Si atom -5588.879842 kJ/mol
# Density = 2.386252 g / cm^3
# Si number density = 23.916952 Si / 1000 Ang^3
#
#
#
# Elastic Constant Matrix: (Units=GPa)
#
#
# Indices 1 2 3 4 5 6 
#
# 1 103.6314 10.5492 45.6647 0.3352 -31.8065 12.2302
# 2 10.5492 42.6861 25.8368 17.7019 -1.2245 9.5316
# 3 45.6647 25.8368 113.2514 24.1206 -38.7724 11.4359
# 4 0.3352 17.7019 24.1206 35.7146 6.3229 -1.1665
# 5 -31.8065 -1.2245 -38.7724 6.3229 43.4708 2.7534
# 6 12.2302 9.5316 11.4359 -1.1665 2.7534 38.1461
#
#
#
# Elastic Compliance Matrix: (Units=1/GPa)
#
#
# Indices 1 2 3 4 5 6 
#
# 1 0.013729 -0.001061 -0.001991 0.000104 0.008487 -0.004149
# 2 -0.001061 0.033401 -0.003572 -0.014287 -0.000478 -0.007337
# 3 -0.001991 -0.003572 0.021940 -0.016964 0.020926 -0.007075
# 4 0.000104 -0.014287 -0.016964 0.051112 -0.023645 0.011892
# 5 0.008487 -0.000478 0.020926 -0.023645 0.052150 -0.013362
# 6 -0.004149 -0.007337 -0.007075 0.011892 -0.013362 0.032828
#
#
# Mechanical properties :
#
#
# Convention : Reuss Voigt Hill
#
# Bulk Modulus (GPa) = 17.91439 47.07448 32.49443
# Shear Modulus (GPa) = 21.09572 35.30084 28.19828
#
# Velocity S-wave (km/s) = 2.97314 3.84601 3.43739
# Velocity P-wave (km/s) = 4.39233 6.28073 5.41942
#
# Compressibility (1/GPa) = 0.05582106
#
# Stress axis : x y z
#
# Youngs Moduli (GPa) = 72.83740 29.93944 45.57981
#
# Poissons Ratio (x) = 0.03176 0.09077
# Poissons Ratio (y) = 0.07726 0.16282
# Poissons Ratio (z) = 0.14505 0.10695
#
# Static dielectric constant tensor:
#      x y z
#    x 1.912790 0.049110 -0.015420 
#    y 0.049110 2.019150 -0.056130 
#    z -0.015420 -0.056130 1.874920 
# 
# From -- ./inp_files/435367.got.cif
#   From: 2010.05.17/outbox.cif.g08.bks.cpg/sg2_218_cif.got.tgz:435367.got - 2010.06.03 11:33:40.
