data_PCOD9081980
_publ_section_title
;
Structure prediction by ZEFSAII (Michael W. Deem and Ramdas Pophale) SiO2 
 PCOD9081980
Probable space group: P -1
;
_chemical_formula_sum "Si O2"
_cell_formula_units_Z 16
_cell_length_a 8.759908
_cell_length_b 11.875154
_cell_length_c 8.377081
_cell_angle_alpha 70.681589
_cell_angle_beta 74.562345
_cell_angle_gamma 67.204685
_cell_volume 748.530268
_symmetry_space_group_name_H-M "P -1"
_symmetry_group_IT_number 2
_symmetry_cell_setting 'triclinic'
loop_
_space_group_symop_operation_xyz
x,y,z
-x,-y,-z
loop_
_atom_site_type_symbol
_atom_site_label
_atom_site_fract_x
_atom_site_fract_y
_atom_site_fract_z
Si Si1 0.415298 0.933560 0.331444
Si Si2 0.079902 0.871409 0.387685
Si Si3 0.999740 0.678241 0.307753
Si Si4 0.445778 0.183857 0.339782
Si Si5 0.180490 0.909398 0.844148
Si Si6 0.976238 0.775587 0.797797
Si Si7 0.256791 0.107090 0.930014
Si Si8 0.124094 0.406511 0.283790
O O1 0.245421 0.908572 0.346370
O O2 0.515594 0.824945 0.479243
O O3 0.550275 0.925597 0.158703
O O4 0.382450 0.065596 0.373090
O O5 0.021425 0.832558 0.593141
O O6 0.114798 0.755540 0.308563
O O7 0.925248 0.982341 0.301258
O O8 0.848920 0.776925 0.207285
O O9 0.930740 0.634510 0.509831
O O10 0.088739 0.554729 0.236976
O O11 0.626425 0.150509 0.225813
O O12 0.315285 0.315336 0.259513
O O13 0.098577 0.800164 0.888295
O O14 0.187961 0.990427 0.962162
O O15 0.976304 0.638455 0.806452
O O16 0.796851 0.846750 0.897984
#
# Coordination Sequence:
#
# PCOD9081980 Si02
#       8
#     2   2   2   2   2   2   2   2
#     4  10  19  33  58  84 112 142 179 225 273 332
#     4  10  20  36  61  83 107 146 192 223 266 326
#     4   9  20  38  58  76 110 149 188 230 266 324
#     4  10  19  32  59  82 108 143 185 225 266 321
#     4  10  20  36  58  82 114 146 180 222 274 336
#     4  11  21  33  57  87 112 142 183 227 275 333
#     4  10  21  37  55  85 117 144 173 228 290 318
#     4  10  20  37  57  81 106 149 195 222 266 324
#
# _framework density 21.375219999999999
#
# number of rings (size 3 to 8) (size 9 to 14) (size 15 to 20)
#    0.000    2.000    2.500    1.500    5.250    0.500 
#    0.000   10.000    0.000    1.500    0.000    0.000 
#    0.000    0.000    0.000    0.000    0.000    0.000 
#
# Total GULP energy -89344.646064 kJ/mol
# GULP energy per Si atom -5584.040379 kJ/mol
# Density = 2.132657 g / cm^3
# Si number density = 21.375220 Si / 1000 Ang^3
#
#
#
# Elastic Constant Matrix: (Units=GPa)
#
#
# Indices 1 2 3 4 5 6 
#
# 1 122.6361 70.1267 22.2548 17.6478 -10.4318 4.5469
# 2 70.1267 154.2436 30.3739 26.3015 -2.4602 19.3882
# 3 22.2548 30.3739 72.9833 20.6235 4.3483 6.8840
# 4 17.6478 26.3015 20.6235 30.8490 -1.3024 7.6357
# 5 -10.4318 -2.4602 4.3483 -1.3024 30.5747 5.8582
# 6 4.5469 19.3882 6.8840 7.6357 5.8582 26.1552
#
#
#
# Elastic Compliance Matrix: (Units=1/GPa)
#
#
# Indices 1 2 3 4 5 6 
#
# 1 0.011693 -0.004890 -0.001359 -0.001902 0.003373 0.001750
# 2 -0.004890 0.010275 -0.001212 -0.003812 0.000199 -0.005379
# 3 -0.001359 -0.001212 0.017701 -0.010239 -0.003565 0.000263
# 4 -0.001902 -0.003812 -0.010239 0.045863 0.004073 -0.008450
# 5 0.003373 0.000199 -0.003565 0.004073 0.036301 -0.009115
# 6 0.001750 -0.005379 0.000263 -0.008450 -0.009115 0.046355
#
#
# Mechanical properties :
#
#
# Convention : Reuss Voigt Hill
#
# Bulk Modulus (GPa) = 40.40975 66.15265 53.28120
# Shear Modulus (GPa) = 26.12882 32.65629 29.39255
#
# Velocity S-wave (km/s) = 3.50006 3.91290 3.71222
# Velocity P-wave (km/s) = 5.93969 7.17146 6.58444
#
# Compressibility (1/GPa) = 0.02474650
#
# Stress axis : x y z
#
# Youngs Moduli (GPa) = 85.52095 97.32610 56.49274
#
# Poissons Ratio (x) = 0.47597 0.07676
# Poissons Ratio (y) = 0.41824 0.06847
# Poissons Ratio (z) = 0.11621 0.11796
#
# Static dielectric constant tensor:
#      x y z
#    x 1.791310 0.012230 0.009450 
#    y 0.012230 1.791590 0.001330 
#    z 0.009450 0.001330 1.834210 
# 
# From -- ./inp_files/177557.got.cif
#   From: 2010.05.17/outbox.cif.g08.bks.cpg/sg2_89_cif.got.tgz:177557.got - 2010.06.03 11:33:40.
