data_PCOD9081348
_publ_section_title
;
Structure prediction by ZEFSAII (Michael W. Deem and Ramdas Pophale) SiO2 
 PCOD9081348
Probable space group: P -1
;
_chemical_formula_sum "Si O2"
_cell_formula_units_Z 16
_cell_length_a 5.129743
_cell_length_b 29.294604
_cell_length_c 16.894704
_cell_angle_alpha 16.210613
_cell_angle_beta 69.077303
_cell_angle_gamma 75.835426
_cell_volume 613.288574
_symmetry_space_group_name_H-M "P -1"
_symmetry_group_IT_number 2
_symmetry_cell_setting 'triclinic'
loop_
_space_group_symop_operation_xyz
x,y,z
-x,-y,-z
loop_
_atom_site_type_symbol
_atom_site_label
_atom_site_fract_x
_atom_site_fract_y
_atom_site_fract_z
Si Si1 0.311196 0.641383 0.653256
Si Si2 0.569342 0.998587 0.089802
Si Si3 0.763284 0.668280 0.723544
Si Si4 0.193942 0.730857 0.149626
Si Si5 0.513383 0.845453 0.579287
Si Si6 0.178435 0.246149 0.986072
Si Si7 0.173014 0.206390 0.778501
Si Si8 0.116994 0.186306 0.271692
O O1 0.505609 0.790025 0.449461
O O2 0.539761 0.666822 0.513893
O O3 0.030832 0.704851 0.571164
O O4 0.159021 0.439423 0.031314
O O5 0.500000 0.000000 0.000000
O O6 0.320599 0.073889 0.023693
O O7 0.893485 0.106778 0.914057
O O8 0.678570 0.807761 0.549133
O O9 0.500000 0.500000 0.000000
O O10 0.486419 0.682962 0.204656
O O11 0.028042 0.682567 0.163487
O O12 0.353877 0.944752 0.775481
O O13 0.958151 0.698374 0.300849
O O14 0.157465 0.772926 0.729790
O O15 0.600500 0.768624 0.776997
O O16 0.191955 0.275828 0.028928
O O17 0.020900 0.029738 0.359952
#
# Coordination Sequence:
#
# PCOD9081348 Si02
#       8
#     2   2   2   2   2   2   2   2
#     4  10  24  39  55  78 110 154 196 242 286 327
#     4  10  21  36  58  80 108 147 194 239 284 339
#     4  11  26  39  57  77 114 158 201 247 271 323
#     4  10  19  31  55  86 117 141 176 233 280 352
#     4  10  21  35  54  81 113 148 191 225 280 329
#     4   9  17  32  52  86 116 141 173 218 298 343
#     4  11  22  37  59  86 113 150 192 234 296 345
#     4   9  18  33  56  79 114 148 175 226 278 358
#
# _framework density 26.088858999999999
#
# number of rings (size 3 to 8) (size 9 to 14) (size 15 to 20)
#    0.000    2.000    0.000    3.750   10.500    4.000 
#    0.000    0.000    0.000    0.000    0.000    5.250 
#    0.000    0.000    0.000    0.000    0.000    0.000 
#
# Total GULP energy -89348.953770 kJ/mol
# GULP energy per Si atom -5584.309611 kJ/mol
# Density = 2.602948 g / cm^3
# Si number density = 26.088859 Si / 1000 Ang^3
#
#
#
# Elastic Constant Matrix: (Units=GPa)
#
#
# Indices 1 2 3 4 5 6 
#
# 1 111.3008 26.3324 3.5727 -0.5767 -15.3589 -4.2324
# 2 26.3324 80.6134 18.1669 23.0492 0.8753 0.9847
# 3 3.5727 18.1669 52.1006 13.1113 -6.6206 -5.6086
# 4 -0.5767 23.0492 13.1113 31.9467 -8.7996 -6.5035
# 5 -15.3589 0.8753 -6.6206 -8.7996 32.8915 6.9822
# 6 -4.2324 0.9847 -5.6086 -6.5035 6.9822 48.6903
#
#
#
# Elastic Compliance Matrix: (Units=1/GPa)
#
#
# Indices 1 2 3 4 5 6 
#
# 1 0.011358 -0.005720 0.000656 0.006204 0.007036 0.000998
# 2 -0.005720 0.019594 -0.003815 -0.015218 -0.007547 -0.002283
# 3 0.000656 -0.003815 0.022365 -0.005221 0.003182 0.001557
# 4 0.006204 -0.015218 -0.005221 0.049498 0.014479 0.004781
# 5 0.007036 -0.007547 0.003182 0.014479 0.038938 -0.002519
# 6 0.000998 -0.002283 0.001557 0.004781 -0.002519 0.021850
#
#
# Mechanical properties :
#
#
# Convention : Reuss Voigt Hill
#
# Bulk Modulus (GPa) = 28.12318 37.79540 32.95929
# Shear Modulus (GPa) = 25.87789 35.76858 30.82323
#
# Velocity S-wave (km/s) = 3.15288 3.70676 3.44098
# Velocity P-wave (km/s) = 4.90483 5.73051 5.33367
#
# Compressibility (1/GPa) = 0.03555785
#
# Stress axis : x y z
#
# Youngs Moduli (GPa) = 88.04346 51.03510 44.71322
#
# Poissons Ratio (x) = 0.29195 -0.02933
# Poissons Ratio (y) = 0.50365 0.17059
# Poissons Ratio (z) = -0.05776 0.19471
#
# Static dielectric constant tensor:
#      x y z
#    x 2.379340 0.010460 0.188810 
#    y 0.010460 2.094920 0.123970 
#    z 0.188810 0.123970 2.493390 
# 
# From -- ./inp_files/551499.got.cif
#   From: 2010.05.17/outbox.cif.g08.bks.cpg/sg2_276_cif.got.tgz:551499.got - 2010.06.03 11:33:40.
