data_PCOD9081514
_publ_section_title
;
Structure prediction by ZEFSAII (Michael W. Deem and Ramdas Pophale) SiO2 
 PCOD9081514
Probable space group: P -1
;
_chemical_formula_sum "Si O2"
_cell_formula_units_Z 16
_cell_length_a 6.100063
_cell_length_b 6.978736
_cell_length_c 19.676888
_cell_angle_alpha 85.518608
_cell_angle_beta 106.607831
_cell_angle_gamma 63.295132
_cell_volume 695.899991
_symmetry_space_group_name_H-M "P -1"
_symmetry_group_IT_number 2
_symmetry_cell_setting 'triclinic'
loop_
_space_group_symop_operation_xyz
x,y,z
-x,-y,-z
loop_
_atom_site_type_symbol
_atom_site_label
_atom_site_fract_x
_atom_site_fract_y
_atom_site_fract_z
Si Si1 0.871178 0.941750 0.565662
Si Si2 0.265497 0.374501 0.749761
Si Si3 0.749005 0.820370 0.705640
Si Si4 0.921569 0.312047 0.632315
Si Si5 0.314965 0.377873 0.003610
Si Si6 0.591309 0.240299 0.413056
Si Si7 0.795399 0.190234 0.772372
Si Si8 0.689697 0.916111 0.114286
O O1 0.940110 0.133136 0.586945
O O2 0.679980 0.046823 0.482187
O O3 0.783561 0.889339 0.630170
O O4 0.149604 0.737737 0.573845
O O5 0.522105 0.397382 0.764776
O O6 0.350004 0.176721 0.815863
O O7 0.007767 0.587768 0.748799
O O8 0.178710 0.331800 0.669049
O O9 0.492717 0.800707 0.668115
O O10 0.739968 0.992527 0.753683
O O11 0.663426 0.543472 0.587809
O O12 0.878451 0.244530 0.706149
O O13 0.487175 0.172818 0.075524
O O14 0.500000 0.500000 0.000000
O O15 0.316900 0.246282 0.939167
O O16 0.000000 0.500000 0.000000
O O17 0.017399 0.119706 0.850273
#
# Coordination Sequence:
#
# PCOD9081514 Si02
#       8
#     2   2   2   2   2   2   2   2
#     4  10  19  32  51  74 108 153 204 260 320 386
#     4  10  21  37  61  87 124 161 207 264 316 384
#     4  10  21  34  54  83 116 156 208 260 326 383
#     4   9  19  35  49  81 111 154 202 262 321 375
#     4  11  28  49  76 106 144 183 220 273 328 390
#     4  10  19  32  51  74 108 153 204 260 320 386
#     4  10  21  37  61  87 124 161 207 264 316 384
#     4  10  26  43  69 104 132 172 222 264 320 398
#
# _framework density 22.991806
#
# number of rings (size 3 to 8) (size 9 to 14) (size 15 to 20)
#    0.000    2.000    0.000    2.250    5.250    1.000 
#    0.000    2.500    0.000   12.000    0.000    0.000 
#    0.000    0.000    0.000    0.000    0.000    0.000 
#
# Total GULP energy -89130.811830 kJ/mol
# GULP energy per Si atom -5570.675739 kJ/mol
# Density = 2.293948 g / cm^3
# Si number density = 22.991806 Si / 1000 Ang^3
#
#
#
# Elastic Constant Matrix: (Units=GPa)
#
#
# Indices 1 2 3 4 5 6 
#
# 1 76.0077 52.5484 64.4199 -15.2354 19.9835 -9.2322
# 2 52.5484 91.6118 45.2566 -20.6124 9.6894 4.9091
# 3 64.4199 45.2566 123.7939 -32.4450 17.6217 0.0031
# 4 -15.2354 -20.6124 -32.4450 30.0147 -8.0031 3.8020
# 5 19.9835 9.6894 17.6217 -8.0031 39.0216 -11.2300
# 6 -9.2322 4.9091 0.0031 3.8020 -11.2300 26.5874
#
#
#
# Elastic Compliance Matrix: (Units=1/GPa)
#
#
# Indices 1 2 3 4 5 6 
#
# 1 0.042841 -0.019188 -0.018300 -0.015308 -0.006966 0.017668
# 2 -0.019188 0.023033 0.004872 0.013191 0.001056 -0.012356
# 3 -0.018300 0.004872 0.020393 0.017258 -0.000349 -0.009872
# 4 -0.015308 0.013191 0.017258 0.056170 0.004266 -0.013984
# 5 -0.006966 0.001056 -0.000349 0.004266 0.033054 0.010738
# 6 0.017668 -0.012356 -0.009872 -0.013984 0.010738 0.052564
#
#
# Mechanical properties :
#
#
# Convention : Reuss Voigt Hill
#
# Bulk Modulus (GPa) = 47.53886 68.42923 57.98404
# Shear Modulus (GPa) = 16.64995 27.73730 22.19363
#
# Velocity S-wave (km/s) = 2.69396 3.47709 3.11027
# Velocity P-wave (km/s) = 5.51343 6.77844 6.17840
#
# Compressibility (1/GPa) = 0.02103542
#
# Stress axis : x y z
#
# Youngs Moduli (GPa) = 23.34201 43.41503 49.03627
#
# Poissons Ratio (x) = 0.83303 0.89737
# Poissons Ratio (y) = 0.44788 -0.23888
# Poissons Ratio (z) = 0.42716 -0.21150
#
# Static dielectric constant tensor:
#      x y z
#    x 2.034820 0.027990 0.036110 
#    y 0.027990 1.902910 -0.010080 
#    z 0.036110 -0.010080 1.817370 
# 
# From -- ./inp_files/582412.got.cif
#   From: 2010.05.17/outbox.cif.g08.bks.cpg/sg2_292_cif.got.tgz:582412.got - 2010.06.03 11:33:40.
