data_PCOD9081750
_publ_section_title
;
Structure prediction by ZEFSAII (Michael W. Deem and Ramdas Pophale) SiO2 
 PCOD9081750
Probable space group: P -1
;
_chemical_formula_sum "Si O2"
_cell_formula_units_Z 16
_cell_length_a 15.892122
_cell_length_b 10.363075
_cell_length_c 9.323092
_cell_angle_alpha 122.060171
_cell_angle_beta 144.814514
_cell_angle_gamma 51.830960
_cell_volume 694.462596
_symmetry_space_group_name_H-M "P -1"
_symmetry_group_IT_number 2
_symmetry_cell_setting 'triclinic'
loop_
_space_group_symop_operation_xyz
x,y,z
-x,-y,-z
loop_
_atom_site_type_symbol
_atom_site_label
_atom_site_fract_x
_atom_site_fract_y
_atom_site_fract_z
Si Si1 0.048793 0.734271 0.235242
Si Si2 0.163440 0.956784 0.784463
Si Si3 0.300827 0.890604 0.662759
Si Si4 0.821422 0.996756 0.747139
Si Si5 0.843708 0.596851 0.978369
Si Si6 0.369194 0.710677 0.127566
Si Si7 0.640819 0.819962 0.561944
Si Si8 0.574634 0.583475 0.777273
O O1 0.206868 0.767587 0.486189
O O2 0.078261 0.589435 0.079148
O O3 0.905003 0.907468 0.106354
O O4 0.979914 0.667420 0.234556
O O5 0.281690 0.977650 0.842027
O O6 0.000000 0.000000 0.500000
O O7 0.242807 0.785349 0.870890
O O8 0.217644 0.996833 0.473428
O O9 0.469321 0.770015 0.777153
O O10 0.706437 0.165424 0.768153
O O11 0.761030 0.856209 0.642065
O O12 0.000000 0.000000 0.000000
O O13 0.730416 0.714370 0.764950
O O14 0.737690 0.586621 0.953126
O O15 0.531247 0.722193 0.304285
O O16 0.402569 0.530595 0.121216
O O17 0.500000 0.000000 0.500000
O O18 0.500000 0.500000 0.500000
#
# Coordination Sequence:
#
# PCOD9081750 Si02
#       8
#     2   2   2   2   2   2   2   2
#     4  10  20  37  58  83 117 162 201 237 301 359
#     4  10  23  41  61  85 123 165 202 244 305 372
#     4  11  21  39  60  86 124 162 195 249 304 360
#     4  11  20  33  59  91 118 153 207 252 292 347
#     4  11  20  35  61  92 121 154 196 260 303 345
#     4  11  21  37  60  85 118 158 203 249 296 362
#     4  10  19  32  54  88 122 149 194 249 304 349
#     4  12  20  37  60  91 123 149 199 252 303 349
#
# _framework density 23.039399
#
# number of rings (size 3 to 8) (size 9 to 14) (size 15 to 20)
#    0.000    1.250    3.750    4.500    0.000    1.500 
#    0.000    2.500    0.000    3.750    0.000    0.000 
#    0.000    0.000    0.000    0.000    0.000    0.000 
#
# Total GULP energy -89145.256739 kJ/mol
# GULP energy per Si atom -5571.578546 kJ/mol
# Density = 2.298696 g / cm^3
# Si number density = 23.039399 Si / 1000 Ang^3
#
#
#
# Elastic Constant Matrix: (Units=GPa)
#
#
# Indices 1 2 3 4 5 6 
#
# 1 131.9568 31.2102 26.6413 2.2198 18.4458 19.5045
# 2 31.2102 77.1579 28.9287 -18.7125 5.9119 22.7254
# 3 26.6413 28.9287 69.4648 -21.5241 2.9938 21.4933
# 4 2.2198 -18.7125 -21.5241 34.5650 18.3224 6.5114
# 5 18.4458 5.9119 2.9938 18.3224 33.8249 4.9503
# 6 19.5045 22.7254 21.4933 6.5114 4.9503 53.7365
#
#
#
# Elastic Compliance Matrix: (Units=1/GPa)
#
#
# Indices 1 2 3 4 5 6 
#
# 1 0.009366 -0.002861 -0.002736 -0.002074 -0.003161 -0.000553
# 2 -0.002861 0.023604 0.003412 0.025161 -0.014741 -0.012000
# 3 -0.002736 0.003412 0.028975 0.031617 -0.016698 -0.014332
# 4 -0.002074 0.025161 0.031617 0.096555 -0.054086 -0.029251
# 5 -0.003161 -0.014741 -0.016698 -0.054086 0.062465 0.014859
# 6 -0.000553 -0.012000 -0.014332 -0.029251 0.014859 0.031793
#
#
# Mechanical properties :
#
#
# Convention : Reuss Voigt Hill
#
# Bulk Modulus (GPa) = 17.36869 50.23777 33.80323
# Shear Modulus (GPa) = 18.09492 37.21189 27.65341
#
# Velocity S-wave (km/s) = 2.80552 4.02324 3.46824
# Velocity P-wave (km/s) = 4.24849 6.59048 5.54455
#
# Compressibility (1/GPa) = 0.05757488
#
# Stress axis : x y z
#
# Youngs Moduli (GPa) = 106.77302 42.36504 34.51206
#
# Poissons Ratio (x) = 0.12119 0.09443
# Poissons Ratio (y) = 0.30544 -0.11774
# Poissons Ratio (z) = 0.29215 -0.14453
#
# Static dielectric constant tensor:
#      x y z
#    x 1.972810 -0.057730 -0.084500 
#    y -0.057730 1.962720 0.083580 
#    z -0.084500 0.083580 1.987760 
# 
# From -- ./inp_files/298998.got.cif
#   From: 2010.05.17/outbox.cif.g08.bks.cpg/sg2_150_cif.got.tgz:298998.got - 2010.06.03 11:33:40.
