data_PCOD9081635
_publ_section_title
;
Structure prediction by ZEFSAII (Michael W. Deem and Ramdas Pophale) SiO2 
 PCOD9081635
Probable space group: P -1
;
_chemical_formula_sum "Si O2"
_cell_formula_units_Z 16
_cell_length_a 10.114984
_cell_length_b 7.580729
_cell_length_c 11.768281
_cell_angle_alpha 42.516908
_cell_angle_beta 111.771444
_cell_angle_gamma 106.455215
_cell_volume 566.265808
_symmetry_space_group_name_H-M "P -1"
_symmetry_group_IT_number 2
_symmetry_cell_setting 'triclinic'
loop_
_space_group_symop_operation_xyz
x,y,z
-x,-y,-z
loop_
_atom_site_type_symbol
_atom_site_label
_atom_site_fract_x
_atom_site_fract_y
_atom_site_fract_z
Si Si1 0.168718 0.258124 0.421387
Si Si2 0.442570 0.338969 0.382474
Si Si3 0.155381 0.981293 0.920167
Si Si4 0.562472 0.771411 0.050285
Si Si5 0.296965 0.798153 0.828125
Si Si6 0.958948 0.196983 0.560607
Si Si7 0.909178 0.644871 0.005378
Si Si8 0.696759 0.077419 0.633239
O O1 0.295395 0.453522 0.330211
O O2 0.047967 0.355400 0.421271
O O3 0.255710 0.048780 0.624469
O O4 0.083587 0.081866 0.383769
O O5 0.526032 0.514434 0.234089
O O6 0.560718 0.236421 0.557325
O O7 0.371825 0.097431 0.406022
O O8 0.272419 0.147753 0.945872
O O9 0.058420 0.146923 0.723953
O O10 0.246086 0.822421 0.930822
O O11 0.042560 0.791752 0.037459
O O12 0.465854 0.761628 0.910326
O O13 0.500000 0.000000 0.000000
O O14 0.192400 0.566112 0.865647
O O15 0.807780 0.284862 0.515674
O O16 0.797396 0.868743 0.825973
O O17 0.000000 0.500000 0.000000
#
# Coordination Sequence:
#
# PCOD9081635 Si02
#       8
#     2   2   2   2   2   2   2   2
#     4   9  17  30  52  79 106 136 175 226 271 309
#     4  10  19  32  53  78 110 138 175 225 270 316
#     4   8  16  28  48  75  99 131 182 218 253 306
#     4  10  19  33  50  78 107 143 181 216 262 324
#     4   9  16  29  49  74 104 134 174 224 263 308
#     4   8  15  31  49  73 107 132 176 218 258 319
#     4   9  15  28  51  75  98 134 180 223 249 301
#     4   9  17  31  54  80 102 137 184 224 263 310
#
# _framework density 28.255281
#
# number of rings (size 3 to 8) (size 9 to 14) (size 15 to 20)
#    0.000    3.000    1.250    0.750    0.000    0.000 
#    0.000    8.750    0.000    0.000    0.000    4.375 
#    0.000    0.000    0.000    0.000    0.000    0.000 
#
# Total GULP energy -89346.641247 kJ/mol
# GULP energy per Si atom -5584.165078 kJ/mol
# Density = 2.819097 g / cm^3
# Si number density = 28.255281 Si / 1000 Ang^3
#
#
#
# Elastic Constant Matrix: (Units=GPa)
#
#
# Indices 1 2 3 4 5 6 
#
# 1 108.7935 81.1620 45.9801 15.5172 17.5587 51.9811
# 2 81.1620 153.2604 34.6381 7.5945 7.9519 49.1975
# 3 45.9801 34.6381 138.0772 23.1445 5.9664 40.3528
# 4 15.5172 7.5945 23.1445 29.9609 17.8215 11.6217
# 5 17.5587 7.9519 5.9664 17.8215 48.5051 2.6943
# 6 51.9811 49.1975 40.3528 11.6217 2.6943 78.8032
#
#
#
# Elastic Compliance Matrix: (Units=1/GPa)
#
#
# Indices 1 2 3 4 5 6 
#
# 1 0.020151 -0.007567 -0.002376 -0.000971 -0.005014 -0.007037
# 2 -0.007567 0.011135 0.000094 0.001653 0.000421 -0.002266
# 3 -0.002376 0.000094 0.009792 -0.006683 0.002240 -0.002596
# 4 -0.000971 0.001653 -0.006683 0.050471 -0.017429 -0.003817
# 5 -0.005014 0.000421 0.002240 -0.017429 0.028296 0.003501
# 6 -0.007037 -0.002266 -0.002596 -0.003817 0.003501 0.020519
#
#
# Mechanical properties :
#
#
# Convention : Reuss Voigt Hill
#
# Bulk Modulus (GPa) = 46.77632 80.41016 63.59324
# Shear Modulus (GPa) = 29.90604 47.34390 38.62497
#
# Velocity S-wave (km/s) = 3.25687 4.09782 3.70131
# Velocity P-wave (km/s) = 5.54381 7.13511 6.38919
#
# Compressibility (1/GPa) = 0.02137834
#
# Stress axis : x y z
#
# Youngs Moduli (GPa) = 49.62483 89.80895 102.12124
#
# Poissons Ratio (x) = 0.67961 0.24267
# Poissons Ratio (y) = 0.37553 -0.00956
# Poissons Ratio (z) = 0.11792 -0.00841
#
# Static dielectric constant tensor:
#      x y z
#    x 2.313960 0.013430 0.035950 
#    y 0.013430 2.168680 -0.074700 
#    z 0.035950 -0.074700 2.076540 
# 
# From -- ./inp_files/345148.got.cif
#   From: 2010.05.17/outbox.cif.g08.bks.cpg/sg2_173_cif.got.tgz:345148.got - 2010.06.03 11:33:40.
