data_PCOD9081265
_publ_section_title
;
Structure prediction by ZEFSAII (Michael W. Deem and Ramdas Pophale) SiO2 
 PCOD9081265
Probable space group: P -1
;
_chemical_formula_sum "Si O2"
_cell_formula_units_Z 16
_cell_length_a 8.365074
_cell_length_b 14.713330
_cell_length_c 6.948776
_cell_angle_alpha 59.003028
_cell_angle_beta 127.125589
_cell_angle_gamma 125.805187
_cell_volume 535.413793
_symmetry_space_group_name_H-M "P -1"
_symmetry_group_IT_number 2
_symmetry_cell_setting 'triclinic'
loop_
_space_group_symop_operation_xyz
x,y,z
-x,-y,-z
loop_
_atom_site_type_symbol
_atom_site_label
_atom_site_fract_x
_atom_site_fract_y
_atom_site_fract_z
Si Si1 0.884570 0.656129 0.931811
Si Si2 0.093032 0.195280 0.898859
Si Si3 0.361917 0.663076 0.252996
Si Si4 0.200008 0.416150 0.493597
Si Si5 0.724225 0.408489 0.176278
Si Si6 0.232907 0.102986 0.774693
Si Si7 0.612965 0.162795 0.446658
Si Si8 0.261483 0.953212 0.650188
O O1 0.868399 0.767711 0.892967
O O2 0.736499 0.537324 0.065157
O O3 0.631397 0.450546 0.513456
O O4 0.837569 0.632269 0.699210
O O5 0.218383 0.315899 0.743087
O O6 0.193083 0.112082 0.964204
O O7 0.838114 0.162089 0.700172
O O8 0.137851 0.675667 0.128782
O O9 0.572456 0.781428 0.286342
O O10 0.322141 0.618502 0.053151
O O11 0.972310 0.422972 0.374787
O O12 0.597555 0.286471 0.321988
O O13 0.276992 0.996396 0.834390
O O14 0.994232 0.088721 0.540462
O O15 0.412796 0.064028 0.513641
O O16 0.652483 0.140058 0.272640
#
# Coordination Sequence:
#
# PCOD9081265 Si02
#       8
#     2   2   2   2   2   2   2   2
#     4   9  17  32  54  79 107 135 166 205 245 302
#     4  10  19  31  53  80 104 137 173 200 246 314
#     4   9  17  32  51  73 105 136 162 205 259 304
#     4   8  17  32  50  78 109 134 168 207 243 300
#     4   8  16  31  52  77 102 129 167 212 252 298
#     4  10  20  33  48  72 103 135 170 211 261 304
#     4   9  17  33  55  74  92 130 181 215 251 300
#     4   9  19  34  51  70  97 128 176 229 254 290
#
# _framework density 29.883427999999999
#
# number of rings (size 3 to 8) (size 9 to 14) (size 15 to 20)
#    0.000    3.000    0.000    2.250    0.000    6.000 
#    0.000    5.000    0.000   10.500    0.000    0.000 
#    0.000    0.000    0.000    0.000    0.000    0.000 
#
# Total GULP energy -89744.229137 kJ/mol
# GULP energy per Si atom -5609.014321 kJ/mol
# Density = 2.981541 g / cm^3
# Si number density = 29.883428 Si / 1000 Ang^3
#
#
#
# Elastic Constant Matrix: (Units=GPa)
#
#
# Indices 1 2 3 4 5 6 
#
# 1 165.5419 82.3269 60.4087 25.8672 14.2861 16.0525
# 2 82.3269 190.7636 43.0663 9.7651 -20.5636 18.5900
# 3 60.4087 43.0663 80.3221 -2.2141 -18.5799 -13.8050
# 4 25.8672 9.7651 -2.2141 46.2301 -5.6486 -22.4637
# 5 14.2861 -20.5636 -18.5799 -5.6486 53.8213 19.4797
# 6 16.0525 18.5900 -13.8050 -22.4637 19.4797 59.2239
#
#
#
# Elastic Compliance Matrix: (Units=1/GPa)
#
#
# Indices 1 2 3 4 5 6 
#
# 1 0.018172 -0.003214 -0.016501 -0.016786 -0.009530 -0.010996
# 2 -0.003214 0.007923 -0.001472 -0.001317 0.004681 -0.003998
# 3 -0.016501 -0.001472 0.031556 0.020371 0.010902 0.016431
# 4 -0.016786 -0.001317 0.020371 0.045040 0.006827 0.024550
# 5 -0.009530 0.004681 0.010902 0.006827 0.028512 -0.003134
# 6 -0.010996 -0.003998 0.016431 0.024550 -0.003134 0.035293
#
#
# Mechanical properties :
#
#
# Convention : Reuss Voigt Hill
#
# Bulk Modulus (GPa) = 65.44962 89.80348 77.62655
# Shear Modulus (GPa) = 23.36869 48.57677 35.97273
#
# Velocity S-wave (km/s) = 2.79945 4.03618 3.47330
# Velocity P-wave (km/s) = 5.69196 7.19982 6.48983
#
# Compressibility (1/GPa) = 0.01527893
#
# Stress axis : x y z
#
# Youngs Moduli (GPa) = 55.02981 126.21778 31.68958
#
# Poissons Ratio (x) = 0.40562 0.52290
# Poissons Ratio (y) = 0.17685 0.04664
# Poissons Ratio (z) = 0.90803 0.18575
#
# Static dielectric constant tensor:
#      x y z
#    x 2.298080 -0.013340 -0.055780 
#    y -0.013340 2.322690 0.037010 
#    z -0.055780 0.037010 2.347580 
# 
# From -- ./inp_files/207058.got.cif
#   From: 2010.05.17/outbox.cif.g08.bks.cpg/sg2_104_cif.got.tgz:207058.got - 2010.06.03 11:33:40.
