data_PCOD9081260
_publ_section_title
;
Structure prediction by ZEFSAII (Michael W. Deem and Ramdas Pophale) SiO2 
 PCOD9081260
Probable space group: P -1
;
_chemical_formula_sum "Si O2"
_cell_formula_units_Z 16
_cell_length_a 13.682062
_cell_length_b 16.406820
_cell_length_c 5.538444
_cell_angle_alpha 68.151623
_cell_angle_beta 68.231436
_cell_angle_gamma 47.205758
_cell_volume 833.964494
_symmetry_space_group_name_H-M "P -1"
_symmetry_group_IT_number 2
_symmetry_cell_setting 'triclinic'
loop_
_space_group_symop_operation_xyz
x,y,z
-x,-y,-z
loop_
_atom_site_type_symbol
_atom_site_label
_atom_site_fract_x
_atom_site_fract_y
_atom_site_fract_z
Si Si1 0.907293 0.183538 0.379660
Si Si2 0.952405 0.255133 0.738523
Si Si3 0.571582 0.053825 0.602500
Si Si4 0.125951 0.502353 0.395140
Si Si5 0.230424 0.059299 0.830814
Si Si6 0.198747 0.946181 0.364348
Si Si7 0.163415 0.416732 0.955432
Si Si8 0.691377 0.833386 0.016401
O O1 0.880094 0.258682 0.556152
O O2 0.804042 0.156133 0.488563
O O3 0.917543 0.225272 0.060746
O O4 0.051950 0.061556 0.442926
O O5 0.927027 0.371142 0.672227
O O6 0.111744 0.151922 0.662208
O O7 0.675982 0.069865 0.605489
O O8 0.419024 0.149611 0.716926
O O9 0.618922 0.024045 0.317401
O O10 0.611649 0.936386 0.791145
O O11 0.205462 0.437610 0.639003
O O12 0.000000 0.500000 0.500000
O O13 0.200901 0.447590 0.132259
O O14 0.221655 0.139819 0.950783
O O15 0.204075 0.976704 0.049381
O O16 0.221080 0.288304 0.047331
O O17 0.000000 0.500000 0.000000
#
# Coordination Sequence:
#
# PCOD9081260 Si02
#       8
#     2   2   2   2   2   2   2   2
#     4  10  21  34  55  81 115 145 184 230 276 330
#     4  11  21  34  56  83 112 147 179 228 284 326
#     4  10  20  35  53  77 117 148 188 218 271 339
#     4  10  21  34  53  80 107 140 179 223 273 324
#     4  10  19  31  53  77 115 148 182 222 269 339
#     4   9  20  33  50  81 109 149 186 225 274 325
#     4  10  21  35  54  77 108 145 180 226 264 319
#     4  10  22  34  51  82 112 154 183 222 274 331
#
# _framework density 19.185469000000001
#
# number of rings (size 3 to 8) (size 9 to 14) (size 15 to 20)
#    0.000    2.000    1.250    2.625    7.000    1.500 
#    0.000    0.000    0.000    0.000    0.000    5.250 
#    0.000    0.000    0.000    0.000    0.000    0.000 
#
# Total GULP energy -89114.578353 kJ/mol
# GULP energy per Si atom -5569.661147 kJ/mol
# Density = 1.914180 g / cm^3
# Si number density = 19.185469 Si / 1000 Ang^3
#
#
#
# Elastic Constant Matrix: (Units=GPa)
#
#
# Indices 1 2 3 4 5 6 
#
# 1 61.2610 24.5579 32.0236 -2.6689 -5.5262 19.0953
# 2 24.5579 94.3678 39.7023 2.5297 -9.9690 21.4283
# 3 32.0236 39.7023 81.2335 2.7011 4.6601 25.7297
# 4 -2.6689 2.5297 2.7011 26.3964 8.8125 -0.5221
# 5 -5.5262 -9.9690 4.6601 8.8125 30.0977 1.8699
# 6 19.0953 21.4283 25.7297 -0.5221 1.8699 26.5479
#
#
#
# Elastic Compliance Matrix: (Units=1/GPa)
#
#
# Indices 1 2 3 4 5 6 
#
# 1 0.023644 -0.000607 -0.005806 0.001003 0.005445 -0.011254
# 2 -0.000607 0.015582 -0.005262 -0.003639 0.007404 -0.007634
# 3 -0.005806 -0.005262 0.021231 -0.000774 -0.005136 -0.011807
# 4 0.001003 -0.003639 -0.000774 0.043124 -0.013825 0.004788
# 5 0.005445 0.007404 -0.005136 -0.013825 0.042027 -0.008147
# 6 -0.011254 -0.007634 -0.011807 0.004788 -0.008147 0.064035
#
#
# Mechanical properties :
#
#
# Convention : Reuss Voigt Hill
#
# Bulk Modulus (GPa) = 26.94843 47.71446 37.33144
# Shear Modulus (GPa) = 20.37818 25.98029 23.17924
#
# Velocity S-wave (km/s) = 3.26263 3.68389 3.47964
# Velocity P-wave (km/s) = 5.31693 6.55887 5.97028
#
# Compressibility (1/GPa) = 0.03710791
#
# Stress axis : x y z
#
# Youngs Moduli (GPa) = 42.29314 64.17783 47.10167
#
# Poissons Ratio (x) = 0.03894 0.27345
# Poissons Ratio (y) = 0.02566 0.24786
# Poissons Ratio (z) = 0.24553 0.33772
#
# Static dielectric constant tensor:
#      x y z
#    x 1.703380 0.012040 0.040260 
#    y 0.012040 1.650100 0.036180 
#    z 0.040260 0.036180 1.783920 
# 
# From -- ./inp_files/66365.got.cif
#   From: 2010.05.17/outbox.cif.g08.bks.cpg/sg2_34_cif.got.tgz:66365.got - 2010.06.03 11:33:40.
