data_PCOD9081199
_publ_section_title
;
Structure prediction by ZEFSAII (Michael W. Deem and Ramdas Pophale) SiO2 
 PCOD9081199
Probable space group: P -1
;
_chemical_formula_sum "Si O2"
_cell_formula_units_Z 15
_cell_length_a 10.968311
_cell_length_b 15.034856
_cell_length_c 10.086810
_cell_angle_alpha 41.219473
_cell_angle_beta 37.949216
_cell_angle_gamma 55.728744
_cell_volume 672.194394
_symmetry_space_group_name_H-M "P -1"
_symmetry_group_IT_number 2
_symmetry_cell_setting 'triclinic'
loop_
_space_group_symop_operation_xyz
x,y,z
-x,-y,-z
loop_
_atom_site_type_symbol
_atom_site_label
_atom_site_fract_x
_atom_site_fract_y
_atom_site_fract_z
Si Si1 0.500000 0.000000 0.000000
Si Si2 0.204058 0.335136 0.554780
Si Si3 0.132850 0.607863 0.418674
Si Si4 0.816758 0.888048 0.777191
Si Si5 0.441962 0.767176 0.780985
Si Si6 0.882995 0.196453 0.545131
Si Si7 0.574274 0.974531 0.641168
Si Si8 0.886028 0.969779 0.995953
O O1 0.668679 0.889879 0.024402
O O2 0.681060 0.129394 0.728038
O O3 0.177800 0.451664 0.553000
O O4 0.427221 0.316723 0.334677
O O5 0.114562 0.189753 0.844258
O O6 0.080456 0.375562 0.484886
O O7 0.153317 0.684733 0.454374
O O8 0.287553 0.680013 0.100159
O O9 0.647835 0.948125 0.756513
O O10 0.000000 0.000000 0.500000
O O11 0.932646 0.767116 0.754955
O O12 0.342919 0.883973 0.650640
O O13 0.589121 0.851933 0.663863
O O14 0.971381 0.077043 0.693972
O O15 0.339288 0.989934 0.835039
O O16 0.000000 0.000000 0.000000
#
# Coordination Sequence:
#
# PCOD9081199 Si02
#       8
#     1   2   2   2   2   2   2   2
#     4  10  20  40  52  84 102 134 178 240 268 312
#     4  10  22  31  49  78 116 148 180 204 267 325
#     4  11  20  35  49  78 117 148 171 219 261 329
#     4  10  21  33  52  80 106 136 175 231 274 313
#     4  10  19  31  51  77 112 146 175 214 262 320
#     4  11  21  33  59  78 110 138 184 220 276 311
#     4  10  19  31  52  82 111 139 185 223 265 315
#     4  11  19  34  54  83 113 145 178 223 265 321
#
# _framework density 22.314976000000001
#
# number of rings (size 3 to 8) (size 9 to 14) (size 15 to 20)
#    0.000    1.600    4.000    1.200    5.600    0.000 
#    0.000    0.000    0.000    0.800    0.000    4.667 
#    0.000    0.000    0.000    0.000    0.000    0.000 
#
# Total GULP energy -83510.812373 kJ/mol
# GULP energy per Si atom -5567.387492 kJ/mol
# Density = 2.226419 g / cm^3
# Si number density = 22.314976 Si / 1000 Ang^3
#
#
#
# Elastic Constant Matrix: (Units=GPa)
#
#
# Indices 1 2 3 4 5 6 
#
# 1 80.0209 18.0812 1.0209 -2.3385 -17.6200 11.5457
# 2 18.0812 176.3641 35.2595 -5.6405 -12.3101 7.7432
# 3 1.0209 35.2595 62.1152 13.8808 -19.9030 -9.9205
# 4 -2.3385 -5.6405 13.8808 43.7916 -10.8409 -6.0057
# 5 -17.6200 -12.3101 -19.9030 -10.8409 28.6716 2.5709
# 6 11.5457 7.7432 -9.9205 -6.0057 2.5709 30.9074
#
#
#
# Elastic Compliance Matrix: (Units=1/GPa)
#
#
# Indices 1 2 3 4 5 6 
#
# 1 0.016476 -0.001093 0.003205 0.002240 0.013222 -0.005517
# 2 -0.001093 0.006900 -0.004745 0.001990 -0.000031 -0.002454
# 3 0.003205 -0.004745 0.025614 -0.003824 0.015714 0.006163
# 4 0.002240 0.001990 -0.003824 0.027070 0.009642 0.001895
# 5 0.013222 -0.000031 0.015714 0.009642 0.057797 -0.002822
# 6 -0.005517 -0.002454 0.006163 0.001895 -0.002822 0.037612
#
#
# Mechanical properties :
#
#
# Convention : Reuss Voigt Hill
#
# Bulk Modulus (GPa) = 22.87181 47.46928 35.17054
# Shear Modulus (GPa) = 26.13550 38.28335 32.20942
#
# Velocity S-wave (km/s) = 3.42601 4.14646 3.80333
# Velocity P-wave (km/s) = 5.09135 6.65152 5.92303
#
# Compressibility (1/GPa) = 0.04372195
#
# Stress axis : x y z
#
# Youngs Moduli (GPa) = 60.69587 144.92412 39.04096
#
# Poissons Ratio (x) = 0.15841 -0.12511
# Poissons Ratio (y) = 0.06635 0.18527
# Poissons Ratio (z) = -0.19451 0.68774
#
# Static dielectric constant tensor:
#      x y z
#    x 1.769610 -0.208590 -0.210300 
#    y -0.208590 1.470290 -0.355990 
#    z -0.210300 -0.355990 1.526940 
# 
# From -- ./inp_files/253641.got.cif
#   From: 2010.05.17/outbox.cif.g08.bks.cpg/sg2_127_cif.got.tgz:253641.got - 2010.06.03 11:33:40.
