data_PCOD9081189
_publ_section_title
;
Structure prediction by ZEFSAII (Michael W. Deem and Ramdas Pophale) SiO2 
 PCOD9081189
Probable space group: P -1
;
_chemical_formula_sum "Si O2"
_cell_formula_units_Z 14
_cell_length_a 19.797011
_cell_length_b 8.940617
_cell_length_c 11.576084
_cell_angle_alpha 37.477435
_cell_angle_beta 36.661483
_cell_angle_gamma 26.825675
_cell_volume 528.610458
_symmetry_space_group_name_H-M "P -1"
_symmetry_group_IT_number 2
_symmetry_cell_setting 'triclinic'
loop_
_space_group_symop_operation_xyz
x,y,z
-x,-y,-z
loop_
_atom_site_type_symbol
_atom_site_label
_atom_site_fract_x
_atom_site_fract_y
_atom_site_fract_z
Si Si1 0.676239 0.137215 0.014976
Si Si2 0.321025 0.507398 0.996096
Si Si3 0.222736 0.666576 0.421776
Si Si4 0.158864 0.875568 0.755955
Si Si5 0.906690 0.393355 0.164553
Si Si6 0.253641 0.215000 0.461247
Si Si7 0.560482 0.482091 0.596827
O O1 0.714926 0.209549 0.039322
O O2 0.724447 0.779595 0.169688
O O3 0.500000 0.500000 0.000000
O O4 0.783809 0.078046 0.799712
O O5 0.224559 0.656462 0.917660
O O6 0.500459 0.306663 0.831636
O O7 0.289758 0.320532 0.233652
O O8 0.091651 0.800890 0.613487
O O9 0.226293 0.443090 0.463059
O O10 0.384500 0.456193 0.402933
O O11 0.053847 0.830900 0.863467
O O12 0.294124 0.727842 0.563412
O O13 0.113961 0.225677 0.632941
O O14 0.000000 0.500000 0.000000
O O15 0.410697 0.828986 0.524743
#
# Coordination Sequence:
#
# PCOD9081189 Si02
#       7
#     2   2   2   2   2   2   2
#     4  11  23  40  67  99 120 167 212 255 308 370
#     4  10  20  35  57  91 130 157 201 254 310 372
#     4  10  22  36  64  90 125 165 215 255 297 376
#     4  10  23  36  54  88 123 165 204 254 314 367
#     4  11  26  46  66  87 125 170 213 261 313 369
#     4  10  20  33  55  89 127 161 199 251 318 365
#     4  10  19  31  50  88 127 167 198 247 306 372
#
# _framework density 26.484528999999998
#
# number of rings (size 3 to 8) (size 9 to 14) (size 15 to 20)
#    0.000    1.714    1.429    3.857    8.000    5.143 
#    0.000    2.857    0.000    3.429    0.000    0.000 
#    0.000    0.000    0.000    0.000    0.000    0.000 
#
# Total GULP energy -78279.102644 kJ/mol
# GULP energy per Si atom -5591.364475 kJ/mol
# Density = 2.642425 g / cm^3
# Si number density = 26.484529 Si / 1000 Ang^3
#
#
#
# Elastic Constant Matrix: (Units=GPa)
#
#
# Indices 1 2 3 4 5 6 
#
# 1 192.2410 35.7842 99.8405 4.3622 -2.4833 36.4466
# 2 35.7842 47.5037 4.8787 -3.7976 -1.2335 3.3929
# 3 99.8405 4.8787 156.4022 -0.5336 7.2884 6.7244
# 4 4.3622 -3.7976 -0.5336 35.4021 9.4002 -4.1079
# 5 -2.4833 -1.2335 7.2884 9.4002 48.5267 3.5143
# 6 36.4466 3.3929 6.7244 -4.1079 3.5143 44.3815
#
#
#
# Elastic Compliance Matrix: (Units=1/GPa)
#
#
# Indices 1 2 3 4 5 6 
#
# 1 0.012509 -0.008273 -0.007492 -0.004421 0.003074 -0.009157
# 2 -0.008273 0.026856 0.004338 0.004957 -0.001691 0.004676
# 3 -0.007492 0.004338 0.010982 0.002838 -0.002808 0.004642
# 4 -0.004421 0.004957 0.002838 0.032012 -0.007188 0.006353
# 5 0.003074 -0.001691 -0.002808 -0.007188 0.022858 -0.004445
# 6 -0.009157 0.004676 0.004642 0.006353 -0.004445 0.029931
#
#
# Mechanical properties :
#
#
# Convention : Reuss Voigt Hill
#
# Bulk Modulus (GPa) = 36.37250 75.23928 55.80589
# Shear Modulus (GPa) = 29.91074 42.70495 36.30785
#
# Velocity S-wave (km/s) = 3.36425 4.01989 3.70659
# Velocity P-wave (km/s) = 5.37161 7.07223 6.27976
#
# Compressibility (1/GPa) = 0.02749330
#
# Stress axis : x y z
#
# Youngs Moduli (GPa) = 79.94505 37.23605 91.06033
#
# Poissons Ratio (x) = 0.30804 0.68218
# Poissons Ratio (y) = 0.66137 -0.39501
# Poissons Ratio (z) = 0.59891 -0.16153
#
# Static dielectric constant tensor:
#      x y z
#    x 2.158000 -0.073280 -0.093190 
#    y -0.073280 2.124150 0.102710 
#    z -0.093190 0.102710 2.079530 
# 
# From -- ./inp_files/468818.got.cif
#   From: 2010.05.17/outbox.cif.g08.bks.cpg/sg2_235_cif.got.tgz:468818.got - 2010.06.03 11:33:40.
