data_PCOD9081036
_publ_section_title
;
Structure prediction by ZEFSAII (Michael W. Deem and Ramdas Pophale) SiO2 
 PCOD9081036
Probable space group: P -1
;
_chemical_formula_sum "Si O2"
_cell_formula_units_Z 14
_cell_length_a 11.076194
_cell_length_b 11.900403
_cell_length_c 22.275705
_cell_angle_alpha 18.462545
_cell_angle_beta 37.295595
_cell_angle_gamma 37.933412
_cell_volume 554.424086
_symmetry_space_group_name_H-M "P -1"
_symmetry_group_IT_number 2
_symmetry_cell_setting 'triclinic'
loop_
_space_group_symop_operation_xyz
x,y,z
-x,-y,-z
loop_
_atom_site_type_symbol
_atom_site_label
_atom_site_fract_x
_atom_site_fract_y
_atom_site_fract_z
Si Si1 0.196269 0.329952 0.589941
Si Si2 0.368339 0.149539 0.300089
Si Si3 0.333777 0.514013 0.316685
Si Si4 0.458537 0.789228 0.008528
Si Si5 0.775570 0.147835 0.379111
Si Si6 0.365131 0.796701 0.362972
Si Si7 0.923231 0.395360 0.019594
O O1 0.220014 0.544145 0.410330
O O2 0.176062 0.633524 0.495498
O O3 0.405876 0.065836 0.662010
O O4 0.056299 0.030563 0.786363
O O5 0.236142 0.949550 0.497296
O O6 0.325664 0.126950 0.257862
O O7 0.342243 0.555221 0.129461
O O8 0.562853 0.362645 0.326432
O O9 0.227076 0.219797 0.472320
O O10 0.371268 0.794878 0.107275
O O11 0.687057 0.564353 0.031845
O O12 0.495417 0.137846 0.781810
O O13 0.947165 0.389159 0.182649
O O14 0.500000 0.500000 0.500000
O O15 0.000000 0.500000 0.000000
#
# Coordination Sequence:
#
# PCOD9081036 Si02
#       7
#     2   2   2   2   2   2   2
#     4   9  18  30  51  77 104 130 161 201 253 302
#     4   8  17  33  54  74  95 130 173 210 237 286
#     4   9  15  28  49  80 100 122 166 208 244 292
#     4  10  19  30  54  80  97 127 174 204 242 304
#     4   9  15  28  52  77 102 126 160 207 249 287
#     4  10  20  36  51  70 102 136 169 211 246 280
#     4  11  17  30  53  79 105 132 157 197 258 303
#
# _framework density 25.251428000000001
#
# number of rings (size 3 to 8) (size 9 to 14) (size 15 to 20)
#    0.000    2.571    2.857    2.143    0.000    0.571 
#    0.000    2.143    0.000    3.429    0.000    0.000 
#    0.000    0.000    0.000    0.000    0.000    0.000 
#
# Total GULP energy -78142.459444 kJ/mol
# GULP energy per Si atom -5581.604246 kJ/mol
# Density = 2.519395 g / cm^3
# Si number density = 25.251428 Si / 1000 Ang^3
#
#
#
# Elastic Constant Matrix: (Units=GPa)
#
#
# Indices 1 2 3 4 5 6 
#
# 1 106.2085 44.0269 62.7548 8.0700 -9.4905 28.5695
# 2 44.0269 58.7078 46.3424 7.9500 -14.2107 22.1721
# 3 62.7548 46.3424 174.2226 8.3856 -18.8123 29.5560
# 4 8.0700 7.9500 8.3856 43.6762 0.9590 -5.9131
# 5 -9.4905 -14.2107 -18.8123 0.9590 40.0324 -3.9262
# 6 28.5695 22.1721 29.5560 -5.9131 -3.9262 46.2526
#
#
#
# Elastic Compliance Matrix: (Units=1/GPa)
#
#
# Indices 1 2 3 4 5 6 
#
# 1 0.015491 -0.007773 -0.002795 -0.001477 -0.000788 -0.004312
# 2 -0.007773 0.030560 -0.003002 -0.004779 0.006930 -0.007953
# 3 -0.002795 -0.003002 0.008124 -0.000805 0.001916 -0.001967
# 4 -0.001477 -0.004779 -0.000805 0.025157 -0.002367 0.006733
# 5 -0.000788 0.006930 0.001916 -0.002367 0.028015 -0.001984
# 6 -0.004312 -0.007953 -0.001967 0.006733 -0.001984 0.030046
#
#
# Mechanical properties :
#
#
# Convention : Reuss Voigt Hill
#
# Bulk Modulus (GPa) = 36.98679 71.70966 54.34822
# Shear Modulus (GPa) = 28.81126 38.39322 33.60224
#
# Velocity S-wave (km/s) = 3.38150 3.90351 3.65184
# Velocity P-wave (km/s) = 5.47040 6.98401 6.27302
#
# Compressibility (1/GPa) = 0.02703668
#
# Stress axis : x y z
#
# Youngs Moduli (GPa) = 64.55528 32.72220 123.09084
#
# Poissons Ratio (x) = 0.25435 0.34398
# Poissons Ratio (y) = 0.50179 0.36947
# Poissons Ratio (z) = 0.18040 0.09822
#
# Static dielectric constant tensor:
#      x y z
#    x 2.104720 -0.082870 -0.074320 
#    y -0.082870 2.152930 -0.046560 
#    z -0.074320 -0.046560 2.122300 
# 
# From -- ./inp_files/167646.got.cif
#   From: 2010.05.17/outbox.cif.g08.bks.cpg/sg2_84_cif.got.tgz:167646.got - 2010.06.03 11:33:40.
