data_PCOD9081072
_publ_section_title
;
Structure prediction by ZEFSAII (Michael W. Deem and Ramdas Pophale) SiO2 
 PCOD9081072
Probable space group: P -1
;
_chemical_formula_sum "Si O2"
_cell_formula_units_Z 14
_cell_length_a 13.110090
_cell_length_b 7.448950
_cell_length_c 9.532815
_cell_angle_alpha 117.511338
_cell_angle_beta 66.074623
_cell_angle_gamma 141.950039
_cell_volume 507.410380
_symmetry_space_group_name_H-M "P -1"
_symmetry_group_IT_number 2
_symmetry_cell_setting 'triclinic'
loop_
_space_group_symop_operation_xyz
x,y,z
-x,-y,-z
loop_
_atom_site_type_symbol
_atom_site_label
_atom_site_fract_x
_atom_site_fract_y
_atom_site_fract_z
Si Si1 0.231115 0.376922 0.489484
Si Si2 0.675285 0.464960 0.193430
Si Si3 0.968140 0.642421 0.957421
Si Si4 0.445232 0.098421 0.853594
Si Si5 0.580602 0.740547 0.417673
Si Si6 0.734348 0.787268 0.859097
Si Si7 0.148440 0.687607 0.635672
O O1 0.219541 0.349127 0.654163
O O2 0.427707 0.686294 0.462749
O O3 0.207706 0.163086 0.316554
O O4 0.118946 0.414916 0.521898
O O5 0.612145 0.602257 0.237899
O O6 0.793471 0.509970 0.036725
O O7 0.539089 0.112719 0.182541
O O8 0.106585 0.991789 0.050182
O O9 0.005635 0.610960 0.770050
O O10 0.000000 0.500000 0.000000
O O11 0.611660 0.438744 0.841836
O O12 0.303865 0.900014 0.738365
O O13 0.358353 0.125877 0.027220
O O14 0.500000 0.500000 0.500000
O O15 0.757582 0.080870 0.462027
#
# Coordination Sequence:
#
# PCOD9081072 Si02
#       7
#     2   2   2   2   2   2   2
#     4  10  19  33  59  88 107 145 192 233 279 320
#     4  10  21  37  56  83 118 154 180 226 285 340
#     4  11  20  39  58  82 115 150 191 229 278 344
#     4   9  18  34  56  84 110 145 190 234 278 320
#     4  10  21  33  56  87 118 145 186 235 279 338
#     4  10  19  30  60  85 111 138 196 241 273 318
#     4  10  19  35  62  82 111 151 190 228 278 336
#
# _framework density 27.591079000000001
#
# number of rings (size 3 to 8) (size 9 to 14) (size 15 to 20)
#    0.000    2.000    5.714    0.429    4.000    1.143 
#    0.000    0.714    0.000    0.857    0.000    0.000 
#    0.000    0.000    0.000    0.000    0.000    0.000 
#
# Total GULP energy -78258.052482 kJ/mol
# GULP energy per Si atom -5589.860892 kJ/mol
# Density = 2.752828 g / cm^3
# Si number density = 27.591079 Si / 1000 Ang^3
#
#
#
# Elastic Constant Matrix: (Units=GPa)
#
#
# Indices 1 2 3 4 5 6 
#
# 1 58.4027 22.6991 39.4395 4.1594 -11.2796 -7.1442
# 2 22.6991 83.0137 20.2541 -7.9425 -7.6934 -4.0730
# 3 39.4395 20.2541 161.0450 -11.7799 -22.7650 7.6968
# 4 4.1594 -7.9425 -11.7799 48.3645 10.8890 -9.7663
# 5 -11.2796 -7.6934 -22.7650 10.8890 50.2249 2.3910
# 6 -7.1442 -4.0730 7.6968 -9.7663 2.3910 30.2572
#
#
#
# Elastic Compliance Matrix: (Units=1/GPa)
#
#
# Indices 1 2 3 4 5 6 
#
# 1 0.024196 -0.005170 -0.005398 -0.003883 0.002803 0.004915
# 2 -0.005170 0.013917 -0.000334 0.002968 0.000095 0.001688
# 3 -0.005398 -0.000334 0.008142 0.001231 0.002311 -0.003176
# 4 -0.003883 0.002968 0.001231 0.024568 -0.005545 0.007538
# 5 0.002803 0.000095 0.002311 -0.005545 0.022972 -0.003518
# 6 0.004915 0.001688 -0.003176 0.007538 -0.003518 0.037957
#
#
# Mechanical properties :
#
#
# Convention : Reuss Voigt Hill
#
# Bulk Modulus (GPa) = 40.89808 51.91632 46.40720
# Shear Modulus (GPa) = 30.92010 40.44056 35.68033
#
# Velocity S-wave (km/s) = 3.35125 3.83261 3.59999
# Velocity P-wave (km/s) = 5.46165 6.20020 5.84260
#
# Compressibility (1/GPa) = 0.02445103
#
# Stress axis : x y z
#
# Youngs Moduli (GPa) = 41.32841 71.85439 122.81938
#
# Poissons Ratio (x) = 0.37147 0.66300
# Poissons Ratio (y) = 0.21366 0.04107
# Poissons Ratio (z) = 0.22310 0.02402
#
# Static dielectric constant tensor:
#      x y z
#    x 2.337840 -0.120410 0.126270 
#    y -0.120410 2.273010 -0.070740 
#    z 0.126270 -0.070740 2.186760 
# 
# From -- ./inp_files/173102.got.cif
#   From: 2010.05.17/outbox.cif.g08.bks.cpg/sg2_87_cif.got.tgz:173102.got - 2010.06.03 11:33:40.
