data_PCOD9081233
_publ_section_title
;
Structure prediction by ZEFSAII (Michael W. Deem and Ramdas Pophale) SiO2 
 PCOD9081233
Probable space group: P -1
;
_chemical_formula_sum "Si O2"
_cell_formula_units_Z 12
_cell_length_a 10.954165
_cell_length_b 14.180348
_cell_length_c 6.946840
_cell_angle_alpha 97.183437
_cell_angle_beta 137.021359
_cell_angle_gamma 53.402639
_cell_volume 485.894704
_symmetry_space_group_name_H-M "P -1"
_symmetry_group_IT_number 2
_symmetry_cell_setting 'triclinic'
loop_
_space_group_symop_operation_xyz
x,y,z
-x,-y,-z
loop_
_atom_site_type_symbol
_atom_site_label
_atom_site_fract_x
_atom_site_fract_y
_atom_site_fract_z
Si Si1 0.894070 0.265331 0.399296
Si Si2 0.681896 0.518758 0.002615
Si Si3 0.617219 0.748691 0.854583
Si Si4 0.738767 0.037275 0.177107
Si Si5 0.135997 0.546857 0.220369
Si Si6 0.606454 0.244534 0.789104
O O1 0.882236 0.374548 0.321279
O O2 0.140711 0.114640 0.747974
O O3 0.629068 0.369524 0.259425
O O4 0.846722 0.212269 0.146102
O O5 0.719268 0.617500 0.063889
O O6 0.739275 0.463206 0.834112
O O7 0.427923 0.774704 0.477030
O O8 0.444795 0.882209 0.827144
O O9 0.874952 0.698691 0.046142
O O10 0.000000 0.000000 0.500000
O O11 0.587709 0.153575 0.861771
O O12 0.370366 0.415866 0.593957
O O13 0.000000 0.500000 0.000000
#
# Coordination Sequence:
#
# PCOD9081233 Si02
#       6
#     2   2   2   2   2   2
#     4  10  19  31  52  79 103 133 160 209 255 296
#     4   9  17  34  51  73 106 129 166 212 243 290
#     4  10  19  36  54  75 101 129 172 213 237 295
#     4  10  19  33  49  78 104 129 167 203 253 298
#     4   8  18  33  51  76  97 131 172 210 237 290
#     4   9  18  32  54  78  96 135 168 201 256 288
#
# _framework density 24.696708999999998
#
# number of rings (size 3 to 8) (size 9 to 14) (size 15 to 20)
#    0.000    3.000    3.333    0.000    0.000    6.000 
#    3.000    0.833    0.000    9.000    0.000    0.000 
#    0.000    0.000    0.000    0.000    0.000    0.000 
#
# Total GULP energy -66899.363654 kJ/mol
# GULP energy per Si atom -5574.946971 kJ/mol
# Density = 2.464050 g / cm^3
# Si number density = 24.696709 Si / 1000 Ang^3
#
#
#
# Elastic Constant Matrix: (Units=GPa)
#
#
# Indices 1 2 3 4 5 6 
#
# 1 126.1042 52.8227 46.5643 -20.8417 -6.1712 -16.1830
# 2 52.8227 145.7743 37.9705 -37.5345 -17.2018 4.8805
# 3 46.5643 37.9705 59.4608 -22.5659 -25.2102 -0.9573
# 4 -20.8417 -37.5345 -22.5659 40.2567 -0.1951 10.0209
# 5 -6.1712 -17.2018 -25.2102 -0.1951 37.6820 -2.8193
# 6 -16.1830 4.8805 -0.9573 10.0209 -2.8193 25.7786
#
#
#
# Elastic Compliance Matrix: (Units=1/GPa)
#
#
# Indices 1 2 3 4 5 6 
#
# 1 0.016051 -0.005560 -0.016772 -0.009590 -0.010198 0.013119
# 2 -0.005560 0.012448 0.004495 0.013842 0.007081 -0.010286
# 3 -0.016772 0.004495 0.051634 0.028868 0.032719 -0.017106
# 4 -0.009590 0.013842 0.028868 0.055741 0.022346 -0.026794
# 5 -0.010198 0.007081 0.032719 0.022346 0.049372 -0.009814
# 6 0.013119 -0.010286 -0.017106 -0.026794 -0.009814 0.057682
#
#
# Mechanical properties :
#
#
# Convention : Reuss Voigt Hill
#
# Bulk Modulus (GPa) = 22.49212 67.33937 44.91575
# Shear Modulus (GPa) = 17.04033 33.67557 25.35795
#
# Velocity S-wave (km/s) = 2.62960 3.69665 3.20781
# Velocity P-wave (km/s) = 4.28332 6.74878 5.65212
#
# Compressibility (1/GPa) = 0.04446002
#
# Stress axis : x y z
#
# Youngs Moduli (GPa) = 62.30044 80.33516 19.36701
#
# Poissons Ratio (x) = 0.44663 0.32482
# Poissons Ratio (y) = 0.34637 -0.08705
# Poissons Ratio (z) = 1.04488 -0.36108
#
# Static dielectric constant tensor:
#      x y z
#    x 2.017480 -0.038280 0.032290 
#    y -0.038280 2.080130 0.038140 
#    z 0.032290 0.038140 2.103630 
# 
# From -- ./inp_files/213261.got.cif
#   From: 2010.05.17/outbox.cif.g08.bks.cpg/sg2_107_cif.got.tgz:213261.got - 2010.06.03 11:33:40.
