data_PCOD9081425
_publ_section_title
;
Structure prediction by ZEFSAII (Michael W. Deem and Ramdas Pophale) SiO2 
 PCOD9081425
Probable space group: P -1
;
_chemical_formula_sum "Si O2"
_cell_formula_units_Z 16
_cell_length_a 8.161163
_cell_length_b 9.177269
_cell_length_c 17.952377
_cell_angle_alpha 126.312660
_cell_angle_beta 33.772388
_cell_angle_gamma 112.693214
_cell_volume 585.032022
_symmetry_space_group_name_H-M "P -1"
_symmetry_group_IT_number 2
_symmetry_cell_setting 'triclinic'
loop_
_space_group_symop_operation_xyz
x,y,z
-x,-y,-z
loop_
_atom_site_type_symbol
_atom_site_label
_atom_site_fract_x
_atom_site_fract_y
_atom_site_fract_z
Si Si1 0.781730 0.214412 0.441185
Si Si2 0.675075 0.121690 0.132213
Si Si3 0.503834 0.751780 0.067009
Si Si4 0.918147 0.671032 0.027327
Si Si5 0.809040 0.621184 0.773322
Si Si6 0.028573 0.795314 0.389293
Si Si7 0.515632 0.960004 0.372730
Si Si8 0.367353 0.578036 0.651222
O O1 0.704435 0.142397 0.529530
O O2 0.498564 0.398398 0.598641
O O3 0.065803 0.284540 0.317438
O O4 0.772387 0.024028 0.342529
O O5 0.534901 0.254996 0.292768
O O6 0.505894 0.968975 0.125766
O O7 0.774511 0.257437 0.076825
O O8 0.000000 0.000000 0.000000
O O9 0.771492 0.650580 0.995324
O O10 0.211894 0.756434 0.230485
O O11 0.510534 0.680590 0.957421
O O12 0.663144 0.833092 0.210862
O O13 0.000000 0.500000 0.000000
O O14 0.864852 0.401347 0.668712
O O15 0.028491 0.654302 0.769528
O O16 0.000000 0.000000 0.500000
O O17 0.678531 0.835997 0.512618
O O18 0.500000 0.500000 0.500000
#
# Coordination Sequence:
#
# PCOD9081425 Si02
#       8
#     2   2   2   2   2   2   2   2
#     4  10  23  38  67  94 123 158 209 274 320 354
#     4  10  20  35  61  92 121 156 210 255 312 364
#     4  11  24  41  64  92 129 169 210 254 313 384
#     4  11  22  37  63  94 130 156 204 264 322 360
#     4  11  22  41  64  92 123 167 218 258 311 371
#     4  12  26  42  63  92 129 176 213 252 305 390
#     4  11  23  41  62  98 130 160 207 263 321 373
#     4  10  19  31  61  93 119 149 200 265 307 358
#
# _framework density 27.348929999999999
#
# number of rings (size 3 to 8) (size 9 to 14) (size 15 to 20)
#    0.000    1.250    5.000    1.875    8.750    0.000 
#    0.000    2.500    0.000    0.000    0.000    0.000 
#    0.000    0.000    0.000    0.000    0.000    0.000 
#
# Total GULP energy -89187.278315 kJ/mol
# GULP energy per Si atom -5574.204895 kJ/mol
# Density = 2.728668 g / cm^3
# Si number density = 27.348930 Si / 1000 Ang^3
#
#
#
# Elastic Constant Matrix: (Units=GPa)
#
#
# Indices 1 2 3 4 5 6 
#
# 1 26.2871 35.4668 14.7722 6.3277 9.1325 -10.2014
# 2 35.4668 228.9503 67.9136 -10.5414 22.1098 -13.4258
# 3 14.7722 67.9136 127.2202 -10.5803 37.2804 6.1179
# 4 6.3277 -10.5414 -10.5803 65.2037 -2.0637 7.2639
# 5 9.1325 22.1098 37.2804 -2.0637 32.5992 7.3899
# 6 -10.2014 -13.4258 6.1179 7.2639 7.3899 40.6205
#
#
#
# Elastic Compliance Matrix: (Units=1/GPa)
#
#
# Indices 1 2 3 4 5 6 
#
# 1 0.064055 -0.007611 0.000092 -0.010063 -0.017739 0.018584
# 2 -0.007611 0.006317 -0.002659 0.001339 0.000936 0.000167
# 3 0.000092 -0.002659 0.013272 0.001377 -0.013152 -0.000708
# 4 -0.010063 0.001339 0.001377 0.017502 0.002788 -0.005929
# 5 -0.017739 0.000936 -0.013152 0.002788 0.053018 -0.012308
# 6 0.018584 0.000167 -0.000708 -0.005929 -0.012308 0.032747
#
#
# Mechanical properties :
#
#
# Convention : Reuss Voigt Hill
#
# Bulk Modulus (GPa) = 15.80058 68.75141 42.27600
# Shear Modulus (GPa) = 21.89511 45.30501 33.60006
#
# Velocity S-wave (km/s) = 2.83253 4.07450 3.50890
# Velocity P-wave (km/s) = 4.06049 6.87957 5.64872
#
# Compressibility (1/GPa) = 0.06328882
#
# Stress axis : x y z
#
# Youngs Moduli (GPa) = 15.61153 158.31234 75.34699
#
# Poissons Ratio (x) = 1.20489 -0.00697
# Poissons Ratio (y) = 0.11882 0.20036
# Poissons Ratio (z) = -0.00144 0.42098
#
# Static dielectric constant tensor:
#      x y z
#    x 4.196650 0.345530 -3.298370 
#    y 0.345530 2.199080 -0.650600 
#    z -3.298370 -0.650600 7.842730 
# 
# From -- ./inp_files/593708.got.cif
#   From: 2010.05.17/outbox.cif.g08.bks.cpg/sg2_297_cif.got.tgz:593708.got - 2010.06.03 11:33:40.
