data_PCOD9081718
_publ_section_title
;
Structure prediction by ZEFSAII (Michael W. Deem and Ramdas Pophale) SiO2 
 PCOD9081718
Probable space group: P -1
;
_chemical_formula_sum "Si O2"
_cell_formula_units_Z 16
_cell_length_a 17.322674
_cell_length_b 10.001061
_cell_length_c 14.557168
_cell_angle_alpha 59.970160
_cell_angle_beta 157.345546
_cell_angle_gamma 109.447279
_cell_volume 775.626284
_symmetry_space_group_name_H-M "P -1"
_symmetry_group_IT_number 2
_symmetry_cell_setting 'triclinic'
loop_
_space_group_symop_operation_xyz
x,y,z
-x,-y,-z
loop_
_atom_site_type_symbol
_atom_site_label
_atom_site_fract_x
_atom_site_fract_y
_atom_site_fract_z
Si Si1 0.070413 0.434813 0.238054
Si Si2 0.721681 0.423722 0.713775
Si Si3 0.306702 0.919375 0.207024
Si Si4 0.743341 0.794176 0.817003
Si Si5 0.946295 0.662837 0.549839
Si Si6 0.617273 0.638942 0.902110
Si Si7 0.858468 0.832978 0.213676
Si Si8 0.713352 0.413121 0.325599
O O1 0.275228 0.448379 0.406697
O O2 0.094311 0.316974 0.392728
O O3 0.919166 0.401069 0.007412
O O4 0.939470 0.627159 0.061051
O O5 0.500000 0.500000 0.500000
O O6 0.745760 0.240382 0.772670
O O7 0.566703 0.871238 0.517375
O O8 0.200398 0.067763 0.113516
O O9 0.231777 0.991084 0.998414
O O10 0.613270 0.732641 0.771112
O O11 0.869125 0.816464 0.341047
O O12 0.819212 0.544060 0.423262
O O13 0.200060 0.548168 0.847350
O O14 0.385333 0.645492 0.675392
O O15 0.715258 0.731025 0.052512
O O16 0.100156 0.732748 0.473642
O O17 0.500000 0.500000 0.000000
#
# Coordination Sequence:
#
# PCOD9081718 Si02
#       8
#     2   2   2   2   2   2   2   2
#     4  10  23  40  64  89 112 152 208 246 283 349
#     4  11  23  44  63  83 115 161 202 241 294 351
#     4  10  21  38  59  88 127 156 183 244 305 344
#     4   9  19  38  59  92 120 150 192 248 294 347
#     4  10  19  32  54  82 115 145 194 246 277 339
#     4   9  17  31  51  79 121 150 188 236 284 345
#     4  10  19  34  48  83 124 150 184 241 293 344
#     4  11  17  29  53  83 116 164 192 222 296 355
#
# _framework density 20.628491
#
# number of rings (size 3 to 8) (size 9 to 14) (size 15 to 20)
#    0.000    2.000    3.750    1.500    1.750    0.500 
#    6.750    0.625    0.000    0.750    0.000    0.000 
#    0.000    0.000    0.000    0.000    0.000    0.000 
#
# Total GULP energy -89280.335006 kJ/mol
# GULP energy per Si atom -5580.020938 kJ/mol
# Density = 2.058154 g / cm^3
# Si number density = 20.628491 Si / 1000 Ang^3
#
#
#
# Elastic Constant Matrix: (Units=GPa)
#
#
# Indices 1 2 3 4 5 6 
#
# 1 105.6245 11.4077 30.7211 8.7311 -4.5435 22.1168
# 2 11.4077 56.8396 6.6992 10.4296 1.4227 1.2454
# 3 30.7211 6.6992 70.3430 -0.6323 -11.1169 10.9422
# 4 8.7311 10.4296 -0.6323 15.4871 9.0797 -0.9573
# 5 -4.5435 1.4227 -11.1169 9.0797 43.2428 2.9751
# 6 22.1168 1.2454 10.9422 -0.9573 2.9751 22.3470
#
#
#
# Elastic Compliance Matrix: (Units=1/GPa)
#
#
# Indices 1 2 3 4 5 6 
#
# 1 0.014498 -0.000201 -0.003696 -0.011302 0.003884 -0.013529
# 2 -0.000201 0.020557 -0.001481 -0.015142 0.002181 -0.001160
# 3 -0.003696 -0.001481 0.017499 0.000923 0.004335 -0.005365
# 4 -0.011302 -0.015142 0.000923 0.095033 -0.021681 0.018535
# 5 0.003884 0.002181 0.004335 -0.021681 0.029885 -0.010995
# 6 -0.013529 -0.001160 -0.005365 0.018535 -0.010995 0.063088
#
#
# Mechanical properties :
#
#
# Convention : Reuss Voigt Hill
#
# Bulk Modulus (GPa) = 23.92405 36.71814 30.32110
# Shear Modulus (GPa) = 18.85010 28.48065 23.66538
#
# Velocity S-wave (km/s) = 3.02617 3.71974 3.39074
# Velocity P-wave (km/s) = 4.88191 6.02386 5.48270
#
# Compressibility (1/GPa) = 0.04179894
#
# Stress axis : x y z
#
# Youngs Moduli (GPa) = 68.97270 48.64422 57.14538
#
# Poissons Ratio (x) = 0.00978 0.21121
# Poissons Ratio (y) = 0.01387 0.08463
# Poissons Ratio (z) = 0.25493 0.07204
#
# Static dielectric constant tensor:
#      x y z
#    x 1.822840 0.010040 -0.035840 
#    y 0.010040 1.732500 -0.006070 
#    z -0.035840 -0.006070 1.761570 
# 
# From -- ./inp_files/538439.got.cif
#   From: 2010.05.17/outbox.cif.g08.bks.cpg/sg2_270_cif.got.tgz:538439.got - 2010.06.03 11:33:40.
