data_PCOD9081468
_publ_section_title
;
Structure prediction by ZEFSAII (Michael W. Deem and Ramdas Pophale) SiO2 
 PCOD9081468
Probable space group: P -1
;
_chemical_formula_sum "Si O2"
_cell_formula_units_Z 16
_cell_length_a 18.658029
_cell_length_b 15.022639
_cell_length_c 15.665242
_cell_angle_alpha 161.565511
_cell_angle_beta 128.361241
_cell_angle_gamma 43.269954
_cell_volume 900.487908
_symmetry_space_group_name_H-M "P -1"
_symmetry_group_IT_number 2
_symmetry_cell_setting 'triclinic'
loop_
_space_group_symop_operation_xyz
x,y,z
-x,-y,-z
loop_
_atom_site_type_symbol
_atom_site_label
_atom_site_fract_x
_atom_site_fract_y
_atom_site_fract_z
Si Si1 0.080685 0.296288 0.506450
Si Si2 0.515713 0.668501 0.748875
Si Si3 0.243369 0.691697 0.419990
Si Si4 0.057483 0.755370 0.063857
Si Si5 0.093677 0.663630 0.711243
Si Si6 0.810602 0.229880 0.277497
Si Si7 0.887259 0.542259 0.981429
Si Si8 0.698297 0.836968 0.864323
O O1 0.148067 0.361408 0.545678
O O2 0.970479 0.408718 0.473509
O O3 0.120519 0.926918 0.234975
O O4 0.057234 0.534168 0.785591
O O5 0.500000 0.500000 0.500000
O O6 0.642348 0.447878 0.672786
O O7 0.500000 0.000000 0.000000
O O8 0.420780 0.821179 0.889145
O O9 0.270724 0.436522 0.286279
O O10 0.203704 0.070240 0.760277
O O11 0.146875 0.694998 0.301581
O O12 0.105847 0.531704 0.980265
O O13 0.928839 0.067542 0.265542
O O14 0.168103 0.740508 0.779585
O O15 0.000000 0.000000 0.000000
O O16 0.719281 0.604756 0.586421
O O17 0.777399 0.967867 0.032744
O O18 0.000000 0.500000 0.000000
#
# Coordination Sequence:
#
# PCOD9081468 Si02
#       8
#     2   2   2   2   2   2   2   2
#     4  10  19  32  50  67  99 142 178 210 245 316
#     4  10  20  37  58  76 101 137 182 230 268 324
#     4  11  22  38  55  73 106 148 182 219 264 303
#     4  11  21  34  48  71 106 147 180 209 250 301
#     4  10  19  32  49  75 103 143 176 203 267 323
#     4  11  21  31  51  76 112 139 165 217 264 319
#     4  12  24  36  51  77 109 144 186 220 249 305
#     4  11  21  34  52  80 103 135 179 214 274 313
#
# _framework density 17.768146000000002
#
# number of rings (size 3 to 8) (size 9 to 14) (size 15 to 20)
#    0.000    1.250    2.500    7.875    1.750    0.000 
#    0.000    0.000    0.000    0.000    0.000    0.000 
#    0.000   20.000    0.000    0.000    0.000    0.000 
#
# Total GULP energy -89137.442196 kJ/mol
# GULP energy per Si atom -5571.090137 kJ/mol
# Density = 1.772771 g / cm^3
# Si number density = 17.768146 Si / 1000 Ang^3
#
#
#
# Elastic Constant Matrix: (Units=GPa)
#
#
# Indices 1 2 3 4 5 6 
#
# 1 112.5500 26.6186 31.3182 4.7961 4.8966 19.5070
# 2 26.6186 27.3627 6.1734 -4.4851 -3.0825 8.0268
# 3 31.3182 6.1734 104.4189 -11.5415 3.6773 5.4520
# 4 4.7961 -4.4851 -11.5415 26.4746 2.8521 -2.1220
# 5 4.8966 -3.0825 3.6773 2.8521 33.9176 2.8303
# 6 19.5070 8.0268 5.4520 -2.1220 2.8303 26.0684
#
#
#
# Elastic Compliance Matrix: (Units=1/GPa)
#
#
# Indices 1 2 3 4 5 6 
#
# 1 0.014439 -0.012560 -0.003942 -0.006800 -0.001686 -0.006484
# 2 -0.012560 0.052854 0.002000 0.010880 0.006075 -0.007068
# 3 -0.003942 0.002000 0.011327 0.006150 -0.001043 0.000579
# 4 -0.006800 0.010880 0.006150 0.044176 -0.002774 0.004349
# 5 -0.001686 0.006075 -0.001043 -0.002774 0.030957 -0.003978
# 6 -0.006484 -0.007068 0.000579 0.004349 -0.003978 0.046054
#
#
# Mechanical properties :
#
#
# Convention : Reuss Voigt Hill
#
# Bulk Modulus (GPa) = 20.15434 41.39467 30.77450
# Shear Modulus (GPa) = 20.37918 29.30688 24.84303
#
# Velocity S-wave (km/s) = 3.39034 4.06569 3.74328
# Velocity P-wave (km/s) = 5.16657 6.73703 6.00337
#
# Compressibility (1/GPa) = 0.04961712
#
# Stress axis : x y z
#
# Youngs Moduli (GPa) = 69.25672 18.91998 88.28413
#
# Poissons Ratio (x) = 0.23763 0.34800
# Poissons Ratio (y) = 0.86984 -0.17656
# Poissons Ratio (z) = 0.27300 -0.03784
#
# Static dielectric constant tensor:
#      x y z
#    x 1.703660 -0.015150 -0.017330 
#    y -0.015150 1.614700 0.014940 
#    z -0.017330 0.014940 1.651890 
# 
# From -- ./inp_files/535090.got.cif
#   From: 2010.05.17/outbox.cif.g08.bks.cpg/sg2_268_cif.got.tgz:535090.got - 2010.06.03 11:33:40.
