data_PCOD9081917
_publ_section_title
;
Structure prediction by ZEFSAII (Michael W. Deem and Ramdas Pophale) SiO2 
 PCOD9081917
Probable space group: P -1
;
_chemical_formula_sum "Si O2"
_cell_formula_units_Z 16
_cell_length_a 23.687547
_cell_length_b 8.896275
_cell_length_c 8.409384
_cell_angle_alpha 75.556370
_cell_angle_beta 50.281883
_cell_angle_gamma 115.788194
_cell_volume 795.491384
_symmetry_space_group_name_H-M "P -1"
_symmetry_group_IT_number 2
_symmetry_cell_setting 'triclinic'
loop_
_space_group_symop_operation_xyz
x,y,z
-x,-y,-z
loop_
_atom_site_type_symbol
_atom_site_label
_atom_site_fract_x
_atom_site_fract_y
_atom_site_fract_z
Si Si1 0.872296 0.197902 0.334262
Si Si2 0.997778 0.313609 0.580748
Si Si3 0.553499 0.745137 0.753925
Si Si4 0.282610 0.788524 0.419368
Si Si5 0.070567 0.179754 0.669973
Si Si6 0.044440 0.267398 0.178163
Si Si7 0.672350 0.450400 0.762402
Si Si8 0.755977 0.874671 0.296627
O O1 0.773431 0.155249 0.584000
O O2 0.920358 0.144127 0.375148
O O3 0.820125 0.046985 0.299486
O O4 0.000000 0.500000 0.000000
O O5 0.000000 0.500000 0.500000
O O6 0.062613 0.349951 0.610105
O O7 0.062768 0.349843 0.302198
O O8 0.857182 0.033764 0.938351
O O9 0.656712 0.837144 0.437868
O O10 0.622481 0.976301 0.690436
O O11 0.500000 0.500000 0.000000
O O12 0.440834 0.657395 0.919165
O O13 0.342335 0.749193 0.224081
O O14 0.163689 0.515692 0.796099
O O15 0.208277 0.359270 0.393709
O O16 0.992633 0.971029 0.724842
O O17 0.000000 0.000000 0.000000
O O18 0.702247 0.618198 0.516622
#
# Coordination Sequence:
#
# PCOD9081917 Si02
#       8
#     2   2   2   2   2   2   2   2
#     4   9  17  30  52  80 113 146 183 232 285 340
#     4  12  24  35  56  89 124 156 191 240 298 353
#     4   9  20  35  55  85 112 152 198 246 284 334
#     4  10  19  32  57  86 118 147 192 245 290 341
#     4  12  22  39  60  87 122 156 193 242 298 344
#     4  11  21  35  56  86 122 152 189 235 302 355
#     4  11  20  34  61  84 113 149 201 248 282 339
#     4  10  19  38  56  81 116 155 194 239 286 346
#
# _framework density 20.113353
#
# number of rings (size 3 to 8) (size 9 to 14) (size 15 to 20)
#    0.000    1.500    3.750    3.000    3.500    0.000 
#    0.000    0.000    0.000    3.750    0.000    0.000 
#    0.000    0.000    0.000    0.000    0.000    0.000 
#
# Total GULP energy -89135.096424 kJ/mol
# GULP energy per Si atom -5570.943527 kJ/mol
# Density = 2.006757 g / cm^3
# Si number density = 20.113353 Si / 1000 Ang^3
#
#
#
# Elastic Constant Matrix: (Units=GPa)
#
#
# Indices 1 2 3 4 5 6 
#
# 1 100.4968 16.8387 35.7818 5.4749 -24.5314 -31.7371
# 2 16.8387 83.5170 1.8346 -7.4290 -4.1559 -17.4600
# 3 35.7818 1.8346 42.0435 8.2246 -25.1678 -9.8241
# 4 5.4749 -7.4290 8.2246 31.1420 -4.3456 -6.5024
# 5 -24.5314 -4.1559 -25.1678 -4.3456 40.9104 5.4963
# 6 -31.7371 -17.4600 -9.8241 -6.5024 5.4963 33.2805
#
#
#
# Elastic Compliance Matrix: (Units=1/GPa)
#
#
# Indices 1 2 3 4 5 6 
#
# 1 0.019561 -0.000071 -0.012234 0.003306 0.002500 0.015238
# 2 -0.000071 0.014280 0.001464 0.005057 0.001695 0.008565
# 3 -0.012234 0.001464 0.048382 -0.007568 0.022006 -0.001729
# 4 0.003306 0.005057 -0.007568 0.037026 0.000329 0.010751
# 5 0.002500 0.001695 0.022006 0.000329 0.039237 0.003353
# 6 0.015238 0.008565 -0.001729 0.010751 0.003353 0.050108
#
#
# Mechanical properties :
#
#
# Convention : Reuss Voigt Hill
#
# Bulk Modulus (GPa) = 16.51763 37.21859 26.86811
# Shear Modulus (GPa) = 19.96355 32.50673 26.23514
#
# Velocity S-wave (km/s) = 3.15390 4.02453 3.61552
# Velocity P-wave (km/s) = 4.63604 6.33564 5.55127
#
# Compressibility (1/GPa) = 0.06054136
#
# Stress axis : x y z
#
# Youngs Moduli (GPa) = 51.12312 70.02559 20.66881
#
# Poissons Ratio (x) = 0.00497 0.25286
# Poissons Ratio (y) = 0.00363 -0.03026
# Poissons Ratio (z) = 0.62544 -0.10252
#
# Static dielectric constant tensor:
#      x y z
#    x 1.812420 -0.061670 -0.011550 
#    y -0.061670 1.815120 -0.001980 
#    z -0.011550 -0.001980 1.717410 
# 
# From -- ./inp_files/305493.got.cif
#   From: 2010.05.17/outbox.cif.g08.bks.cpg/sg2_153_cif.got.tgz:305493.got - 2010.06.03 11:33:40.
