data_PCOD9081796
_publ_section_title
;
Structure prediction by ZEFSAII (Michael W. Deem and Ramdas Pophale) SiO2 
 PCOD9081796
Probable space group: P -1
;
_chemical_formula_sum "Si O2"
_cell_formula_units_Z 14
_cell_length_a 8.985392
_cell_length_b 27.168791
_cell_length_c 12.163828
_cell_angle_alpha 25.575786
_cell_angle_beta 119.078503
_cell_angle_gamma 139.559862
_cell_volume 580.481485
_symmetry_space_group_name_H-M "P -1"
_symmetry_group_IT_number 2
_symmetry_cell_setting 'triclinic'
loop_
_space_group_symop_operation_xyz
x,y,z
-x,-y,-z
loop_
_atom_site_type_symbol
_atom_site_label
_atom_site_fract_x
_atom_site_fract_y
_atom_site_fract_z
Si Si1 0.703930 0.805945 0.873756
Si Si2 0.453116 0.097954 0.833215
Si Si3 0.484867 0.922223 0.535953
Si Si4 0.227120 0.175831 0.476248
Si Si5 0.079943 0.858358 0.392551
Si Si6 0.741749 0.634156 0.095430
Si Si7 0.305345 0.651876 0.378674
O O1 0.585401 0.613722 0.182179
O O2 0.457919 0.770881 0.847044
O O3 0.000000 0.000000 0.500000
O O4 0.890452 0.926213 0.812759
O O5 0.436282 0.184216 0.560445
O O6 0.127156 0.901468 0.192183
O O7 0.715082 0.297578 0.612592
O O8 0.500000 0.000000 0.000000
O O9 0.864009 0.153460 0.164555
O O10 0.500000 0.000000 0.500000
O O11 0.191736 0.800561 0.598006
O O12 0.320161 0.318566 0.126952
O O13 0.206393 0.239807 0.450262
O O14 0.388552 0.107603 0.046621
O O15 0.631590 0.445960 0.401984
O O16 0.000000 0.500000 0.500000
#
# Coordination Sequence:
#
# PCOD9081796 Si02
#       7
#     2   2   2   2   2   2   2
#     4   8  18  27  54  82 108 133 187 228 259 316
#     4  10  24  36  60  82 109 149 188 228 274 334
#     4  10  15  30  55  86 103 142 188 227 269 318
#     4  10  19  36  57  81 110 149 191 219 272 332
#     4  10  20  34  58  79 113 144 187 224 274 332
#     4  10  19  33  55  81 115 142 184 231 269 327
#     4  10  22  35  57  82 115 143 181 230 287 321
#
# _framework density 24.117909999999998
#
# number of rings (size 3 to 8) (size 9 to 14) (size 15 to 20)
#    0.857    1.714    4.286    0.429    8.000    0.571 
#    0.000    0.714    3.143    0.857    0.000    0.000 
#    0.000    0.000    0.000    0.000    0.000    0.000 
#
# Total GULP energy -77989.967758 kJ/mol
# GULP energy per Si atom -5570.711983 kJ/mol
# Density = 2.406302 g / cm^3
# Si number density = 24.117910 Si / 1000 Ang^3
#
#
#
# Elastic Constant Matrix: (Units=GPa)
#
#
# Indices 1 2 3 4 5 6 
#
# 1 110.0411 20.0830 46.8888 -1.7332 52.0560 -14.9729
# 2 20.0830 84.1048 42.1083 10.3728 34.9568 -0.8172
# 3 46.8888 42.1083 85.7892 5.5302 50.3342 2.8031
# 4 -1.7332 10.3728 5.5302 29.8059 -0.4019 11.7095
# 5 52.0560 34.9568 50.3342 -0.4019 51.9072 2.3789
# 6 -14.9729 -0.8172 2.8031 11.7095 2.3789 32.7767
#
#
#
# Elastic Compliance Matrix: (Units=1/GPa)
#
#
# Indices 1 2 3 4 5 6 
#
# 1 0.024204 0.007916 0.001745 -0.008588 -0.032120 0.016504
# 2 0.007916 0.021003 -0.002352 -0.010436 -0.020321 0.009544
# 3 0.001745 -0.002352 0.028613 -0.005696 -0.028065 0.002363
# 4 -0.008588 -0.010436 -0.005696 0.046691 0.022534 -0.022012
# 5 -0.032120 -0.020321 -0.028065 0.022534 0.093818 -0.027639
# 6 0.016504 0.009544 0.002363 -0.022012 -0.027639 0.047955
#
#
# Mechanical properties :
#
#
# Convention : Reuss Voigt Hill
#
# Bulk Modulus (GPa) = 11.30722 55.34393 33.32557
# Shear Modulus (GPa) = 18.04107 34.28831 26.16469
#
# Velocity S-wave (km/s) = 2.73799 3.77463 3.29730
# Velocity P-wave (km/s) = 3.83327 6.48029 5.32391
#
# Compressibility (1/GPa) = 0.08843911
#
# Stress axis : x y z
#
# Youngs Moduli (GPa) = 41.31505 47.61181 34.94891
#
# Poissons Ratio (x) = -0.37691 -0.06099
# Poissons Ratio (y) = -0.32707 0.08221
# Poissons Ratio (z) = -0.07210 0.11200
#
# Static dielectric constant tensor:
#      x y z
#    x 2.048420 0.007450 -0.022020 
#    y 0.007450 1.950260 -0.030280 
#    z -0.022020 -0.030280 2.038850 
# 
# From -- ./inp_files/509087.got.cif
#   From: 2010.05.17/outbox.cif.g08.bks.cpg/sg2_255_cif.got.tgz:509087.got - 2010.06.03 11:33:40.
