data_PCOD9081631
_publ_section_title
;
Structure prediction by ZEFSAII (Michael W. Deem and Ramdas Pophale) SiO2 
 PCOD9081631
Probable space group: P -1
;
_chemical_formula_sum "Si O2"
_cell_formula_units_Z 14
_cell_length_a 10.569990
_cell_length_b 10.983866
_cell_length_c 7.578450
_cell_angle_alpha 109.215116
_cell_angle_beta 76.592228
_cell_angle_gamma 141.184463
_cell_volume 520.332272
_symmetry_space_group_name_H-M "P -1"
_symmetry_group_IT_number 2
_symmetry_cell_setting 'triclinic'
loop_
_space_group_symop_operation_xyz
x,y,z
-x,-y,-z
loop_
_atom_site_type_symbol
_atom_site_label
_atom_site_fract_x
_atom_site_fract_y
_atom_site_fract_z
Si Si1 0.769999 0.635471 0.820977
Si Si2 0.854664 0.802233 0.324140
Si Si3 0.519722 0.370302 0.132804
Si Si4 0.507465 0.920802 0.163546
Si Si5 0.897134 0.284713 0.387762
Si Si6 0.456996 0.232957 0.597757
Si Si7 0.206968 0.901985 0.275213
O O1 0.700047 0.727241 0.848107
O O2 0.651719 0.465481 0.630779
O O3 0.986537 0.737830 0.773175
O O4 0.652598 0.508006 0.977609
O O5 0.670161 0.561144 0.309934
O O6 0.723496 0.816775 0.283413
O O7 0.023637 0.833587 0.207260
O O8 0.000000 0.000000 0.500000
O O9 0.481255 0.190086 0.026415
O O10 0.480501 0.833761 0.323877
O O11 0.315913 0.860588 0.142659
O O12 0.699201 0.153098 0.266369
O O13 0.862080 0.195237 0.550325
O O14 0.000000 0.500000 0.500000
O O15 0.377243 0.133331 0.386525
#
# Coordination Sequence:
#
# PCOD9081631 Si02
#       7
#     2   2   2   2   2   2   2
#     4   9  17  31  55  77 102 135 172 216 255 301
#     4   9  18  33  56  78 101 135 175 212 256 315
#     4   9  18  34  52  76 104 135 173 212 260 308
#     4  10  19  32  53  78 107 138 173 215 255 301
#     4  11  20  32  53  80 106 136 177 217 254 300
#     4   8  15  32  52  75 101 131 170 210 252 303
#     4  10  19  32  53  81 107 135 170 211 261 310
#
# _framework density 26.905884
#
# number of rings (size 3 to 8) (size 9 to 14) (size 15 to 20)
#    0.000    2.571    0.000    5.143    0.000    1.143 
#    0.000    2.857    0.000    8.571    0.000    0.000 
#    0.000    0.000    0.000    0.000    0.000    0.000 
#
# Total GULP energy -78009.463446 kJ/mol
# GULP energy per Si atom -5572.104532 kJ/mol
# Density = 2.684464 g / cm^3
# Si number density = 26.905884 Si / 1000 Ang^3
#
#
#
# Elastic Constant Matrix: (Units=GPa)
#
#
# Indices 1 2 3 4 5 6 
#
# 1 142.4575 35.9863 35.1038 -6.5911 -43.0505 31.5719
# 2 35.9863 41.7927 41.1220 7.5701 -2.6150 7.7551
# 3 35.1038 41.1220 131.0335 12.9695 -9.3791 -11.1540
# 4 -6.5911 7.5701 12.9695 40.6859 -6.1172 -3.1739
# 5 -43.0505 -2.6150 -9.3791 -6.1172 53.0912 -12.6758
# 6 31.5719 7.7551 -11.1540 -3.1739 -12.6758 45.8277
#
#
#
# Elastic Compliance Matrix: (Units=1/GPa)
#
#
# Indices 1 2 3 4 5 6 
#
# 1 0.014708 -0.011650 -0.000518 0.005954 0.010778 -0.004893
# 2 -0.011650 0.048810 -0.012769 -0.009293 -0.012121 -0.007338
# 3 -0.000518 -0.012769 0.012575 -0.000846 0.002562 0.006229
# 4 0.005954 -0.009293 -0.000846 0.028841 0.007889 0.001444
# 5 0.010778 -0.012121 0.002562 0.007889 0.029269 0.003891
# 6 -0.004893 -0.007338 0.006229 0.001444 0.003891 0.029126
#
#
# Mechanical properties :
#
#
# Convention : Reuss Voigt Hill
#
# Bulk Modulus (GPa) = 38.14305 59.96753 49.05529
# Shear Modulus (GPa) = 22.52823 41.45908 31.99365
#
# Velocity S-wave (km/s) = 2.89675 3.92968 3.45207
# Velocity P-wave (km/s) = 5.03939 6.55180 5.84472
#
# Compressibility (1/GPa) = 0.02621709
#
# Stress axis : x y z
#
# Youngs Moduli (GPa) = 67.99233 20.48749 79.52172
#
# Poissons Ratio (x) = 0.23868 0.04122
# Poissons Ratio (y) = 0.79213 1.01544
# Poissons Ratio (z) = 0.03525 0.26161
#
# Static dielectric constant tensor:
#      x y z
#    x 2.113690 -0.032780 -0.055710 
#    y -0.032780 2.223860 -0.020770 
#    z -0.055710 -0.020770 2.188080 
# 
# From -- ./inp_files/433200.got.cif
#   From: 2010.05.17/outbox.cif.g08.bks.cpg/sg2_217_cif.got.tgz:433200.got - 2010.06.03 11:33:40.
