data_PCOD9081836
_publ_section_title
;
Structure prediction by ZEFSAII (Michael W. Deem and Ramdas Pophale) SiO2 
 PCOD9081836
Probable space group: P -1
;
_chemical_formula_sum "Si O2"
_cell_formula_units_Z 16
_cell_length_a 15.326735
_cell_length_b 15.081023
_cell_length_c 14.931947
_cell_angle_alpha 126.396658
_cell_angle_beta 50.910482
_cell_angle_gamma 160.863435
_cell_volume 878.148007
_symmetry_space_group_name_H-M "P -1"
_symmetry_group_IT_number 2
_symmetry_cell_setting 'triclinic'
loop_
_space_group_symop_operation_xyz
x,y,z
-x,-y,-z
loop_
_atom_site_type_symbol
_atom_site_label
_atom_site_fract_x
_atom_site_fract_y
_atom_site_fract_z
Si Si1 0.538504 0.468201 0.321972
Si Si2 0.980520 0.947857 0.827335
Si Si3 0.933641 0.011046 0.401814
Si Si4 0.333656 0.746093 0.993666
Si Si5 0.520411 0.341222 0.077396
Si Si6 0.922658 0.535871 0.197690
Si Si7 0.656697 0.913715 0.662303
Si Si8 0.755552 0.654863 0.958859
O O1 0.771821 0.755353 0.384208
O O2 0.652565 0.520823 0.185814
O O3 0.445412 0.282637 0.331353
O O4 0.258754 0.287558 0.376815
O O5 0.732352 0.803321 0.865726
O O6 0.913999 0.787152 0.841783
O O7 0.118671 0.031262 0.696612
O O8 0.119030 0.154641 0.931610
O O9 0.804965 0.997454 0.529709
O O10 0.110023 0.594163 0.116654
O O11 0.525194 0.823649 0.958836
O O12 0.169953 0.546914 0.896379
O O13 0.500000 0.000000 0.000000
O O14 0.679142 0.481576 0.963941
O O15 0.630054 0.277741 0.283284
O O16 0.121997 0.814324 0.264141
O O17 0.500000 0.500000 0.000000
#
# Coordination Sequence:
#
# PCOD9081836 Si02
#       8
#     2   2   2   2   2   2   2   2
#     4  11  20  33  50  80 111 146 187 218 263 336
#     4   9  19  33  54  80 113 142 180 221 274 338
#     4  11  22  34  52  79 110 152 185 220 266 334
#     4  11  22  38  56  80 111 149 191 239 278 323
#     4  10  19  32  56  79 111 146 181 225 285 324
#     4  11  23  38  55  77 108 149 191 236 270 316
#     4  12  22  37  52  75 113 152 188 228 268 316
#     4   9  17  33  52  79 113 139 175 227 276 336
#
# _framework density 18.220162999999999
#
# number of rings (size 3 to 8) (size 9 to 14) (size 15 to 20)
#    0.000    1.500    3.750    2.250    0.000    3.000 
#    0.000    0.000    0.000    0.000    0.000    1.750 
#    0.000    0.125    0.000    0.000    0.000    0.000 
#
# Total GULP energy -89079.710954 kJ/mol
# GULP energy per Si atom -5567.481935 kJ/mol
# Density = 1.817869 g / cm^3
# Si number density = 18.220163 Si / 1000 Ang^3
#
#
#
# Elastic Constant Matrix: (Units=GPa)
#
#
# Indices 1 2 3 4 5 6 
#
# 1 62.2449 15.4803 36.3735 -4.0236 3.8394 -12.8340
# 2 15.4803 67.9299 24.9100 3.9215 -2.8612 -6.7638
# 3 36.3735 24.9100 114.6455 -10.6588 0.7043 -9.3298
# 4 -4.0236 3.9215 -10.6588 31.7091 1.9541 -0.4439
# 5 3.8394 -2.8612 0.7043 1.9541 22.3148 -5.9307
# 6 -12.8340 -6.7638 -9.3298 -0.4439 -5.9307 21.5237
#
#
#
# Elastic Compliance Matrix: (Units=1/GPa)
#
#
# Indices 1 2 3 4 5 6 
#
# 1 0.022048 -0.002149 -0.005601 0.001405 -0.001444 0.009674
# 2 -0.002149 0.017095 -0.003086 -0.003616 0.003979 0.003775
# 3 -0.005601 -0.003086 0.011567 0.003564 0.000105 0.000806
# 4 0.001405 -0.003616 0.003564 0.033589 -0.003500 0.000974
# 5 -0.001444 0.003979 0.000105 -0.003500 0.049604 0.014031
# 6 0.009674 0.003775 0.000806 0.000974 0.014031 0.057651
#
#
# Mechanical properties :
#
#
# Convention : Reuss Voigt Hill
#
# Bulk Modulus (GPa) = 34.43969 44.26087 39.35028
# Shear Modulus (GPa) = 22.43106 26.31329 24.37218
#
# Velocity S-wave (km/s) = 3.51253 3.80437 3.66136
# Velocity P-wave (km/s) = 5.94924 6.60625 6.28634
#
# Compressibility (1/GPa) = 0.02903626
#
# Stress axis : x y z
#
# Youngs Moduli (GPa) = 45.35585 58.49787 86.45653
#
# Poissons Ratio (x) = 0.12571 0.48428
# Poissons Ratio (y) = 0.09747 0.26680
# Poissons Ratio (z) = 0.25406 0.18052
#
# Static dielectric constant tensor:
#      x y z
#    x 1.452040 -0.062350 -0.117250 
#    y -0.062350 1.758630 -0.064020 
#    z -0.117250 -0.064020 1.597800 
# 
# From -- ./inp_files/109026.got.cif
#   From: 2010.05.17/outbox.cif.g08.bks.cpg/sg2_55_cif.got.tgz:109026.got - 2010.06.03 11:33:40.
