data_PCOD9081974
_publ_section_title
;
Structure prediction by ZEFSAII (Michael W. Deem and Ramdas Pophale) SiO2 
 PCOD9081974
Probable space group: P -1
;
_chemical_formula_sum "Si O2"
_cell_formula_units_Z 16
_cell_length_a 17.732656
_cell_length_b 8.816083
_cell_length_c 10.363394
_cell_angle_alpha 99.261579
_cell_angle_beta 72.097948
_cell_angle_gamma 150.152431
_cell_volume 747.947937
_symmetry_space_group_name_H-M "P -1"
_symmetry_group_IT_number 2
_symmetry_cell_setting 'triclinic'
loop_
_space_group_symop_operation_xyz
x,y,z
-x,-y,-z
loop_
_atom_site_type_symbol
_atom_site_label
_atom_site_fract_x
_atom_site_fract_y
_atom_site_fract_z
Si Si1 0.315215 0.845277 0.447273
Si Si2 0.413019 0.715556 0.816849
Si Si3 0.056662 0.388270 0.701938
Si Si4 0.107646 0.766726 0.872634
Si Si5 0.443580 0.469679 0.890928
Si Si6 0.757225 0.956118 0.622011
Si Si7 0.596966 0.501232 0.452881
Si Si8 0.916495 0.702036 0.041691
O O1 0.183799 0.531232 0.553727
O O2 0.419984 0.947722 0.289966
O O3 0.233871 0.861121 0.427036
O O4 0.457037 0.142562 0.511611
O O5 0.434723 0.640453 0.916658
O O6 0.350940 0.485353 0.709155
O O7 0.276201 0.607960 0.898138
O O8 0.132110 0.682494 0.739115
O O9 0.037369 0.266737 0.830547
O O10 0.892955 0.150264 0.681491
O O11 0.274135 0.109331 0.889373
O O12 0.000000 0.500000 0.000000
O O13 0.988958 0.706864 0.899759
O O14 0.584773 0.666966 0.743936
O O15 0.500000 0.500000 0.000000
O O16 0.745375 0.797126 0.504077
O O17 0.500000 0.500000 0.500000
O O18 0.000000 0.000000 0.000000
#
# Coordination Sequence:
#
# PCOD9081974 Si02
#       8
#     2   2   2   2   2   2   2   2
#     4   8  18  34  57  87 116 145 192 250 298 330
#     4   9  20  35  60  85 117 159 196 236 298 355
#     4  11  22  36  60  92 120 150 200 248 295 343
#     4  10  22  37  57  87 116 154 200 243 290 340
#     4  11  19  33  60  86 115 150 203 243 284 349
#     4  10  19  32  58  94 116 148 195 248 293 346
#     4   8  15  33  57  86 110 148 191 236 293 345
#     4  11  22  38  56  84 120 166 195 237 290 364
#
# _framework density 21.391864000000002
#
# number of rings (size 3 to 8) (size 9 to 14) (size 15 to 20)
#    0.750    1.500    2.500    2.625    1.750    0.500 
#    0.000    0.625    0.000   12.000    3.250    0.000 
#    0.000    0.000    0.000    0.000    0.000    0.000 
#
# Total GULP energy -89071.786808 kJ/mol
# GULP energy per Si atom -5566.986675 kJ/mol
# Density = 2.134318 g / cm^3
# Si number density = 21.391864 Si / 1000 Ang^3
#
#
#
# Elastic Constant Matrix: (Units=GPa)
#
#
# Indices 1 2 3 4 5 6 
#
# 1 58.7797 19.1653 28.1220 0.5543 4.8337 14.2775
# 2 19.1653 49.8967 16.2042 -23.5069 0.5887 18.3014
# 3 28.1220 16.2042 71.8536 -21.8517 14.2215 7.7628
# 4 0.5543 -23.5069 -21.8517 29.6738 3.6303 0.1862
# 5 4.8337 0.5887 14.2215 3.6303 31.4109 -1.8532
# 6 14.2775 18.3014 7.7628 0.1862 -1.8532 29.1231
#
#
#
# Elastic Compliance Matrix: (Units=1/GPa)
#
#
# Indices 1 2 3 4 5 6 
#
# 1 0.034703 -0.028305 -0.022641 -0.041095 0.010648 0.007749
# 2 -0.028305 0.081418 0.030101 0.090433 -0.024048 -0.047420
# 3 -0.022641 0.030101 0.039923 0.056596 -0.022893 -0.020277
# 4 -0.041095 0.090433 0.056596 0.153266 -0.041978 -0.055420
# 5 0.010648 -0.024048 -0.022893 -0.041978 0.047001 0.019254
# 6 0.007749 -0.047420 -0.020277 -0.055420 0.019254 0.067322
#
#
# Mechanical properties :
#
#
# Convention : Reuss Voigt Hill
#
# Bulk Modulus (GPa) = 8.74464 34.16811 21.45637
# Shear Modulus (GPa) = 9.93164 25.84413 17.88789
#
# Velocity S-wave (km/s) = 2.15703 3.47959 2.89485
# Velocity P-wave (km/s) = 3.20943 5.67014 4.60711
#
# Compressibility (1/GPa) = 0.11435574
#
# Stress axis : x y z
#
# Youngs Moduli (GPa) = 28.81570 12.28223 25.04804
#
# Poissons Ratio (x) = 0.34765 0.56711
# Poissons Ratio (y) = 0.81563 -0.75398
# Poissons Ratio (z) = 0.65242 -0.36971
#
# Static dielectric constant tensor:
#      x y z
#    x 1.813490 0.006770 0.011090 
#    y 0.006770 1.782870 0.017330 
#    z 0.011090 0.017330 1.860250 
# 
# From -- ./inp_files/462226.got.cif
#   From: 2010.05.17/outbox.cif.g08.bks.cpg/sg2_232_cif.got.tgz:462226.got - 2010.06.03 11:33:40.
