data_PCOD9081158
_publ_section_title
;
Structure prediction by ZEFSAII (Michael W. Deem and Ramdas Pophale) SiO2 
 PCOD9081158
Probable space group: P -1
;
_chemical_formula_sum "Si O2"
_cell_formula_units_Z 16
_cell_length_a 12.029787
_cell_length_b 5.785752
_cell_length_c 19.496298
_cell_angle_alpha 85.388824
_cell_angle_beta 43.725105
_cell_angle_gamma 108.889888
_cell_volume 778.172487
_symmetry_space_group_name_H-M "P -1"
_symmetry_group_IT_number 2
_symmetry_cell_setting 'triclinic'
loop_
_space_group_symop_operation_xyz
x,y,z
-x,-y,-z
loop_
_atom_site_type_symbol
_atom_site_label
_atom_site_fract_x
_atom_site_fract_y
_atom_site_fract_z
Si Si1 0.985412 0.024164 0.308997
Si Si2 0.625884 0.962628 0.533791
Si Si3 0.324916 0.731276 0.371419
Si Si4 0.956324 0.151612 0.578380
Si Si5 0.027650 0.696272 0.045230
Si Si6 0.960364 0.296847 0.189326
Si Si7 0.738432 0.847066 0.175443
Si Si8 0.692604 0.412200 0.396282
O O1 0.843515 0.720420 0.345930
O O2 0.106882 0.011769 0.317085
O O3 0.843867 0.075432 0.415206
O O4 0.064302 0.221634 0.202285
O O5 0.599913 0.993361 0.623231
O O6 0.596489 0.189763 0.505781
O O7 0.486212 0.659539 0.570452
O O8 0.197195 0.767484 0.371706
O O9 0.512272 0.723753 0.275051
O O10 0.163612 0.444512 0.487748
O O11 0.000000 0.000000 0.500000
O O12 0.086968 0.589703 0.086215
O O13 0.822942 0.657165 0.151501
O O14 0.000000 0.500000 0.000000
O O15 0.174820 0.999360 0.940610
O O16 0.806053 0.317883 0.301407
O O17 0.843265 0.063572 0.187819
#
# Coordination Sequence:
#
# PCOD9081158 Si02
#       8
#     2   2   2   2   2   2   2   2
#     4  11  21  33  54  79 120 161 195 233 286 341
#     4  10  19  32  50  81 115 151 194 238 284 348
#     4  11  22  38  59  81 117 160 205 237 281 343
#     4  11  24  39  54  81 119 167 208 239 270 332
#     4   9  20  37  58  86 119 143 187 243 304 364
#     4  10  20  33  56  86 117 149 186 235 300 359
#     4  10  20  38  60  88 114 152 188 243 307 347
#     4  10  19  31  49  83 118 151 188 235 295 352
#
# _framework density 20.560995999999999
#
# number of rings (size 3 to 8) (size 9 to 14) (size 15 to 20)
#    0.000    1.750    3.750    1.125    0.000    4.000 
#    0.000    0.000    0.000    0.750    0.000   13.125 
#    0.000    0.000    0.000    0.000    0.000    0.000 
#
# Total GULP energy -89098.491338 kJ/mol
# GULP energy per Si atom -5568.655709 kJ/mol
# Density = 2.051420 g / cm^3
# Si number density = 20.560996 Si / 1000 Ang^3
#
#
#
# Elastic Constant Matrix: (Units=GPa)
#
#
# Indices 1 2 3 4 5 6 
#
# 1 110.9078 20.1965 39.8372 -5.2448 20.5757 -16.7007
# 2 20.1965 65.9429 11.9346 10.7346 0.5117 -4.2851
# 3 39.8372 11.9346 57.8694 7.4985 6.6088 -8.5345
# 4 -5.2448 10.7346 7.4985 26.9537 -13.0316 2.1875
# 5 20.5757 0.5117 6.6088 -13.0316 37.0138 -5.4808
# 6 -16.7007 -4.2851 -8.5345 2.1875 -5.4808 28.0968
#
#
#
# Elastic Compliance Matrix: (Units=1/GPa)
#
#
# Indices 1 2 3 4 5 6 
#
# 1 0.014317 -0.003169 -0.008596 0.003994 -0.004344 0.004257
# 2 -0.003169 0.017581 -0.000057 -0.008285 -0.001212 0.001189
# 3 -0.008596 -0.000057 0.025302 -0.010351 -0.002969 0.002794
# 4 0.003994 -0.008285 -0.010351 0.052976 0.018002 -0.002647
# 5 -0.004344 -0.001212 -0.002969 0.018002 0.036624 0.002074
# 6 0.004257 0.001189 0.002794 -0.002647 0.002074 0.039763
#
#
# Mechanical properties :
#
#
# Convention : Reuss Voigt Hill
#
# Bulk Modulus (GPa) = 29.80068 42.07297 35.93683
# Shear Modulus (GPa) = 22.58459 29.26298 25.92379
#
# Velocity S-wave (km/s) = 3.31784 3.77666 3.55466
# Velocity P-wave (km/s) = 5.40395 6.28685 5.86204
#
# Compressibility (1/GPa) = 0.03355629
#
# Stress axis : x y z
#
# Youngs Moduli (GPa) = 69.84786 56.88001 39.52299
#
# Poissons Ratio (x) = 0.18025 0.33973
# Poissons Ratio (y) = 0.22134 0.00225
# Poissons Ratio (z) = 0.60039 0.00324
#
# Static dielectric constant tensor:
#      x y z
#    x 1.842820 -0.033000 0.036920 
#    y -0.033000 1.813860 -0.021170 
#    z 0.036920 -0.021170 1.751510 
# 
# From -- ./inp_files/77667.got.cif
#   From: 2010.05.17/outbox.cif.g08.bks.cpg/sg2_39_cif.got.tgz:77667.got - 2010.06.03 11:33:40.
