data_PCOD9081421
_publ_section_title
;
Structure prediction by ZEFSAII (Michael W. Deem and Ramdas Pophale) SiO2 
 PCOD9081421
Probable space group: P -1
;
_chemical_formula_sum "Si O2"
_cell_formula_units_Z 16
_cell_length_a 18.332010
_cell_length_b 19.856396
_cell_length_c 9.788627
_cell_angle_alpha 28.559059
_cell_angle_beta 141.308588
_cell_angle_gamma 151.640669
_cell_volume 808.663718
_symmetry_space_group_name_H-M "P -1"
_symmetry_group_IT_number 2
_symmetry_cell_setting 'triclinic'
loop_
_space_group_symop_operation_xyz
x,y,z
-x,-y,-z
loop_
_atom_site_type_symbol
_atom_site_label
_atom_site_fract_x
_atom_site_fract_y
_atom_site_fract_z
Si Si1 0.208719 0.460316 0.704472
Si Si2 0.377641 0.871818 0.163584
Si Si3 0.259888 0.178339 0.710326
Si Si4 0.139261 0.925915 0.718844
Si Si5 0.907798 0.375075 0.453498
Si Si6 0.400538 0.015651 0.228138
Si Si7 0.043937 0.054372 0.124928
Si Si8 0.798634 0.580999 0.909495
O O1 0.334093 0.672902 0.462208
O O2 0.044558 0.404328 0.525777
O O3 0.174293 0.277862 0.925072
O O4 0.239291 0.464776 0.904187
O O5 0.442424 0.989902 0.187109
O O6 0.223895 0.844287 0.969495
O O7 0.500000 0.000000 0.000000
O O8 0.290501 0.369002 0.394190
O O9 0.223034 0.090880 0.658781
O O10 0.111983 0.042844 0.837265
O O11 0.397156 0.180929 0.951279
O O12 0.972759 0.774437 0.811200
O O13 0.117988 0.980647 0.443701
O O14 0.777229 0.167252 0.682848
O O15 0.000000 0.500000 0.500000
O O16 0.819654 0.436921 0.145073
O O17 0.500000 0.000000 0.500000
O O18 0.000000 0.000000 0.000000
#
# Coordination Sequence:
#
# PCOD9081421 Si02
#       8
#     2   2   2   2   2   2   2   2
#     4  11  17  36  61  87 115 157 209 246 288 363
#     4  11  23  39  60  84 120 165 206 241 297 374
#     4  10  18  34  58  85 116 154 198 241 296 365
#     4  10  18  35  59  88 112 150 209 244 284 363
#     4  10  16  32  62  92 105 147 215 240 282 362
#     4  11  22  37  61  91 122 154 197 258 309 346
#     4  11  21  33  58  94 125 148 190 261 317 342
#     4  10  15  29  63  91 103 140 212 253 272 337
#
# _framework density 19.785729
#
# number of rings (size 3 to 8) (size 9 to 14) (size 15 to 20)
#    0.000    1.500    7.500    2.250    0.000    1.000 
#    0.000    4.375    0.000    0.000    0.000    0.000 
#    0.000    0.000    0.000    0.000    0.000    0.000 
#
# Total GULP energy -89082.786670 kJ/mol
# GULP energy per Si atom -5567.674167 kJ/mol
# Density = 1.974070 g / cm^3
# Si number density = 19.785729 Si / 1000 Ang^3
#
#
#
# Elastic Constant Matrix: (Units=GPa)
#
#
# Indices 1 2 3 4 5 6 
#
# 1 34.1105 18.6806 41.7644 1.1678 -16.1933 2.7687
# 2 18.6806 28.0655 30.1866 -5.4423 -9.7395 7.1314
# 3 41.7644 30.1866 163.1645 0.2803 2.2615 2.2754
# 4 1.1678 -5.4423 0.2803 41.2060 3.6414 -3.4360
# 5 -16.1933 -9.7395 2.2615 3.6414 31.9297 -1.3859
# 6 2.7687 7.1314 2.2754 -3.4360 -1.3859 15.8224
#
#
#
# Elastic Compliance Matrix: (Units=1/GPa)
#
#
# Indices 1 2 3 4 5 6 
#
# 1 0.079978 -0.025599 -0.016220 -0.008533 0.034922 0.001081
# 2 -0.025599 0.068704 -0.005934 0.007304 0.006543 -0.023474
# 3 -0.016220 -0.005934 0.011484 0.000811 -0.010808 0.003091
# 4 -0.008533 0.007304 0.000811 0.026189 -0.004999 0.003334
# 5 0.034922 0.006543 -0.010808 -0.004999 0.052186 -0.004020
# 6 0.001081 -0.023474 0.003091 0.003334 -0.004020 0.073519
#
#
# Mechanical properties :
#
#
# Convention : Reuss Voigt Hill
#
# Bulk Modulus (GPa) = 15.46559 45.17818 30.32189
# Shear Modulus (GPa) = 11.65177 26.77223 19.21200
#
# Velocity S-wave (km/s) = 2.42935 3.68245 3.11947
# Velocity P-wave (km/s) = 3.96264 6.40030 5.32289
#
# Compressibility (1/GPa) = 0.06465968
#
# Stress axis : x y z
#
# Youngs Moduli (GPa) = 12.50344 14.55525 87.07966
#
# Poissons Ratio (x) = 0.37259 1.41244
# Poissons Ratio (y) = 0.32007 0.51675
# Poissons Ratio (z) = 0.20281 0.08637
#
# Static dielectric constant tensor:
#      x y z
#    x 1.729640 0.010520 0.056920 
#    y 0.010520 1.764180 0.004520 
#    z 0.056920 0.004520 1.780340 
# 
# From -- ./inp_files/337387.got.cif
#   From: 2010.05.17/outbox.cif.g08.bks.cpg/sg2_169_cif.got.tgz:337387.got - 2010.06.03 11:33:40.
