data_PCOD9081051
_publ_section_title
;
Structure prediction by ZEFSAII (Michael W. Deem and Ramdas Pophale) SiO2 
 PCOD9081051
Probable space group: P -1
;
_chemical_formula_sum "Si O2"
_cell_formula_units_Z 16
_cell_length_a 7.055991
_cell_length_b 13.509606
_cell_length_c 11.053953
_cell_angle_alpha 86.132548
_cell_angle_beta 56.228909
_cell_angle_gamma 53.643934
_cell_volume 649.110686
_symmetry_space_group_name_H-M "P -1"
_symmetry_group_IT_number 2
_symmetry_cell_setting 'triclinic'
loop_
_space_group_symop_operation_xyz
x,y,z
-x,-y,-z
loop_
_atom_site_type_symbol
_atom_site_label
_atom_site_fract_x
_atom_site_fract_y
_atom_site_fract_z
Si Si1 0.267862 0.099736 0.338897
Si Si2 0.998784 0.884213 0.316555
Si Si3 0.612315 0.807680 0.218630
Si Si4 0.377951 0.461704 0.436705
Si Si5 0.444690 0.629636 0.045142
Si Si6 0.204629 0.331286 0.238545
Si Si7 0.175730 0.567715 0.885912
Si Si8 0.658709 0.178014 0.435503
O O1 0.313945 0.192795 0.256355
O O2 0.168440 0.121592 0.512338
O O3 0.968682 0.137746 0.379838
O O4 0.544105 0.944392 0.231063
O O5 0.317017 0.844631 0.250763
O O6 0.120071 0.763942 0.195128
O O7 0.776350 0.040704 0.345281
O O8 0.559630 0.783540 0.375874
O O9 0.933677 0.690751 0.051016
O O10 0.500000 0.500000 0.500000
O O11 0.506346 0.473640 0.269029
O O12 0.507810 0.312575 0.407640
O O13 0.020716 0.564531 0.586391
O O14 0.686534 0.565838 0.078225
O O15 0.500000 0.500000 0.000000
O O16 0.531694 0.673091 0.898413
O O17 0.003703 0.384846 0.181657
#
# Coordination Sequence:
#
# PCOD9081051 Si02
#       8
#     2   2   2   2   2   2   2   2
#     4   9  17  32  54  92 118 139 177 234 285 331
#     4   9  19  34  56  80 117 153 180 225 278 334
#     4   9  18  30  57  90 117 141 178 229 283 334
#     4  10  19  30  55  89 120 141 178 234 282 333
#     4  12  26  40  55  79 113 153 194 232 277 333
#     4  11  21  35  59  84 114 147 184 236 279 330
#     4  11  21  35  57  83 112 145 187 235 282 323
#     4   9  16  31  52  86 122 143 176 225 287 330
#
# _framework density 24.64911
#
# number of rings (size 3 to 8) (size 9 to 14) (size 15 to 20)
#    0.000    2.000    3.750    3.375    5.250    1.500 
#    0.000    2.500    0.000    9.750    0.000    0.000 
#    0.000    0.000    0.000    0.000    0.000    0.000 
#
# Total GULP energy -89433.975395 kJ/mol
# GULP energy per Si atom -5589.623462 kJ/mol
# Density = 2.459301 g / cm^3
# Si number density = 24.649110 Si / 1000 Ang^3
#
#
#
# Elastic Constant Matrix: (Units=GPa)
#
#
# Indices 1 2 3 4 5 6 
#
# 1 73.7098 32.7155 19.9748 13.6401 5.7769 2.6904
# 2 32.7155 216.1022 118.7872 -11.6600 2.1952 16.4436
# 3 19.9748 118.7872 191.0715 16.9096 -0.4293 7.3404
# 4 13.6401 -11.6600 16.9096 51.7273 0.9722 1.2634
# 5 5.7769 2.1952 -0.4293 0.9722 27.4550 10.1077
# 6 2.6904 16.4436 7.3404 1.2634 10.1077 31.2544
#
#
#
# Elastic Compliance Matrix: (Units=1/GPa)
#
#
# Indices 1 2 3 4 5 6 
#
# 1 0.015935 -0.003128 0.000667 -0.005095 -0.003441 0.001436
# 2 -0.003128 0.008448 -0.005187 0.004490 0.001020 -0.003468
# 3 0.000667 -0.005187 0.008736 -0.004224 0.000306 0.000691
# 4 -0.005095 0.004490 -0.004224 0.023108 0.000585 -0.002055
# 5 -0.003441 0.001020 0.000306 0.000585 0.042197 -0.013982
# 6 0.001436 -0.003468 0.000691 -0.002055 -0.013982 0.038139
#
#
# Mechanical properties :
#
#
# Convention : Reuss Voigt Hill
#
# Bulk Modulus (GPa) = 56.10778 91.53760 73.82269
# Shear Modulus (GPa) = 31.68558 42.71441 37.19999
#
# Velocity S-wave (km/s) = 3.58923 4.16733 3.88903
# Velocity P-wave (km/s) = 6.32367 7.76997 7.08382
#
# Compressibility (1/GPa) = 0.01782284
#
# Stress axis : x y z
#
# Youngs Moduli (GPa) = 62.75676 118.37194 114.46335
#
# Poissons Ratio (x) = 0.37029 -0.07635
# Poissons Ratio (y) = 0.19632 0.59370
# Poissons Ratio (z) = -0.04186 0.61397
#
# Static dielectric constant tensor:
#      x y z
#    x 2.232360 0.038160 -0.022390 
#    y 0.038160 1.895550 0.005030 
#    z -0.022390 0.005030 1.892890 
# 
# From -- ./inp_files/437125.got.cif
#   From: 2010.05.17/outbox.cif.g08.bks.cpg/sg2_219_cif.got.tgz:437125.got - 2010.06.03 11:33:40.
