data_PCOD9081207
_publ_section_title
;
Structure prediction by ZEFSAII (Michael W. Deem and Ramdas Pophale) SiO2 
 PCOD9081207
Probable space group: P -1
;
_chemical_formula_sum "Si O2"
_cell_formula_units_Z 16
_cell_length_a 7.932341
_cell_length_b 7.623255
_cell_length_c 11.034936
_cell_angle_alpha 110.207087
_cell_angle_beta 107.243074
_cell_angle_gamma 89.999976
_cell_volume 594.154113
_symmetry_space_group_name_H-M "P -1"
_symmetry_group_IT_number 2
_symmetry_cell_setting 'triclinic'
loop_
_space_group_symop_operation_xyz
x,y,z
-x,-y,-z
loop_
_atom_site_type_symbol
_atom_site_label
_atom_site_fract_x
_atom_site_fract_y
_atom_site_fract_z
Si Si1 0.131431 0.496307 0.414960
Si Si2 0.868569 0.081347 0.585040
Si Si3 0.302847 0.164912 0.912285
Si Si4 0.820753 0.623375 0.844444
Si Si5 0.582647 0.378191 0.328779
Si Si6 0.820753 0.221070 0.844444
Si Si7 0.417352 0.049412 0.671221
Si Si8 0.302848 0.747373 0.912285
O O1 0.140840 0.703035 0.406070
O O2 0.089739 0.345443 0.262056
O O3 0.320962 0.484498 0.517904
O O4 0.000000 0.500000 0.500000
O O5 0.910261 0.083387 0.737945
O O6 0.679038 0.966595 0.482096
O O7 0.000000 0.000000 0.500000
O O8 0.291235 0.151915 0.761959
O O9 0.500000 0.274009 0.000000
O O10 0.177884 0.246051 0.005117
O O11 0.311398 0.953651 0.907302
O O12 0.612931 0.593920 0.751161
O O13 0.872935 0.429134 0.858268
O O14 0.572819 0.163734 0.327467
O O15 0.708765 0.389955 0.238041
O O16 0.612930 0.157242 0.751161
O O17 0.822115 0.240934 0.994883
#
# Coordination Sequence:
#
# PCOD9081207 Si02
#       8
#     2   2   2   2   2   2   2   2
#     4  10  22  37  51  71 100 133 169 206 244 290
#     4  10  22  37  51  71 100 133 169 206 244 290
#     4   8  15  29  50  74  99 128 162 200 241 288
#     4  10  19  31  51  79 104 126 159 204 251 295
#     4   9  18  34  54  75  99 129 167 204 239 290
#     4  10  19  31  51  79 104 126 159 204 251 295
#     4   9  18  34  54  75  99 129 167 204 239 290
#     4   8  15  29  50  74  99 128 162 200 241 288
#
# _framework density 26.929039
#
# number of rings (size 3 to 8) (size 9 to 14) (size 15 to 20)
#    0.000    2.750    0.000    3.000    0.000    7.500 
#    0.000    1.250    0.000    7.500    0.000    0.000 
#    0.000    0.000    0.000    0.000    0.000    0.000 
#
# Total GULP energy -89369.501094 kJ/mol
# GULP energy per Si atom -5585.593818 kJ/mol
# Density = 2.686775 g / cm^3
# Si number density = 26.929039 Si / 1000 Ang^3
#
#
#
# Elastic Constant Matrix: (Units=GPa)
#
#
# Indices 1 2 3 4 5 6 
#
# 1 97.8924 -19.6346 29.2664 -3.1914 -28.2916 1.5207
# 2 -19.6346 62.1634 20.1791 0.5557 8.8663 0.2230
# 3 29.2664 20.1791 260.1097 -13.8258 -15.0673 0.3056
# 4 -3.1914 0.5557 -13.8258 17.8774 1.0541 -4.8544
# 5 -28.2916 8.8663 -15.0673 1.0541 56.7202 -1.8507
# 6 1.5207 0.2230 0.3056 -4.8544 -1.8507 26.4767
#
#
#
# Elastic Compliance Matrix: (Units=1/GPa)
#
#
# Indices 1 2 3 4 5 6 
#
# 1 0.013009 0.003772 -0.001398 0.000733 0.005506 -0.000244
# 2 0.003772 0.018155 -0.002000 -0.001550 -0.001483 -0.000734
# 3 -0.001398 -0.002000 0.004377 0.003347 0.000739 0.000712
# 4 0.000733 -0.001550 0.003347 0.061730 0.000719 0.011301
# 5 0.005506 -0.001483 0.000739 0.000719 0.020833 0.001276
# 6 -0.000244 -0.000734 0.000712 0.011301 0.001276 0.039942
#
#
# Mechanical properties :
#
#
# Convention : Reuss Voigt Hill
#
# Bulk Modulus (GPa) = 27.55760 53.30971 40.43365
# Shear Modulus (GPa) = 29.51665 46.23850 37.87758
#
# Velocity S-wave (km/s) = 3.31432 4.14823 3.75450
# Velocity P-wave (km/s) = 4.99018 6.54087 5.81743
#
# Compressibility (1/GPa) = 0.03628763
#
# Stress axis : x y z
#
# Youngs Moduli (GPa) = 76.87115 55.08037 228.47140
#
# Poissons Ratio (x) = -0.20775 0.31942
# Poissons Ratio (y) = -0.28993 0.45701
# Poissons Ratio (z) = 0.10747 0.11018
#
# Static dielectric constant tensor:
#      x y z
#    x 2.245610 0.000170 -0.031530 
#    y 0.000170 1.913640 -0.018300 
#    z -0.031530 -0.018300 2.187440 
# 
# From -- ./inp_files/199618.got.cif
#   From: 2010.05.17/outbox.cif.g08.bks.cpg/sg2_100_cif.got.tgz:199618.got - 2010.06.03 11:33:40.
