data_PCOD9081963
_publ_section_title
;
Structure prediction by ZEFSAII (Michael W. Deem and Ramdas Pophale) SiO2 
 PCOD9081963
Probable space group: P -1
;
_chemical_formula_sum "Si O2"
_cell_formula_units_Z 16
_cell_length_a 14.587657
_cell_length_b 12.686036
_cell_length_c 10.019327
_cell_angle_alpha 121.869182
_cell_angle_beta 26.448652
_cell_angle_gamma 133.068798
_cell_volume 583.139497
_symmetry_space_group_name_H-M "P -1"
_symmetry_group_IT_number 2
_symmetry_cell_setting 'triclinic'
loop_
_space_group_symop_operation_xyz
x,y,z
-x,-y,-z
loop_
_atom_site_type_symbol
_atom_site_label
_atom_site_fract_x
_atom_site_fract_y
_atom_site_fract_z
Si Si1 0.744684 0.448330 0.890165
Si Si2 0.636692 0.962262 0.405324
Si Si3 0.814259 0.014606 0.650610
Si Si4 0.685934 0.709149 0.131074
Si Si5 0.688444 0.743456 0.465681
Si Si6 0.135112 0.511051 0.628093
Si Si7 0.713576 0.162236 0.665153
Si Si8 0.897172 0.278367 0.992596
O O1 0.788997 0.605541 0.892058
O O2 0.524020 0.383085 0.245431
O O3 0.683263 0.301749 0.790431
O O4 0.994070 0.486045 0.660654
O O5 0.768964 0.882981 0.121751
O O6 0.500000 0.000000 0.500000
O O7 0.783812 0.108987 0.404065
O O8 0.395311 0.825981 0.704744
O O9 0.708936 0.890153 0.587821
O O10 0.870968 0.155305 0.578879
O O11 0.575217 0.968058 0.018221
O O12 0.000000 0.000000 0.500000
O O13 0.648094 0.695242 0.332518
O O14 0.428229 0.616512 0.322364
O O15 0.964503 0.790724 0.172339
O O16 0.033684 0.355435 0.729447
O O17 0.043052 0.592341 0.895882
#
# Coordination Sequence:
#
# PCOD9081963 Si02
#       8
#     2   2   2   2   2   2   2   2
#     4  11  21  33  57  92 128 149 188 250 316 370
#     4  11  24  44  63  82 120 169 214 252 285 348
#     4  10  21  34  56  88 128 159 183 243 314 371
#     4  11  21  38  60  90 122 157 203 247 297 362
#     4  11  18  32  57  90 124 153 191 238 311 365
#     4  10  20  31  56  92 125 154 184 247 313 356
#     4  10  23  38  57  88 124 161 198 242 310 362
#     4  10  19  32  58  88 120 153 204 244 294 358
#
# _framework density 27.43769
#
# number of rings (size 3 to 8) (size 9 to 14) (size 15 to 20)
#    0.000    1.500    3.750    3.375    5.250    0.000 
#    0.000    1.250    0.000    3.000    0.000    0.000 
#    0.000    0.000    0.000    0.000    0.000    0.000 
#
# Total GULP energy -89366.422714 kJ/mol
# GULP energy per Si atom -5585.401420 kJ/mol
# Density = 2.737524 g / cm^3
# Si number density = 27.437690 Si / 1000 Ang^3
#
#
#
# Elastic Constant Matrix: (Units=GPa)
#
#
# Indices 1 2 3 4 5 6 
#
# 1 101.6001 62.7623 37.0217 19.3153 -24.0983 -5.1340
# 2 62.7623 179.7247 32.9450 39.9550 4.5219 -1.8666
# 3 37.0217 32.9450 100.3857 36.5183 -18.7718 -6.9709
# 4 19.3153 39.9550 36.5183 54.4672 -11.4585 -1.0450
# 5 -24.0983 4.5219 -18.7718 -11.4585 42.2505 3.7712
# 6 -5.1340 -1.8666 -6.9709 -1.0450 3.7712 47.4277
#
#
#
# Elastic Compliance Matrix: (Units=1/GPa)
#
#
# Indices 1 2 3 4 5 6 
#
# 1 0.016434 -0.005963 -0.003348 0.002741 0.009234 0.000378
# 2 -0.005963 0.009067 0.000307 -0.005974 -0.005864 0.000091
# 3 -0.003348 0.000307 0.014648 -0.008375 0.002165 0.001446
# 4 0.002741 -0.005974 -0.008375 0.028703 0.006359 -0.001043
# 5 0.009234 -0.005864 0.002165 0.006359 0.032369 -0.001347
# 6 0.000378 0.000091 0.001446 -0.001043 -0.001347 0.021426
#
#
# Mechanical properties :
#
#
# Convention : Reuss Voigt Hill
#
# Bulk Modulus (GPa) = 45.16769 71.90759 58.53764
# Shear Modulus (GPa) = 33.77565 45.42783 39.60174
#
# Velocity S-wave (km/s) = 3.51236 4.07341 3.80324
# Velocity P-wave (km/s) = 5.73991 6.95615 6.37709
#
# Compressibility (1/GPa) = 0.02213972
#
# Stress axis : x y z
#
# Youngs Moduli (GPa) = 60.84830 110.29296 68.27027
#
# Poissons Ratio (x) = 0.65769 0.22857
# Poissons Ratio (y) = 0.36284 -0.02093
# Poissons Ratio (z) = 0.20372 -0.03381
#
# Static dielectric constant tensor:
#      x y z
#    x 2.204460 -0.068290 0.110150 
#    y -0.068290 2.205270 -0.044800 
#    z 0.110150 -0.044800 2.174210 
# 
# From -- ./inp_files/451586.got.cif
#   From: 2010.05.17/outbox.cif.g08.bks.cpg/sg2_226_cif.got.tgz:451586.got - 2010.06.03 11:33:40.
