data_PCOD9081870
_publ_section_title
;
Structure prediction by ZEFSAII (Michael W. Deem and Ramdas Pophale) SiO2 
 PCOD9081870
Probable space group: P -1
;
_chemical_formula_sum "Si O2"
_cell_formula_units_Z 16
_cell_length_a 7.618381
_cell_length_b 21.743449
_cell_length_c 12.349637
_cell_angle_alpha 32.154989
_cell_angle_beta 114.370430
_cell_angle_gamma 133.803319
_cell_volume 701.173281
_symmetry_space_group_name_H-M "P -1"
_symmetry_group_IT_number 2
_symmetry_cell_setting 'triclinic'
loop_
_space_group_symop_operation_xyz
x,y,z
-x,-y,-z
loop_
_atom_site_type_symbol
_atom_site_label
_atom_site_fract_x
_atom_site_fract_y
_atom_site_fract_z
Si Si1 0.282429 0.480022 0.622585
Si Si2 0.948898 0.610827 0.755153
Si Si3 0.707140 0.473703 0.670034
Si Si4 0.521042 0.038217 0.575541
Si Si5 0.785402 0.910671 0.877636
Si Si6 0.328595 0.247172 0.534339
Si Si7 0.067084 0.174037 0.161196
Si Si8 0.487070 0.629772 0.833156
O O1 0.551208 0.525509 0.581986
O O2 0.136504 0.451203 0.516171
O O3 0.414924 0.636810 0.493567
O O4 0.126070 0.320353 0.894898
O O5 0.876680 0.524014 0.748632
O O6 0.808643 0.681976 0.611141
O O7 0.258898 0.771581 0.623228
O O8 0.796119 0.483623 0.005267
O O9 0.456310 0.280073 0.871082
O O10 0.500000 0.000000 0.500000
O O11 0.637967 0.970349 0.756412
O O12 0.232162 0.948326 0.684778
O O13 0.870555 0.902632 0.791626
O O14 0.084423 0.056488 0.789469
O O15 0.448132 0.276396 0.400977
O O16 0.278609 0.251033 0.197335
O O17 0.500000 0.500000 0.000000
#
# Coordination Sequence:
#
# PCOD9081870 Si02
#       8
#     2   2   2   2   2   2   2   2
#     4   9  17  32  59  86 107 156 203 231 281 356
#     4   9  17  35  54  79 116 158 182 236 297 336
#     4   9  17  35  58  80 116 153 198 238 284 340
#     4  11  24  37  59  88 121 152 192 237 294 351
#     4  10  21  38  57  87 121 149 191 246 289 338
#     4   9  17  28  54  85 112 150 189 236 292 340
#     4  11  20  38  60  87 115 155 197 232 294 344
#     4  10  15  30  58  80 111 152 188 227 290 351
#
# _framework density 22.818897
#
# number of rings (size 3 to 8) (size 9 to 14) (size 15 to 20)
#    0.000    2.250    5.000    2.250    0.000    2.500 
#    0.000    4.375    0.000    0.000    0.000    0.000 
#    0.000    0.000    0.000    0.000    0.000    0.000 
#
# Total GULP energy -89300.679322 kJ/mol
# GULP energy per Si atom -5581.292458 kJ/mol
# Density = 2.276696 g / cm^3
# Si number density = 22.818897 Si / 1000 Ang^3
#
#
#
# Elastic Constant Matrix: (Units=GPa)
#
#
# Indices 1 2 3 4 5 6 
#
# 1 75.1088 11.3508 37.8103 -13.0866 -25.2085 4.5576
# 2 11.3508 113.8807 86.3885 -3.9620 -17.7997 -1.4710
# 3 37.8103 86.3885 112.6144 -7.8555 -26.2081 -2.7216
# 4 -13.0866 -3.9620 -7.8555 36.5369 -4.4063 -1.2332
# 5 -25.2085 -17.7997 -26.2081 -4.4063 37.1946 -12.1354
# 6 4.5576 -1.4710 -2.7216 -1.2332 -12.1354 24.3072
#
#
#
# Elastic Compliance Matrix: (Units=1/GPa)
#
#
# Indices 1 2 3 4 5 6 
#
# 1 0.023252 0.007486 -0.009441 0.008975 0.014671 0.002816
# 2 0.007486 0.023655 -0.020166 0.001101 0.001918 -0.001216
# 3 -0.009441 -0.020166 0.029606 0.001972 0.007573 0.007746
# 4 0.008975 0.001101 0.001972 0.033110 0.014352 0.007449
# 5 0.014671 0.001918 0.007573 0.014352 0.053085 0.025444
# 6 0.002816 -0.001216 0.007746 0.007449 0.025444 0.054487
#
#
# Mechanical properties :
#
#
# Convention : Reuss Voigt Hill
#
# Bulk Modulus (GPa) = 30.98677 63.63367 47.31022
# Shear Modulus (GPa) = 18.36932 30.67803 24.52367
#
# Velocity S-wave (km/s) = 2.84034 3.67060 3.28183
# Velocity P-wave (km/s) = 4.93615 6.77579 5.92777
#
# Compressibility (1/GPa) = 0.03227184
#
# Stress axis : x y z
#
# Youngs Moduli (GPa) = 43.00638 42.27473 33.77657
#
# Poissons Ratio (x) = -0.31648 0.31890
# Poissons Ratio (y) = -0.32196 0.68113
# Poissons Ratio (z) = 0.40604 0.85250
#
# Static dielectric constant tensor:
#      x y z
#    x 1.910560 -0.009760 0.043790 
#    y -0.009760 1.884090 0.006410 
#    z 0.043790 0.006410 1.903330 
# 
# From -- ./inp_files/404714.got.cif
#   From: 2010.05.17/outbox.cif.g08.bks.cpg/sg2_203_cif.got.tgz:404714.got - 2010.06.03 11:33:40.
