data_PCOD9081251
_publ_section_title
;
Structure prediction by ZEFSAII (Michael W. Deem and Ramdas Pophale) SiO2 
 PCOD9081251
Probable space group: P -1
;
_chemical_formula_sum "Si O2"
_cell_formula_units_Z 14
_cell_length_a 11.511999
_cell_length_b 21.854239
_cell_length_c 19.131391
_cell_angle_alpha 17.649106
_cell_angle_beta 23.255885
_cell_angle_gamma 31.828867
_cell_volume 562.560559
_symmetry_space_group_name_H-M "P -1"
_symmetry_group_IT_number 2
_symmetry_cell_setting 'triclinic'
loop_
_space_group_symop_operation_xyz
x,y,z
-x,-y,-z
loop_
_atom_site_type_symbol
_atom_site_label
_atom_site_fract_x
_atom_site_fract_y
_atom_site_fract_z
Si Si1 0.110907 0.846982 0.830993
Si Si2 0.351000 0.583093 0.694555
Si Si3 0.635589 0.281581 0.955936
Si Si4 0.643477 0.975246 0.735255
Si Si5 0.173357 0.039283 0.724231
Si Si6 0.718538 0.507741 0.804255
Si Si7 0.652927 0.636499 0.203586
O O1 0.463893 0.926689 0.529720
O O2 0.032002 0.003076 0.763560
O O3 0.064120 0.633037 0.133631
O O4 0.934074 0.788912 0.920584
O O5 0.583022 0.460435 0.736528
O O6 0.321123 0.535527 0.680910
O O7 0.426656 0.816733 0.423236
O O8 0.000000 0.500000 0.000000
O O9 0.557314 0.389327 0.954334
O O10 0.476731 0.091128 0.202682
O O11 0.895395 0.169106 0.964776
O O12 0.525934 0.799220 0.049465
O O13 0.000000 0.000000 0.500000
O O14 0.142175 0.251195 0.547462
O O15 0.500000 0.500000 0.000000
O O16 0.500000 0.500000 0.500000
#
# Coordination Sequence:
#
# PCOD9081251 Si02
#       7
#     2   2   2   2   2   2   2
#     4   9  19  32  51  83 121 155 198 248 309 363
#     4  11  23  37  60  90 118 166 214 257 303 362
#     4  10  19  31  52  85 121 144 195 258 312 357
#     4  11  21  37  60  87 119 164 211 255 302 359
#     4   9  17  31  54  85 116 155 195 263 309 347
#     4   9  18  29  50  82 117 152 195 256 313 354
#     4  11  25  41  61  92 133 168 200 252 315 378
#
# _framework density 24.886209999999998
#
# number of rings (size 3 to 8) (size 9 to 14) (size 15 to 20)
#    0.000    2.000    2.857    2.571    4.000    1.714 
#    0.000    0.000    0.000   13.714    0.000   16.000 
#    0.000    0.000    0.000    0.000    0.000    0.000 
#
# Total GULP energy -77945.195115 kJ/mol
# GULP energy per Si atom -5567.513937 kJ/mol
# Density = 2.482957 g / cm^3
# Si number density = 24.886210 Si / 1000 Ang^3
#
#
#
# Elastic Constant Matrix: (Units=GPa)
#
#
# Indices 1 2 3 4 5 6 
#
# 1 196.5390 69.1278 48.1684 -7.4551 -5.2916 63.0543
# 2 69.1278 100.6841 65.6538 -35.3301 -9.8161 42.9849
# 3 48.1684 65.6538 110.4474 -16.6192 12.9985 9.2923
# 4 -7.4551 -35.3301 -16.6192 53.0760 5.1016 -10.8776
# 5 -5.2916 -9.8161 12.9985 5.1016 43.7759 -10.9662
# 6 63.0543 42.9849 9.2923 -10.8776 -10.9662 54.4108
#
#
#
# Elastic Compliance Matrix: (Units=1/GPa)
#
#
# Indices 1 2 3 4 5 6 
#
# 1 0.009259 -0.001188 -0.002791 -0.002341 -0.000523 -0.009888
# 2 -0.001188 0.037323 -0.018645 0.013921 0.006944 -0.020742
# 3 -0.002791 -0.018645 0.020697 -0.003097 -0.007207 0.012357
# 4 -0.002341 0.013921 -0.003097 0.026292 0.000072 -0.002486
# 5 -0.000523 0.006944 -0.007207 0.000072 0.026918 0.001791
# 6 -0.009888 -0.020742 0.012357 -0.002486 0.001791 0.043977
#
#
# Mechanical properties :
#
#
# Convention : Reuss Voigt Hill
#
# Bulk Modulus (GPa) = 45.39038 85.95227 65.67133
# Shear Modulus (GPa) = 23.03510 45.23390 34.13450
#
# Velocity S-wave (km/s) = 3.04570 4.26799 3.70756
# Velocity P-wave (km/s) = 5.53598 7.67468 6.69133
#
# Compressibility (1/GPa) = 0.02203110
#
# Stress axis : x y z
#
# Youngs Moduli (GPa) = 107.99738 26.79292 48.31596
#
# Poissons Ratio (x) = 0.03184 0.13483
# Poissons Ratio (y) = 0.12835 0.90087
# Poissons Ratio (z) = 0.30137 0.49957
#
# Static dielectric constant tensor:
#      x y z
#    x 1.971570 -0.038390 -0.017810 
#    y -0.038390 1.994090 0.042310 
#    z -0.017810 0.042310 2.148960 
# 
# From -- ./inp_files/570660.got.cif
#   From: 2010.05.17/outbox.cif.g08.bks.cpg/sg2_286_cif.got.tgz:570660.got - 2010.06.03 11:33:40.
