data_PCOD9081416
_publ_section_title
;
Structure prediction by ZEFSAII (Michael W. Deem and Ramdas Pophale) SiO2 
 PCOD9081416
Probable space group: P -1
;
_chemical_formula_sum "Si O2"
_cell_formula_units_Z 14
_cell_length_a 9.698992
_cell_length_b 9.333866
_cell_length_c 16.103219
_cell_angle_alpha 121.812668
_cell_angle_beta 30.347302
_cell_angle_gamma 109.853394
_cell_volume 602.905945
_symmetry_space_group_name_H-M "P -1"
_symmetry_group_IT_number 2
_symmetry_cell_setting 'triclinic'
loop_
_space_group_symop_operation_xyz
x,y,z
-x,-y,-z
loop_
_atom_site_type_symbol
_atom_site_label
_atom_site_fract_x
_atom_site_fract_y
_atom_site_fract_z
Si Si1 0.380411 0.744397 0.995378
Si Si2 0.508195 0.940102 0.287295
Si Si3 0.005221 0.429849 0.331149
Si Si4 0.189224 0.749138 0.481777
Si Si5 0.435556 0.063974 0.180704
Si Si6 0.856964 0.717893 0.356136
Si Si7 0.247667 0.853321 0.656493
O O1 0.377878 0.826675 0.930422
O O2 0.676014 0.598877 0.812090
O O3 0.112688 0.686365 0.149238
O O4 0.407477 0.903996 0.089089
O O5 0.114313 0.191426 0.386854
O O6 0.551235 0.985690 0.184744
O O7 0.738211 0.988042 0.243134
O O8 0.437837 0.760557 0.293760
O O9 0.816018 0.415391 0.506572
O O10 0.976205 0.256416 0.243284
O O11 0.914247 0.585997 0.362689
O O12 0.209260 0.887269 0.588707
O O13 0.784680 0.911325 0.493015
O O14 0.560627 0.721893 0.467332
#
# Coordination Sequence:
#
# PCOD9081416 Si02
#       7
#     2   2   2   2   2   2   2
#     4  10  20  33  56  75 111 142 173 211 270 313
#     4  10  19  31  59  81 104 132 184 220 258 300
#     4   9  19  34  54  79 107 140 176 209 262 322
#     4   9  17  32  54  78 105 135 172 219 254 310
#     4  10  19  35  53  81 108 138 173 223 262 308
#     4  10  19  33  59  79 101 140 181 216 255 314
#     4   8  19  32  57  79 106 136 175 217 260 309
#
# _framework density 23.220869
#
# number of rings (size 3 to 8) (size 9 to 14) (size 15 to 20)
#    1.714    0.857    1.429    1.714    0.000    0.000 
#    0.000    3.571    3.143    0.857    0.000    0.000 
#    0.000    0.000    0.000    0.000    0.000    0.000 
#
# Total GULP energy -78019.251403 kJ/mol
# GULP energy per Si atom -5572.803672 kJ/mol
# Density = 2.316802 g / cm^3
# Si number density = 23.220869 Si / 1000 Ang^3
#
#
#
# Elastic Constant Matrix: (Units=GPa)
#
#
# Indices 1 2 3 4 5 6 
#
# 1 111.3480 48.9832 45.8500 -26.1406 0.2804 -17.7785
# 2 48.9832 119.4307 36.7304 -28.0334 4.0838 -27.7327
# 3 45.8500 36.7304 67.4640 -25.8699 -12.6983 -12.7423
# 4 -26.1406 -28.0334 -25.8699 26.0384 -4.6819 9.0589
# 5 0.2804 4.0838 -12.6983 -4.6819 29.5222 -2.1252
# 6 -17.7785 -27.7327 -12.7423 9.0589 -2.1252 34.3356
#
#
#
# Elastic Compliance Matrix: (Units=1/GPa)
#
#
# Indices 1 2 3 4 5 6 
#
# 1 0.013977 -0.002252 -0.006869 0.003810 -0.002046 0.001737
# 2 -0.002252 0.013238 -0.001392 0.008119 -0.000629 0.006828
# 3 -0.006869 -0.001392 0.036390 0.030835 0.020943 0.001985
# 4 0.003810 0.008119 0.030835 0.086692 0.025758 -0.001304
# 5 -0.002046 -0.000629 0.020943 0.025758 0.047240 0.002332
# 6 0.001737 0.006828 0.001985 -0.001304 0.002332 0.036764
#
#
# Mechanical properties :
#
#
# Convention : Reuss Voigt Hill
#
# Bulk Modulus (GPa) = 23.48602 62.37442 42.93022
# Shear Modulus (GPa) = 18.55153 29.09117 23.82135
#
# Velocity S-wave (km/s) = 2.82958 3.54334 3.20638
# Velocity P-wave (km/s) = 4.56196 6.60757 5.67765
#
# Compressibility (1/GPa) = 0.04257851
#
# Stress axis : x y z
#
# Youngs Moduli (GPa) = 71.54551 75.54147 27.48041
#
# Poissons Ratio (x) = 0.17015 0.18876
# Poissons Ratio (y) = 0.16115 0.03825
# Poissons Ratio (z) = 0.49143 0.10514
#
# Static dielectric constant tensor:
#      x y z
#    x 1.858790 0.051670 0.043070 
#    y 0.051670 1.934660 0.027720 
#    z 0.043070 0.027720 1.919830 
# 
# From -- ./inp_files/495107.got.cif
#   From: 2010.05.17/outbox.cif.g08.bks.cpg/sg2_248_cif.got.tgz:495107.got - 2010.06.03 11:33:40.
