data_PCOD9081244
_publ_section_title
;
Structure prediction by ZEFSAII (Michael W. Deem and Ramdas Pophale) SiO2 
 PCOD9081244
Probable space group: P -1
;
_chemical_formula_sum "Si O2"
_cell_formula_units_Z 16
_cell_length_a 12.304182
_cell_length_b 12.027104
_cell_length_c 16.027496
_cell_angle_alpha 31.725560
_cell_angle_beta 128.410294
_cell_angle_gamma 103.854879
_cell_volume 696.632888
_symmetry_space_group_name_H-M "P -1"
_symmetry_group_IT_number 2
_symmetry_cell_setting 'triclinic'
loop_
_space_group_symop_operation_xyz
x,y,z
-x,-y,-z
loop_
_atom_site_type_symbol
_atom_site_label
_atom_site_fract_x
_atom_site_fract_y
_atom_site_fract_z
Si Si1 0.446410 0.331421 0.188313
Si Si2 0.918921 0.794662 0.144730
Si Si3 0.286826 0.823120 0.443414
Si Si4 0.061306 0.695422 0.703476
Si Si5 0.893788 0.295268 0.873519
Si Si6 0.370667 0.914293 0.744005
Si Si7 0.757511 0.554096 0.234071
Si Si8 0.474293 0.669862 0.461983
O O1 0.575270 0.185101 0.425790
O O2 0.564908 0.126966 0.294678
O O3 0.233213 0.455100 0.003171
O O4 0.404158 0.627627 0.963280
O O5 0.911910 0.017444 0.051110
O O6 0.722469 0.995753 0.866180
O O7 0.890752 0.603101 0.299350
O O8 0.086241 0.646736 0.249889
O O9 0.233005 0.666660 0.566194
O O10 0.413995 0.627502 0.547165
O O11 0.084195 0.147205 0.112170
O O12 0.157560 0.587182 0.727198
O O13 0.000000 0.000000 0.500000
O O14 0.856957 0.791738 0.543539
O O15 0.680921 0.563609 0.637598
O O16 0.527274 0.850013 0.922457
O O17 0.500000 0.500000 0.500000
#
# Coordination Sequence:
#
# PCOD9081244 Si02
#       8
#     2   2   2   2   2   2   2   2
#     4   8  15  27  45  72 105 136 169 207 250 307
#     4   9  19  37  55  73 103 140 179 219 262 314
#     4  10  19  31  52  83 109 132 173 222 265 309
#     4   9  16  29  49  75 112 147 167 197 260 327
#     4   9  19  36  55  71  98 145 184 212 258 318
#     4   8  15  28  44  70 109 141 163 200 258 313
#     4  10  20  31  51  86 113 131 169 225 268 302
#     4   9  19  37  55  69  95 141 185 214 253 313
#
# _framework density 22.96762
#
# number of rings (size 3 to 8) (size 9 to 14) (size 15 to 20)
#    0.000    3.000    0.000    3.000    0.000    5.500 
#    0.000    2.500    0.000   12.000    0.000   24.500 
#    0.000    0.000    0.000    0.000    0.000    0.000 
#
# Total GULP energy -89242.481514 kJ/mol
# GULP energy per Si atom -5577.655095 kJ/mol
# Density = 2.291534 g / cm^3
# Si number density = 22.967620 Si / 1000 Ang^3
#
#
#
# Elastic Constant Matrix: (Units=GPa)
#
#
# Indices 1 2 3 4 5 6 
#
# 1 93.1702 32.2881 37.5382 6.4016 28.8906 8.0415
# 2 32.2881 80.0755 35.0054 14.2495 -0.8225 4.8075
# 3 37.5382 35.0054 119.1190 24.1100 29.6353 -13.6829
# 4 6.4016 14.2495 24.1100 38.1412 4.9895 1.5975
# 5 28.8906 -0.8225 29.6353 4.9895 35.0453 -3.2382
# 6 8.0415 4.8075 -13.6829 1.5975 -3.2382 35.2402
#
#
#
# Elastic Compliance Matrix: (Units=1/GPa)
#
#
# Indices 1 2 3 4 5 6 
#
# 1 0.018882 -0.007508 -0.000916 0.002500 -0.015805 -0.005206
# 2 -0.007508 0.018814 -0.005508 -0.003739 0.011659 -0.001751
# 3 -0.000916 -0.005508 0.014829 -0.006042 -0.010497 0.006027
# 4 0.002500 -0.003739 -0.006042 0.031429 -0.001885 -0.004004
# 5 -0.015805 0.011659 -0.010497 -0.001885 0.051234 0.002734
# 6 -0.005206 -0.001751 0.006027 -0.004004 0.002734 0.032577
#
#
# Mechanical properties :
#
#
# Convention : Reuss Voigt Hill
#
# Bulk Modulus (GPa) = 40.54977 55.78089 48.16533
# Shear Modulus (GPa) = 24.52802 34.18753 29.35777
#
# Velocity S-wave (km/s) = 3.27148 3.86231 3.57911
# Velocity P-wave (km/s) = 5.65364 6.65052 6.17224
#
# Compressibility (1/GPa) = 0.02466106
#
# Stress axis : x y z
#
# Youngs Moduli (GPa) = 52.95952 53.15330 67.43625
#
# Poissons Ratio (x) = 0.39908 0.06178
# Poissons Ratio (y) = 0.39762 0.37142
# Poissons Ratio (z) = 0.04852 0.29275
#
# Static dielectric constant tensor:
#      x y z
#    x 1.956580 0.102380 -0.023650 
#    y 0.102380 1.872630 0.006880 
#    z -0.023650 0.006880 1.899820 
# 
# From -- ./inp_files/519546.got.cif
#   From: 2010.05.17/outbox.cif.g08.bks.cpg/sg2_260_cif.got.tgz:519546.got - 2010.06.03 11:33:40.
