data_PCOD9081226
_publ_section_title
;
Structure prediction by ZEFSAII (Michael W. Deem and Ramdas Pophale) SiO2 
 PCOD9081226
Probable space group: P -1
;
_chemical_formula_sum "Si O2"
_cell_formula_units_Z 14
_cell_length_a 8.676992
_cell_length_b 9.372608
_cell_length_c 7.555638
_cell_angle_alpha 78.522692
_cell_angle_beta 93.346921
_cell_angle_gamma 74.234903
_cell_volume 575.397596
_symmetry_space_group_name_H-M "P -1"
_symmetry_group_IT_number 2
_symmetry_cell_setting 'triclinic'
loop_
_space_group_symop_operation_xyz
x,y,z
-x,-y,-z
loop_
_atom_site_type_symbol
_atom_site_label
_atom_site_fract_x
_atom_site_fract_y
_atom_site_fract_z
Si Si1 0.615065 0.131303 0.487212
Si Si2 0.636486 0.005168 0.145666
Si Si3 0.576633 0.609312 0.363943
Si Si4 0.088581 0.091877 0.259136
Si Si5 0.183511 0.648772 0.701220
Si Si6 0.038998 0.166224 0.819584
Si Si7 0.283013 0.702615 0.071674
O O1 0.568893 0.070774 0.314489
O O2 0.470785 0.234331 0.569237
O O3 0.719415 0.243456 0.404929
O O4 0.736381 0.996517 0.638374
O O5 0.778078 0.846721 0.218845
O O6 0.719675 0.128121 0.035376
O O7 0.500000 0.000000 0.000000
O O8 0.500000 0.500000 0.500000
O O9 0.758103 0.511962 0.353642
O O10 0.460772 0.637223 0.177170
O O11 0.999064 0.243409 0.324364
O O12 0.072840 0.137053 0.040420
O O13 0.994573 0.962797 0.279944
O O14 0.243438 0.620960 0.915730
O O15 0.859409 0.285178 0.795838
#
# Coordination Sequence:
#
# PCOD9081226 Si02
#       7
#     2   2   2   2   2   2   2
#     4  10  18  29  47  75 108 128 165 220 251 295
#     4  11  21  32  49  78 106 139 170 204 261 307
#     4  10  19  29  47  80 105 131 165 213 265 298
#     4  10  15  29  52  75 100 128 164 214 260 283
#     4   9  18  26  47  79 104 128 163 207 266 300
#     4  10  16  31  53  72 104 130 162 213 264 286
#     4  10  17  34  51  72 109 134 163 217 251 297
#
# _framework density 24.330998999999998
#
# number of rings (size 3 to 8) (size 9 to 14) (size 15 to 20)
#    0.000    2.000    7.143    0.857    0.000    0.000 
#    0.000    2.857    0.000    0.000    0.000   44.000 
#    0.000    0.000    0.000    0.000    0.000    0.000 
#
# Total GULP energy -78077.192221 kJ/mol
# GULP energy per Si atom -5576.942302 kJ/mol
# Density = 2.427562 g / cm^3
# Si number density = 24.330999 Si / 1000 Ang^3
#
#
#
# Elastic Constant Matrix: (Units=GPa)
#
#
# Indices 1 2 3 4 5 6 
#
# 1 79.1370 45.4566 21.4058 12.4679 2.0526 -30.8514
# 2 45.4566 176.9615 48.6292 26.2177 -6.4162 -52.7509
# 3 21.4058 48.6292 110.5939 7.8561 13.7084 -18.9077
# 4 12.4679 26.2177 7.8561 33.8197 -3.1656 -14.2031
# 5 2.0526 -6.4162 13.7084 -3.1656 20.2641 4.2301
# 6 -30.8514 -52.7509 -18.9077 -14.2031 4.2301 42.2613
#
#
#
# Elastic Compliance Matrix: (Units=1/GPa)
#
#
# Indices 1 2 3 4 5 6 
#
# 1 0.018305 -0.001005 -0.000394 -0.001285 -0.004603 0.011961
# 2 -0.001005 0.009899 -0.002735 -0.002513 0.002757 0.009278
# 3 -0.000394 -0.002735 0.011944 -0.000359 -0.009477 0.002470
# 4 -0.001285 -0.002513 -0.000359 0.035489 0.003590 0.007332
# 5 -0.004603 0.002757 -0.009477 0.003590 0.059520 -0.008910
# 6 0.011961 0.009278 0.002470 0.007332 -0.008910 0.048436
#
#
# Mechanical properties :
#
#
# Convention : Reuss Voigt Hill
#
# Bulk Modulus (GPa) = 31.36848 66.40840 48.88844
# Shear Modulus (GPa) = 24.69302 36.01574 30.35438
#
# Velocity S-wave (km/s) = 3.18917 3.85156 3.53591
# Velocity P-wave (km/s) = 5.14602 6.86530 6.06687
#
# Compressibility (1/GPa) = 0.03187913
#
# Stress axis : x y z
#
# Youngs Moduli (GPa) = 54.62970 101.02474 83.72750
#
# Poissons Ratio (x) = 0.10148 0.03302
# Poissons Ratio (y) = 0.05488 0.22900
# Poissons Ratio (z) = 0.02155 0.27631
#
# Static dielectric constant tensor:
#      x y z
#    x 2.005470 -0.048280 -0.029850 
#    y -0.048280 2.043230 -0.070340 
#    z -0.029850 -0.070340 1.991310 
# 
# From -- ./inp_files/259615.got.cif
#   From: 2010.05.17/outbox.cif.g08.bks.cpg/sg2_130_cif.got.tgz:259615.got - 2010.06.03 11:33:40.
