data_PCOD9081200
_publ_section_title
;
Structure prediction by ZEFSAII (Michael W. Deem and Ramdas Pophale) SiO2 
 PCOD9081200
Probable space group: P -1
;
_chemical_formula_sum "Si O2"
_cell_formula_units_Z 16
_cell_length_a 7.379173
_cell_length_b 8.536485
_cell_length_c 14.741224
_cell_angle_alpha 62.067627
_cell_angle_beta 64.354581
_cell_angle_gamma 51.963732
_cell_volume 632.146010
_symmetry_space_group_name_H-M "P -1"
_symmetry_group_IT_number 2
_symmetry_cell_setting 'triclinic'
loop_
_space_group_symop_operation_xyz
x,y,z
-x,-y,-z
loop_
_atom_site_type_symbol
_atom_site_label
_atom_site_fract_x
_atom_site_fract_y
_atom_site_fract_z
Si Si1 0.198131 0.713271 0.113450
Si Si2 0.853536 0.238617 0.683637
Si Si3 0.001851 0.549941 0.768573
Si Si4 0.322858 0.864239 0.882945
Si Si5 0.757178 0.226479 0.258781
Si Si6 0.469087 0.160312 0.706468
Si Si7 0.619858 0.196236 0.481753
Si Si8 0.012311 0.708623 0.537524
O O1 0.256854 0.677245 0.217208
O O2 0.162572 0.528942 0.135398
O O3 0.358286 0.758317 0.001361
O O4 0.938787 0.926640 0.110380
O O5 0.694733 0.167735 0.684910
O O6 0.906051 0.365070 0.563146
O O7 0.095900 0.023968 0.707500
O O8 0.065813 0.697764 0.769602
O O9 0.253862 0.340571 0.758238
O O10 0.929325 0.621429 0.660338
O O11 0.324186 0.719127 0.841397
O O12 0.488866 0.947720 0.789693
O O13 0.572244 0.276374 0.367118
O O14 0.434702 0.214739 0.591605
O O15 0.760409 0.300042 0.463348
O O16 0.807802 0.949650 0.506975
#
# Coordination Sequence:
#
# PCOD9081200 Si02
#       8
#     2   2   2   2   2   2   2   2
#     4   9  19  35  52  71  98 133 170 203 241 294
#     4   9  18  34  54  73  98 134 166 194 242 303
#     4  10  19  31  51  78 102 126 162 207 247 284
#     4   9  19  35  52  71  98 133 170 203 241 294
#     4   9  18  34  54  73  98 134 166 194 242 303
#     4  10  19  31  51  78 102 126 162 207 247 284
#     4   8  15  29  49  73 101 131 160 192 241 303
#     4   8  15  29  49  73 101 131 160 192 241 303
#
# _framework density 25.310607000000001
#
# number of rings (size 3 to 8) (size 9 to 14) (size 15 to 20)
#    0.000    3.000    0.000    2.250    0.000    6.500 
#    0.000    2.500    0.000    5.250    0.000    0.000 
#    0.000    0.000    0.000    0.000    0.000    0.000 
#
# Total GULP energy -89378.745004 kJ/mol
# GULP energy per Si atom -5586.171563 kJ/mol
# Density = 2.525300 g / cm^3
# Si number density = 25.310607 Si / 1000 Ang^3
#
#
#
# Elastic Constant Matrix: (Units=GPa)
#
#
# Indices 1 2 3 4 5 6 
#
# 1 64.1339 12.5198 48.0071 -0.3212 -2.5690 19.8104
# 2 12.5198 70.9993 36.0038 1.0550 -0.0419 8.6557
# 3 48.0071 36.0038 188.3332 -10.0347 -4.2390 39.2260
# 4 -0.3212 1.0550 -10.0347 31.3174 0.5463 -3.4056
# 5 -2.5690 -0.0419 -4.2390 0.5463 36.5505 -0.1525
# 6 19.8104 8.6557 39.2260 -3.4056 -0.1525 36.3090
#
#
#
# Elastic Compliance Matrix: (Units=1/GPa)
#
#
# Indices 1 2 3 4 5 6 
#
# 1 0.020817 -0.000884 -0.003681 -0.001751 0.001031 -0.007331
# 2 -0.000884 0.015722 -0.002783 -0.001468 -0.000347 -0.000398
# 3 -0.003681 -0.002783 0.008135 0.002007 0.000627 -0.005926
# 4 -0.001751 -0.001468 0.002007 0.032853 -0.000374 0.002217
# 5 0.001031 -0.000347 0.000627 -0.000374 0.027505 -0.001077
# 6 -0.007331 -0.000398 -0.005926 0.002217 -0.001077 0.038242
#
#
# Mechanical properties :
#
#
# Convention : Reuss Voigt Hill
#
# Bulk Modulus (GPa) = 33.35736 57.39199 45.37467
# Shear Modulus (GPa) = 29.76829 35.96444 32.86637
#
# Velocity S-wave (km/s) = 3.43318 3.77360 3.60741
# Velocity P-wave (km/s) = 5.37805 6.45841 5.94283
#
# Compressibility (1/GPa) = 0.02997839
#
# Stress axis : x y z
#
# Youngs Moduli (GPa) = 48.03774 63.60469 122.91832
#
# Poissons Ratio (x) = 0.05623 0.45242
# Poissons Ratio (y) = 0.04247 0.34214
# Poissons Ratio (z) = 0.17681 0.17704
#
# Static dielectric constant tensor:
#      x y z
#    x 2.011770 -0.035700 0.002000 
#    y -0.035700 2.052530 0.005130 
#    z 0.002000 0.005130 1.989210 
# 
# From -- ./inp_files/224276.got.cif
#   From: 2010.05.17/outbox.cif.g08.bks.cpg/sg2_113_cif.got.tgz:224276.got - 2010.06.03 11:33:40.
