data_PCOD9081045
_publ_section_title
;
Structure prediction by ZEFSAII (Michael W. Deem and Ramdas Pophale) SiO2 
 PCOD9081045
Probable space group: P -1
;
_chemical_formula_sum "Si O2"
_cell_formula_units_Z 16
_cell_length_a 19.024450
_cell_length_b 8.004106
_cell_length_c 5.342972
_cell_angle_alpha 106.734161
_cell_angle_beta 118.270809
_cell_angle_gamma 78.710189
_cell_volume 684.498924
_symmetry_space_group_name_H-M "P -1"
_symmetry_group_IT_number 2
_symmetry_cell_setting 'triclinic'
loop_
_space_group_symop_operation_xyz
x,y,z
-x,-y,-z
loop_
_atom_site_type_symbol
_atom_site_label
_atom_site_fract_x
_atom_site_fract_y
_atom_site_fract_z
Si Si1 0.389748 0.052954 0.216559
Si Si2 0.300443 0.777447 0.228676
Si Si3 0.057546 0.882545 0.722872
Si Si4 0.897854 0.852927 0.712737
Si Si5 0.574359 0.502887 0.810746
Si Si6 0.946328 0.484047 0.652322
Si Si7 0.484465 0.232251 0.824986
Si Si8 0.762674 0.064109 0.299874
O O1 0.423822 0.214108 0.484294
O O2 0.366582 0.919355 0.347185
O O3 0.461844 0.947945 0.148029
O O4 0.308746 0.064213 0.926753
O O5 0.345328 0.585970 0.209108
O O6 0.259634 0.821247 0.442494
O O7 0.244515 0.815216 0.907581
O O8 0.084057 0.708992 0.532765
O O9 0.993088 0.833700 0.806444
O O10 0.000000 0.000000 0.500000
O O11 0.112797 0.015844 0.013980
O O12 0.881012 0.649714 0.628629
O O13 0.843653 0.948197 0.447843
O O14 0.500000 0.500000 0.500000
O O15 0.551534 0.369102 0.937297
O O16 0.568745 0.693327 0.004836
O O17 0.000000 0.500000 0.500000
O O18 0.000000 0.500000 0.000000
#
# Coordination Sequence:
#
# PCOD9081045 Si02
#       8
#     2   2   2   2   2   2   2   2
#     4   8  18  34  55  78 109 143 194 232 282 338
#     4   9  21  36  57  78 110 150 192 229 283 352
#     4  10  20  36  63  93 119 152 204 246 295 351
#     4  10  22  37  62  88 121 161 195 246 301 356
#     4  10  19  30  55  82 111 146 191 241 297 328
#     4  10  20  36  58  90 118 146 190 245 287 341
#     4   9  17  33  53  82 105 142 191 241 283 330
#     4  10  21  38  58  79 115 155 188 227 292 352
#
# _framework density 23.374762
#
# number of rings (size 3 to 8) (size 9 to 14) (size 15 to 20)
#    0.750    1.750    1.250    0.750    3.500    1.000 
#    0.000    5.000    2.750    0.000    0.000    0.000 
#    0.000    0.000    0.000    0.000    0.000    0.000 
#
# Total GULP energy -89146.668726 kJ/mol
# GULP energy per Si atom -5571.666795 kJ/mol
# Density = 2.332156 g / cm^3
# Si number density = 23.374762 Si / 1000 Ang^3
#
#
#
# Elastic Constant Matrix: (Units=GPa)
#
#
# Indices 1 2 3 4 5 6 
#
# 1 64.3382 19.1078 37.4241 6.7311 -11.5459 -22.0005
# 2 19.1078 133.3477 70.8484 20.5225 -1.3795 -33.3558
# 3 37.4241 70.8484 168.8147 10.7235 -9.4656 -26.7254
# 4 6.7311 20.5225 10.7235 46.6820 -4.9293 -4.6411
# 5 -11.5459 -1.3795 -9.4656 -4.9293 36.7636 -0.1161
# 6 -22.0005 -33.3558 -26.7254 -4.6411 -0.1161 35.6251
#
#
#
# Elastic Compliance Matrix: (Units=1/GPa)
#
#
# Indices 1 2 3 4 5 6 
#
# 1 0.022693 0.002177 -0.003393 -0.001471 0.006180 0.013336
# 2 0.002177 0.012181 -0.003892 -0.003886 -0.000353 0.009323
# 3 -0.003393 -0.003892 0.008443 0.000434 0.001022 0.000654
# 4 -0.001471 -0.003886 0.000434 0.023405 0.002638 -0.001164
# 5 0.006180 -0.000353 0.001022 0.002638 0.029760 0.004694
# 6 0.013336 0.009323 0.000654 -0.001164 0.004694 0.045389
#
#
# Mechanical properties :
#
#
# Convention : Reuss Voigt Hill
#
# Bulk Modulus (GPa) = 30.21041 69.02902 49.61971
# Shear Modulus (GPa) = 30.65202 39.75550 35.20376
#
# Velocity S-wave (km/s) = 3.62516 4.12853 3.88501
# Velocity P-wave (km/s) = 5.52040 7.23339 6.43416
#
# Compressibility (1/GPa) = 0.03310117
#
# Stress axis : x y z
#
# Youngs Moduli (GPa) = 44.06599 82.09177 118.44722
#
# Poissons Ratio (x) = -0.17875 0.40194
# Poissons Ratio (y) = -0.09595 0.46100
# Poissons Ratio (z) = 0.14953 0.31950
#
# Static dielectric constant tensor:
#      x y z
#    x 2.014180 0.093790 -0.026420 
#    y 0.093790 2.007960 0.008080 
#    z -0.026420 0.008080 1.882560 
# 
# From -- ./inp_files/116453.got.cif
#   From: 2010.05.17/outbox.cif.g08.bks.cpg/sg2_59_cif.got.tgz:116453.got - 2010.06.03 11:33:40.
