data_PCOD9081423
_publ_section_title
;
Structure prediction by ZEFSAII (Michael W. Deem and Ramdas Pophale) SiO2 
 PCOD9081423
Probable space group: P -1
;
_chemical_formula_sum "Si O2"
_cell_formula_units_Z 12
_cell_length_a 9.896009
_cell_length_b 8.152388
_cell_length_c 9.405260
_cell_angle_alpha 108.880867
_cell_angle_beta 59.589475
_cell_angle_gamma 68.885577
_cell_volume 474.628436
_symmetry_space_group_name_H-M "P -1"
_symmetry_group_IT_number 2
_symmetry_cell_setting 'triclinic'
loop_
_space_group_symop_operation_xyz
x,y,z
-x,-y,-z
loop_
_atom_site_type_symbol
_atom_site_label
_atom_site_fract_x
_atom_site_fract_y
_atom_site_fract_z
Si Si1 0.672842 0.481334 0.665148
Si Si2 0.454307 0.268932 0.692187
Si Si3 0.919408 0.268650 0.047743
Si Si4 0.500306 0.161838 0.942738
Si Si5 0.945821 0.997578 0.691662
Si Si6 0.660971 0.127798 0.247320
O O1 0.546691 0.391898 0.722726
O O2 0.539703 0.695896 0.690943
O O3 0.895381 0.269823 0.434340
O O4 0.675017 0.580695 0.841108
O O5 0.485781 0.131776 0.775906
O O6 0.582764 0.134426 0.446798
O O7 0.219117 0.466305 0.831605
O O8 0.962533 0.140307 0.837486
O O9 0.773396 0.238083 0.204093
O O10 0.139723 0.130338 0.965908
O O11 0.713391 0.104327 0.845428
O O12 0.500000 0.000000 0.000000
O O13 0.000000 0.000000 0.500000
#
# Coordination Sequence:
#
# PCOD9081423 Si02
#       6
#     2   2   2   2   2   2
#     4  11  21  37  66  90 119 156 204 248 295 355
#     4  11  20  37  62  90 117 157 199 245 295 357
#     4  10  19  31  60  94 123 143 197 254 300 340
#     4  12  26  42  58  88 128 161 198 250 300 353
#     4  12  21  36  64  91 117 161 204 242 294 355
#     4  10  20  33  59 100 118 144 197 261 295 342
#
# _framework density 25.282934000000001
#
# number of rings (size 3 to 8) (size 9 to 14) (size 15 to 20)
#    0.000    1.000    6.667    3.500    2.333    0.667 
#    0.000    0.833    0.000    2.000    0.000    0.000 
#    0.000    0.000    0.000    0.000    0.000    0.000 
#
# Total GULP energy -67157.802398 kJ/mol
# GULP energy per Si atom -5596.483533 kJ/mol
# Density = 2.522539 g / cm^3
# Si number density = 25.282934 Si / 1000 Ang^3
#
#
#
# Elastic Constant Matrix: (Units=GPa)
#
#
# Indices 1 2 3 4 5 6 
#
# 1 44.4257 11.1104 21.5657 2.4770 9.9644 -10.1202
# 2 11.1104 109.8102 46.1392 -3.3694 -7.1251 -36.7846
# 3 21.5657 46.1392 161.7348 2.5428 18.2096 -16.1319
# 4 2.4770 -3.3694 2.5428 60.8344 -13.9852 -6.1226
# 5 9.9644 -7.1251 18.2096 -13.9852 33.8190 5.4736
# 6 -10.1202 -36.7846 -16.1319 -6.1226 5.4736 43.4348
#
#
#
# Elastic Compliance Matrix: (Units=1/GPa)
#
#
# Indices 1 2 3 4 5 6 
#
# 1 0.027080 -0.000730 -0.001742 -0.002601 -0.009215 0.005839
# 2 -0.000730 0.014735 -0.003624 0.003198 0.004845 0.010803
# 3 -0.001742 -0.003624 0.008065 -0.001686 -0.005282 -0.000052
# 4 -0.002601 0.003198 -0.001686 0.019360 0.009875 0.002961
# 5 -0.009215 0.004845 -0.005282 0.009875 0.040841 -0.003760
# 6 0.005839 0.010803 -0.000052 0.002961 -0.003760 0.034404
#
#
# Mechanical properties :
#
#
# Convention : Reuss Voigt Hill
#
# Bulk Modulus (GPa) = 26.53391 52.62237 39.57814
# Shear Modulus (GPa) = 29.54398 43.42801 36.48600
#
# Velocity S-wave (km/s) = 3.42209 4.14899 3.80295
# Velocity P-wave (km/s) = 5.11193 6.61897 5.91365
#
# Compressibility (1/GPa) = 0.03768763
#
# Stress axis : x y z
#
# Youngs Moduli (GPa) = 36.92807 67.86747 123.98937
#
# Poissons Ratio (x) = 0.04953 0.21596
# Poissons Ratio (y) = 0.02695 0.44939
# Poissons Ratio (z) = 0.06432 0.24598
#
# Static dielectric constant tensor:
#      x y z
#    x 2.084800 0.017630 0.079570 
#    y 0.017630 2.074950 0.011390 
#    z 0.079570 0.011390 2.009280 
# 
# From -- ./inp_files/238823.got.cif
#   From: 2010.05.17/outbox.cif.g08.bks.cpg/sg2_120_cif.got.tgz:238823.got - 2010.06.03 11:33:40.
