data_PCOD9081873
_publ_section_title
;
Structure prediction by ZEFSAII (Michael W. Deem and Ramdas Pophale) SiO2 
 PCOD9081873
Probable space group: P -1
;
_chemical_formula_sum "Si O2"
_cell_formula_units_Z 16
_cell_length_a 20.430486
_cell_length_b 11.527288
_cell_length_c 5.200860
_cell_angle_alpha 68.730372
_cell_angle_beta 71.748820
_cell_angle_gamma 43.375366
_cell_volume 781.545000
_symmetry_space_group_name_H-M "P -1"
_symmetry_group_IT_number 2
_symmetry_cell_setting 'triclinic'
loop_
_space_group_symop_operation_xyz
x,y,z
-x,-y,-z
loop_
_atom_site_type_symbol
_atom_site_label
_atom_site_fract_x
_atom_site_fract_y
_atom_site_fract_z
Si Si1 0.581525 0.998174 0.331108
Si Si2 0.074477 0.358736 0.728269
Si Si3 0.696934 0.144544 0.610070
Si Si4 0.884692 0.490977 0.084498
Si Si5 0.708371 0.841254 0.808774
Si Si6 0.994885 0.866456 0.704135
Si Si7 0.577411 0.296319 0.125661
Si Si8 0.880495 0.946760 0.287327
O O1 0.656514 0.900052 0.552549
O O2 0.500000 0.000000 0.500000
O O3 0.549237 0.185356 0.199926
O O4 0.634295 0.896625 0.081889
O O5 0.133385 0.397623 0.740665
O O6 0.139556 0.167237 0.700485
O O7 0.000000 0.500000 0.500000
O O8 0.996397 0.387993 0.980872
O O9 0.613817 0.254883 0.408662
O O10 0.729775 0.959492 0.747101
O O11 0.783542 0.114333 0.404156
O O12 0.661118 0.222184 0.875536
O O13 0.900571 0.324789 0.219782
O O14 0.804138 0.638586 0.871401
O O15 0.952831 0.850404 0.515209
O O16 0.930095 0.946517 0.978845
O O17 0.000000 0.000000 0.500000
O O18 0.500000 0.500000 0.000000
#
# Coordination Sequence:
#
# PCOD9081873 Si02
#       8
#     2   2   2   2   2   2   2   2
#     4  10  22  41  61  87 118 158 195 243 309 367
#     4  10  19  32  56  88 121 145 190 252 302 347
#     4  10  21  36  60  92 116 142 195 250 307 348
#     4  10  22  34  55  90 117 155 198 244 303 345
#     4  10  22  35  62  89 120 146 194 256 296 360
#     4  11  24  41  56  78 124 174 205 236 286 361
#     4  10  21  39  62  89 119 152 188 250 307 370
#     4  11  22  37  61  84 115 157 201 253 296 347
#
# _framework density 20.472272
#
# number of rings (size 3 to 8) (size 9 to 14) (size 15 to 20)
#    0.000    1.750    1.250    2.625   10.500    0.000 
#    0.000    3.750    0.000    0.000    0.000    0.000 
#    0.000    0.000    0.000    0.000    0.000    0.000 
#
# Total GULP energy -89130.149825 kJ/mol
# GULP energy per Si atom -5570.634364 kJ/mol
# Density = 2.042568 g / cm^3
# Si number density = 20.472272 Si / 1000 Ang^3
#
#
#
# Elastic Constant Matrix: (Units=GPa)
#
#
# Indices 1 2 3 4 5 6 
#
# 1 30.9159 22.9901 21.7971 -5.5319 1.9347 0.0198
# 2 22.9901 107.8319 44.4826 -18.1324 -14.6846 -2.4902
# 3 21.7971 44.4826 144.0277 7.8720 -4.8032 2.2574
# 4 -5.5319 -18.1324 7.8720 47.4398 -3.5088 -1.7924
# 5 1.9347 -14.6846 -4.8032 -3.5088 25.0421 3.2632
# 6 0.0198 -2.4902 2.2574 -1.7924 3.2632 14.6184
#
#
#
# Elastic Compliance Matrix: (Units=1/GPa)
#
#
# Indices 1 2 3 4 5 6 
#
# 1 0.042289 -0.008050 -0.004336 0.001983 -0.008728 0.001432
# 2 -0.008050 0.014671 -0.003360 0.005971 0.009195 0.001709
# 3 -0.004336 -0.003360 0.008853 -0.003354 -0.000104 -0.002321
# 4 0.001983 0.005971 -0.003354 0.024698 0.005738 0.003280
# 5 -0.008728 0.009195 -0.000104 0.005738 0.047876 -0.008389
# 6 0.001432 0.001709 -0.002321 0.003280 -0.008389 0.071330
#
#
# Mechanical properties :
#
#
# Convention : Reuss Voigt Hill
#
# Bulk Modulus (GPa) = 29.13457 51.25723 40.19590
# Shear Modulus (GPa) = 19.79045 30.32044 25.05545
#
# Velocity S-wave (km/s) = 3.11255 3.85262 3.50218
# Velocity P-wave (km/s) = 5.21339 6.69940 6.00255
#
# Compressibility (1/GPa) = 0.03432348
#
# Stress axis : x y z
#
# Youngs Moduli (GPa) = 23.64703 68.15967 112.95506
#
# Poissons Ratio (x) = 0.54866 0.48974
# Poissons Ratio (y) = 0.19035 0.37947
# Poissons Ratio (z) = 0.10253 0.22898
#
# Static dielectric constant tensor:
#      x y z
#    x -0.057500 -0.257170 0.630020 
#    y -0.257170 1.866680 0.144140 
#    z 0.630020 0.144140 1.579820 
# 
# From -- ./inp_files/98257.got.cif
#   From: 2010.05.17/outbox.cif.g08.bks.cpg/sg2_50_cif.got.tgz:98257.got - 2010.06.03 11:33:40.
