data_PCOD9081343
_publ_section_title
;
Structure prediction by ZEFSAII (Michael W. Deem and Ramdas Pophale) SiO2 
 PCOD9081343
Probable space group: P -1
;
_chemical_formula_sum "Si O2"
_cell_formula_units_Z 16
_cell_length_a 18.057319
_cell_length_b 5.233050
_cell_length_c 31.768216
_cell_angle_alpha 71.639498
_cell_angle_beta 17.955073
_cell_angle_gamma 63.808695
_cell_volume 768.393105
_symmetry_space_group_name_H-M "P -1"
_symmetry_group_IT_number 2
_symmetry_cell_setting 'triclinic'
loop_
_space_group_symop_operation_xyz
x,y,z
-x,-y,-z
loop_
_atom_site_type_symbol
_atom_site_label
_atom_site_fract_x
_atom_site_fract_y
_atom_site_fract_z
Si Si1 0.480265 0.064447 0.839932
Si Si2 0.383827 0.680254 0.596750
Si Si3 0.596186 0.297461 0.170695
Si Si4 0.070199 0.357947 0.696307
Si Si5 0.169590 0.605357 0.801926
Si Si6 0.687773 0.794370 0.946911
Si Si7 0.754115 0.028668 0.187240
Si Si8 0.429454 0.361499 0.113969
O O1 0.539325 0.348903 0.789133
O O2 0.509115 0.900741 0.788124
O O3 0.640910 0.789920 0.800623
O O4 0.157550 0.226909 0.020202
O O5 0.500000 0.500000 0.500000
O O6 0.664829 0.646088 0.467106
O O7 0.237154 0.590203 0.716933
O O8 0.183199 0.023721 0.672211
O O9 0.590768 0.255620 0.225745
O O10 0.921034 0.134159 0.991676
O O11 0.961482 0.579198 0.784524
O O12 0.824236 0.457086 0.790528
O O13 0.277929 0.797633 0.760580
O O14 0.302602 0.256266 0.764052
O O15 0.562841 0.577680 0.042354
O O16 0.500000 0.000000 0.000000
O O17 0.651961 0.056020 0.985106
#
# Coordination Sequence:
#
# PCOD9081343 Si02
#       8
#     2   2   2   2   2   2   2   2
#     4  10  19  31  55  85 116 140 175 231 278 350
#     4  11  26  39  57  77 114 158 201 244 270 321
#     4   9  17  32  52  85 115 140 171 217 296 341
#     4  10  24  39  55  78 110 154 195 242 284 325
#     4  10  21  34  54  80 112 147 189 224 277 326
#     4  10  21  35  58  79 108 146 192 237 281 336
#     4   9  18  33  55  79 113 146 174 224 277 355
#     4  11  22  37  58  86 112 149 191 232 294 342
#
# _framework density 20.822673999999999
#
# number of rings (size 3 to 8) (size 9 to 14) (size 15 to 20)
#    0.000    2.000    0.000    3.750   10.500    4.000 
#    0.000    0.000    0.000    0.000    0.000    5.250 
#    0.000    0.000    0.000    0.000    0.000    0.000 
#
# Total GULP energy -89252.594339 kJ/mol
# GULP energy per Si atom -5578.287146 kJ/mol
# Density = 2.077528 g / cm^3
# Si number density = 20.822674 Si / 1000 Ang^3
#
#
#
# Elastic Constant Matrix: (Units=GPa)
#
#
# Indices 1 2 3 4 5 6 
#
# 1 54.3874 5.4541 23.0356 9.6531 15.4934 -6.9812
# 2 5.4541 107.8872 24.1086 14.8702 4.3122 -0.9903
# 3 23.0356 24.1086 44.8542 10.8636 -7.2250 -1.0857
# 4 9.6531 14.8702 10.8636 21.3415 2.1640 3.2867
# 5 15.4934 4.3122 -7.2250 2.1640 25.6399 0.6404
# 6 -6.9812 -0.9903 -1.0857 3.2867 0.6404 36.7034
#
#
#
# Elastic Compliance Matrix: (Units=1/GPa)
#
#
# Indices 1 2 3 4 5 6 
#
# 1 0.041991 0.006709 -0.028829 -0.006831 -0.034262 0.008525
# 2 0.006709 0.012337 -0.009933 -0.006024 -0.008469 0.002002
# 3 -0.028829 -0.009933 0.049783 -0.008182 0.033913 -0.004138
# 4 -0.006831 -0.006024 -0.008182 0.059593 -0.002019 -0.007005
# 5 -0.034262 -0.008469 0.033913 -0.002019 0.071026 -0.006801
# 6 0.008525 0.002002 -0.004138 -0.007005 -0.006801 0.029545
#
#
# Mechanical properties :
#
#
# Convention : Reuss Voigt Hill
#
# Bulk Modulus (GPa) = 24.99737 34.70281 29.85009
# Shear Modulus (GPa) = 14.63204 27.03899 20.83552
#
# Velocity S-wave (km/s) = 2.65372 3.60743 3.16668
# Velocity P-wave (km/s) = 4.62824 5.83553 5.26659
#
# Compressibility (1/GPa) = 0.04000421
#
# Stress axis : x y z
#
# Youngs Moduli (GPa) = 23.81439 81.06000 20.08717
#
# Poissons Ratio (x) = -0.54380 0.57910
# Poissons Ratio (y) = -0.15976 0.19952
# Poissons Ratio (z) = 0.68655 0.80516
#
# Static dielectric constant tensor:
#      x y z
#    x 1.783760 -0.006490 -0.034540 
#    y -0.006490 1.707540 -0.055000 
#    z -0.034540 -0.055000 1.756180 
# 
# From -- ./inp_files/623797.got.cif
#   From: 2010.05.17/outbox.cif.g08.bks.cpg/sg2_312_cif.got.tgz:623797.got - 2010.06.03 11:33:40.
