data_PCOD9081884
_publ_section_title
;
Structure prediction by ZEFSAII (Michael W. Deem and Ramdas Pophale) SiO2 
 PCOD9081884
Probable space group: P -1
;
_chemical_formula_sum "Si O2"
_cell_formula_units_Z 12
_cell_length_a 15.096550
_cell_length_b 7.791610
_cell_length_c 5.279862
_cell_angle_alpha 85.279014
_cell_angle_beta 65.853604
_cell_angle_gamma 55.508410
_cell_volume 457.787077
_symmetry_space_group_name_H-M "P -1"
_symmetry_group_IT_number 2
_symmetry_cell_setting 'triclinic'
loop_
_space_group_symop_operation_xyz
x,y,z
-x,-y,-z
loop_
_atom_site_type_symbol
_atom_site_label
_atom_site_fract_x
_atom_site_fract_y
_atom_site_fract_z
Si Si1 0.879102 0.239658 0.592367
Si Si2 0.783014 0.851920 0.344770
Si Si3 0.037394 0.757363 0.003733
Si Si4 0.323796 0.193750 0.009570
Si Si5 0.656890 0.294020 0.596277
Si Si6 0.470965 0.276505 0.153496
O O1 0.902790 0.344708 0.321558
O O2 0.771955 0.228678 0.636075
O O3 0.873289 0.340469 0.853255
O O4 0.000000 0.000000 0.500000
O O5 0.743947 0.831186 0.672959
O O6 0.707742 0.109288 0.353444
O O7 0.747337 0.761421 0.172074
O O8 0.921004 0.764215 0.184515
O O9 0.000000 0.000000 0.000000
O O10 0.367029 0.323523 0.078011
O O11 0.451892 0.966899 0.825093
O O12 0.589430 0.542672 0.581625
O O13 0.564183 0.289768 0.880133
#
# Coordination Sequence:
#
# PCOD9081884 Si02
#       6
#     2   2   2   2   2   2
#     4  10  19  33  57  90 116 147 187 254 293 338
#     4  11  21  37  66  89 117 158 201 246 291 359
#     4  10  19  32  56  92 112 149 196 245 289 344
#     4  10  23  41  60  85 124 165 193 233 309 364
#     4  10  20  37  64  94 119 150 207 252 288 341
#     4   9  22  40  60  90 123 160 196 246 296 355
#
# _framework density 26.213058
#
# number of rings (size 3 to 8) (size 9 to 14) (size 15 to 20)
#    0.000    2.000    3.333    1.000    7.000    6.667 
#    0.000    8.333    0.000    6.000    0.000    0.000 
#    0.000    0.000    0.000    0.000    0.000    0.000 
#
# Total GULP energy -67157.961565 kJ/mol
# GULP energy per Si atom -5596.496797 kJ/mol
# Density = 2.615340 g / cm^3
# Si number density = 26.213058 Si / 1000 Ang^3
#
#
#
# Elastic Constant Matrix: (Units=GPa)
#
#
# Indices 1 2 3 4 5 6 
#
# 1 154.0646 20.2701 61.2344 -3.7539 -30.8366 -20.5670
# 2 20.2701 63.9464 35.6933 18.3798 7.6849 2.0545
# 3 61.2344 35.6933 126.9557 -26.7166 22.1402 3.4519
# 4 -3.7539 18.3798 -26.7166 36.5214 10.4331 25.1239
# 5 -30.8366 7.6849 22.1402 10.4331 49.9112 -7.3970
# 6 -20.5670 2.0545 3.4519 25.1239 -7.3970 21.1069
#
#
#
# Elastic Compliance Matrix: (Units=1/GPa)
#
#
# Indices 1 2 3 4 5 6 
#
# 1 0.005113 -0.006069 0.002331 0.012516 -0.001050 -0.010074
# 2 -0.006069 0.018360 0.000186 0.002191 -0.009123 -0.013537
# 3 0.002331 0.000186 0.002528 -0.012635 0.005731 0.018888
# 4 0.012516 0.002191 -0.012635 -0.008421 0.019332 0.030847
# 5 -0.001050 -0.009123 0.005731 0.019332 0.011222 -0.020151
# 6 -0.010074 -0.013537 0.018888 0.030847 -0.020151 -0.007990
#
#
# Mechanical properties :
#
#
# Convention : Reuss Voigt Hill
#
# Bulk Modulus (GPa) = 52.92046 64.37357 58.64702
# Shear Modulus (GPa) = 146.13319 36.69249 91.41284
#
# Velocity S-wave (km/s) = 7.47457 3.74542 5.91174
# Velocity P-wave (km/s) = 9.73267 6.58144 8.30783
#
# Compressibility (1/GPa) = 0.01889628
#
# Stress axis : x y z
#
# Youngs Moduli (GPa) = 195.59434 54.46693 395.53024
#
# Poissons Ratio (x) = 0.33058 -0.92208
# Poissons Ratio (y) = 1.18712 -0.07352
# Poissons Ratio (z) = -0.45598 -0.01012
#
# Static dielectric constant tensor:
#      x y z
#    x 1.984800 -0.077630 0.010920 
#    y -0.077630 2.937100 0.256620 
#    z 0.010920 0.256620 2.120060 
# 
# From -- ./inp_files/47911.got.cif
#   From: 2010.05.17/outbox.cif.g08.bks.cpg/sg2_24_cif.got.tgz:47911.got - 2010.06.03 11:33:40.
