data_PCOD9081641
_publ_section_title
;
Structure prediction by ZEFSAII (Michael W. Deem and Ramdas Pophale) SiO2 
 PCOD9081641
Probable space group: P -1
;
_chemical_formula_sum "Si O2"
_cell_formula_units_Z 14
_cell_length_a 12.325744
_cell_length_b 12.331667
_cell_length_c 14.733023
_cell_angle_alpha 139.348662
_cell_angle_beta 136.897753
_cell_angle_gamma 24.215577
_cell_volume 592.230035
_symmetry_space_group_name_H-M "P -1"
_symmetry_group_IT_number 2
_symmetry_cell_setting 'triclinic'
loop_
_space_group_symop_operation_xyz
x,y,z
-x,-y,-z
loop_
_atom_site_type_symbol
_atom_site_label
_atom_site_fract_x
_atom_site_fract_y
_atom_site_fract_z
Si Si1 0.389097 0.815006 0.870982
Si Si2 0.608367 0.673314 0.099211
Si Si3 0.190666 0.613859 0.438713
Si Si4 0.215284 0.767408 0.187099
Si Si5 0.920538 0.599650 0.381542
Si Si6 0.302691 0.912358 0.685243
Si Si7 0.648728 0.011917 0.677925
O O1 0.603970 0.481469 0.786051
O O2 0.370960 0.922261 0.832527
O O3 0.490279 0.832174 0.031621
O O4 0.095679 0.992591 0.829021
O O5 0.850156 0.576346 0.225888
O O6 0.393731 0.863697 0.169389
O O7 0.711157 0.403110 0.965754
O O8 0.256865 0.752891 0.574025
O O9 0.451385 0.290667 0.363431
O O10 0.070965 0.641092 0.475439
O O11 0.964563 0.795014 0.337796
O O12 0.305098 0.878430 0.294175
O O13 0.101286 0.318320 0.366959
O O14 0.631418 0.851427 0.410694
#
# Coordination Sequence:
#
# PCOD9081641 Si02
#       7
#     2   2   2   2   2   2   2
#     4  10  20  33  52  80 109 131 178 217 255 302
#     4   8  21  30  52  78 110 140 174 206 253 304
#     4  10  21  39  61  78  96 133 181 222 263 309
#     4  10  19  32  53  79 110 144 175 204 248 309
#     4  10  20  33  52  80 109 131 178 217 255 302
#     4  10  21  39  61  78  96 133 181 222 263 309
#     4  10  19  32  53  79 110 144 175 204 248 309
#
# _framework density 23.639464
#
# number of rings (size 3 to 8) (size 9 to 14) (size 15 to 20)
#    1.714    0.571    0.000    3.857    0.000    1.143 
#    0.000    1.429    0.000    5.143    0.000    0.000 
#    0.000    0.000    0.000    0.000    0.000    0.000 
#
# Total GULP energy -78182.495952 kJ/mol
# GULP energy per Si atom -5584.463997 kJ/mol
# Density = 2.358566 g / cm^3
# Si number density = 23.639464 Si / 1000 Ang^3
#
#
#
# Elastic Constant Matrix: (Units=GPa)
#
#
# Indices 1 2 3 4 5 6 
#
# 1 79.0518 8.9146 16.5620 13.5823 3.9807 -11.4978
# 2 8.9146 103.2154 17.2312 -10.9939 1.8748 -18.0567
# 3 16.5620 17.2312 72.4913 -5.5210 -4.8702 -4.9983
# 4 13.5823 -10.9939 -5.5210 29.3484 4.5489 -10.2666
# 5 3.9807 1.8748 -4.8702 4.5489 27.4075 2.8344
# 6 -11.4978 -18.0567 -4.9983 -10.2666 2.8344 33.2010
#
#
#
# Elastic Compliance Matrix: (Units=1/GPa)
#
#
# Indices 1 2 3 4 5 6 
#
# 1 0.015166 -0.001045 -0.003737 -0.007101 -0.001832 0.002082
# 2 -0.001045 0.012665 -0.001704 0.008669 -0.003412 0.009242
# 3 -0.003737 -0.001704 0.015617 0.004020 0.002648 0.001147
# 4 -0.007101 0.008669 0.004020 0.049367 -0.008995 0.018895
# 5 -0.001832 -0.003412 0.002648 -0.008995 0.039805 -0.008271
# 6 0.002082 0.009242 0.001147 0.018895 -0.008271 0.042589
#
#
# Mechanical properties :
#
#
# Convention : Reuss Voigt Hill
#
# Bulk Modulus (GPa) = 32.81145 37.79711 35.30428
# Shear Modulus (GPa) = 25.20950 32.12809 28.66880
#
# Velocity S-wave (km/s) = 3.26915 3.69058 3.48624
# Velocity P-wave (km/s) = 5.30658 5.84673 5.58319
#
# Compressibility (1/GPa) = 0.03047716
#
# Stress axis : x y z
#
# Youngs Moduli (GPa) = 65.93808 78.95579 64.03425
#
# Poissons Ratio (x) = 0.08250 0.23929
# Poissons Ratio (y) = 0.06890 0.10909
# Poissons Ratio (z) = 0.24640 0.13450
#
# Static dielectric constant tensor:
#      x y z
#    x 1.879690 0.002680 -0.021850 
#    y 0.002680 1.838060 -0.037450 
#    z -0.021850 -0.037450 2.030300 
# 
# From -- ./inp_files/481629.got.cif
#   From: 2010.05.17/outbox.cif.g08.bks.cpg/sg2_241_cif.got.tgz:481629.got - 2010.06.03 11:33:40.
