data_PCOD9081031
_publ_section_title
;
Structure prediction by ZEFSAII (Michael W. Deem and Ramdas Pophale) SiO2 
 PCOD9081031
Probable space group: P -1
;
_chemical_formula_sum "Si O2"
_cell_formula_units_Z 14
_cell_length_a 9.267388
_cell_length_b 13.144206
_cell_length_c 11.690599
_cell_angle_alpha 111.259224
_cell_angle_beta 141.236686
_cell_angle_gamma 89.155373
_cell_volume 738.118124
_symmetry_space_group_name_H-M "P -1"
_symmetry_group_IT_number 2
_symmetry_cell_setting 'triclinic'
loop_
_space_group_symop_operation_xyz
x,y,z
-x,-y,-z
loop_
_atom_site_type_symbol
_atom_site_label
_atom_site_fract_x
_atom_site_fract_y
_atom_site_fract_z
Si Si1 0.577883 0.495157 0.676896
Si Si2 0.203417 0.469951 0.779763
Si Si3 0.987939 0.228014 0.908181
Si Si4 0.789543 0.327419 0.647694
Si Si5 0.980284 0.640828 0.610445
Si Si6 0.312908 0.130680 0.167370
Si Si7 0.882112 0.138081 0.048920
O O1 0.500000 0.500000 0.500000
O O2 0.692879 0.398485 0.705098
O O3 0.313826 0.446388 0.563935
O O4 0.794528 0.630064 0.897074
O O5 0.057729 0.363976 0.551147
O O6 0.044300 0.425294 0.780942
O O7 0.161206 0.581127 0.743664
O O8 0.500000 0.500000 0.000000
O O9 0.820554 0.222512 0.694268
O O10 0.136672 0.145093 0.964887
O O11 0.842358 0.194102 0.927185
O O12 0.575797 0.254611 0.390288
O O13 0.077200 0.770981 0.785475
O O14 0.151427 0.132375 0.182519
O O15 0.321214 0.002922 0.114541
#
# Coordination Sequence:
#
# PCOD9081031 Si02
#       7
#     2   2   2   2   2   2   2
#     4  12  17  34  60  86 111 139 190 239 289 331
#     4  11  25  39  55  85 120 156 186 224 289 351
#     4  10  19  30  53  87 117 140 179 237 286 336
#     4  12  21  35  59  85 114 152 188 237 287 334
#     4  11  21  40  60  81 119 152 185 238 284 338
#     4   9  19  37  57  86 117 142 192 237 287 332
#     4   9  18  38  58  87 112 147 188 242 284 329
#
# _framework density 18.967153
#
# number of rings (size 3 to 8) (size 9 to 14) (size 15 to 20)
#    0.857    0.571    5.714    1.286    0.000    2.857 
#    0.000    0.714    0.000    1.714    0.000    0.000 
#    0.000    0.000    0.000    0.000    0.000    0.000 
#
# Total GULP energy -77975.889759 kJ/mol
# GULP energy per Si atom -5569.706411 kJ/mol
# Density = 1.892398 g / cm^3
# Si number density = 18.967153 Si / 1000 Ang^3
#
#
#
# Elastic Constant Matrix: (Units=GPa)
#
#
# Indices 1 2 3 4 5 6 
#
# 1 44.6259 13.3671 16.6858 -4.8948 2.5889 -9.4348
# 2 13.3671 87.2793 34.9571 -2.0908 -2.9947 -8.6006
# 3 16.6858 34.9571 37.3542 -12.9819 -0.1362 -11.5906
# 4 -4.8948 -2.0908 -12.9819 36.0529 1.4166 -4.4398
# 5 2.5889 -2.9947 -0.1362 1.4166 33.3954 -0.3476
# 6 -9.4348 -8.6006 -11.5906 -4.4398 -0.3476 20.4950
#
#
#
# Elastic Compliance Matrix: (Units=1/GPa)
#
#
# Indices 1 2 3 4 5 6 
#
# 1 0.027914 0.000521 -0.010248 0.001135 -0.002129 0.007483
# 2 0.000521 0.020269 -0.024183 -0.008365 0.001964 -0.006710
# 3 -0.010248 -0.024183 0.073915 0.027956 -0.001915 0.032959
# 4 0.001135 -0.008365 0.027956 0.040206 -0.002206 0.021494
# 5 -0.002129 0.001964 -0.001915 -0.002206 0.030359 -0.001202
# 6 0.007483 -0.006710 0.032959 0.021494 -0.001202 0.072697
#
#
# Mechanical properties :
#
#
# Convention : Reuss Voigt Hill
#
# Bulk Modulus (GPa) = 18.42349 33.25326 25.83838
# Shear Modulus (GPa) = 14.23388 24.93861 19.58625
#
# Velocity S-wave (km/s) = 2.74240 3.62999 3.21696
# Velocity P-wave (km/s) = 4.44547 5.92784 5.23934
#
# Compressibility (1/GPa) = 0.05427853
#
# Stress axis : x y z
#
# Youngs Moduli (GPa) = 35.82384 49.33540 13.52898
#
# Poissons Ratio (x) = -0.02570 0.13864
# Poissons Ratio (y) = -0.01866 0.32718
# Poissons Ratio (z) = 0.36712 1.19309
#
# Static dielectric constant tensor:
#      x y z
#    x 1.721450 -0.008280 0.016810 
#    y -0.008280 1.699730 -0.027160 
#    z 0.016810 -0.027160 1.687640 
# 
# From -- ./inp_files/396278.got.cif
#   From: 2010.05.17/outbox.cif.g08.bks.cpg/sg2_199_cif.got.tgz:396278.got - 2010.06.03 11:33:40.
