data_PCOD9081359
_publ_section_title
;
Structure prediction by ZEFSAII (Michael W. Deem and Ramdas Pophale) SiO2 
 PCOD9081359
Probable space group: P -1
;
_chemical_formula_sum "Si O2"
_cell_formula_units_Z 14
_cell_length_a 15.492356
_cell_length_b 10.512948
_cell_length_c 10.390285
_cell_angle_alpha 38.642039
_cell_angle_beta 141.790633
_cell_angle_gamma 150.289442
_cell_volume 491.212210
_symmetry_space_group_name_H-M "P -1"
_symmetry_group_IT_number 2
_symmetry_cell_setting 'triclinic'
loop_
_space_group_symop_operation_xyz
x,y,z
-x,-y,-z
loop_
_atom_site_type_symbol
_atom_site_label
_atom_site_fract_x
_atom_site_fract_y
_atom_site_fract_z
Si Si1 0.813400 0.870642 0.628956
Si Si2 0.184014 0.739843 0.102697
Si Si3 0.818690 0.624369 0.237674
Si Si4 0.785428 0.816915 0.354969
Si Si5 0.575645 0.616166 0.787745
Si Si6 0.921719 0.561350 0.137897
Si Si7 0.416891 0.856813 0.805558
O O1 0.713180 0.774081 0.451067
O O2 0.684471 0.821385 0.635369
O O3 0.860431 0.681845 0.874179
O O4 0.016865 0.172553 0.632681
O O5 0.110134 0.652627 0.229969
O O6 0.208866 0.993035 0.886331
O O7 0.384844 0.847568 0.210487
O O8 0.000000 0.500000 0.000000
O O9 0.937654 0.682129 0.200265
O O10 0.675031 0.295770 0.319392
O O11 0.299850 0.288209 0.013839
O O12 0.638280 0.522239 0.346937
O O13 0.000000 0.000000 0.500000
O O14 0.556212 0.352235 0.944682
O O15 0.749834 0.238562 0.217669
#
# Coordination Sequence:
#
# PCOD9081359 Si02
#       7
#     2   2   2   2   2   2   2
#     4  10  15  29  55  73 107 130 161 210 266 301
#     4  11  20  34  51  73 101 141 174 203 247 308
#     4   7  15  30  51  75 101 132 168 204 258 299
#     4  11  20  31  46  77 108 129 162 216 263 284
#     4   7  15  28  46  71 100 134 158 200 253 302
#     4   8  16  30  50  74  98 131 165 211 242 298
#     4   6  16  30  47  73  97 125 171 205 242 283
#
# _framework density 28.500921000000002
#
# number of rings (size 3 to 8) (size 9 to 14) (size 15 to 20)
#    1.714    1.714    1.429    2.143    0.000    0.571 
#    0.000    4.286    0.000    1.714    0.000    0.000 
#    0.000    0.000    0.000    0.000    0.000    0.000 
#
# Total GULP energy -77959.676002 kJ/mol
# GULP energy per Si atom -5568.548286 kJ/mol
# Density = 2.843605 g / cm^3
# Si number density = 28.500921 Si / 1000 Ang^3
#
#
#
# Elastic Constant Matrix: (Units=GPa)
#
#
# Indices 1 2 3 4 5 6 
#
# 1 58.1762 40.8886 18.4893 15.1253 0.1942 19.3667
# 2 40.8886 203.7121 41.1231 21.5093 -5.5729 47.9775
# 3 18.4893 41.1231 108.2381 14.5631 -4.9030 -0.0544
# 4 15.1253 21.5093 14.5631 57.1052 -5.6063 -5.6188
# 5 0.1942 -5.5729 -4.9030 -5.6063 32.8020 13.0213
# 6 19.3667 47.9775 -0.0544 -5.6188 13.0213 56.6062
#
#
#
# Elastic Compliance Matrix: (Units=1/GPa)
#
#
# Indices 1 2 3 4 5 6 
#
# 1 0.023028 -0.001862 -0.002460 -0.005362 0.001075 -0.007082
# 2 -0.001862 0.007645 -0.002145 -0.002185 0.003326 -0.006827
# 3 -0.002460 -0.002145 0.010611 -0.000990 0.000051 0.002560
# 4 -0.005362 -0.002185 -0.000990 0.020635 0.000840 0.005540
# 5 0.001075 0.003326 0.000051 0.000840 0.035686 -0.011312
# 6 -0.007082 -0.006827 0.002560 0.005540 -0.011312 0.029029
#
#
# Mechanical properties :
#
#
# Convention : Reuss Voigt Hill
#
# Bulk Modulus (GPa) = 35.27393 63.45871 49.36632
# Shear Modulus (GPa) = 33.55301 47.27773 40.41537
#
# Velocity S-wave (km/s) = 3.43485 4.07727 3.76977
# Velocity P-wave (km/s) = 5.30417 6.66929 6.02551
#
# Compressibility (1/GPa) = 0.02834955
#
# Stress axis : x y z
#
# Youngs Moduli (GPa) = 43.42609 130.80174 94.24292
#
# Poissons Ratio (x) = 0.24356 0.23180
# Poissons Ratio (y) = 0.08086 0.20219
# Poissons Ratio (z) = 0.10681 0.28062
#
# Static dielectric constant tensor:
#      x y z
#    x 2.600210 0.170160 0.023960 
#    y 0.170160 2.309890 0.001820 
#    z 0.023960 0.001820 2.454570 
# 
# From -- ./inp_files/471549.got.cif
#   From: 2010.05.17/outbox.cif.g08.bks.cpg/sg2_236_cif.got.tgz:471549.got - 2010.06.03 11:33:40.
