data_PCOD9081862
_publ_section_title
;
Structure prediction by ZEFSAII (Michael W. Deem and Ramdas Pophale) SiO2 
 PCOD9081862
Probable space group: P -1
;
_chemical_formula_sum "Si O2"
_cell_formula_units_Z 16
_cell_length_a 14.744332
_cell_length_b 9.882952
_cell_length_c 13.923790
_cell_angle_alpha 141.174562
_cell_angle_beta 130.044585
_cell_angle_gamma 47.311985
_cell_volume 905.350957
_symmetry_space_group_name_H-M "P -1"
_symmetry_group_IT_number 2
_symmetry_cell_setting 'triclinic'
loop_
_space_group_symop_operation_xyz
x,y,z
-x,-y,-z
loop_
_atom_site_type_symbol
_atom_site_label
_atom_site_fract_x
_atom_site_fract_y
_atom_site_fract_z
Si Si1 0.262991 0.913146 0.413320
Si Si2 0.400122 0.249953 0.780639
Si Si3 0.454875 0.972545 0.062199
Si Si4 0.721930 0.318339 0.188373
Si Si5 0.019163 0.723538 0.591643
Si Si6 0.633989 0.522288 0.625628
Si Si7 0.608730 0.057672 0.665037
Si Si8 0.239861 0.452786 0.473763
O O1 0.330201 0.081798 0.598804
O O2 0.114759 0.070189 0.391926
O O3 0.288350 0.689579 0.371169
O O4 0.329169 0.828600 0.308324
O O5 0.431471 0.187298 0.878552
O O6 0.321836 0.513351 0.840310
O O7 0.534306 0.185084 0.778735
O O8 0.397694 0.228015 0.210366
O O9 0.348461 0.857550 0.937198
O O10 0.500000 0.000000 0.000000
O O11 0.875523 0.213540 0.241199
O O12 0.688759 0.487018 0.352933
O O13 0.094506 0.619998 0.486595
O O14 0.000000 0.500000 0.500000
O O15 0.500000 0.500000 0.500000
O O16 0.706690 0.503382 0.565103
O O17 0.500000 0.000000 0.500000
O O18 0.723282 0.821618 0.643005
#
# Coordination Sequence:
#
# PCOD9081862 Si02
#       8
#     2   2   2   2   2   2   2   2
#     4  11  20  34  64  93 114 151 206 250 284 350
#     4  11  20  35  62  88 118 153 200 248 304 349
#     4  12  26  39  55  89 131 157 187 245 311 362
#     4  10  22  38  61  89 121 153 193 250 302 346
#     4  10  18  37  63  91 117 150 205 252 286 340
#     4  12  23  38  59  88 122 157 199 240 302 359
#     4  10  15  30  57  88 112 141 196 249 290 336
#     4  10  19  35  61  84 117 154 195 245 289 348
#
# _framework density 17.672704
#
# number of rings (size 3 to 8) (size 9 to 14) (size 15 to 20)
#    0.750    0.500    7.500    1.875    1.750    0.500 
#    0.000    0.625    0.000    3.000    0.000    0.000 
#    0.000    0.000    0.000    0.000    0.000    0.000 
#
# Total GULP energy -89139.730280 kJ/mol
# GULP energy per Si atom -5571.233142 kJ/mol
# Density = 1.763248 g / cm^3
# Si number density = 17.672704 Si / 1000 Ang^3
#
#
#
# Elastic Constant Matrix: (Units=GPa)
#
#
# Indices 1 2 3 4 5 6 
#
# 1 107.7554 56.5679 22.8190 -12.9589 -7.7948 12.7615
# 2 56.5679 136.1351 22.8183 -1.1493 0.4789 11.6529
# 3 22.8190 22.8183 44.4413 -4.6180 18.7802 -0.3499
# 4 -12.9589 -1.1493 -4.6180 17.9940 4.5746 -1.9793
# 5 -7.7948 0.4789 18.7802 4.5746 30.5872 -0.0337
# 6 12.7615 11.6529 -0.3499 -1.9793 -0.0337 41.1692
#
#
#
# Elastic Compliance Matrix: (Units=1/GPa)
#
#
# Indices 1 2 3 4 5 6 
#
# 1 0.015128 -0.004622 -0.008177 0.006113 0.008031 -0.003150
# 2 -0.004622 0.010033 -0.003985 -0.004339 0.001759 -0.001648
# 3 -0.008177 -0.003985 0.042978 0.013116 -0.030366 0.004634
# 4 0.006113 -0.004339 0.013116 0.067562 -0.016529 0.002680
# 5 0.008031 0.001759 -0.030366 -0.016529 0.055824 -0.003994
# 6 -0.003150 -0.001648 0.004634 0.002680 -0.003994 0.025898
#
#
# Mechanical properties :
#
#
# Convention : Reuss Voigt Hill
#
# Bulk Modulus (GPa) = 28.92782 54.74915 41.83848
# Shear Modulus (GPa) = 19.04658 30.35853 24.70255
#
# Velocity S-wave (km/s) = 3.28646 4.14916 3.74275
# Velocity P-wave (km/s) = 5.55025 7.34852 6.51176
#
# Compressibility (1/GPa) = 0.03456880
#
# Stress axis : x y z
#
# Youngs Moduli (GPa) = 66.10437 99.67603 23.26777
#
# Poissons Ratio (x) = 0.46073 0.19027
# Poissons Ratio (y) = 0.30555 0.09272
# Poissons Ratio (z) = 0.54056 0.39720
#
# Static dielectric constant tensor:
#      x y z
#    x 1.596440 0.001570 -0.013070 
#    y 0.001570 1.622270 -0.015280 
#    z -0.013070 -0.015280 1.633500 
# 
# From -- ./inp_files/529139.got.cif
#   From: 2010.05.17/outbox.cif.g08.bks.cpg/sg2_265_cif.got.tgz:529139.got - 2010.06.03 11:33:40.
