data_PCOD9081364
_publ_section_title
;
Structure prediction by ZEFSAII (Michael W. Deem and Ramdas Pophale) SiO2 
 PCOD9081364
Probable space group: P -1
;
_chemical_formula_sum "Si O2"
_cell_formula_units_Z 16
_cell_length_a 10.920331
_cell_length_b 10.875222
_cell_length_c 10.601840
_cell_angle_alpha 124.736957
_cell_angle_beta 96.117545
_cell_angle_gamma 123.841846
_cell_volume 673.563999
_symmetry_space_group_name_H-M "P -1"
_symmetry_group_IT_number 2
_symmetry_cell_setting 'triclinic'
loop_
_space_group_symop_operation_xyz
x,y,z
-x,-y,-z
loop_
_atom_site_type_symbol
_atom_site_label
_atom_site_fract_x
_atom_site_fract_y
_atom_site_fract_z
Si Si1 0.789464 0.040219 0.375093
Si Si2 0.804997 0.835528 0.806795
Si Si3 0.691641 0.645760 0.186129
Si Si4 0.124568 0.393349 0.446649
Si Si5 0.556887 0.774760 0.938487
Si Si6 0.007831 0.246896 0.890034
Si Si7 0.787376 0.249815 0.179770
Si Si8 0.913021 0.400852 0.766181
O O1 0.752411 0.868165 0.363827
O O2 0.653990 0.899345 0.157676
O O3 0.788581 0.202981 0.531668
O O4 0.995705 0.209937 0.437458
O O5 0.763622 0.638568 0.622392
O O6 0.656215 0.744803 0.842801
O O7 0.857555 0.010871 0.812531
O O8 0.000000 0.000000 0.000000
O O9 0.851312 0.726576 0.159344
O O10 0.500000 0.500000 0.000000
O O11 0.638578 0.478797 0.190631
O O12 0.233307 0.633958 0.656184
O O13 0.966346 0.316103 0.289360
O O14 0.613164 0.979042 0.993410
O O15 0.911509 0.281733 0.810208
O O16 0.131950 0.471010 0.124993
O O17 0.872533 0.391768 0.142795
#
# Coordination Sequence:
#
# PCOD9081364 Si02
#       8
#     2   2   2   2   2   2   2   2
#     4   9  17  34  54  84 110 142 181 232 277 316
#     4  12  17  31  54  83 104 136 188 235 266 307
#     4  10  20  37  53  81 115 145 184 223 278 335
#     4   9  16  27  52  80 108 130 180 236 272 301
#     4  10  19  31  56  80 113 142 179 227 276 326
#     4  11  22  37  57  86 108 149 186 226 280 324
#     4   9  16  31  49  79 109 137 174 228 274 315
#     4  10  21  36  58  82 116 141 187 231 271 330
#
# _framework density 23.754237
#
# number of rings (size 3 to 8) (size 9 to 14) (size 15 to 20)
#    0.000    2.000    5.000    1.500    0.000    0.500 
#    0.000    4.375    0.000    0.750    0.000    0.000 
#    0.000    0.000    0.000    0.000    0.000    0.000 
#
# Total GULP energy -89319.321642 kJ/mol
# GULP energy per Si atom -5582.457603 kJ/mol
# Density = 2.370017 g / cm^3
# Si number density = 23.754237 Si / 1000 Ang^3
#
#
#
# Elastic Constant Matrix: (Units=GPa)
#
#
# Indices 1 2 3 4 5 6 
#
# 1 51.1008 9.7692 26.6640 1.0560 -14.0009 -5.9393
# 2 9.7692 131.6254 23.1819 10.9418 -1.8766 -5.8845
# 3 26.6640 23.1819 96.2981 12.8659 -36.6151 3.1859
# 4 1.0560 10.9418 12.8659 30.5087 -5.9601 -9.7293
# 5 -14.0009 -1.8766 -36.6151 -5.9601 48.1680 0.8792
# 6 -5.9393 -5.8845 3.1859 -9.7293 0.8792 17.8421
#
#
#
# Elastic Compliance Matrix: (Units=1/GPa)
#
#
# Indices 1 2 3 4 5 6 
#
# 1 0.025654 -0.000551 -0.007471 0.007243 0.002406 0.013523
# 2 -0.000551 0.008270 -0.002428 -0.001596 -0.001922 0.002202
# 3 -0.007471 -0.002428 0.018806 -0.008361 0.011209 -0.011757
# 4 0.007243 -0.001596 -0.008361 0.045821 0.000840 0.028322
# 5 0.002406 -0.001922 0.011209 0.000840 0.030062 -0.002858
# 6 0.013523 0.002202 -0.011757 0.028322 -0.002858 0.078959
#
#
# Mechanical properties :
#
#
# Convention : Reuss Voigt Hill
#
# Bulk Modulus (GPa) = 31.41923 44.25050 37.83487
# Shear Modulus (GPa) = 20.91330 33.93104 27.42217
#
# Velocity S-wave (km/s) = 2.97038 3.78355 3.40135
# Velocity P-wave (km/s) = 5.00197 6.14458 5.60248
#
# Compressibility (1/GPa) = 0.03182764
#
# Stress axis : x y z
#
# Youngs Moduli (GPa) = 38.98027 120.92421 53.17554
#
# Poissons Ratio (x) = 0.06669 0.39727
# Poissons Ratio (y) = 0.02150 0.12913
# Poissons Ratio (z) = 0.29122 0.29365
#
# Static dielectric constant tensor:
#      x y z
#    x 1.924010 0.005000 -0.014730 
#    y 0.005000 1.844950 0.036760 
#    z -0.014730 0.036760 1.929520 
# 
# From -- ./inp_files/449375.got.cif
#   From: 2010.05.17/outbox.cif.g08.bks.cpg/sg2_225_cif.got.tgz:449375.got - 2010.06.03 11:33:40.
