data_PCOD9081218
_publ_section_title
;
Structure prediction by ZEFSAII (Michael W. Deem and Ramdas Pophale) SiO2 
 PCOD9081218
Probable space group: P -1
;
_chemical_formula_sum "Si O2"
_cell_formula_units_Z 16
_cell_length_a 11.248497
_cell_length_b 8.465292
_cell_length_c 22.080400
_cell_angle_alpha 48.274309
_cell_angle_beta 28.721376
_cell_angle_gamma 64.784910
_cell_volume 677.316137
_symmetry_space_group_name_H-M "P -1"
_symmetry_group_IT_number 2
_symmetry_cell_setting 'triclinic'
loop_
_space_group_symop_operation_xyz
x,y,z
-x,-y,-z
loop_
_atom_site_type_symbol
_atom_site_label
_atom_site_fract_x
_atom_site_fract_y
_atom_site_fract_z
Si Si1 0.587472 0.877327 0.242086
Si Si2 0.203176 0.249040 0.641191
Si Si3 0.910277 0.996614 0.662700
Si Si4 0.073452 0.373770 0.873232
Si Si5 0.629336 0.551398 0.620533
Si Si6 0.315835 0.124651 0.069230
Si Si7 0.568229 0.420011 0.054078
Si Si8 0.250424 0.711447 0.550439
O O1 0.446374 0.727749 0.281417
O O2 0.362563 0.828198 0.405452
O O3 0.765367 0.728332 0.216643
O O4 0.827188 0.139873 0.069862
O O5 0.258390 0.337997 0.524224
O O6 0.115062 0.431387 0.668619
O O7 0.481503 0.248979 0.540645
O O8 0.958995 0.989021 0.818580
O O9 0.080738 0.842033 0.619008
O O10 0.778620 0.952899 0.799626
O O11 0.644127 0.855132 0.774461
O O12 0.135764 0.269892 0.485929
O O13 0.320608 0.536476 0.765866
O O14 0.890659 0.481778 0.895860
O O15 0.466093 0.406225 0.926617
O O16 0.500000 0.000000 0.000000
O O17 0.500000 0.500000 0.000000
#
# Coordination Sequence:
#
# PCOD9081218 Si02
#       8
#     2   2   2   2   2   2   2   2
#     4   8  18  36  61  78 107 148 181 222 260 330
#     4   9  19  30  54  81 108 142 176 223 271 325
#     4  10  21  33  52  81 110 138 180 229 268 321
#     4   9  18  37  61  79 106 147 186 213 273 323
#     4   8  17  33  57  79 107 141 178 216 268 319
#     4  10  21  35  50  74 114 150 178 214 280 331
#     4  10  22  34  56  82 114 141 177 228 274 322
#     4  10  19  31  51  84 110 135 181 228 269 310
#
# _framework density 23.622647000000001
#
# number of rings (size 3 to 8) (size 9 to 14) (size 15 to 20)
#    0.750    2.000    0.000    0.750    5.250    3.000 
#    0.000    1.875    0.000    0.000    0.000    0.000 
#    0.000    0.000    0.000    0.000    0.000    0.000 
#
# Total GULP energy -89093.857113 kJ/mol
# GULP energy per Si atom -5568.366070 kJ/mol
# Density = 2.356888 g / cm^3
# Si number density = 23.622647 Si / 1000 Ang^3
#
#
#
# Elastic Constant Matrix: (Units=GPa)
#
#
# Indices 1 2 3 4 5 6 
#
# 1 18.8632 2.0781 17.7746 -5.4584 -15.3228 5.5301
# 2 2.0781 95.0072 53.2570 1.5644 -11.4809 23.3695
# 3 17.7746 53.2570 120.3307 -24.8294 -35.9404 21.9135
# 4 -5.4584 1.5644 -24.8294 63.3950 9.0469 -8.7527
# 5 -15.3228 -11.4809 -35.9404 9.0469 43.1735 -5.2176
# 6 5.5301 23.3695 21.9135 -8.7527 -5.2176 19.2526
#
#
#
# Elastic Compliance Matrix: (Units=1/GPa)
#
#
# Indices 1 2 3 4 5 6 
#
# 1 0.084451 0.010378 -0.005293 -0.002165 0.025779 -0.024828
# 2 0.010378 0.019694 -0.007090 -0.005485 0.001646 -0.020864
# 3 -0.005293 -0.007090 0.016453 0.004354 0.008499 -0.004318
# 4 -0.002165 -0.005485 0.004354 0.019086 -0.001315 0.010644
# 5 0.025779 0.001646 0.008499 -0.001315 0.038999 -0.009105
# 6 -0.024828 -0.020864 -0.004318 0.010644 -0.009105 0.091685
#
#
# Mechanical properties :
#
#
# Convention : Reuss Voigt Hill
#
# Bulk Modulus (GPa) = 8.57726 42.26894 25.42310
# Shear Modulus (GPa) = 15.96215 35.90365 25.93290
#
# Velocity S-wave (km/s) = 2.60227 3.90280 3.31690
# Velocity P-wave (km/s) = 3.55920 6.18396 5.04526
#
# Compressibility (1/GPa) = 0.11658739
#
# Stress axis : x y z
#
# Youngs Moduli (GPa) = 11.84124 50.77662 60.77734
#
# Poissons Ratio (x) = -0.52695 0.32172
# Poissons Ratio (y) = -0.12289 0.43090
# Poissons Ratio (z) = 0.06268 0.36000
#
# Static dielectric constant tensor:
#      x y z
#    x 1.961660 -0.023230 -0.045220 
#    y -0.023230 1.992970 -0.072990 
#    z -0.045220 -0.072990 1.953850 
# 
# From -- ./inp_files/623410.got.cif
#   From: 2010.05.17/outbox.cif.g08.bks.cpg/sg2_312_cif.got.tgz:623410.got - 2010.06.03 11:33:40.
