data_PCOD9081378
_publ_section_title
;
Structure prediction by ZEFSAII (Michael W. Deem and Ramdas Pophale) SiO2 
 PCOD9081378
Probable space group: P -1
;
_chemical_formula_sum "Si O2"
_cell_formula_units_Z 16
_cell_length_a 15.266102
_cell_length_b 11.293366
_cell_length_c 8.341490
_cell_angle_alpha 94.576349
_cell_angle_beta 35.728056
_cell_angle_gamma 115.909392
_cell_volume 643.624854
_symmetry_space_group_name_H-M "P -1"
_symmetry_group_IT_number 2
_symmetry_cell_setting 'triclinic'
loop_
_space_group_symop_operation_xyz
x,y,z
-x,-y,-z
loop_
_atom_site_type_symbol
_atom_site_label
_atom_site_fract_x
_atom_site_fract_y
_atom_site_fract_z
Si Si1 0.002915 0.862416 0.429865
Si Si2 0.717429 0.175701 0.878132
Si Si3 0.820486 0.636305 0.421614
Si Si4 0.351019 0.820438 0.350310
Si Si5 0.230957 0.096631 0.872758
Si Si6 0.579810 0.435869 0.486834
Si Si7 0.922016 0.104067 0.200131
Si Si8 0.816216 0.349755 0.078250
O O1 0.076605 0.791785 0.421495
O O2 0.817504 0.718155 0.591929
O O3 0.000000 0.000000 0.500000
O O4 0.171790 0.954638 0.051190
O O5 0.667741 0.240045 0.809819
O O6 0.714241 0.242275 0.060898
O O7 0.557949 0.988978 0.085311
O O8 0.624763 0.496651 0.608569
O O9 0.924327 0.768602 0.144002
O O10 0.967595 0.598949 0.230777
O O11 0.199903 0.850218 0.553167
O O12 0.281332 0.728247 0.611211
O O13 0.412291 0.253178 0.695409
O O14 0.234766 0.056252 0.679607
O O15 0.047470 0.093360 0.136154
O O16 0.500000 0.500000 0.500000
O O17 0.780109 0.473162 0.133395
#
# Coordination Sequence:
#
# PCOD9081378 Si02
#       8
#     2   2   2   2   2   2   2   2
#     4  10  20  37  60  85 122 160 199 253 311 362
#     4  10  20  35  57  94 119 154 204 253 304 367
#     4   9  20  38  59  87 118 160 206 242 305 370
#     4  10  19  34  59  87 121 152 206 250 305 362
#     4  10  19  31  56  85 121 152 205 244 309 356
#     4  12  22  37  60  91 120 159 207 256 298 368
#     4   9  17  33  54  86 113 156 193 254 296 359
#     4  10  21  38  62  82 123 165 201 248 308 359
#
# _framework density 24.859199
#
# number of rings (size 3 to 8) (size 9 to 14) (size 15 to 20)
#    0.000    2.000    1.250    3.750    0.000    0.000 
#    4.500    0.625    2.750    4.500    0.000    0.000 
#    0.000    0.000    0.000    0.000    0.000    0.000 
#
# Total GULP energy -89199.912487 kJ/mol
# GULP energy per Si atom -5574.994530 kJ/mol
# Density = 2.480262 g / cm^3
# Si number density = 24.859199 Si / 1000 Ang^3
#
#
#
# Elastic Constant Matrix: (Units=GPa)
#
#
# Indices 1 2 3 4 5 6 
#
# 1 183.6434 57.2478 35.5192 10.2479 -16.5841 30.4629
# 2 57.2478 119.9016 21.1203 5.2284 -11.2170 37.3763
# 3 35.5192 21.1203 34.9538 -3.4483 3.4335 13.0315
# 4 10.2479 5.2284 -3.4483 33.7053 4.5283 -13.9489
# 5 -16.5841 -11.2170 3.4335 4.5283 30.2669 -0.8060
# 6 30.4629 37.3763 13.0315 -13.9489 -0.8060 53.6145
#
#
#
# Elastic Compliance Matrix: (Units=1/GPa)
#
#
# Indices 1 2 3 4 5 6 
#
# 1 0.008811 -0.000662 -0.008272 -0.005915 0.006300 -0.003978
# 2 -0.000662 0.013392 -0.005184 -0.007130 0.006003 -0.009465
# 3 -0.008272 -0.005184 0.042201 0.009473 -0.012649 0.000331
# 4 -0.005915 -0.007130 0.009473 0.042228 -0.012828 0.016822
# 5 0.006300 0.006003 -0.012649 -0.012828 0.041873 -0.007398
# 6 -0.003978 -0.009465 0.000331 0.016822 -0.007398 0.031695
#
#
# Mechanical properties :
#
#
# Convention : Reuss Voigt Hill
#
# Bulk Modulus (GPa) = 27.64884 62.91927 45.28406
# Shear Modulus (GPa) = 22.67657 38.49143 30.58400
#
# Velocity S-wave (km/s) = 3.02354 3.93921 3.51135
# Velocity P-wave (km/s) = 4.83067 6.78639 5.89027
#
# Compressibility (1/GPa) = 0.03616788
#
# Stress axis : x y z
#
# Youngs Moduli (GPa) = 113.49993 74.66960 23.69609
#
# Poissons Ratio (x) = 0.04945 0.19602
# Poissons Ratio (y) = 0.07517 0.12283
# Poissons Ratio (z) = 0.93890 0.38705
#
# Static dielectric constant tensor:
#      x y z
#    x 2.059030 0.095270 0.061060 
#    y 0.095270 2.078000 0.047210 
#    z 0.061060 0.047210 2.089650 
# 
# From -- ./inp_files/305303.got.cif
#   From: 2010.05.17/outbox.cif.g08.bks.cpg/sg2_153_cif.got.tgz:305303.got - 2010.06.03 11:33:40.
