data_PCOD9081664
_publ_section_title
;
Structure prediction by ZEFSAII (Michael W. Deem and Ramdas Pophale) SiO2 
 PCOD9081664
Probable space group: P -1
;
_chemical_formula_sum "Si O2"
_cell_formula_units_Z 14
_cell_length_a 9.657094
_cell_length_b 16.455548
_cell_length_c 10.338528
_cell_angle_alpha 125.339264
_cell_angle_beta 41.639677
_cell_angle_gamma 140.441820
_cell_volume 695.207934
_symmetry_space_group_name_H-M "P -1"
_symmetry_group_IT_number 2
_symmetry_cell_setting 'triclinic'
loop_
_space_group_symop_operation_xyz
x,y,z
-x,-y,-z
loop_
_atom_site_type_symbol
_atom_site_label
_atom_site_fract_x
_atom_site_fract_y
_atom_site_fract_z
Si Si1 0.357831 0.038137 0.394137
Si Si2 0.705827 0.014226 0.970221
Si Si3 0.407032 0.775660 0.384662
Si Si4 0.742021 0.865755 0.996582
Si Si5 0.862820 0.825729 0.393677
Si Si6 0.153070 0.331249 0.201602
Si Si7 0.378426 0.374723 0.811157
O O1 0.623009 0.056175 0.189258
O O2 0.398223 0.085957 0.554874
O O3 0.326097 0.133457 0.423852
O O4 0.090932 0.898249 0.411018
O O5 0.685851 0.896050 0.924154
O O6 0.980484 0.106651 0.789011
O O7 0.500000 0.000000 0.000000
O O8 0.479075 0.805289 0.211944
O O9 0.485299 0.687548 0.292944
O O10 0.114665 0.708640 0.581948
O O11 0.802965 0.767910 0.872435
O O12 0.000000 0.000000 0.000000
O O13 0.723906 0.682173 0.314953
O O14 0.402859 0.473719 0.200651
O O15 0.165617 0.336481 0.039250
#
# Coordination Sequence:
#
# PCOD9081664 Si02
#       7
#     2   2   2   2   2   2   2
#     4   9  17  29  49  76 102 132 168 215 265 308
#     4  10  20  34  52  77 106 140 179 220 269 324
#     4  10  19  32  53  82 110 138 176 220 271 321
#     4  11  22  34  52  82 112 138 178 227 275 321
#     4   9  17  31  51  76 102 133 177 217 258 315
#     4  10  20  33  51  76 111 146 176 222 271 313
#     4   9  18  33  52  77 109 145 183 216 259 326
#
# _framework density 20.137858999999999
#
# number of rings (size 3 to 8) (size 9 to 14) (size 15 to 20)
#    0.000    2.286    0.000    4.714    0.000    3.429 
#    0.000    0.000    0.000    3.429    0.000   44.000 
#    0.000    0.000    0.000    0.000    0.000    0.000 
#
# Total GULP energy -77986.342235 kJ/mol
# GULP energy per Si atom -5570.453017 kJ/mol
# Density = 2.009202 g / cm^3
# Si number density = 20.137859 Si / 1000 Ang^3
#
#
#
# Elastic Constant Matrix: (Units=GPa)
#
#
# Indices 1 2 3 4 5 6 
#
# 1 53.4479 30.2476 14.2696 -9.3634 -5.6819 -4.1664
# 2 30.2476 115.9678 21.8932 9.7026 2.1613 9.4912
# 3 14.2696 21.8932 93.2123 -8.7709 -30.0035 -4.1409
# 4 -9.3634 9.7026 -8.7709 27.0303 7.0609 2.7961
# 5 -5.6819 2.1613 -30.0035 7.0609 29.1624 2.3832
# 6 -4.1664 9.4912 -4.1409 2.7961 2.3832 23.5026
#
#
#
# Elastic Compliance Matrix: (Units=1/GPa)
#
#
# Indices 1 2 3 4 5 6 
#
# 1 0.026016 -0.008276 0.000118 0.010650 0.002699 0.006434
# 2 -0.008276 0.012724 -0.004135 -0.006940 -0.004636 -0.006038
# 3 0.000118 -0.004135 0.017755 0.002353 0.017803 0.002734
# 4 0.010650 -0.006940 0.002353 0.045482 -0.006027 0.000305
# 5 0.002699 -0.004636 0.017803 -0.006027 0.054884 0.000639
# 6 0.006434 -0.006038 0.002734 0.000305 0.000639 0.046508
#
#
# Mechanical properties :
#
#
# Convention : Reuss Voigt Hill
#
# Bulk Modulus (GPa) = 31.33984 43.93877 37.63930
# Shear Modulus (GPa) = 20.95634 29.02023 24.98829
#
# Velocity S-wave (km/s) = 3.22940 3.80027 3.52641
# Velocity P-wave (km/s) = 5.43156 6.41268 5.94240
#
# Compressibility (1/GPa) = 0.03190827
#
# Stress axis : x y z
#
# Youngs Moduli (GPa) = 38.43747 78.59430 56.32284
#
# Poissons Ratio (x) = 0.65045 -0.00664
# Poissons Ratio (y) = 0.31811 0.23290
# Poissons Ratio (z) = -0.00453 0.32499
#
# Static dielectric constant tensor:
#      x y z
#    x 1.752120 0.047290 0.018780 
#    y 0.047290 1.746710 0.043380 
#    z 0.018780 0.043380 1.812240 
# 
# From -- ./inp_files/202906.got.cif
#   From: 2010.05.17/outbox.cif.g08.bks.cpg/sg2_102_cif.got.tgz:202906.got - 2010.06.03 11:33:40.
