data_PCOD9081202
_publ_section_title
;
Structure prediction by ZEFSAII (Michael W. Deem and Ramdas Pophale) SiO2 
 PCOD9081202
Probable space group: P -1
;
_chemical_formula_sum "Si O2"
_cell_formula_units_Z 14
_cell_length_a 20.296998
_cell_length_b 9.931465
_cell_length_c 7.916740
_cell_angle_alpha 88.807708
_cell_angle_beta 118.004711
_cell_angle_gamma 145.329327
_cell_volume 549.968730
_symmetry_space_group_name_H-M "P -1"
_symmetry_group_IT_number 2
_symmetry_cell_setting 'triclinic'
loop_
_space_group_symop_operation_xyz
x,y,z
-x,-y,-z
loop_
_atom_site_type_symbol
_atom_site_label
_atom_site_fract_x
_atom_site_fract_y
_atom_site_fract_z
Si Si1 0.422442 0.521286 0.379738
Si Si2 0.454791 0.849636 0.274780
Si Si3 0.982837 0.764272 0.806655
Si Si4 0.165194 0.722219 0.562321
Si Si5 0.007562 0.072671 0.692547
Si Si6 0.439800 0.102268 0.145515
Si Si7 0.975953 0.629924 0.167407
O O1 0.500000 0.500000 0.500000
O O2 0.520696 0.803429 0.375565
O O3 0.428806 0.598069 0.573530
O O4 0.211982 0.148556 0.060098
O O5 0.505211 0.055131 0.201282
O O6 0.500000 0.000000 0.500000
O O7 0.228672 0.457393 0.994973
O O8 0.888194 0.516120 0.555835
O O9 0.920845 0.815996 0.716758
O O10 0.944111 0.634849 0.943554
O O11 0.000000 0.500000 0.500000
O O12 0.120991 0.747198 0.351859
O O13 0.372270 0.061341 0.891959
O O14 0.929528 0.092310 0.617529
O O15 0.000000 0.000000 0.500000
O O16 0.232207 0.751729 0.999763
#
# Coordination Sequence:
#
# PCOD9081202 Si02
#       7
#     2   2   2   2   2   2   2
#     4  10  19  31  51  78 103 134 176 216 256 308
#     4   8  16  30  49  72  98 130 168 208 248 301
#     4  11  21  34  54  81 108 135 173 223 265 302
#     4  10  19  33  53  76 103 140 178 211 253 314
#     4  10  19  33  55  81 105 135 174 215 257 312
#     4   9  18  35  54  73 101 140 177 209 253 319
#     4  10  20  34  54  81 108 136 171 218 267 310
#
# _framework density 25.455995000000001
#
# number of rings (size 3 to 8) (size 9 to 14) (size 15 to 20)
#    0.000    2.286    0.000    5.143    0.000    1.143 
#    0.000    0.714    0.000   10.286    0.000   42.000 
#    0.000    0.000    0.000    0.000    0.000    0.000 
#
# Total GULP energy -78197.863918 kJ/mol
# GULP energy per Si atom -5585.561708 kJ/mol
# Density = 2.539806 g / cm^3
# Si number density = 25.455995 Si / 1000 Ang^3
#
#
#
# Elastic Constant Matrix: (Units=GPa)
#
#
# Indices 1 2 3 4 5 6 
#
# 1 94.2471 38.1509 24.9959 9.7643 3.1225 -35.1941
# 2 38.1509 76.6653 17.6337 -8.1510 14.3662 -28.3344
# 3 24.9959 17.6337 114.9034 4.5255 -11.7428 -7.3591
# 4 9.7643 -8.1510 4.5255 36.1235 -6.5902 -6.9492
# 5 3.1225 14.3662 -11.7428 -6.5902 47.1939 -7.2815
# 6 -35.1941 -28.3344 -7.3591 -6.9492 -7.2815 43.1004
#
#
#
# Elastic Compliance Matrix: (Units=1/GPa)
#
#
# Indices 1 2 3 4 5 6 
#
# 1 0.017252 -0.004885 -0.002129 -0.003387 0.000904 0.010119
# 2 -0.004885 0.021347 -0.002281 0.007635 -0.004104 0.010193
# 3 -0.002129 -0.002281 0.009775 -0.000855 0.002962 -0.001207
# 4 -0.003387 0.007635 -0.000855 0.032589 0.003464 0.007947
# 5 0.000904 -0.004104 0.002962 0.003464 0.024089 0.003174
# 6 0.010119 0.010193 -0.001207 0.007947 0.003174 0.039777
#
#
# Mechanical properties :
#
#
# Convention : Reuss Voigt Hill
#
# Bulk Modulus (GPa) = 33.57460 49.70853 41.64156
# Shear Modulus (GPa) = 28.84360 38.95259 33.89810
#
# Velocity S-wave (km/s) = 3.36977 3.91601 3.65312
# Velocity P-wave (km/s) = 5.32526 6.32586 5.84700
#
# Compressibility (1/GPa) = 0.02978442
#
# Stress axis : x y z
#
# Youngs Moduli (GPa) = 57.96308 46.84447 102.29863
#
# Poissons Ratio (x) = 0.22884 0.21784
# Poissons Ratio (y) = 0.28316 0.23330
# Poissons Ratio (z) = 0.12343 0.10683
#
# Static dielectric constant tensor:
#      x y z
#    x 2.033660 0.039130 0.026220 
#    y 0.039130 2.133270 -0.086870 
#    z 0.026220 -0.086870 2.003850 
# 
# From -- ./inp_files/207695.got.cif
#   From: 2010.05.17/outbox.cif.g08.bks.cpg/sg2_104_cif.got.tgz:207695.got - 2010.06.03 11:33:40.
