data_PCOD9081581
_publ_section_title
;
Structure prediction by ZEFSAII (Michael W. Deem and Ramdas Pophale) SiO2 
 PCOD9081581
Probable space group: P -1
;
_chemical_formula_sum "Si O2"
_cell_formula_units_Z 16
_cell_length_a 7.163184
_cell_length_b 10.335004
_cell_length_c 17.126071
_cell_angle_alpha 133.732314
_cell_angle_beta 130.762066
_cell_angle_gamma 46.731570
_cell_volume 627.246726
_symmetry_space_group_name_H-M "P -1"
_symmetry_group_IT_number 2
_symmetry_cell_setting 'triclinic'
loop_
_space_group_symop_operation_xyz
x,y,z
-x,-y,-z
loop_
_atom_site_type_symbol
_atom_site_label
_atom_site_fract_x
_atom_site_fract_y
_atom_site_fract_z
Si Si1 0.347882 0.353314 0.877924
Si Si2 0.114115 0.550138 0.743741
Si Si3 0.638556 0.587022 0.925972
Si Si4 0.714185 0.157923 0.278970
Si Si5 0.695467 0.578620 0.416419
Si Si6 0.275261 0.155327 0.059527
Si Si7 0.486226 0.288797 0.421269
Si Si8 0.839878 0.133357 0.837271
O O1 0.119041 0.465392 0.796755
O O2 0.552475 0.160481 0.805466
O O3 0.500000 0.500000 0.000000
O O4 0.302515 0.315458 0.939195
O O5 0.313585 0.659915 0.854626
O O6 0.276632 0.385666 0.652573
O O7 0.815421 0.672260 0.677402
O O8 0.770303 0.642066 0.911511
O O9 0.758996 0.351236 0.869621
O O10 0.640694 0.383818 0.328040
O O11 0.442911 0.131156 0.172326
O O12 0.726313 0.144135 0.370187
O O13 0.975206 0.022686 0.241509
O O14 0.510459 0.739887 0.496213
O O15 0.000000 0.500000 0.500000
O O16 0.011763 0.120733 0.957968
O O17 0.500000 0.000000 0.000000
O O18 0.500000 0.500000 0.500000
#
# Coordination Sequence:
#
# PCOD9081581 Si02
#       8
#     2   2   2   2   2   2   2   2
#     4   8  18  32  54  75 107 147 184 211 257 338
#     4   9  16  32  55  79 102 140 188 222 271 315
#     4  10  19  35  56  78 110 155 181 214 264 338
#     4  10  19  32  52  79 112 142 177 233 280 310
#     4   9  17  33  54  78 102 139 191 234 271 314
#     4  10  20  33  52  83 111 144 181 219 269 327
#     4   9  19  31  52  81 106 141 186 238 271 317
#     4   9  19  34  51  79 116 144 178 215 273 336
#
# _framework density 25.508302
#
# number of rings (size 3 to 8) (size 9 to 14) (size 15 to 20)
#    0.000    3.000    1.250    0.375    5.250    0.000 
#    0.000    7.500    0.000   30.000    0.000    0.000 
#    0.000    0.000    0.000    0.000    0.000    0.000 
#
# Total GULP energy -89153.344110 kJ/mol
# GULP energy per Si atom -5572.084007 kJ/mol
# Density = 2.545024 g / cm^3
# Si number density = 25.508302 Si / 1000 Ang^3
#
#
#
# Elastic Constant Matrix: (Units=GPa)
#
#
# Indices 1 2 3 4 5 6 
#
# 1 77.9907 17.4327 47.8347 4.6103 -38.3618 -8.2423
# 2 17.4327 67.3789 36.0998 6.5336 -5.9589 -9.2401
# 3 47.8347 36.0998 133.2402 0.6312 -61.3691 -8.5872
# 4 4.6103 6.5336 0.6312 26.8588 -13.7708 -10.2692
# 5 -38.3618 -5.9589 -61.3691 -13.7708 77.5122 2.2384
# 6 -8.2423 -9.2401 -8.5872 -10.2692 2.2384 36.1144
#
#
#
# Elastic Compliance Matrix: (Units=1/GPa)
#
#
# Indices 1 2 3 4 5 6 
#
# 1 0.018803 -0.002787 -0.002245 0.002731 0.007703 0.003343
# 2 -0.002787 0.019868 -0.007629 -0.007538 -0.007259 0.000940
# 3 -0.002245 -0.007629 0.016585 0.009894 0.013091 0.003481
# 4 0.002731 -0.007538 0.009894 0.053158 0.017614 0.015071
# 5 0.007703 -0.007259 0.013091 0.017614 0.029470 0.006196
# 6 0.003343 0.000940 0.003481 0.015071 0.006196 0.033423
#
#
# Mechanical properties :
#
#
# Convention : Reuss Voigt Hill
#
# Bulk Modulus (GPa) = 33.40786 53.48270 43.44528
# Shear Modulus (GPa) = 24.20058 39.91324 32.05691
#
# Velocity S-wave (km/s) = 3.08349 3.95994 3.54888
# Velocity P-wave (km/s) = 5.07962 6.47460 5.81906
#
# Compressibility (1/GPa) = 0.02993308
#
# Stress axis : x y z
#
# Youngs Moduli (GPa) = 53.18432 50.33227 60.29421
#
# Poissons Ratio (x) = 0.14028 0.13536
# Poissons Ratio (y) = 0.14823 0.46001
# Poissons Ratio (z) = 0.11940 0.38401
#
# Static dielectric constant tensor:
#      x y z
#    x 2.188980 0.026240 -0.022350 
#    y 0.026240 2.143350 0.032500 
#    z -0.022350 0.032500 2.109080 
# 
# From -- ./inp_files/560935.got.cif
#   From: 2010.05.17/outbox.cif.g08.bks.cpg/sg2_281_cif.got.tgz:560935.got - 2010.06.03 11:33:40.
