data_PCOD9081991
_publ_section_title
;
Structure prediction by ZEFSAII (Michael W. Deem and Ramdas Pophale) SiO2 
 PCOD9081991
Probable space group: P -1
;
_chemical_formula_sum "Si O2"
_cell_formula_units_Z 16
_cell_length_a 8.866676
_cell_length_b 9.860681
_cell_length_c 11.572303
_cell_angle_alpha 63.745132
_cell_angle_beta 109.339363
_cell_angle_gamma 136.271849
_cell_volume 627.123074
_symmetry_space_group_name_H-M "P -1"
_symmetry_group_IT_number 2
_symmetry_cell_setting 'triclinic'
loop_
_space_group_symop_operation_xyz
x,y,z
-x,-y,-z
loop_
_atom_site_type_symbol
_atom_site_label
_atom_site_fract_x
_atom_site_fract_y
_atom_site_fract_z
Si Si1 0.039296 0.525446 0.851350
Si Si2 0.684021 0.743896 0.704362
Si Si3 0.599160 0.370579 0.546511
Si Si4 0.285853 0.944044 0.701428
Si Si5 0.359855 0.084879 0.142822
Si Si6 0.346711 0.611410 0.087013
Si Si7 0.051803 0.667982 0.312485
Si Si8 0.976419 0.816889 0.460349
O O1 0.779174 0.356814 0.869336
O O2 0.102116 0.526776 0.736105
O O3 0.108436 0.744949 0.810896
O O4 0.175866 0.507456 0.975840
O O5 0.510853 0.685767 0.585807
O O6 0.652469 0.802463 0.799133
O O7 0.641043 0.541263 0.793232
O O8 0.924306 0.954814 0.637300
O O9 0.771765 0.342670 0.597979
O O10 0.261674 0.389541 0.474182
O O11 0.411486 0.184795 0.656010
O O12 0.471961 0.936001 0.763224
O O13 0.159857 0.880167 0.572553
O O14 0.135051 0.849997 0.175948
O O15 0.435739 0.193887 0.996358
O O16 0.980877 0.718061 0.384305
#
# Coordination Sequence:
#
# PCOD9081991 Si02
#       8
#     2   2   2   2   2   2   2   2
#     4  10  21  38  60  77 106 155 193 227 264 321
#     4  10  21  37  56  85 119 142 175 228 284 338
#     4  10  19  32  59  87 113 143 172 230 288 327
#     4   9  18  34  58  86 115 140 184 229 272 331
#     4   9  19  35  58  87 109 143 184 233 280 316
#     4  10  22  40  56  75 110 159 190 220 272 324
#     4  10  19  33  58  89 111 137 189 235 271 325
#     4  10  19  33  56  91 115 141 176 227 289 330
#
# _framework density 25.513331999999998
#
# number of rings (size 3 to 8) (size 9 to 14) (size 15 to 20)
#    0.000    2.250    1.250    1.500    3.500    3.500 
#    2.250    4.375    0.000    0.000    0.000    0.000 
#    0.000    0.000    0.000    0.000    0.000    0.000 
#
# Total GULP energy -89260.680186 kJ/mol
# GULP energy per Si atom -5578.792512 kJ/mol
# Density = 2.545526 g / cm^3
# Si number density = 25.513332 Si / 1000 Ang^3
#
#
#
# Elastic Constant Matrix: (Units=GPa)
#
#
# Indices 1 2 3 4 5 6 
#
# 1 27.9439 5.4054 14.4671 -1.4075 -9.5835 -11.5345
# 2 5.4054 135.1031 50.6010 -27.1164 1.3729 5.2259
# 3 14.4671 50.6010 131.6369 -32.4378 9.9879 -1.5800
# 4 -1.4075 -27.1164 -32.4378 47.9584 4.7289 -10.0487
# 5 -9.5835 1.3729 9.9879 4.7289 27.7401 -2.9143
# 6 -11.5345 5.2259 -1.5800 -10.0487 -2.9143 33.3023
#
#
#
# Elastic Compliance Matrix: (Units=1/GPa)
#
#
# Indices 1 2 3 4 5 6 
#
# 1 0.057654 -0.000757 -0.008340 -0.002462 0.025604 0.021190
# 2 -0.000757 0.009088 -0.002596 0.003218 -0.000417 -0.000877
# 3 -0.008340 -0.002596 0.011862 0.007016 -0.008275 -0.000526
# 4 -0.002462 0.003218 0.007016 0.029631 -0.007827 0.007231
# 5 0.025604 -0.000417 -0.008275 -0.007827 0.050341 0.010584
# 6 0.021190 -0.000877 -0.000526 0.007231 0.010584 0.040588
#
#
# Mechanical properties :
#
#
# Convention : Reuss Voigt Hill
#
# Bulk Modulus (GPa) = 18.11040 48.40346 33.25693
# Shear Modulus (GPa) = 20.75061 36.74750 28.74905
#
# Velocity S-wave (km/s) = 2.85498 3.79928 3.36046
# Velocity P-wave (km/s) = 4.24048 6.18539 5.30286
#
# Compressibility (1/GPa) = 0.05521689
#
# Stress axis : x y z
#
# Youngs Moduli (GPa) = 17.34488 110.02945 84.30473
#
# Poissons Ratio (x) = 0.08328 0.70313
# Poissons Ratio (y) = 0.01313 0.21889
# Poissons Ratio (z) = 0.14466 0.28568
#
# Static dielectric constant tensor:
#      x y z
#    x 2.098660 0.105430 -0.059040 
#    y 0.105430 2.109960 -0.103310 
#    z -0.059040 -0.103310 2.000060 
# 
# From -- ./inp_files/188721.got.cif
#   From: 2010.05.17/outbox.cif.g08.bks.cpg/sg2_95_cif.got.tgz:188721.got - 2010.06.03 11:33:40.
