data_PCOD9081032
_publ_section_title
;
Structure prediction by ZEFSAII (Michael W. Deem and Ramdas Pophale) SiO2 
 PCOD9081032
Probable space group: P -1
;
_chemical_formula_sum "Si O2"
_cell_formula_units_Z 16
_cell_length_a 8.674700
_cell_length_b 12.990934
_cell_length_c 11.522666
_cell_angle_alpha 105.177866
_cell_angle_beta 58.915244
_cell_angle_gamma 135.826462
_cell_volume 762.004504
_symmetry_space_group_name_H-M "P -1"
_symmetry_group_IT_number 2
_symmetry_cell_setting 'triclinic'
loop_
_space_group_symop_operation_xyz
x,y,z
-x,-y,-z
loop_
_atom_site_type_symbol
_atom_site_label
_atom_site_fract_x
_atom_site_fract_y
_atom_site_fract_z
Si Si1 0.716012 0.239264 0.680758
Si Si2 0.305430 0.585238 0.080954
Si Si3 0.838362 0.699156 0.884617
Si Si4 0.526392 0.180337 0.084078
Si Si5 0.104677 0.264220 0.392021
Si Si6 0.713275 0.844972 0.593755
Si Si7 0.322149 0.967677 0.905840
Si Si8 0.377273 0.067280 0.562619
O O1 0.777583 0.365187 0.774093
O O2 0.489573 0.173767 0.660853
O O3 0.943800 0.285917 0.529782
O O4 0.586477 0.093864 0.769421
O O5 0.146996 0.411299 0.095507
O O6 0.593176 0.662232 0.011038
O O7 0.312285 0.654483 0.979421
O O8 0.799303 0.661989 0.750350
O O9 0.093353 0.865444 0.874117
O O10 0.384470 0.149166 0.246697
O O11 0.679041 0.137619 0.044529
O O12 0.332197 0.069208 0.022741
O O13 0.288331 0.282664 0.418278
O O14 0.914138 0.088569 0.375364
O O15 0.559285 0.835309 0.545793
O O16 0.000000 0.000000 0.500000
O O17 0.500000 0.000000 0.500000
#
# Coordination Sequence:
#
# PCOD9081032 Si02
#       8
#     2   2   2   2   2   2   2   2
#     4  10  20  37  58  89 112 144 191 249 279 346
#     4  10  24  40  56  82 121 152 200 233 285 343
#     4  11  22  39  59  83 113 164 191 234 285 351
#     4  10  20  37  56  89 116 146 186 248 285 342
#     4  10  19  33  57  84 114 147 193 232 292 338
#     4  10  19  30  53  87 117 145 181 236 296 334
#     4  10  21  35  62  86 118 143 193 240 297 337
#     4   9  17  30  54  87 114 141 180 235 286 339
#
# _framework density 20.997250000000001
#
# number of rings (size 3 to 8) (size 9 to 14) (size 15 to 20)
#    0.000    2.000    2.500    2.250    1.750    5.000 
#    0.000    0.000    0.000    0.750    0.000    0.000 
#    0.000    0.000    0.000    0.000    0.000    0.000 
#
# Total GULP energy -89124.489747 kJ/mol
# GULP energy per Si atom -5570.280609 kJ/mol
# Density = 2.094946 g / cm^3
# Si number density = 20.997250 Si / 1000 Ang^3
#
#
#
# Elastic Constant Matrix: (Units=GPa)
#
#
# Indices 1 2 3 4 5 6 
#
# 1 67.4865 21.6660 16.5472 -1.3621 25.0149 -20.8537
# 2 21.6660 45.9727 20.9543 -0.5733 5.2091 -15.0326
# 3 16.5472 20.9543 103.8860 7.7735 22.9806 -9.1772
# 4 -1.3621 -0.5733 7.7735 16.5713 -7.3428 5.7952
# 5 25.0149 5.2091 22.9806 -7.3428 32.6457 -8.8068
# 6 -20.8537 -15.0326 -9.1772 5.7952 -8.8068 25.7857
#
#
#
# Elastic Compliance Matrix: (Units=1/GPa)
#
#
# Indices 1 2 3 4 5 6 
#
# 1 0.030331 -0.008571 0.005142 -0.017060 -0.024820 0.016720
# 2 -0.008571 0.031472 -0.006471 0.003806 0.010117 0.011713
# 3 0.005142 -0.006471 0.015122 -0.015285 -0.015980 0.003745
# 4 -0.017060 0.003806 -0.015285 0.091373 0.037061 -0.024896
# 5 -0.024820 0.010117 -0.015980 0.037061 0.066106 -0.005613
# 6 0.016720 0.011713 0.003745 -0.024896 -0.005613 0.064143
#
#
# Mechanical properties :
#
#
# Convention : Reuss Voigt Hill
#
# Bulk Modulus (GPa) = 17.50589 37.29781 27.40185
# Shear Modulus (GPa) = 14.81973 25.54573 20.18273
#
# Velocity S-wave (km/s) = 2.65956 3.49180 3.10370
# Velocity P-wave (km/s) = 4.21739 5.83597 5.09141
#
# Compressibility (1/GPa) = 0.05712363
#
# Stress axis : x y z
#
# Youngs Moduli (GPa) = 32.96984 31.77434 66.13040
#
# Poissons Ratio (x) = 0.27234 -0.34002
# Poissons Ratio (y) = 0.28259 0.42792
# Poissons Ratio (z) = -0.16952 0.20561
#
# Static dielectric constant tensor:
#      x y z
#    x 1.874350 -0.021620 0.007620 
#    y -0.021620 1.850370 0.027840 
#    z 0.007620 0.027840 1.814270 
# 
# From -- ./inp_files/392674.got.cif
#   From: 2010.05.17/outbox.cif.g08.bks.cpg/sg2_197_cif.got.tgz:392674.got - 2010.06.03 11:33:40.
