data_PCOD9081137
_publ_section_title
;
Structure prediction by ZEFSAII (Michael W. Deem and Ramdas Pophale) SiO2 
 PCOD9081137
Probable space group: P -1
;
_chemical_formula_sum "Si O2"
_cell_formula_units_Z 16
_cell_length_a 10.369913
_cell_length_b 14.140163
_cell_length_c 5.744990
_cell_angle_alpha 115.900220
_cell_angle_beta 98.021312
_cell_angle_gamma 53.035486
_cell_volume 596.528769
_symmetry_space_group_name_H-M "P -1"
_symmetry_group_IT_number 2
_symmetry_cell_setting 'triclinic'
loop_
_space_group_symop_operation_xyz
x,y,z
-x,-y,-z
loop_
_atom_site_type_symbol
_atom_site_label
_atom_site_fract_x
_atom_site_fract_y
_atom_site_fract_z
Si Si1 0.211218 0.509098 0.983510
Si Si2 0.639369 0.789732 0.295766
Si Si3 0.673323 0.191573 0.690134
Si Si4 0.850480 0.502584 0.542317
Si Si5 0.379758 0.597977 0.378073
Si Si6 0.397673 0.181932 0.172645
Si Si7 0.787724 0.016923 0.130960
Si Si8 0.869520 0.198721 0.114284
O O1 0.109402 0.560645 0.256571
O O2 0.358755 0.512372 0.104070
O O3 0.247126 0.367765 0.824710
O O4 0.167583 0.561153 0.762888
O O5 0.460555 0.821490 0.254205
O O6 0.648419 0.839262 0.604323
O O7 0.663810 0.837944 0.109712
O O8 0.574537 0.309800 0.603501
O O9 0.799894 0.056079 0.438755
O O10 0.763353 0.242278 0.899850
O O11 0.691394 0.658779 0.693746
O O12 0.000000 0.500000 0.500000
O O13 0.500000 0.500000 0.500000
O O14 0.210538 0.703016 0.585524
O O15 0.596375 0.083406 0.122743
O O16 0.831639 0.094307 0.060847
O O17 0.941562 0.867495 0.955884
#
# Coordination Sequence:
#
# PCOD9081137 Si02
#       8
#     2   2   2   2   2   2   2   2
#     4  10  22  35  54  79 113 145 180 227 275 336
#     4   9  17  29  48  72 103 141 173 214 255 319
#     4  10  19  31  49  70 107 148 197 220 261 313
#     4  10  21  38  60  82 107 138 184 240 296 334
#     4  11  25  33  49  78 116 160 190 215 265 340
#     4   9  17  31  50  78 102 131 175 221 284 319
#     4   9  18  31  48  74 103 147 184 239 263 311
#     4  10  19  32  48  70 109 147 196 219 267 315
#
# _framework density 26.821843000000001
#
# number of rings (size 3 to 8) (size 9 to 14) (size 15 to 20)
#    0.000    2.250    1.250    1.500   12.250    1.000 
#    0.000    0.000    0.000    0.000    0.000    1.750 
#    0.000    0.000    0.000    0.000    0.000    0.000 
#
# Total GULP energy -89210.405146 kJ/mol
# GULP energy per Si atom -5575.650322 kJ/mol
# Density = 2.676080 g / cm^3
# Si number density = 26.821843 Si / 1000 Ang^3
#
#
#
# Elastic Constant Matrix: (Units=GPa)
#
#
# Indices 1 2 3 4 5 6 
#
# 1 55.9119 6.9752 15.5005 -0.9466 -10.8578 -11.9658
# 2 6.9752 64.7937 33.3716 8.8978 -5.3445 -4.1029
# 3 15.5005 33.3716 151.0459 -28.4288 -13.9483 3.8975
# 4 -0.9466 8.8978 -28.4288 54.5833 1.4057 -10.9064
# 5 -10.8578 -5.3445 -13.9483 1.4057 36.3086 -3.7689
# 6 -11.9658 -4.1029 3.8975 -10.9064 -3.7689 33.9393
#
#
#
# Elastic Compliance Matrix: (Units=1/GPa)
#
#
# Indices 1 2 3 4 5 6 
#
# 1 0.021580 -0.000658 -0.001430 0.001336 0.006675 0.008863
# 2 -0.000658 0.019065 -0.005141 -0.005630 0.000952 0.000960
# 3 -0.001430 -0.005141 0.009132 0.005480 0.002093 -0.000181
# 4 0.001336 -0.005630 0.005480 0.023448 0.001480 0.006861
# 5 0.006675 0.000952 0.002093 0.001480 0.031063 0.006153
# 6 0.008863 0.000960 -0.000181 0.006861 0.006153 0.035614
#
#
# Mechanical properties :
#
#
# Convention : Reuss Voigt Hill
#
# Bulk Modulus (GPa) = 28.31384 42.60512 35.45948
# Shear Modulus (GPa) = 30.09632 39.35986 34.72809
#
# Velocity S-wave (km/s) = 3.35338 3.83489 3.60219
# Velocity P-wave (km/s) = 5.05695 5.96050 5.52722
#
# Compressibility (1/GPa) = 0.03531842
#
# Stress axis : x y z
#
# Youngs Moduli (GPa) = 46.34009 52.45311 109.50079
#
# Poissons Ratio (x) = 0.03452 0.15658
# Poissons Ratio (y) = 0.03050 0.56294
# Poissons Ratio (z) = 0.06626 0.26966
#
# Static dielectric constant tensor:
#      x y z
#    x 2.125160 -0.001400 0.011080 
#    y -0.001400 2.282010 -0.164880 
#    z 0.011080 -0.164880 2.323920 
# 
# From -- ./inp_files/66464.got.cif
#   From: 2010.05.17/outbox.cif.g08.bks.cpg/sg2_34_cif.got.tgz:66464.got - 2010.06.03 11:33:40.
