data_PCOD9081553
_publ_section_title
;
Structure prediction by ZEFSAII (Michael W. Deem and Ramdas Pophale) SiO2 
 PCOD9081553
Probable space group: P -1
;
_chemical_formula_sum "Si O2"
_cell_formula_units_Z 16
_cell_length_a 7.519394
_cell_length_b 12.194098
_cell_length_c 20.312311
_cell_angle_alpha 30.276300
_cell_angle_beta 128.893619
_cell_angle_gamma 113.369164
_cell_volume 678.682939
_symmetry_space_group_name_H-M "P -1"
_symmetry_group_IT_number 2
_symmetry_cell_setting 'triclinic'
loop_
_space_group_symop_operation_xyz
x,y,z
-x,-y,-z
loop_
_atom_site_type_symbol
_atom_site_label
_atom_site_fract_x
_atom_site_fract_y
_atom_site_fract_z
Si Si1 0.000528 0.353015 0.270552
Si Si2 0.003572 0.239622 0.112956
Si Si3 0.450097 0.396019 0.887616
Si Si4 0.365490 0.463941 0.564665
Si Si5 0.370612 0.912193 0.276090
Si Si6 0.348207 0.221042 0.308562
Si Si7 0.849791 0.524686 0.350711
Si Si8 0.858008 0.927432 0.416502
O O1 0.754603 0.566454 0.123622
O O2 0.171017 0.396499 0.231448
O O3 0.122414 0.226302 0.432758
O O4 0.921076 0.152459 0.325231
O O5 0.209085 0.116533 0.278385
O O6 0.121023 0.111726 0.138660
O O7 0.000000 0.500000 0.000000
O O8 0.729852 0.237911 0.053619
O O9 0.488676 0.645202 0.755360
O O10 0.325862 0.344744 0.818686
O O11 0.435753 0.688842 0.456207
O O12 0.573387 0.228692 0.706732
O O13 0.300266 0.425250 0.643162
O O14 0.111968 0.544194 0.419979
O O15 0.584668 0.010544 0.283067
O O16 0.500000 0.000000 0.500000
O O17 0.950660 0.252767 0.494564
#
# Coordination Sequence:
#
# PCOD9081553 Si02
#       8
#     2   2   2   2   2   2   2   2
#     4  10  19  32  51  86 119 149 193 227 286 350
#     4  10  22  38  56  86 125 154 183 231 296 356
#     4  10  22  38  54  80 126 158 180 241 295 348
#     4   9  20  34  58  90 103 144 203 256 279 330
#     4  10  19  35  58  81 115 148 191 244 294 332
#     4  11  21  33  60  89 111 156 201 232 281 351
#     4   9  18  35  55  79 116 140 194 246 298 326
#     4   9  17  30  51  84 118 141 176 254 289 327
#
# _framework density 23.575074000000001
#
# number of rings (size 3 to 8) (size 9 to 14) (size 15 to 20)
#    0.000    2.250    0.000    4.500    5.250    0.500 
#    0.000    1.250    0.000    0.000    0.000    0.000 
#    0.000    0.000    0.000    0.000    0.000    0.000 
#
# Total GULP energy -89219.395306 kJ/mol
# GULP energy per Si atom -5576.212207 kJ/mol
# Density = 2.352142 g / cm^3
# Si number density = 23.575074 Si / 1000 Ang^3
#
#
#
# Elastic Constant Matrix: (Units=GPa)
#
#
# Indices 1 2 3 4 5 6 
#
# 1 82.2737 33.8066 1.3053 -14.3380 25.6113 -29.4603
# 2 33.8066 99.2945 33.8334 -1.9872 17.3990 -14.9222
# 3 1.3053 33.8334 48.5341 1.6306 23.2499 -9.4507
# 4 -14.3380 -1.9872 1.6306 33.8367 -3.1333 19.2218
# 5 25.6113 17.3990 23.2499 -3.1333 33.1134 -14.2654
# 6 -29.4603 -14.9222 -9.4507 19.2218 -14.2654 40.8464
#
#
#
# Elastic Compliance Matrix: (Units=1/GPa)
#
#
# Indices 1 2 3 4 5 6 
#
# 1 0.029326 -0.010918 0.022147 0.001263 -0.027109 0.012224
# 2 -0.010918 0.017608 -0.017320 -0.001090 0.010740 -0.001186
# 3 0.022147 -0.017320 0.054366 -0.003221 -0.042703 0.008827
# 4 0.001263 -0.001090 -0.003221 0.041842 -0.003256 -0.021060
# 5 -0.027109 0.010740 -0.042703 -0.003256 0.076357 0.002691
# 6 0.012224 -0.001186 0.008827 -0.021060 0.002691 0.045758
#
#
# Mechanical properties :
#
#
# Convention : Reuss Voigt Hill
#
# Bulk Modulus (GPa) = 11.22127 40.88808 26.05468
# Shear Modulus (GPa) = 16.27893 32.30310 24.29102
#
# Velocity S-wave (km/s) = 2.63061 3.70567 3.21342
# Velocity P-wave (km/s) = 3.74125 5.97417 4.98436
#
# Compressibility (1/GPa) = 0.08911645
#
# Stress axis : x y z
#
# Youngs Moduli (GPa) = 34.09971 56.79230 18.39397
#
# Poissons Ratio (x) = 0.62006 -0.40736
# Poissons Ratio (y) = 0.37230 0.31858
# Poissons Ratio (z) = -0.75519 0.98364
#
# Static dielectric constant tensor:
#      x y z
#    x 1.950830 -0.033150 0.004730 
#    y -0.033150 1.932060 0.049370 
#    z 0.004730 0.049370 2.084360 
# 
# From -- ./inp_files/439580.got.cif
#   From: 2010.05.17/outbox.cif.g08.bks.cpg/sg2_220_cif.got.tgz:439580.got - 2010.06.03 11:33:40.
