data_PCOD9081567
_publ_section_title
;
Structure prediction by ZEFSAII (Michael W. Deem and Ramdas Pophale) SiO2 
 PCOD9081567
Probable space group: P -1
;
_chemical_formula_sum "Si O2"
_cell_formula_units_Z 16
_cell_length_a 17.584703
_cell_length_b 22.571634
_cell_length_c 5.665408
_cell_angle_alpha 132.302035
_cell_angle_beta 139.202295
_cell_angle_gamma 25.690042
_cell_volume 636.599980
_symmetry_space_group_name_H-M "P -1"
_symmetry_group_IT_number 2
_symmetry_cell_setting 'triclinic'
loop_
_space_group_symop_operation_xyz
x,y,z
-x,-y,-z
loop_
_atom_site_type_symbol
_atom_site_label
_atom_site_fract_x
_atom_site_fract_y
_atom_site_fract_z
Si Si1 0.537305 0.780885 0.118142
Si Si2 0.760828 0.788196 0.977933
Si Si3 0.078202 0.494507 0.921473
Si Si4 0.522660 0.581659 0.312539
Si Si5 0.059071 0.879341 0.056053
Si Si6 0.950861 0.128201 0.489472
Si Si7 0.506658 0.639392 0.928917
Si Si8 0.554808 0.038077 0.915481
O O1 0.651849 0.786849 0.541520
O O2 0.689065 0.650218 0.951700
O O3 0.386775 0.912761 0.948888
O O4 0.475749 0.750203 0.085308
O O5 0.987630 0.634296 0.092145
O O6 0.704407 0.909127 0.095385
O O7 0.650818 0.832184 0.082320
O O8 0.000000 0.500000 0.500000
O O9 0.000000 0.500000 0.000000
O O10 0.300382 0.744591 0.253571
O O11 0.608452 0.545568 0.683040
O O12 0.500000 0.500000 0.000000
O O13 0.608711 0.566983 0.226182
O O14 0.986687 0.877393 0.119717
O O15 0.988064 0.879523 0.647920
O O16 0.990531 0.009983 0.258650
O O17 0.712640 0.274649 0.329179
O O18 0.500000 0.000000 0.500000
#
# Coordination Sequence:
#
# PCOD9081567 Si02
#       8
#     2   2   2   2   2   2   2   2
#     4  10  20  32  53  79 110 139 181 230 268 313
#     4   9  18  32  52  77 106 143 185 217 258 316
#     4  10  19  32  52  77 104 143 187 220 257 314
#     4  10  20  35  53  75 101 139 174 211 260 327
#     4   8  14  26  48  68  90 119 159 202 236 299
#     4   8  14  27  44  72  93 116 157 201 249 291
#     4  10  21  32  54  78 104 132 171 223 269 301
#     4   9  17  31  52  76 102 138 176 218 261 316
#
# _framework density 25.133523
#
# number of rings (size 3 to 8) (size 9 to 14) (size 15 to 20)
#    0.000    2.750    1.250    0.375    1.750    0.000 
#    0.000    0.000    2.750    3.000    0.000    0.000 
#    0.000    0.000    0.000    0.000    0.000    0.000 
#
# Total GULP energy -89212.064883 kJ/mol
# GULP energy per Si atom -5575.754055 kJ/mol
# Density = 2.507632 g / cm^3
# Si number density = 25.133523 Si / 1000 Ang^3
#
#
#
# Elastic Constant Matrix: (Units=GPa)
#
#
# Indices 1 2 3 4 5 6 
#
# 1 157.3235 35.2088 68.6549 -2.8293 -49.0377 17.9737
# 2 35.2088 85.7229 5.3984 8.4543 -9.1374 -0.3770
# 3 68.6549 5.3984 95.7770 -5.1964 -47.3535 8.9250
# 4 -2.8293 8.4543 -5.1964 27.9290 7.1557 -7.4018
# 5 -49.0377 -9.1374 -47.3535 7.1557 62.0726 0.9733
# 6 17.9737 -0.3770 8.9250 -7.4018 0.9733 44.4404
#
#
#
# Elastic Compliance Matrix: (Units=1/GPa)
#
#
# Indices 1 2 3 4 5 6 
#
# 1 0.011380 -0.003791 -0.005444 -0.000851 0.004436 -0.003780
# 2 -0.003791 0.013636 0.002291 -0.004286 0.001248 0.000447
# 3 -0.005444 0.002291 0.020042 -0.001049 0.011482 -0.002230
# 4 -0.000851 -0.004286 -0.001049 0.040555 -0.006895 0.007424
# 5 0.004436 0.001248 0.011482 -0.006895 0.029445 -0.005883
# 6 -0.003780 0.000447 -0.002230 0.007424 -0.005883 0.025848
#
#
# Mechanical properties :
#
#
# Convention : Reuss Voigt Hill
#
# Bulk Modulus (GPa) = 32.08197 61.92752 47.00474
# Shear Modulus (GPa) = 30.26938 42.19249 36.23094
#
# Velocity S-wave (km/s) = 3.47413 4.10168 3.80088
# Velocity P-wave (km/s) = 5.37449 6.86474 6.16481
#
# Compressibility (1/GPa) = 0.03117015
#
# Stress axis : x y z
#
# Youngs Moduli (GPa) = 87.87378 73.33542 49.89554
#
# Poissons Ratio (x) = 0.27802 0.27164
# Poissons Ratio (y) = 0.33313 -0.11433
# Poissons Ratio (z) = 0.47841 -0.16805
#
# Static dielectric constant tensor:
#      x y z
#    x 2.079900 0.091490 -0.075110 
#    y 0.091490 2.090340 -0.132510 
#    z -0.075110 -0.132510 2.109450 
# 
# From -- ./inp_files/93393.got.cif
#   From: 2010.05.17/outbox.cif.g08.bks.cpg/sg2_47_cif.got.tgz:93393.got - 2010.06.03 11:33:40.
