data_PCOD9081460
_publ_section_title
;
Structure prediction by ZEFSAII (Michael W. Deem and Ramdas Pophale) SiO2 
 PCOD9081460
Probable space group: P -1
;
_chemical_formula_sum "Si O2"
_cell_formula_units_Z 10
_cell_length_a 11.641943
_cell_length_b 10.577742
_cell_length_c 6.077204
_cell_angle_alpha 105.884536
_cell_angle_beta 90.276379
_cell_angle_gamma 137.511096
_cell_volume 460.936148
_symmetry_space_group_name_H-M "P -1"
_symmetry_group_IT_number 2
_symmetry_cell_setting 'triclinic'
loop_
_space_group_symop_operation_xyz
x,y,z
-x,-y,-z
loop_
_atom_site_type_symbol
_atom_site_label
_atom_site_fract_x
_atom_site_fract_y
_atom_site_fract_z
Si Si1 0.729722 0.196900 0.321170
Si Si2 0.009972 0.400269 0.763241
Si Si3 0.693732 0.528614 0.083116
Si Si4 0.434164 0.342794 0.610998
Si Si5 0.421981 0.114208 0.183263
O O1 0.856324 0.423095 0.335802
O O2 0.535226 0.094016 0.281895
O O3 0.820048 0.224150 0.555842
O O4 0.715960 0.071700 0.076586
O O5 0.110095 0.360590 0.838622
O O6 0.000000 0.500000 0.000000
O O7 0.683128 0.670190 0.232985
O O8 0.558774 0.321779 0.133603
O O9 0.605878 0.444966 0.801102
O O10 0.500000 0.500000 0.500000
O O11 0.350220 0.148381 0.385401
#
# Coordination Sequence:
#
# PCOD9081460 Si02
#       5
#     2   2   2   2   2
#     4   9  19  32  49  75  99 123 158 193 236 287
#     4  10  19  32  49  71 101 129 153 192 240 285
#     4   9  18  31  51  74  93 124 165 193 232 286
#     4   9  17  31  51  71  94 124 160 201 236 273
#     4   9  17  32  52  73  97 123 157 200 234 275
#
# _framework density 21.694977000000002
#
# number of rings (size 3 to 8) (size 9 to 14) (size 15 to 20)
#    0.000    2.800    0.000    1.200    0.000    3.200 
#    0.000    7.000    0.000   12.000    0.000    0.000 
#    0.000    0.000    0.000    0.000    0.000    0.000 
#
# Total GULP energy -55799.887127 kJ/mol
# GULP energy per Si atom -5579.988713 kJ/mol
# Density = 2.164560 g / cm^3
# Si number density = 21.694977 Si / 1000 Ang^3
#
#
#
# Elastic Constant Matrix: (Units=GPa)
#
#
# Indices 1 2 3 4 5 6 
#
# 1 108.7069 -0.9375 82.3102 9.6239 17.5454 -17.3647
# 2 -0.9375 50.2733 3.6753 -5.2906 9.1192 -7.3914
# 3 82.3102 3.6753 177.7085 17.1303 19.9898 -18.1556
# 4 9.6239 -5.2906 17.1303 25.5452 -11.1291 -1.9884
# 5 17.5454 9.1192 19.9898 -11.1291 42.4080 3.4926
# 6 -17.3647 -7.3914 -18.1556 -1.9884 3.4926 21.3071
#
#
#
# Elastic Compliance Matrix: (Units=1/GPa)
#
#
# Indices 1 2 3 4 5 6 
#
# 1 0.016538 0.003089 -0.005469 -0.004092 -0.006878 0.010635
# 2 0.003089 0.023066 -0.000125 0.001688 -0.006697 0.011668
# 3 -0.005469 -0.000125 0.009572 -0.005865 -0.004072 0.003776
# 4 -0.004092 0.001688 -0.005865 0.052512 0.018357 -0.005855
# 5 -0.006878 -0.006697 -0.004072 0.018357 0.035885 -0.015568
# 6 0.010635 0.011668 0.003776 -0.005855 -0.015568 0.064870
#
#
# Mechanical properties :
#
#
# Convention : Reuss Voigt Hill
#
# Bulk Modulus (GPa) = 22.64231 56.30941 39.47586
# Shear Modulus (GPa) = 22.50461 34.62810 28.56635
#
# Velocity S-wave (km/s) = 3.22424 3.99950 3.63261
# Velocity P-wave (km/s) = 4.93156 6.88036 5.98580
#
# Compressibility (1/GPa) = 0.04416510
#
# Stress axis : x y z
#
# Youngs Moduli (GPa) = 60.46648 43.35419 104.46937
#
# Poissons Ratio (x) = -0.13392 0.57137
# Poissons Ratio (y) = -0.18677 0.01307
# Poissons Ratio (z) = 0.33071 0.00542
#
# Static dielectric constant tensor:
#      x y z
#    x 1.804970 0.007890 -0.004090 
#    y 0.007890 1.833510 -0.005560 
#    z -0.004090 -0.005560 1.791230 
# 
# From -- ./inp_files/16388.got.cif
#   From: 2010.05.17/outbox.cif.g08.bks.cpg/sg2_9_cif.got.tgz:16388.got - 2010.06.03 11:33:40.
