data_PCOD9081603
_publ_section_title
;
Structure prediction by ZEFSAII (Michael W. Deem and Ramdas Pophale) SiO2 
 PCOD9081603
Probable space group: P -1
;
_chemical_formula_sum "Si O2"
_cell_formula_units_Z 16
_cell_length_a 12.393114
_cell_length_b 7.821872
_cell_length_c 12.773874
_cell_angle_alpha 88.854189
_cell_angle_beta 56.160672
_cell_angle_gamma 123.291489
_cell_volume 759.276102
_symmetry_space_group_name_H-M "P -1"
_symmetry_group_IT_number 2
_symmetry_cell_setting 'triclinic'
loop_
_space_group_symop_operation_xyz
x,y,z
-x,-y,-z
loop_
_atom_site_type_symbol
_atom_site_label
_atom_site_fract_x
_atom_site_fract_y
_atom_site_fract_z
Si Si1 0.990340 0.428985 0.252251
Si Si2 0.641856 0.986039 0.566422
Si Si3 0.999788 0.096651 0.607903
Si Si4 0.735325 0.758431 0.157667
Si Si5 0.367997 0.439033 0.445799
Si Si6 0.285958 0.574733 0.693882
Si Si7 0.173939 0.723217 0.342752
Si Si8 0.958823 0.874002 0.854917
O O1 0.898492 0.508501 0.242926
O O2 0.066115 0.349753 0.138831
O O3 0.145352 0.600146 0.250284
O O4 0.813075 0.194592 0.405683
O O5 0.650477 0.783314 0.561927
O O6 0.447455 0.846505 0.626344
O O7 0.670815 0.114564 0.658227
O O8 0.187917 0.358113 0.501644
O O9 0.850777 0.103626 0.682523
O O10 0.985472 0.975753 0.723504
O O11 0.000000 0.000000 0.500000
O O12 0.540941 0.649821 0.289333
O O13 0.739596 0.560884 0.187473
O O14 0.869686 0.953990 0.167096
O O15 0.806763 0.836503 0.001265
O O16 0.360568 0.505448 0.567403
O O17 0.000000 0.500000 0.500000
#
# Coordination Sequence:
#
# PCOD9081603 Si02
#       8
#     2   2   2   2   2   2   2   2
#     4  11  19  33  54  86 116 150 193 237 289 348
#     4  10  19  32  52  83 118 145 191 246 285 334
#     4  12  20  36  62  87 111 157 200 239 282 344
#     4  10  22  38  59  84 119 152 190 245 293 342
#     4  11  19  35  60  86 110 149 199 244 281 335
#     4  11  20  33  59  87 116 149 193 247 292 335
#     4  10  20  33  53  87 115 147 189 240 288 340
#     4  11  22  39  58  86 120 152 192 237 295 351
#
# _framework density 21.072702
#
# number of rings (size 3 to 8) (size 9 to 14) (size 15 to 20)
#    0.000    1.250    5.000    3.375    0.000    0.500 
#    0.000    0.625    0.000    3.000    0.000    0.000 
#    0.000    0.000    0.000    0.000    0.000    0.000 
#
# Total GULP energy -89088.717243 kJ/mol
# GULP energy per Si atom -5568.044828 kJ/mol
# Density = 2.102474 g / cm^3
# Si number density = 21.072702 Si / 1000 Ang^3
#
#
#
# Elastic Constant Matrix: (Units=GPa)
#
#
# Indices 1 2 3 4 5 6 
#
# 1 48.0650 16.7847 21.3421 11.6752 9.0363 7.4582
# 2 16.7847 100.2904 27.1894 17.2199 10.5816 25.6670
# 3 21.3421 27.1894 97.3227 21.1463 9.2814 14.0826
# 4 11.6752 17.2199 21.1463 18.4738 4.6126 2.1635
# 5 9.0363 10.5816 9.2814 4.6126 15.5064 2.7755
# 6 7.4582 25.6670 14.0826 2.1635 2.7755 35.5316
#
#
#
# Elastic Compliance Matrix: (Units=1/GPa)
#
#
# Indices 1 2 3 4 5 6 
#
# 1 0.027024 0.000007 -0.001835 -0.011968 -0.010485 -0.003402
# 2 0.000007 0.014982 0.000306 -0.011892 -0.005115 -0.009822
# 3 -0.001835 0.000306 0.014719 -0.014755 -0.002745 -0.004557
# 4 -0.011968 -0.011892 -0.014755 0.089482 -0.004823 0.011879
# 5 -0.010485 -0.005115 -0.002745 -0.004823 0.076941 0.001267
# 6 -0.003402 -0.009822 -0.004557 0.011879 0.001267 0.036937
#
#
# Mechanical properties :
#
#
# Convention : Reuss Voigt Hill
#
# Bulk Modulus (GPa) = 18.62905 41.81225 30.22065
# Shear Modulus (GPa) = 17.79209 25.92649 21.85929
#
# Velocity S-wave (km/s) = 2.90887 3.51142 3.22425
# Velocity P-wave (km/s) = 4.48794 6.02703 5.31350
#
# Compressibility (1/GPa) = 0.05367959
#
# Stress axis : x y z
#
# Youngs Moduli (GPa) = 37.00425 66.74562 67.93866
#
# Poissons Ratio (x) = -0.00044 0.12470
# Poissons Ratio (y) = -0.00025 -0.02078
# Poissons Ratio (z) = 0.06792 -0.02042
#
# Static dielectric constant tensor:
#      x y z
#    x 1.949220 0.067040 0.030040 
#    y 0.067040 1.873160 0.027630 
#    z 0.030040 0.027630 1.799060 
# 
# From -- ./inp_files/312024.got.cif
#   From: 2010.05.17/outbox.cif.g08.bks.cpg/sg2_157_cif.got.tgz:312024.got - 2010.06.03 11:33:40.
