data_PCOD9081951
_publ_section_title
;
Structure prediction by ZEFSAII (Michael W. Deem and Ramdas Pophale) SiO2 
 PCOD9081951
Probable space group: P -1
;
_chemical_formula_sum "Si O2"
_cell_formula_units_Z 12
_cell_length_a 12.212293
_cell_length_b 9.706879
_cell_length_c 6.638008
_cell_angle_alpha 131.344027
_cell_angle_beta 122.400333
_cell_angle_gamma 51.627889
_cell_volume 452.459623
_symmetry_space_group_name_H-M "P -1"
_symmetry_group_IT_number 2
_symmetry_cell_setting 'triclinic'
loop_
_space_group_symop_operation_xyz
x,y,z
-x,-y,-z
loop_
_atom_site_type_symbol
_atom_site_label
_atom_site_fract_x
_atom_site_fract_y
_atom_site_fract_z
Si Si1 0.837851 0.269848 0.712091
Si Si2 0.627154 0.834960 0.250938
Si Si3 0.893059 0.829763 0.333322
Si Si4 0.336963 0.570853 0.972522
Si Si5 0.680066 0.057224 0.879658
Si Si6 0.960134 0.728509 0.746753
O O1 0.680075 0.389749 0.761277
O O2 0.951480 0.319977 0.743518
O O3 0.849868 0.057870 0.434678
O O4 0.909824 0.263742 0.996429
O O5 0.753021 0.785038 0.162960
O O6 0.464065 0.887242 0.079412
O O7 0.628132 0.016413 0.565928
O O8 0.682612 0.637102 0.259549
O O9 0.927033 0.844207 0.616294
O O10 0.274055 0.759919 0.936552
O O11 0.500000 0.500000 0.000000
O O12 0.819061 0.849889 0.859379
O O13 0.000000 0.500000 0.500000
#
# Coordination Sequence:
#
# PCOD9081951 Si02
#       6
#     2   2   2   2   2   2
#     4  11  21  38  61  85 121 156 195 242 295 349
#     4   9  17  33  56  83 111 152 196 235 291 344
#     4  10  22  38  59  87 119 158 193 243 294 345
#     4  10  19  32  58  86 111 153 197 237 291 345
#     4   9  18  34  53  82 118 146 194 244 282 348
#     4  11  22  37  59  89 117 157 195 242 298 347
#
# _framework density 26.521702000000001
#
# number of rings (size 3 to 8) (size 9 to 14) (size 15 to 20)
#    0.000    2.000    3.333    2.500    0.000    2.667 
#    0.000    0.833    0.000    1.000    0.000    0.000 
#    0.000    0.000    0.000    0.000    0.000    0.000 
#
# Total GULP energy -66828.568208 kJ/mol
# GULP energy per Si atom -5569.047351 kJ/mol
# Density = 2.646134 g / cm^3
# Si number density = 26.521702 Si / 1000 Ang^3
#
#
#
# Elastic Constant Matrix: (Units=GPa)
#
#
# Indices 1 2 3 4 5 6 
#
# 1 213.1314 4.9413 21.8564 19.9889 -19.5143 1.5851
# 2 4.9413 56.2750 15.1074 27.1739 9.4414 -0.3018
# 3 21.8564 15.1074 71.5776 27.8271 -2.0356 4.9709
# 4 19.9889 27.1739 27.8271 37.0930 2.4085 -3.5687
# 5 -19.5143 9.4414 -2.0356 2.4085 49.5514 10.2672
# 6 1.5851 -0.3018 4.9709 -3.5687 10.2672 35.0084
#
#
#
# Elastic Compliance Matrix: (Units=1/GPa)
#
#
# Indices 1 2 3 4 5 6 
#
# 1 0.005255 0.000957 -0.000249 -0.003615 0.002310 -0.001240
# 2 0.000957 0.029017 0.002863 -0.023844 -0.003546 -0.001590
# 3 -0.000249 0.002863 0.021055 -0.018433 0.002256 -0.005494
# 4 -0.003615 -0.023844 -0.018433 0.061295 -0.002604 0.009588
# 5 0.002310 -0.003546 0.002256 -0.002604 0.023567 -0.007633
# 6 -0.001240 -0.001590 -0.005494 0.009588 -0.007633 0.032603
#
#
# Mechanical properties :
#
#
# Convention : Reuss Voigt Hill
#
# Bulk Modulus (GPa) = 16.00823 47.19935 31.60379
# Shear Modulus (GPa) = 26.81339 44.26916 35.54128
#
# Velocity S-wave (km/s) = 3.18307 4.08998 3.66469
# Velocity P-wave (km/s) = 4.42247 6.33554 5.46339
#
# Compressibility (1/GPa) = 0.06246786
#
# Stress axis : x y z
#
# Youngs Moduli (GPa) = 190.29208 34.46208 47.49538
#
# Poissons Ratio (x) = -0.03298 0.01184
# Poissons Ratio (y) = -0.18213 -0.13596
# Poissons Ratio (z) = 0.04745 -0.09865
#
# Static dielectric constant tensor:
#      x y z
#    x 2.528980 -0.195830 -0.259020 
#    y -0.195830 2.301260 0.126560 
#    z -0.259020 0.126560 2.188690 
# 
# From -- ./inp_files/194600.got.cif
#   From: 2010.05.17/outbox.cif.g08.bks.cpg/sg2_98_cif.got.tgz:194600.got - 2010.06.03 11:33:40.
