data_PCOD9081452
_publ_section_title
;
Structure prediction by ZEFSAII (Michael W. Deem and Ramdas Pophale) SiO2 
 PCOD9081452
Probable space group: P -1
;
_chemical_formula_sum "Si O2"
_cell_formula_units_Z 16
_cell_length_a 10.982604
_cell_length_b 11.516052
_cell_length_c 20.825195
_cell_angle_alpha 21.789772
_cell_angle_beta 141.692388
_cell_angle_gamma 131.650886
_cell_volume 582.119386
_symmetry_space_group_name_H-M "P -1"
_symmetry_group_IT_number 2
_symmetry_cell_setting 'triclinic'
loop_
_space_group_symop_operation_xyz
x,y,z
-x,-y,-z
loop_
_atom_site_type_symbol
_atom_site_label
_atom_site_fract_x
_atom_site_fract_y
_atom_site_fract_z
Si Si1 0.773657 0.949226 0.174307
Si Si2 0.909701 0.857750 0.130905
Si Si3 0.291932 0.624514 0.768170
Si Si4 0.110511 0.033680 0.362609
Si Si5 0.681039 0.512504 0.663629
Si Si6 0.751542 0.396476 0.088865
Si Si7 0.689072 0.714228 0.431263
Si Si8 0.475886 0.566507 0.683369
O O1 0.855786 0.908111 0.156954
O O2 0.649352 0.681630 0.268095
O O3 0.967097 0.890431 0.330202
O O4 0.627900 0.323921 0.921146
O O5 0.743529 0.698058 0.113773
O O6 0.128483 0.605811 0.342715
O O7 0.881989 0.210658 0.907782
O O8 0.155375 0.889025 0.527202
O O9 0.222639 0.595204 0.827827
O O10 0.528190 0.632197 0.860466
O O11 0.323378 0.884855 0.488828
O O12 0.949971 0.388221 0.131415
O O13 0.698987 0.760989 0.488417
O O14 0.512400 0.360284 0.639810
O O15 0.602605 0.633737 0.639774
O O16 0.714350 0.042502 0.243907
#
# Coordination Sequence:
#
# PCOD9081452 Si02
#       8
#     2   2   2   2   2   2   2   2
#     4  10  20  30  53  81 113 140 169 226 287 321
#     4  11  20  36  56  85 115 140 177 226 275 333
#     4  11  23  36  56  84 111 143 180 231 283 311
#     4  12  20  33  56  82 108 142 179 229 274 334
#     4  10  22  34  53  83 114 148 174 223 268 330
#     4  11  23  38  55  83 111 144 184 229 271 327
#     4  11  20  35  56  77 113 147 187 216 266 324
#     4  10  19  32  48  79 114 139 172 217 278 330
#
# _framework density 27.485772999999998
#
# number of rings (size 3 to 8) (size 9 to 14) (size 15 to 20)
#    0.000    1.250    3.750    3.375    1.750    0.000 
#    0.000    0.000    0.000    0.750    0.000    5.250 
#    0.000    0.000    0.000    0.000    0.000    0.000 
#
# Total GULP energy -89586.643861 kJ/mol
# GULP energy per Si atom -5599.165241 kJ/mol
# Density = 2.742321 g / cm^3
# Si number density = 27.485773 Si / 1000 Ang^3
#
#
#
# Elastic Constant Matrix: (Units=GPa)
#
#
# Indices 1 2 3 4 5 6 
#
# 1 77.2466 5.7765 23.8112 -10.9640 26.5705 -8.6903
# 2 5.7765 97.3524 22.8397 18.8904 13.3139 -11.3390
# 3 23.8112 22.8397 139.5323 5.2720 45.7328 6.0683
# 4 -10.9640 18.8904 5.2720 39.3645 -2.2248 10.3133
# 5 26.5705 13.3139 45.7328 -2.2248 44.4040 -11.1818
# 6 -8.6903 -11.3390 6.0683 10.3133 -11.1818 45.6028
#
#
#
# Elastic Compliance Matrix: (Units=1/GPa)
#
#
# Indices 1 2 3 4 5 6 
#
# 1 0.016999 -0.000643 0.000449 0.004541 -0.010352 -0.000545
# 2 -0.000643 0.012802 -0.001576 -0.007399 -0.001019 0.004694
# 3 0.000449 -0.001576 0.011986 -0.000129 -0.013449 -0.005170
# 4 0.004541 -0.007399 -0.000129 0.032414 -0.000883 -0.008504
# 5 -0.010352 -0.001019 -0.013449 -0.000883 0.045583 0.010940
# 6 -0.000545 0.004694 -0.005170 -0.008504 0.010940 0.028285
#
#
# Mechanical properties :
#
#
# Convention : Reuss Voigt Hill
#
# Bulk Modulus (GPa) = 26.14628 46.55402 36.35015
# Shear Modulus (GPa) = 30.42146 43.32120 36.87133
#
# Velocity S-wave (km/s) = 3.33048 3.97436 3.66658
# Velocity P-wave (km/s) = 4.93181 6.16725 5.58381
#
# Compressibility (1/GPa) = 0.03824635
#
# Stress axis : x y z
#
# Youngs Moduli (GPa) = 58.82726 78.11522 83.43090
#
# Poissons Ratio (x) = 0.05023 -0.03749
# Poissons Ratio (y) = 0.03783 0.13152
# Poissons Ratio (z) = -0.02644 0.12314
#
# Static dielectric constant tensor:
#      x y z
#    x 2.183050 0.010910 0.020830 
#    y 0.010910 2.167250 -0.024190 
#    z 0.020830 -0.024190 2.108210 
# 
# From -- ./inp_files/438694.got.cif
#   From: 2010.05.17/outbox.cif.g08.bks.cpg/sg2_220_cif.got.tgz:438694.got - 2010.06.03 11:33:40.
