data_PCOD9081369
_publ_section_title
;
Structure prediction by ZEFSAII (Michael W. Deem and Ramdas Pophale) SiO2 
 PCOD9081369
Probable space group: P -1
;
_chemical_formula_sum "Si O2"
_cell_formula_units_Z 16
_cell_length_a 11.720390
_cell_length_b 14.475419
_cell_length_c 14.711539
_cell_angle_alpha 130.782913
_cell_angle_beta 108.743267
_cell_angle_gamma 32.658843
_cell_volume 845.316966
_symmetry_space_group_name_H-M "P -1"
_symmetry_group_IT_number 2
_symmetry_cell_setting 'triclinic'
loop_
_space_group_symop_operation_xyz
x,y,z
-x,-y,-z
loop_
_atom_site_type_symbol
_atom_site_label
_atom_site_fract_x
_atom_site_fract_y
_atom_site_fract_z
Si Si1 0.922926 0.230662 0.225283
Si Si2 0.432751 0.244943 0.598911
Si Si3 0.692937 0.155765 0.773029
Si Si4 0.598249 0.782129 0.917697
Si Si5 0.289285 0.595671 0.104254
Si Si6 0.185856 0.294913 0.707180
Si Si7 0.207895 0.410991 0.967164
Si Si8 0.306546 0.818189 0.900928
O O1 0.716556 0.519794 0.344339
O O2 0.800351 0.205832 0.191284
O O3 0.114766 0.082638 0.262527
O O4 0.081291 0.075200 0.071263
O O5 0.592222 0.169909 0.671327
O O6 0.232749 0.330043 0.649966
O O7 0.630262 0.985454 0.427713
O O8 0.813419 0.177210 0.785375
O O9 0.455737 0.410732 0.939208
O O10 0.431276 0.813151 0.868435
O O11 0.894308 0.514293 0.790830
O O12 0.583656 0.787687 0.028006
O O13 0.500000 0.000000 0.000000
O O14 0.480768 0.420378 0.126453
O O15 0.110292 0.637127 0.092842
O O16 0.275305 0.307272 0.817664
O O17 0.000000 0.500000 0.000000
#
# Coordination Sequence:
#
# PCOD9081369 Si02
#       8
#     2   2   2   2   2   2   2   2
#     4  10  20  33  55  88 109 147 186 233 287 323
#     4  11  21  39  56  81 122 148 188 228 277 351
#     4  10  19  31  56  82 111 145 181 235 280 327
#     4  10  20  36  58  85 111 143 188 241 276 327
#     4   9  16  30  52  81 108 136 184 234 277 318
#     4  10  22  38  56  81 111 158 185 220 291 339
#     4   9  18  33  56  77 107 144 185 223 275 328
#     4   9  18  32  55  83 113 139 188 239 282 326
#
# _framework density 18.927811999999999
#
# number of rings (size 3 to 8) (size 9 to 14) (size 15 to 20)
#    0.000    2.250    2.500    0.750    1.750    2.000 
#    2.250    1.875    0.000    0.750    0.000    0.000 
#    0.000    0.000    0.000    0.000    0.000    0.000 
#
# Total GULP energy -89143.239880 kJ/mol
# GULP energy per Si atom -5571.452492 kJ/mol
# Density = 1.888473 g / cm^3
# Si number density = 18.927812 Si / 1000 Ang^3
#
#
#
# Elastic Constant Matrix: (Units=GPa)
#
#
# Indices 1 2 3 4 5 6 
#
# 1 126.4007 15.2874 24.9000 20.5248 7.8971 -6.3078
# 2 15.2874 43.2782 19.4931 12.3017 9.5779 1.3575
# 3 24.9000 19.4931 49.3494 19.5984 4.4544 1.4083
# 4 20.5248 12.3017 19.5984 19.2039 3.5719 7.0368
# 5 7.8971 9.5779 4.4544 3.5719 21.8175 2.4047
# 6 -6.3078 1.3575 1.4083 7.0368 2.4047 28.3146
#
#
#
# Elastic Compliance Matrix: (Units=1/GPa)
#
#
# Indices 1 2 3 4 5 6 
#
# 1 0.010424 0.000443 -0.000323 -0.012724 -0.002445 0.005687
# 2 0.000443 0.032097 -0.006728 -0.013258 -0.011051 0.003128
# 3 -0.000323 -0.006728 0.037129 -0.036022 0.000582 0.007307
# 4 -0.012724 -0.013258 -0.036022 0.122000 0.001205 -0.030829
# 5 -0.002445 -0.011051 0.000582 0.001205 0.051778 -0.004741
# 6 0.005687 0.003128 0.007307 -0.030829 -0.004741 0.044135
#
#
# Mechanical properties :
#
#
# Convention : Reuss Voigt Hill
#
# Bulk Modulus (GPa) = 15.05268 37.59881 26.32574
# Shear Modulus (GPa) = 15.01849 24.49038 19.75443
#
# Velocity S-wave (km/s) = 2.81990 3.60096 3.23410
# Velocity P-wave (km/s) = 4.30957 6.09891 5.28058
#
# Compressibility (1/GPa) = 0.06643337
#
# Stress axis : x y z
#
# Youngs Moduli (GPa) = 95.93125 31.15595 26.93327
#
# Poissons Ratio (x) = -0.01380 0.00870
# Poissons Ratio (y) = -0.04249 0.18121
# Poissons Ratio (z) = 0.03098 0.20962
#
# Static dielectric constant tensor:
#      x y z
#    x 1.743650 -0.021970 -0.015390 
#    y -0.021970 1.721230 -0.021660 
#    z -0.015390 -0.021660 1.636880 
# 
# From -- ./inp_files/252622.got.cif
#   From: 2010.05.17/outbox.cif.g08.bks.cpg/sg2_127_cif.got.tgz:252622.got - 2010.06.03 11:33:40.
