data_PCOD9081904
_publ_section_title
;
Structure prediction by ZEFSAII (Michael W. Deem and Ramdas Pophale) SiO2 
 PCOD9081904
Probable space group: P -1
;
_chemical_formula_sum "Si O2"
_cell_formula_units_Z 16
_cell_length_a 13.969167
_cell_length_b 18.458502
_cell_length_c 12.115433
_cell_angle_alpha 151.424616
_cell_angle_beta 131.308900
_cell_angle_gamma 38.623198
_cell_volume 929.158379
_symmetry_space_group_name_H-M "P -1"
_symmetry_group_IT_number 2
_symmetry_cell_setting 'triclinic'
loop_
_space_group_symop_operation_xyz
x,y,z
-x,-y,-z
loop_
_atom_site_type_symbol
_atom_site_label
_atom_site_fract_x
_atom_site_fract_y
_atom_site_fract_z
Si Si1 0.328066 0.808831 0.249856
Si Si2 0.015422 0.966113 0.098305
Si Si3 0.895390 0.410816 0.400280
Si Si4 0.416393 0.397420 0.168910
Si Si5 0.209516 0.355391 0.575916
Si Si6 0.266568 0.645299 0.593457
Si Si7 0.506404 0.991317 0.360433
Si Si8 0.359457 0.522193 0.054366
O O1 0.172532 0.923876 0.214517
O O2 0.391452 0.931970 0.493135
O O3 0.461107 0.636829 0.048629
O O4 0.313253 0.709607 0.211706
O O5 0.030719 0.775335 0.864831
O O6 0.867284 0.152183 0.279428
O O7 0.000000 0.000000 0.000000
O O8 0.796491 0.573798 0.457385
O O9 0.799148 0.403844 0.417612
O O10 0.040065 0.411302 0.552231
O O11 0.321117 0.499117 0.341821
O O12 0.586466 0.354283 0.257270
O O13 0.342428 0.525546 0.176559
O O14 0.431703 0.209583 0.902974
O O15 0.332916 0.138771 0.386265
O O16 0.267160 0.448756 0.825961
O O17 0.500000 0.000000 0.500000
#
# Coordination Sequence:
#
# PCOD9081904 Si02
#       8
#     2   2   2   2   2   2   2   2
#     4  10  20  33  56  89 108 146 192 232 293 317
#     4  10  19  32  57  82 108 145 190 232 272 336
#     4  10  20  35  58  84 118 144 188 238 283 336
#     4  11  22  41  57  84 115 152 194 233 278 350
#     4  10  20  33  57  91 111 144 190 239 285 324
#     4  10  24  37  60  80 116 155 190 228 292 337
#     4  11  22  33  59  87 116 142 191 240 276 331
#     4  10  19  35  60  82 117 147 187 241 280 334
#
# _framework density 17.219885000000001
#
# number of rings (size 3 to 8) (size 9 to 14) (size 15 to 20)
#    0.000    1.750    3.750    2.250    7.000    0.000 
#    0.000    3.750    5.500    0.000    0.000    0.000 
#    0.000    0.000    0.000    0.000    0.000    0.000 
#
# Total GULP energy -89254.754933 kJ/mol
# GULP energy per Si atom -5578.422183 kJ/mol
# Density = 1.718069 g / cm^3
# Si number density = 17.219885 Si / 1000 Ang^3
#
#
#
# Elastic Constant Matrix: (Units=GPa)
#
#
# Indices 1 2 3 4 5 6 
#
# 1 77.1329 33.1356 44.1509 4.4414 -3.6559 0.7567
# 2 33.1356 114.6554 31.7746 0.1926 -10.7789 -0.2649
# 3 44.1509 31.7746 104.1672 4.2435 -5.9427 3.1376
# 4 4.4414 0.1926 4.2435 23.9267 0.3640 8.7023
# 5 -3.6559 -10.7789 -5.9427 0.3640 16.3596 2.2373
# 6 0.7567 -0.2649 3.1376 8.7023 2.2373 21.8435
#
#
#
# Elastic Compliance Matrix: (Units=1/GPa)
#
#
# Indices 1 2 3 4 5 6 
#
# 1 0.018428 -0.003532 -0.006711 -0.002716 -0.000784 0.001445
# 2 -0.003532 0.010686 -0.001456 0.000921 0.005770 -0.000497
# 3 -0.006711 -0.001456 0.013106 -0.000473 0.002550 -0.001741
# 4 -0.002716 0.000921 -0.000473 0.049518 0.001420 -0.019700
# 5 -0.000784 0.005770 0.002550 0.001420 0.066696 -0.007666
# 6 0.001445 -0.000497 -0.001741 -0.019700 -0.007666 0.054608
#
#
# Mechanical properties :
#
#
# Convention : Reuss Voigt Hill
#
# Bulk Modulus (GPa) = 53.12889 57.11972 55.12430
# Shear Modulus (GPa) = 20.60044 24.88558 22.74301
#
# Velocity S-wave (km/s) = 3.46253 3.80566 3.63814
# Velocity P-wave (km/s) = 6.84878 7.24938 7.05192
#
# Compressibility (1/GPa) = 0.01882215
#
# Stress axis : x y z
#
# Youngs Moduli (GPa) = 54.26435 93.58302 76.30270
#
# Poissons Ratio (x) = 0.33051 0.51207
# Poissons Ratio (y) = 0.19165 0.11109
# Poissons Ratio (z) = 0.36417 0.13625
#
# Static dielectric constant tensor:
#      x y z
#    x 1.594540 0.000580 0.021690 
#    y 0.000580 1.609640 0.008270 
#    z 0.021690 0.008270 1.580980 
# 
# From -- ./inp_files/423193.got.cif
#   From: 2010.05.17/outbox.cif.g08.bks.cpg/sg2_212_cif.got.tgz:423193.got - 2010.06.03 11:33:40.
