data_PCOD9081201
_publ_section_title
;
Structure prediction by ZEFSAII (Michael W. Deem and Ramdas Pophale) SiO2 
 PCOD9081201
Probable space group: P -1
;
_chemical_formula_sum "Si O2"
_cell_formula_units_Z 16
_cell_length_a 28.821079
_cell_length_b 15.020345
_cell_length_c 4.943577
_cell_angle_alpha 95.226173
_cell_angle_beta 95.302751
_cell_angle_gamma 20.171997
_cell_volume 734.769474
_symmetry_space_group_name_H-M "P -1"
_symmetry_group_IT_number 2
_symmetry_cell_setting 'triclinic'
loop_
_space_group_symop_operation_xyz
x,y,z
-x,-y,-z
loop_
_atom_site_type_symbol
_atom_site_label
_atom_site_fract_x
_atom_site_fract_y
_atom_site_fract_z
Si Si1 0.823989 0.799152 0.795554
Si Si2 0.590981 0.110337 0.873567
Si Si3 0.023369 0.876853 0.272785
Si Si4 0.039295 0.538016 0.726684
Si Si5 0.823093 0.557426 0.913497
Si Si6 0.533836 0.747337 0.624623
Si Si7 0.617220 0.812786 0.222362
Si Si8 0.771305 0.378319 0.039633
O O1 0.898925 0.596655 0.568607
O O2 0.884503 0.785728 0.735471
O O3 0.664323 0.070143 0.815655
O O4 0.879933 0.674189 0.087462
O O5 0.468353 0.304478 0.666425
O O6 0.715152 0.818980 0.800098
O O7 0.551014 0.158915 0.173605
O O8 0.100773 0.645232 0.309622
O O9 0.123084 0.744079 0.076147
O O10 0.000000 0.000000 0.500000
O O11 0.873320 0.124677 0.155807
O O12 0.074369 0.570817 0.880050
O O13 0.729868 0.666684 0.089258
O O14 0.669899 0.524414 0.799101
O O15 0.457519 0.979154 0.578894
O O16 0.689257 0.589047 0.264811
O O17 0.500000 0.000000 0.000000
#
# Coordination Sequence:
#
# PCOD9081201 Si02
#       8
#     2   2   2   2   2   2   2   2
#     4   9  16  29  48  75 107 130 159 193 259 309
#     4  10  19  31  51  78 103 129 157 205 255 314
#     4  10  21  35  52  68  97 141 176 222 244 286
#     4   9  17  29  48  73 104 137 158 202 245 312
#     4   9  18  32  47  75 102 133 173 205 253 300
#     4  10  20  32  52  75 100 131 164 206 256 306
#     4   8  15  30  46  68  95 128 159 206 249 297
#     4   9  20  36  47  70  96 131 176 212 255 293
#
# _framework density 21.775537
#
# number of rings (size 3 to 8) (size 9 to 14) (size 15 to 20)
#    0.000    2.750    0.000    2.250    3.500    0.000 
#    6.750    3.750    0.000    0.000    0.000    1.750 
#    0.000    0.000    0.000    0.000    0.000    0.000 
#
# Total GULP energy -89076.789225 kJ/mol
# GULP energy per Si atom -5567.299327 kJ/mol
# Density = 2.172597 g / cm^3
# Si number density = 21.775537 Si / 1000 Ang^3
#
#
#
# Elastic Constant Matrix: (Units=GPa)
#
#
# Indices 1 2 3 4 5 6 
#
# 1 82.6934 17.8194 10.3225 0.3804 12.3528 -28.3083
# 2 17.8194 68.0329 8.5122 2.5215 -0.3762 -14.6562
# 3 10.3225 8.5122 76.5976 1.9336 1.3239 -4.2264
# 4 0.3804 2.5215 1.9336 27.0403 -8.0313 3.5200
# 5 12.3528 -0.3762 1.3239 -8.0313 34.2386 -4.3520
# 6 -28.3083 -14.6562 -4.2264 3.5200 -4.3520 21.1414
#
#
#
# Elastic Compliance Matrix: (Units=1/GPa)
#
#
# Indices 1 2 3 4 5 6 
#
# 1 0.024102 0.001072 -0.001305 -0.006365 -0.005985 0.032583
# 2 0.001072 0.017760 -0.001270 -0.003156 0.000923 0.014210
# 3 -0.001305 -0.001270 0.013408 -0.000918 -0.000258 0.000152
# 4 -0.006365 -0.003156 -0.000918 0.042544 0.010260 -0.015865
# 5 -0.005985 0.000923 -0.000258 0.010260 0.033509 -0.002236
# 6 0.032583 0.014210 0.000152 -0.015865 -0.002236 0.102991
#
#
# Mechanical properties :
#
#
# Convention : Reuss Voigt Hill
#
# Bulk Modulus (GPa) = 19.13366 33.40355 26.26861
# Shear Modulus (GPa) = 19.62769 29.19539 24.41154
#
# Velocity S-wave (km/s) = 3.00553 3.66559 3.35185
# Velocity P-wave (km/s) = 4.56619 5.76963 5.20282
#
# Compressibility (1/GPa) = 0.05226391
#
# Stress axis : x y z
#
# Youngs Moduli (GPa) = 41.49022 56.30620 74.58045
#
# Poissons Ratio (x) = -0.06039 0.09735
# Poissons Ratio (y) = -0.04450 0.09475
# Poissons Ratio (z) = 0.05416 0.07153
#
# Static dielectric constant tensor:
#      x y z
#    x 1.785860 -0.094870 0.013300 
#    y -0.094870 1.810110 -0.001150 
#    z 0.013300 -0.001150 1.835700 
# 
# From -- ./inp_files/128609.got.cif
#   From: 2010.05.17/outbox.cif.g08.bks.cpg/sg2_65_cif.got.tgz:128609.got - 2010.06.03 11:33:40.
