data_PCOD9081228
_publ_section_title
;
Structure prediction by ZEFSAII (Michael W. Deem and Ramdas Pophale) SiO2 
 PCOD9081228
Probable space group: P -1
;
_chemical_formula_sum "Si O2"
_cell_formula_units_Z 16
_cell_length_a 7.863067
_cell_length_b 14.855773
_cell_length_c 5.737308
_cell_angle_alpha 107.344208
_cell_angle_beta 97.630759
_cell_angle_gamma 58.731606
_cell_volume 546.594193
_symmetry_space_group_name_H-M "P -1"
_symmetry_group_IT_number 2
_symmetry_cell_setting 'triclinic'
loop_
_space_group_symop_operation_xyz
x,y,z
-x,-y,-z
loop_
_atom_site_type_symbol
_atom_site_label
_atom_site_fract_x
_atom_site_fract_y
_atom_site_fract_z
Si Si1 0.436463 0.277560 0.969413
Si Si2 0.065228 0.407680 0.741924
Si Si3 0.310957 0.669206 0.288076
Si Si4 0.582418 0.879772 0.813890
Si Si5 0.261756 0.002877 0.557065
Si Si6 0.024528 0.210982 0.980174
Si Si7 0.076826 0.881847 0.718824
Si Si8 0.316843 0.464713 0.470574
O O1 0.504974 0.177968 0.081899
O O2 0.398816 0.377135 0.209484
O O3 0.229245 0.302524 0.830593
O O4 0.571701 0.281032 0.793087
O O5 0.192424 0.429452 0.590412
O O6 0.865120 0.424588 0.592776
O O7 0.000000 0.500000 0.000000
O O8 0.179959 0.764105 0.520555
O O9 0.490198 0.559417 0.355692
O O10 0.150546 0.676445 0.072654
O O11 0.818176 0.794055 0.806383
O O12 0.493369 0.914957 0.565124
O O13 0.500000 0.000000 0.000000
O O14 0.158222 0.035037 0.314222
O O15 0.171819 0.944218 0.655729
O O16 0.168640 0.121463 0.750786
O O17 0.916689 0.152263 0.041107
#
# Coordination Sequence:
#
# PCOD9081228 Si02
#       8
#     2   2   2   2   2   2   2   2
#     4  10  19  34  54  77 106 137 173 214 256 303
#     4   8  16  30  53  84 109 127 156 213 269 311
#     4  10  19  31  52  76 100 132 170 216 260 303
#     4  10  21  35  50  71 105 147 180 210 252 300
#     4   9  19  33  49  69  92 129 178 225 264 299
#     4  10  20  33  47  68 101 136 171 215 258 305
#     4  10  19  32  50  72  95 127 176 223 264 301
#     4   9  16  30  54  84 106 126 165 212 265 312
#
# _framework density 29.272174
#
# number of rings (size 3 to 8) (size 9 to 14) (size 15 to 20)
#    0.000    2.500    0.000    2.625    0.000    5.500 
#    0.000   10.000    0.000    0.750    0.000   35.875 
#    0.000    0.000    0.000    0.000    0.000    0.000 
#
# Total GULP energy -89515.834407 kJ/mol
# GULP energy per Si atom -5594.739650 kJ/mol
# Density = 2.920555 g / cm^3
# Si number density = 29.272174 Si / 1000 Ang^3
#
#
#
# Elastic Constant Matrix: (Units=GPa)
#
#
# Indices 1 2 3 4 5 6 
#
# 1 116.6806 55.3734 29.5474 -13.9527 20.4554 -45.7861
# 2 55.3734 191.6828 76.7070 -54.0080 14.2458 -16.8848
# 3 29.5474 76.7070 100.1187 -27.1024 -13.6652 -19.2173
# 4 -13.9527 -54.0080 -27.1024 95.4823 -25.4155 22.4196
# 5 20.4554 14.2458 -13.6652 -25.4155 43.2377 -18.7454
# 6 -45.7861 -16.8848 -19.2173 22.4196 -18.7454 73.7619
#
#
#
# Elastic Compliance Matrix: (Units=1/GPa)
#
#
# Indices 1 2 3 4 5 6 
#
# 1 0.013805 -0.003194 -0.001816 -0.003279 -0.004894 0.007118
# 2 -0.003194 0.009641 -0.006781 0.002898 -0.003546 -0.003325
# 3 -0.001816 -0.006781 0.019557 0.003984 0.013642 0.004671
# 4 -0.003279 0.002898 0.003984 0.016091 0.010170 -0.002640
# 5 -0.004894 -0.003546 0.013642 0.010170 0.039820 0.006733
# 6 0.007118 -0.003325 0.004671 -0.002640 0.006733 0.020945
#
#
# Mechanical properties :
#
#
# Convention : Reuss Voigt Hill
#
# Bulk Modulus (GPa) = 51.49614 81.30419 66.40016
# Shear Modulus (GPa) = 33.35200 58.95331 46.15265
#
# Velocity S-wave (km/s) = 3.37913 4.49260 3.97504
# Velocity P-wave (km/s) = 5.73193 7.39911 6.61823
#
# Compressibility (1/GPa) = 0.01941893
#
# Stress axis : x y z
#
# Youngs Moduli (GPa) = 72.43593 103.72649 51.13283
#
# Poissons Ratio (x) = 0.33135 0.09287
# Poissons Ratio (y) = 0.23139 0.34675
# Poissons Ratio (z) = 0.13157 0.70340
#
# Static dielectric constant tensor:
#      x y z
#    x 2.581420 -0.015840 0.150390 
#    y -0.015840 2.144790 -0.088800 
#    z 0.150390 -0.088800 2.290010 
# 
# From -- ./inp_files/45414.got.cif
#   From: 2010.05.17/outbox.cif.g08.bks.cpg/sg2_23_cif.got.tgz:45414.got - 2010.06.03 11:33:40.
