data_PCOD9081437
_publ_section_title
;
Structure prediction by ZEFSAII (Michael W. Deem and Ramdas Pophale) SiO2 
 PCOD9081437
Probable space group: P -1
;
_chemical_formula_sum "Si O2"
_cell_formula_units_Z 16
_cell_length_a 12.396080
_cell_length_b 14.174043
_cell_length_c 13.088430
_cell_angle_alpha 57.289488
_cell_angle_beta 156.298703
_cell_angle_gamma 124.767350
_cell_volume 758.206591
_symmetry_space_group_name_H-M "P -1"
_symmetry_group_IT_number 2
_symmetry_cell_setting 'triclinic'
loop_
_space_group_symop_operation_xyz
x,y,z
-x,-y,-z
loop_
_atom_site_type_symbol
_atom_site_label
_atom_site_fract_x
_atom_site_fract_y
_atom_site_fract_z
Si Si1 0.312808 0.650150 0.740103
Si Si2 0.096634 0.050135 0.942310
Si Si3 0.313090 0.422752 0.740034
Si Si4 0.430605 0.293977 0.563389
Si Si5 0.570013 0.926300 0.437393
Si Si6 0.786023 0.231940 0.605257
Si Si7 0.786544 0.448269 0.605957
Si Si8 0.903505 0.396298 0.057871
O O1 0.309376 0.529015 0.751379
O O2 0.377999 0.742364 0.651464
O O3 0.999694 0.647491 0.499850
O O4 0.499717 0.652461 0.999980
O O5 0.873161 0.984550 0.705093
O O6 0.037088 0.176883 0.822015
O O7 0.388473 0.017670 0.196569
O O8 0.000000 0.000000 0.000000
O O9 0.377624 0.484493 0.650717
O O10 0.428076 0.167208 0.594059
O O11 0.587760 0.381411 0.560503
O O12 0.127644 0.317178 0.295897
O O13 0.612294 0.325992 0.804353
O O14 0.412952 0.854107 0.440390
O O15 0.886436 0.351901 0.682029
O O16 0.037966 0.537313 0.822997
O O17 0.000000 0.500000 0.000000
#
# Coordination Sequence:
#
# PCOD9081437 Si02
#       8
#     2   2   2   2   2   2   2   2
#     4   9  18  30  43  62  90 123 158 190 219 263
#     4  10  19  32  47  70  96 123 160 194 226 277
#     4   9  18  30  43  62  90 123 158 190 219 263
#     4  10  20  33  49  69  96 127 159 194 232 274
#     4  10  20  33  49  69  96 127 159 194 232 274
#     4   9  18  31  48  69  97 131 156 184 232 279
#     4   9  18  31  48  69  97 131 156 184 232 279
#     4  10  19  32  47  70  96 123 160 194 226 277
#
# _framework density 21.102428
#
# number of rings (size 3 to 8) (size 9 to 14) (size 15 to 20)
#    0.000    2.500    0.000    3.750    0.000    7.000 
#    0.000   16.250    0.000    0.000    0.000    0.000 
#    0.000   20.000    0.000    0.000    0.000    0.000 
#
# Total GULP energy -89331.838799 kJ/mol
# GULP energy per Si atom -5583.239925 kJ/mol
# Density = 2.105440 g / cm^3
# Si number density = 21.102428 Si / 1000 Ang^3
#
#
#
# Elastic Constant Matrix: (Units=GPa)
#
#
# Indices 1 2 3 4 5 6 
#
# 1 34.4399 38.4975 33.7995 1.3014 -13.8658 -11.0827
# 2 38.4975 84.4150 55.8554 -10.4094 -2.3849 -31.3337
# 3 33.7995 55.8554 187.0135 -9.0444 -16.1378 -18.6217
# 4 1.3014 -10.4094 -9.0444 31.4033 -3.3155 -5.9173
# 5 -13.8658 -2.3849 -16.1378 -3.3155 27.5314 -0.8120
# 6 -11.0827 -31.3337 -18.6217 -5.9173 -0.8120 22.0431
#
#
#
# Elastic Compliance Matrix: (Units=1/GPa)
#
#
# Indices 1 2 3 4 5 6 
#
# 1 0.123866 -0.084882 -0.001960 -0.042009 0.046770 -0.069591
# 2 -0.084882 0.098237 -0.003027 0.052682 -0.026497 0.107574
# 3 -0.001960 -0.003027 0.007084 0.001689 0.003144 0.001266
# 4 -0.042009 0.052682 0.001689 0.064558 -0.005697 0.072311
# 5 0.046770 -0.026497 0.003144 -0.005697 0.058418 -0.010871
# 6 -0.069591 0.107574 0.001266 0.072311 -0.010871 0.183371
#
#
# Mechanical properties :
#
#
# Convention : Reuss Voigt Hill
#
# Bulk Modulus (GPa) = 20.22277 62.46367 41.34322
# Shear Modulus (GPa) = 6.83288 28.04329 17.43809
#
# Velocity S-wave (km/s) = 1.80139 3.64938 2.87776
# Velocity P-wave (km/s) = 3.73237 6.88635 5.53861
#
# Compressibility (1/GPa) = 0.04944921
#
# Stress axis : x y z
#
# Youngs Moduli (GPa) = 8.07325 10.17944 141.15332
#
# Poissons Ratio (x) = 0.86406 0.27666
# Poissons Ratio (y) = 0.68528 0.42722
# Poissons Ratio (z) = 0.01582 0.03081
#
# Static dielectric constant tensor:
#      x y z
#    x 1.812190 0.018100 0.034360 
#    y 0.018100 1.790040 0.019770 
#    z 0.034360 0.019770 1.792760 
# 
# From -- ./inp_files/533752.got.cif
#   From: 2010.05.17/outbox.cif.g08.bks.cpg/sg2_267_cif.got.tgz:533752.got - 2010.06.03 11:33:40.
