data_PCOD9081565
_publ_section_title
;
Structure prediction by ZEFSAII (Michael W. Deem and Ramdas Pophale) SiO2 
 PCOD9081565
Probable space group: P -1
;
_chemical_formula_sum "Si O2"
_cell_formula_units_Z 14
_cell_length_a 13.238836
_cell_length_b 8.009138
_cell_length_c 10.084839
_cell_angle_alpha 68.485995
_cell_angle_beta 50.060361
_cell_angle_gamma 105.833689
_cell_volume 535.140240
_symmetry_space_group_name_H-M "P -1"
_symmetry_group_IT_number 2
_symmetry_cell_setting 'triclinic'
loop_
_space_group_symop_operation_xyz
x,y,z
-x,-y,-z
loop_
_atom_site_type_symbol
_atom_site_label
_atom_site_fract_x
_atom_site_fract_y
_atom_site_fract_z
Si Si1 0.093417 0.803090 0.670164
Si Si2 0.863547 0.537057 0.212057
Si Si3 0.550152 0.927641 0.308980
Si Si4 0.550574 0.844384 0.029350
Si Si5 0.178646 0.154574 0.148810
Si Si6 0.467889 0.696036 0.862306
Si Si7 0.721059 0.763183 0.257393
O O1 0.089329 0.586067 0.696737
O O2 0.998496 0.694087 0.927384
O O3 0.979238 0.853509 0.680353
O O4 0.309549 0.072634 0.412796
O O5 0.659663 0.283042 0.395242
O O6 0.824362 0.697243 0.260638
O O7 0.693799 0.945015 0.264918
O O8 0.611546 0.189241 0.152438
O O9 0.519478 0.808262 0.223406
O O10 0.437945 0.642405 0.061639
O O11 0.767346 0.986510 0.794065
O O12 0.500000 0.000000 0.000000
O O13 0.371260 0.447705 0.933777
O O14 0.173862 0.125972 0.004165
O O15 0.500000 0.500000 0.500000
#
# Coordination Sequence:
#
# PCOD9081565 Si02
#       7
#     2   2   2   2   2   2   2
#     4   9  18  31  49  77 106 127 161 208 255 294
#     4   8  14  29  49  69  99 133 162 200 243 293
#     4   8  15  29  52  73  98 137 169 200 250 296
#     4   9  18  33  54  74  98 135 168 202 253 298
#     4  10  19  32  54  76  98 132 168 206 249 295
#     4  10  19  32  52  77 101 129 169 211 245 291
#     4   8  14  28  50  70  95 134 165 193 245 295
#
# _framework density 26.161366000000001
#
# number of rings (size 3 to 8) (size 9 to 14) (size 15 to 20)
#    0.000    3.143    0.000    0.429    0.000    0.571 
#    0.000   25.714    0.000   70.286    0.000    0.000 
#    0.000    0.000    0.000    0.000    0.000    0.000 
#
# Total GULP energy -78014.499168 kJ/mol
# GULP energy per Si atom -5572.464226 kJ/mol
# Density = 2.610182 g / cm^3
# Si number density = 26.161366 Si / 1000 Ang^3
#
#
#
# Elastic Constant Matrix: (Units=GPa)
#
#
# Indices 1 2 3 4 5 6 
#
# 1 227.0394 48.7523 20.0243 11.0222 -30.4842 -55.8697
# 2 48.7523 55.4838 13.2140 -1.4344 -5.4297 -3.2152
# 3 20.0243 13.2140 80.1719 15.4461 -11.4321 -0.2897
# 4 11.0222 -1.4344 15.4461 15.3626 -0.4538 3.7628
# 5 -30.4842 -5.4297 -11.4321 -0.4538 32.5003 18.2921
# 6 -55.8697 -3.2152 -0.2897 3.7628 18.2921 48.3091
#
#
#
# Elastic Compliance Matrix: (Units=1/GPa)
#
#
# Indices 1 2 3 4 5 6 
#
# 1 0.009444 -0.008164 0.001537 -0.011614 0.001928 0.010562
# 2 -0.008164 0.026386 -0.005396 0.015959 0.000151 -0.009018
# 3 0.001537 -0.005396 0.017551 -0.019257 0.006028 0.000742
# 4 -0.011614 0.015959 -0.019257 0.098870 -0.002871 -0.019099
# 5 0.001928 0.000151 0.006028 -0.002871 0.042288 -0.013513
# 6 0.010562 -0.009018 0.000742 -0.019099 -0.013513 0.038924
#
#
# Mechanical properties :
#
#
# Convention : Reuss Voigt Hill
#
# Bulk Modulus (GPa) = 34.08673 58.51958 46.30316
# Shear Modulus (GPa) = 18.70656 37.94803 28.32730
#
# Velocity S-wave (km/s) = 2.67693 3.81272 3.29415
# Velocity P-wave (km/s) = 4.75524 6.46527 5.67504
#
# Compressibility (1/GPa) = 0.02933693
#
# Stress axis : x y z
#
# Youngs Moduli (GPa) = 105.89052 37.89842 56.97744
#
# Poissons Ratio (x) = 0.30939 -0.08760
# Poissons Ratio (y) = 0.86445 0.30744
# Poissons Ratio (z) = -0.16280 0.20449
#
# Static dielectric constant tensor:
#      x y z
#    x 2.200420 -0.085150 -0.009910 
#    y -0.085150 2.059900 0.028930 
#    z -0.009910 0.028930 2.107940 
# 
# From -- ./inp_files/247577.got.cif
#   From: 2010.05.17/outbox.cif.g08.bks.cpg/sg2_124_cif.got.tgz:247577.got - 2010.06.03 11:33:40.
