data_PCOD9081482
_publ_section_title
;
Structure prediction by ZEFSAII (Michael W. Deem and Ramdas Pophale) SiO2 
 PCOD9081482
Probable space group: P -1
;
_chemical_formula_sum "Si O2"
_cell_formula_units_Z 12
_cell_length_a 11.468903
_cell_length_b 14.817644
_cell_length_c 5.167664
_cell_angle_alpha 75.207868
_cell_angle_beta 101.968086
_cell_angle_gamma 135.343214
_cell_volume 596.367430
_symmetry_space_group_name_H-M "P -1"
_symmetry_group_IT_number 2
_symmetry_cell_setting 'triclinic'
loop_
_space_group_symop_operation_xyz
x,y,z
-x,-y,-z
loop_
_atom_site_type_symbol
_atom_site_label
_atom_site_fract_x
_atom_site_fract_y
_atom_site_fract_z
Si Si1 0.129989 0.024363 0.839675
Si Si2 0.847929 0.487358 0.918982
Si Si3 0.478857 0.263424 0.968856
Si Si4 0.894689 0.794890 0.570971
Si Si5 0.545781 0.624918 0.630176
Si Si6 0.821743 0.601553 0.318895
O O1 0.145458 0.119285 0.577742
O O2 0.317024 0.110890 0.962335
O O3 0.000000 0.000000 0.000000
O O4 0.048048 0.890345 0.763416
O O5 0.154456 0.462256 0.395710
O O6 0.670827 0.337777 0.984485
O O7 0.863290 0.573404 0.090633
O O8 0.000000 0.500000 0.000000
O O9 0.454124 0.294353 0.215201
O O10 0.469408 0.338181 0.688243
O O11 0.720225 0.666876 0.706841
O O12 0.625877 0.521350 0.287959
O O13 0.919521 0.745344 0.365425
#
# Coordination Sequence:
#
# PCOD9081482 Si02
#       6
#     2   2   2   2   2   2
#     4  10  19  32  50  74 112 145 169 195 242 312
#     4  10  21  38  57  76  99 131 175 226 267 297
#     4   9  18  32  51  75 100 136 172 203 252 304
#     4  10  20  31  49  78 111 141 168 201 248 312
#     4   9  17  31  48  76 108 132 161 203 254 314
#     4  10  21  33  55  80 103 133 170 215 263 305
#
# _framework density 20.121821000000001
#
# number of rings (size 3 to 8) (size 9 to 14) (size 15 to 20)
#    0.000    2.333    1.667    1.000    2.333    0.000 
#    0.000    6.667    0.000    2.000    0.000    0.000 
#    0.000    0.000    0.000    0.000    0.000    0.000 
#
# Total GULP energy -66895.049231 kJ/mol
# GULP energy per Si atom -5574.587436 kJ/mol
# Density = 2.007602 g / cm^3
# Si number density = 20.121821 Si / 1000 Ang^3
#
#
#
# Elastic Constant Matrix: (Units=GPa)
#
#
# Indices 1 2 3 4 5 6 
#
# 1 126.1937 57.2058 25.8784 10.3823 -5.6158 26.5734
# 2 57.2058 120.3097 15.4957 38.4383 -1.5540 26.2834
# 3 25.8784 15.4957 74.1300 -1.2554 -1.5374 2.2385
# 4 10.3823 38.4383 -1.2554 28.2879 1.4599 8.6073
# 5 -5.6158 -1.5540 -1.5374 1.4599 18.8190 1.3432
# 6 26.5734 26.2834 2.2385 8.6073 1.3432 25.5792
#
#
#
# Elastic Compliance Matrix: (Units=1/GPa)
#
#
# Indices 1 2 3 4 5 6 
#
# 1 0.012525 -0.005010 -0.002890 0.004765 0.003388 -0.009392
# 2 -0.005010 0.020261 -0.002610 -0.023629 0.002337 -0.007557
# 3 -0.002890 -0.002610 0.015023 0.004410 -0.000400 0.002907
# 4 0.004765 -0.023629 0.004410 0.067205 -0.005140 -0.003402
# 5 0.003388 0.002337 -0.000400 -0.005140 0.055211 -0.007056
# 6 -0.009392 -0.007557 0.002907 -0.003402 -0.007056 0.057877
#
#
# Mechanical properties :
#
#
# Convention : Reuss Voigt Hill
#
# Bulk Modulus (GPa) = 37.33010 57.53259 47.43134
# Shear Modulus (GPa) = 19.37596 29.34080 24.35838
#
# Velocity S-wave (km/s) = 3.10648 3.82273 3.48306
# Velocity P-wave (km/s) = 5.60886 6.93819 6.30864
#
# Compressibility (1/GPa) = 0.02678804
#
# Stress axis : x y z
#
# Youngs Moduli (GPa) = 79.84271 49.35686 66.56475
#
# Poissons Ratio (x) = 0.24727 0.19240
# Poissons Ratio (y) = 0.40001 0.17371
# Poissons Ratio (z) = 0.23078 0.12881
#
# Static dielectric constant tensor:
#      x y z
#    x 1.692130 0.077070 -0.004010 
#    y 0.077070 1.843170 -0.028040 
#    z -0.004010 -0.028040 1.801150 
# 
# From -- ./inp_files/64195.got.cif
#   From: 2010.05.17/outbox.cif.g08.bks.cpg/sg2_33_cif.got.tgz:64195.got - 2010.06.03 11:33:40.
