data_PCOD9081357
_publ_section_title
;
Structure prediction by ZEFSAII (Michael W. Deem and Ramdas Pophale) SiO2 
 PCOD9081357
Probable space group: P -1
;
_chemical_formula_sum "Si O2"
_cell_formula_units_Z 16
_cell_length_a 15.896808
_cell_length_b 13.852117
_cell_length_c 10.595496
_cell_angle_alpha 46.033133
_cell_angle_beta 65.749178
_cell_angle_gamma 33.485515
_cell_volume 839.194603
_symmetry_space_group_name_H-M "P -1"
_symmetry_group_IT_number 2
_symmetry_cell_setting 'triclinic'
loop_
_space_group_symop_operation_xyz
x,y,z
-x,-y,-z
loop_
_atom_site_type_symbol
_atom_site_label
_atom_site_fract_x
_atom_site_fract_y
_atom_site_fract_z
Si Si1 0.874061 0.418516 0.335406
Si Si2 0.388863 0.140311 0.067557
Si Si3 0.355296 0.513817 0.471042
Si Si4 0.670793 0.150475 0.795346
Si Si5 0.522422 0.852322 0.469635
Si Si6 0.158795 0.273007 0.762175
Si Si7 0.779206 0.716317 0.565437
Si Si8 0.132877 0.217508 0.195493
O O1 0.758313 0.579035 0.135032
O O2 0.811698 0.358376 0.491502
O O3 0.830931 0.593697 0.298033
O O4 0.063265 0.218898 0.355515
O O5 0.708472 0.988953 0.019326
O O6 0.298607 0.107849 0.181775
O O7 0.500000 0.000000 0.000000
O O8 0.495823 0.343775 0.651085
O O9 0.328089 0.701695 0.284755
O O10 0.421379 0.344003 0.468041
O O11 0.825614 0.942062 0.791508
O O12 0.494502 0.015314 0.244245
O O13 0.674171 0.711886 0.595352
O O14 0.349477 0.050088 0.475239
O O15 0.183614 0.251125 0.617192
O O16 0.964550 0.464268 0.735958
O O17 0.000000 0.500000 0.000000
#
# Coordination Sequence:
#
# PCOD9081357 Si02
#       8
#     2   2   2   2   2   2   2   2
#     4  11  20  33  62  86 115 150 191 244 302 347
#     4  11  17  30  60  91 111 147 186 242 301 338
#     4  11  23  38  59  88 123 153 186 239 314 361
#     4  11  23  38  60  90 119 152 188 243 310 364
#     4  11  20  38  55  90 118 149 197 251 278 349
#     4  11  20  40  58  90 112 151 201 250 286 340
#     4  10  24  34  62  86 113 152 211 242 279 328
#     4  10  19  31  55  93 110 146 189 237 297 350
#
# _framework density 19.065901
#
# number of rings (size 3 to 8) (size 9 to 14) (size 15 to 20)
#    0.000    1.250    6.250    0.750    3.500    0.500 
#    0.000    1.250    0.000    0.000    0.000    0.000 
#    0.000    0.000    0.000    0.000    0.000    0.000 
#
# Total GULP energy -89071.836938 kJ/mol
# GULP energy per Si atom -5566.989809 kJ/mol
# Density = 1.902251 g / cm^3
# Si number density = 19.065901 Si / 1000 Ang^3
#
#
#
# Elastic Constant Matrix: (Units=GPa)
#
#
# Indices 1 2 3 4 5 6 
#
# 1 79.6742 25.1166 20.6848 -3.0595 -11.7728 -3.6587
# 2 25.1166 116.8499 20.8809 22.8498 -15.3878 -2.6000
# 3 20.6848 20.8809 55.8131 3.2556 -13.1658 6.1999
# 4 -3.0595 22.8498 3.2556 27.3067 -1.6159 -1.3190
# 5 -11.7728 -15.3878 -13.1658 -1.6159 31.2088 -0.4009
# 6 -3.6587 -2.6000 6.1999 -1.3190 -0.4009 33.4975
#
#
#
# Elastic Compliance Matrix: (Units=1/GPa)
#
#
# Indices 1 2 3 4 5 6 
#
# 1 0.015405 -0.003104 -0.004493 0.005139 0.002684 0.002508
# 2 -0.003104 0.011982 -0.002027 -0.009903 0.003377 0.000617
# 3 -0.004493 -0.002027 0.022525 -0.001329 0.006678 -0.004790
# 4 0.005139 -0.009903 -0.001329 0.045664 -0.001117 0.001823
# 5 0.002684 0.003377 0.006678 -0.001117 0.037475 -0.000276
# 6 0.002508 0.000617 -0.004790 0.001823 -0.000276 0.031130
#
#
# Mechanical properties :
#
#
# Convention : Reuss Voigt Hill
#
# Bulk Modulus (GPa) = 32.61075 42.85575 37.73325
# Shear Modulus (GPa) = 25.81953 30.77961 28.29957
#
# Velocity S-wave (km/s) = 3.68397 4.02229 3.85684
# Velocity P-wave (km/s) = 5.93607 6.64065 6.29822
#
# Compressibility (1/GPa) = 0.03066473
#
# Stress axis : x y z
#
# Youngs Moduli (GPa) = 64.91294 83.45583 44.39465
#
# Poissons Ratio (x) = 0.25906 0.19948
# Poissons Ratio (y) = 0.20150 0.08997
# Poissons Ratio (z) = 0.29168 0.16913
#
# Static dielectric constant tensor:
#      x y z
#    x 1.830660 -0.045810 0.044020 
#    y -0.045810 1.719070 0.024820 
#    z 0.044020 0.024820 1.658180 
# 
# From -- ./inp_files/341081.got.cif
#   From: 2010.05.17/outbox.cif.g08.bks.cpg/sg2_171_cif.got.tgz:341081.got - 2010.06.03 11:33:40.
