data_PCOD9081679
_publ_section_title
;
Structure prediction by ZEFSAII (Michael W. Deem and Ramdas Pophale) SiO2 
 PCOD9081679
Probable space group: P -1
;
_chemical_formula_sum "Si O2"
_cell_formula_units_Z 10
_cell_length_a 11.604786
_cell_length_b 17.324359
_cell_length_c 13.299940
_cell_angle_alpha 158.371523
_cell_angle_beta 30.188443
_cell_angle_gamma 152.658926
_cell_volume 440.712430
_symmetry_space_group_name_H-M "P -1"
_symmetry_group_IT_number 2
_symmetry_cell_setting 'triclinic'
loop_
_space_group_symop_operation_xyz
x,y,z
-x,-y,-z
loop_
_atom_site_type_symbol
_atom_site_label
_atom_site_fract_x
_atom_site_fract_y
_atom_site_fract_z
Si Si1 0.261187 0.795468 0.228043
Si Si2 0.698258 0.947533 0.677244
Si Si3 0.565034 0.503820 0.124412
Si Si4 0.184990 0.171591 0.850265
Si Si5 0.273033 0.242690 0.372797
O O1 0.339880 0.865674 0.137959
O O2 0.342022 0.034269 0.522895
O O3 0.346310 0.629748 0.023481
O O4 0.045618 0.301305 0.656929
O O5 0.525955 0.698585 0.452100
O O6 0.661929 0.900933 0.765579
O O7 0.000000 0.000000 0.500000
O O8 0.778602 0.648861 0.052361
O O9 0.318413 0.321319 0.028160
O O10 0.897159 0.959883 0.825291
O O11 0.500000 0.500000 0.500000
#
# Coordination Sequence:
#
# PCOD9081679 Si02
#       5
#     2   2   2   2   2
#     4   8  17  29  53  70  91 121 157 193 228 271
#     4   9  17  31  46  72  94 120 155 198 225 268
#     4  10  15  30  53  74  89 115 164 196 232 258
#     4   8  18  29  48  75  94 118 150 203 225 272
#     4   9  18  34  46  64 103 129 144 188 239 274
#
# _framework density 22.690532000000001
#
# number of rings (size 3 to 8) (size 9 to 14) (size 15 to 20)
#    1.200    2.000    2.000    0.600    0.000    3.200 
#    0.000    2.000    0.000    1.200    0.000    0.000 
#    0.000    0.000    0.000    0.000    0.000    0.000 
#
# Total GULP energy -55678.250307 kJ/mol
# GULP energy per Si atom -5567.825031 kJ/mol
# Density = 2.263889 g / cm^3
# Si number density = 22.690532 Si / 1000 Ang^3
#
#
#
# Elastic Constant Matrix: (Units=GPa)
#
#
# Indices 1 2 3 4 5 6 
#
# 1 138.1248 32.5257 53.0999 30.7290 -11.0661 -2.2008
# 2 32.5257 79.8082 18.4023 34.8631 7.1017 13.4280
# 3 53.0999 18.4023 94.9361 39.7621 -3.5992 10.2291
# 4 30.7290 34.8631 39.7621 36.8129 1.4022 7.2109
# 5 -11.0661 7.1017 -3.5992 1.4022 63.1622 17.4911
# 6 -2.2008 13.4280 10.2291 7.2109 17.4911 22.2178
#
#
#
# Elastic Compliance Matrix: (Units=1/GPa)
#
#
# Indices 1 2 3 4 5 6 
#
# 1 0.010488 -0.003984 -0.005728 0.000060 0.000356 0.005785
# 2 -0.003984 0.028676 0.012890 -0.035213 0.001255 -0.013220
# 3 -0.005728 0.012890 0.027094 -0.034422 0.003236 -0.012207
# 4 0.000060 -0.035213 -0.034422 0.096223 -0.002255 0.007681
# 5 0.000356 0.001255 0.003236 -0.002255 0.020970 -0.017989
# 6 0.005785 -0.013220 -0.012207 0.007681 -0.017989 0.070862
#
#
# Mechanical properties :
#
#
# Convention : Reuss Voigt Hill
#
# Bulk Modulus (GPa) = 13.77177 57.88056 35.82617
# Shear Modulus (GPa) = 18.37141 38.36133 28.36637
#
# Velocity S-wave (km/s) = 2.84852 4.11619 3.53957
# Velocity P-wave (km/s) = 4.11113 6.93936 5.70334
#
# Compressibility (1/GPa) = 0.07261228
#
# Stress axis : x y z
#
# Youngs Moduli (GPa) = 95.34968 34.87186 36.90873
#
# Poissons Ratio (x) = 0.13894 0.21143
# Poissons Ratio (y) = 0.37991 -0.47576
# Poissons Ratio (z) = 0.54621 -0.44950
#
# Static dielectric constant tensor:
#      x y z
#    x 1.809170 -0.016560 0.011500 
#    y -0.016560 1.938120 -0.043090 
#    z 0.011500 -0.043090 1.903750 
# 
# From -- ./inp_files/175623.got.cif
#   From: 2010.05.17/outbox.cif.g08.bks.cpg/sg2_88_cif.got.tgz:175623.got - 2010.06.03 11:33:40.
