data_PCOD9081765
_publ_section_title
;
Structure prediction by ZEFSAII (Michael W. Deem and Ramdas Pophale) SiO2 
 PCOD9081765
Probable space group: P -1
;
_chemical_formula_sum "Si O2"
_cell_formula_units_Z 16
_cell_length_a 11.535518
_cell_length_b 10.937797
_cell_length_c 10.801949
_cell_angle_alpha 40.317156
_cell_angle_beta 99.806608
_cell_angle_gamma 107.436024
_cell_volume 837.572406
_symmetry_space_group_name_H-M "P -1"
_symmetry_group_IT_number 2
_symmetry_cell_setting 'triclinic'
loop_
_space_group_symop_operation_xyz
x,y,z
-x,-y,-z
loop_
_atom_site_type_symbol
_atom_site_label
_atom_site_fract_x
_atom_site_fract_y
_atom_site_fract_z
Si Si1 0.797226 0.194139 0.010614
Si Si2 0.458244 0.423102 0.186220
Si Si3 0.938288 0.710270 0.948398
Si Si4 0.552900 0.115336 0.545984
Si Si5 0.244056 0.064490 0.332912
Si Si6 0.405429 0.179248 0.697948
Si Si7 0.123716 0.731036 0.761447
Si Si8 0.622672 0.415376 0.723624
O O1 0.793538 0.240479 0.121937
O O2 0.940504 0.213411 0.005706
O O3 0.706488 0.980787 0.140005
O O4 0.745400 0.347052 0.806152
O O5 0.561563 0.338958 0.336397
O O6 0.336920 0.243795 0.284070
O O7 0.426404 0.579205 0.150187
O O8 0.500000 0.500000 0.000000
O O9 0.843804 0.839324 0.836242
O O10 0.992356 0.723752 0.805738
O O11 0.882534 0.478969 0.136880
O O12 0.460736 0.081824 0.669363
O O13 0.500000 0.000000 0.500000
O O14 0.674072 0.047678 0.643849
O O15 0.170020 0.907600 0.539444
O O16 0.518487 0.266411 0.741749
O O17 0.363656 0.366704 0.495118
#
# Coordination Sequence:
#
# PCOD9081765 Si02
#       8
#     2   2   2   2   2   2   2   2
#     4  10  19  32  55  79 109 139 181 226 274 318
#     4  10  22  33  55  86 116 144 179 223 281 327
#     4   9  21  32  52  80 111 145 182 233 274 322
#     4   9  20  34  52  80 109 147 174 223 275 330
#     4  11  20  34  54  78 119 148 174 223 283 329
#     4  10  21  38  54  82 111 142 190 219 279 330
#     4   9  19  33  50  79 114 139 189 222 276 325
#     4  10  21  35  56  80 111 147 180 231 268 329
#
# _framework density 19.102824999999999
#
# number of rings (size 3 to 8) (size 9 to 14) (size 15 to 20)
#    0.750    1.500    0.000    3.750    7.000    1.000 
#    0.000    0.000    0.000    0.750    0.000    3.500 
#    0.000    0.000    0.000    0.000    0.000    0.000 
#
# Total GULP energy -89151.046962 kJ/mol
# GULP energy per Si atom -5571.940435 kJ/mol
# Density = 1.905935 g / cm^3
# Si number density = 19.102825 Si / 1000 Ang^3
#
#
#
# Elastic Constant Matrix: (Units=GPa)
#
#
# Indices 1 2 3 4 5 6 
#
# 1 94.7612 27.6426 42.7168 -6.6042 39.9915 14.5886
# 2 27.6426 46.2150 17.6095 -7.8909 3.6965 8.6768
# 3 42.7168 17.6095 68.5771 -12.5568 13.1130 8.3385
# 4 -6.6042 -7.8909 -12.5568 19.7681 5.3964 0.2433
# 5 39.9915 3.6965 13.1130 5.3964 42.1601 7.1449
# 6 14.5886 8.6768 8.3385 0.2433 7.1449 14.2650
#
#
#
# Elastic Compliance Matrix: (Units=1/GPa)
#
#
# Indices 1 2 3 4 5 6 
#
# 1 0.028682 -0.009492 -0.008955 0.006542 -0.023278 -0.006776
# 2 -0.009492 0.030398 -0.000679 0.006552 0.007814 -0.012412
# 3 -0.008955 -0.000679 0.022717 0.010999 0.000810 -0.004301
# 4 0.006542 0.006552 0.010999 0.067178 -0.017164 -0.009654
# 5 -0.023278 0.007814 0.000810 -0.017164 0.047929 -0.005135
# 6 -0.006776 -0.012412 -0.004301 -0.009654 -0.005135 0.089831
#
#
# Mechanical properties :
#
#
# Convention : Reuss Voigt Hill
#
# Bulk Modulus (GPa) = 22.96510 42.83233 32.89872
# Shear Modulus (GPa) = 14.72747 23.34428 19.03588
#
# Velocity S-wave (km/s) = 2.77962 3.49955 3.16016
# Velocity P-wave (km/s) = 4.72755 6.22895 5.52944
#
# Compressibility (1/GPa) = 0.04354433
#
# Stress axis : x y z
#
# Youngs Moduli (GPa) = 34.86566 32.89714 44.02023
#
# Poissons Ratio (x) = 0.31225 0.39422
# Poissons Ratio (y) = 0.33094 0.02987
# Poissons Ratio (z) = 0.31224 0.02233
#
# Static dielectric constant tensor:
#      x y z
#    x 1.718380 -0.010150 0.025800 
#    y -0.010150 1.683370 -0.012460 
#    z 0.025800 -0.012460 1.680690 
# 
# From -- ./inp_files/422856.got.cif
#   From: 2010.05.17/outbox.cif.g08.bks.cpg/sg2_212_cif.got.tgz:422856.got - 2010.06.03 11:33:40.
