data_PCOD9081670
_publ_section_title
;
Structure prediction by ZEFSAII (Michael W. Deem and Ramdas Pophale) SiO2 
 PCOD9081670
Probable space group: P -1
;
_chemical_formula_sum "Si O2"
_cell_formula_units_Z 12
_cell_length_a 12.873439
_cell_length_b 16.301961
_cell_length_c 5.043694
_cell_angle_alpha 77.596542
_cell_angle_beta 87.837220
_cell_angle_gamma 150.360526
_cell_volume 452.702146
_symmetry_space_group_name_H-M "P -1"
_symmetry_group_IT_number 2
_symmetry_cell_setting 'triclinic'
loop_
_space_group_symop_operation_xyz
x,y,z
-x,-y,-z
loop_
_atom_site_type_symbol
_atom_site_label
_atom_site_fract_x
_atom_site_fract_y
_atom_site_fract_z
Si Si1 0.518499 0.572902 0.694269
Si Si2 0.000000 0.000000 0.500000
Si Si3 0.106558 0.708661 0.758558
Si Si4 0.514926 0.149669 0.447125
Si Si5 0.089330 0.365020 0.676074
Si Si6 0.700682 0.933845 0.972612
Si Si7 0.000000 0.000000 0.000000
O O1 0.500000 0.500000 0.500000
O O2 0.776943 0.803433 0.472646
O O3 0.318979 0.496706 0.711569
O O4 0.500000 0.500000 0.000000
O O5 0.969043 0.908136 0.818583
O O6 0.239823 0.721790 0.645372
O O7 0.911127 0.597954 0.644310
O O8 0.311472 0.929473 0.603336
O O9 0.014630 0.640615 0.113186
O O10 0.481324 0.174398 0.163449
O O11 0.446868 0.162510 0.679631
O O12 0.908683 0.154641 0.810344
O O13 0.815441 0.927179 0.886420
#
# Coordination Sequence:
#
# PCOD9081670 Si02
#       7
#     2   1   2   2   2   2   1
#     4  12  25  43  67  97 137 181 225 279 342 412
#     4  12  26  44  66  96 134 178 226 276 336 412
#     4   9  17  30  52  83 119 155 206 267 329 391
#     4   9  17  30  50  82 120 159 206 269 326 386
#     4  10  19  33  55  85 119 161 208 265 327 392
#     4  10  19  32  53  83 123 166 213 263 321 386
#     4  12  24  40  60  90 130 174 226 274 318 396
#
# _framework density 26.507491999999999
#
# number of rings (size 3 to 8) (size 9 to 14) (size 15 to 20)
#    0.000    1.667    0.000    6.000    0.000    6.667 
#    0.000    0.000    0.000    0.000    0.000   23.333 
#    0.000    0.000    0.000    0.000    0.000    8.667 
#
# Total GULP energy -66939.125465 kJ/mol
# GULP energy per Si atom -5578.260455 kJ/mol
# Density = 2.644716 g / cm^3
# Si number density = 26.507492 Si / 1000 Ang^3
#
#
#
# Elastic Constant Matrix: (Units=GPa)
#
#
# Indices 1 2 3 4 5 6 
#
# 1 153.1876 28.4686 32.5085 -0.8611 -2.2036 16.5094
# 2 28.4686 129.9881 51.7120 3.4940 15.2746 1.1317
# 3 32.5085 51.7120 93.1181 24.3011 6.6370 1.6969
# 4 -0.8611 3.4940 24.3011 47.4569 7.6053 12.3806
# 5 -2.2036 15.2746 6.6370 7.6053 37.7065 3.4363
# 6 16.5094 1.1317 1.6969 12.3806 3.4363 36.8397
#
#
#
# Elastic Compliance Matrix: (Units=1/GPa)
#
#
# Indices 1 2 3 4 5 6 
#
# 1 0.007801 -0.000652 -0.003071 0.002720 0.001109 -0.004352
# 2 -0.000652 0.010694 -0.006245 0.003133 -0.003863 -0.000441
# 3 -0.003071 -0.006245 0.017714 -0.009842 0.000855 0.003980
# 4 0.002720 0.003133 -0.009842 0.029317 -0.004352 -0.010308
# 5 0.001109 -0.003863 0.000855 -0.004352 0.029029 -0.001663
# 6 -0.004352 -0.000441 0.003980 -0.010308 -0.001663 0.032544
#
#
# Mechanical properties :
#
#
# Convention : Reuss Voigt Hill
#
# Bulk Modulus (GPa) = 61.45222 66.85245 64.15234
# Shear Modulus (GPa) = 32.79554 41.97426 37.38490
#
# Velocity S-wave (km/s) = 3.52123 3.98362 3.75954
# Velocity P-wave (km/s) = 6.30598 6.81425 6.56503
#
# Compressibility (1/GPa) = 0.01627280
#
# Stress axis : x y z
#
# Youngs Moduli (GPa) = 128.18782 93.51139 56.45188
#
# Poissons Ratio (x) = 0.06101 0.17334
# Poissons Ratio (y) = 0.08364 0.35255
# Poissons Ratio (z) = 0.39360 0.58399
#
# Static dielectric constant tensor:
#      x y z
#    x 1.938890 0.265080 -0.003020 
#    y 0.265080 2.137820 -0.202940 
#    z -0.003020 -0.202940 1.689940 
# 
# From -- ./inp_files/77639.got.cif
#   From: 2010.05.17/outbox.cif.g08.bks.cpg/sg2_39_cif.got.tgz:77639.got - 2010.06.03 11:33:40.
