data_PCOD9081278
_publ_section_title
;
Structure prediction by ZEFSAII (Michael W. Deem and Ramdas Pophale) SiO2 
 PCOD9081278
Probable space group: P -1
;
_chemical_formula_sum "Si O2"
_cell_formula_units_Z 16
_cell_length_a 7.965264
_cell_length_b 14.029316
_cell_length_c 8.352135
_cell_angle_alpha 138.000637
_cell_angle_beta 90.680964
_cell_angle_gamma 88.875086
_cell_volume 624.384985
_symmetry_space_group_name_H-M "P -1"
_symmetry_group_IT_number 2
_symmetry_cell_setting 'triclinic'
loop_
_space_group_symop_operation_xyz
x,y,z
-x,-y,-z
loop_
_atom_site_type_symbol
_atom_site_label
_atom_site_fract_x
_atom_site_fract_y
_atom_site_fract_z
Si Si1 0.006972 0.096052 0.861925
Si Si2 0.914943 0.490278 0.317135
Si Si3 0.298146 0.813494 0.798533
Si Si4 0.263355 0.257468 0.512523
Si Si5 0.348718 0.098491 0.017644
Si Si6 0.977565 0.216914 0.665647
Si Si7 0.778559 0.449437 0.757871
Si Si8 0.543548 0.488690 0.296200
O O1 0.866638 0.138289 0.043944
O O2 0.949320 0.160564 0.772838
O O3 0.189873 0.153837 0.985346
O O4 0.033163 0.926119 0.625699
O O5 0.879431 0.653778 0.473208
O O6 0.732616 0.420690 0.215662
O O7 0.000000 0.500000 0.500000
O O8 0.062539 0.450693 0.148787
O O9 0.474438 0.824858 0.916311
O O10 0.258375 0.663325 0.527609
O O11 0.345106 0.927835 0.802451
O O12 0.414641 0.363833 0.615787
O O13 0.175951 0.244895 0.664980
O O14 0.304924 0.124408 0.237556
O O15 0.844494 0.341724 0.764145
O O16 0.614629 0.552525 0.864765
O O17 0.500000 0.500000 0.500000
#
# Coordination Sequence:
#
# PCOD9081278 Si02
#       8
#     2   2   2   2   2   2   2   2
#     4  11  21  36  50  73 115 147 184 209 252 311
#     4   9  17  28  48  78 104 126 165 215 268 311
#     4  11  21  32  54  80 102 144 179 217 265 306
#     4   9  18  33  52  78 106 134 172 215 269 307
#     4  11  20  34  52  79 106 140 179 220 261 308
#     4  10  21  35  50  76 109 154 174 212 259 313
#     4  11  18  34  53  77 109 135 175 216 270 311
#     4  10  19  31  53  84 106 129 168 232 275 307
#
# _framework density 25.625215000000001
#
# number of rings (size 3 to 8) (size 9 to 14) (size 15 to 20)
#    0.750    1.000    5.000    1.875    0.000    0.000 
#    2.250    1.250    0.000    0.000    0.000   33.250 
#    0.000    0.000    0.000    0.000    0.000    0.000 
#
# Total GULP energy -89097.757334 kJ/mol
# GULP energy per Si atom -5568.609833 kJ/mol
# Density = 2.556689 g / cm^3
# Si number density = 25.625215 Si / 1000 Ang^3
#
#
#
# Elastic Constant Matrix: (Units=GPa)
#
#
# Indices 1 2 3 4 5 6 
#
# 1 225.8829 31.9420 41.6745 -17.9340 23.2975 -3.9682
# 2 31.9420 62.3046 11.8218 -6.6984 3.2662 0.6806
# 3 41.6745 11.8218 81.5587 -8.3219 3.3060 3.8702
# 4 -17.9340 -6.6984 -8.3219 29.2109 -1.1509 2.1127
# 5 23.2975 3.2662 3.3060 -1.1509 32.4067 -4.5315
# 6 -3.9682 0.6806 3.8702 2.1127 -4.5315 40.4561
#
#
#
# Elastic Compliance Matrix: (Units=1/GPa)
#
#
# Indices 1 2 3 4 5 6 
#
# 1 0.005678 -0.002065 -0.002248 0.002212 -0.003525 0.000296
# 2 -0.002065 0.017618 -0.001216 0.002458 -0.000153 -0.000528
# 3 -0.002248 -0.001216 0.013904 0.002428 0.000177 -0.001637
# 4 0.002212 0.002458 0.002428 0.036957 -0.001068 -0.002106
# 5 -0.003525 -0.000153 0.000177 -0.001068 0.033839 0.003486
# 6 0.000296 -0.000528 -0.001637 -0.002106 0.003486 0.025413
#
#
# Mechanical properties :
#
#
# Convention : Reuss Voigt Hill
#
# Bulk Modulus (GPa) = 38.25294 60.06920 49.16107
# Shear Modulus (GPa) = 32.64105 39.36858 36.00481
#
# Velocity S-wave (km/s) = 3.57289 3.92385 3.75247
# Velocity P-wave (km/s) = 5.65517 6.63484 6.16450
#
# Compressibility (1/GPa) = 0.02614178
#
# Stress axis : x y z
#
# Youngs Moduli (GPa) = 176.11437 56.76073 71.92139
#
# Poissons Ratio (x) = 0.11723 0.16165
# Poissons Ratio (y) = 0.36372 0.08748
# Poissons Ratio (z) = 0.39582 0.06904
#
# Static dielectric constant tensor:
#      x y z
#    x 4.156470 0.488300 -0.347190 
#    y 0.488300 2.179070 -0.026110 
#    z -0.347190 -0.026110 2.133890 
# 
# From -- ./inp_files/193670.got.cif
#   From: 2010.05.17/outbox.cif.g08.bks.cpg/sg2_97_cif.got.tgz:193670.got - 2010.06.03 11:33:40.
