data_PCOD9081897
_publ_section_title
;
Structure prediction by ZEFSAII (Michael W. Deem and Ramdas Pophale) SiO2 
 PCOD9081897
Probable space group: P -1
;
_chemical_formula_sum "Si O2"
_cell_formula_units_Z 16
_cell_length_a 12.197746
_cell_length_b 11.259618
_cell_length_c 12.130639
_cell_angle_alpha 120.126322
_cell_angle_beta 131.544193
_cell_angle_gamma 35.091134
_cell_volume 713.619152
_symmetry_space_group_name_H-M "P -1"
_symmetry_group_IT_number 2
_symmetry_cell_setting 'triclinic'
loop_
_space_group_symop_operation_xyz
x,y,z
-x,-y,-z
loop_
_atom_site_type_symbol
_atom_site_label
_atom_site_fract_x
_atom_site_fract_y
_atom_site_fract_z
Si Si1 0.878893 0.122661 0.709350
Si Si2 0.396768 0.339224 0.725594
Si Si3 0.674313 0.889557 0.737171
Si Si4 0.147260 0.486575 0.978250
Si Si5 0.268652 0.661319 0.050731
Si Si6 0.018876 0.224259 0.286617
Si Si7 0.976541 0.327294 0.780393
Si Si8 0.424568 0.335520 0.478894
O O1 0.838191 0.202356 0.845071
O O2 0.025719 0.135160 0.754161
O O3 0.632363 0.286844 0.570204
O O4 0.955464 0.910874 0.667596
O O5 0.526655 0.387512 0.864929
O O6 0.143866 0.539165 0.680605
O O7 0.413700 0.323269 0.597271
O O8 0.518734 0.127921 0.767776
O O9 0.546044 0.837191 0.631553
O O10 0.900738 0.707776 0.873695
O O11 0.763222 0.861931 0.660025
O O12 0.162428 0.314056 0.883540
O O13 0.316394 0.468420 0.021064
O O14 0.150985 0.520958 0.125843
O O15 0.093185 0.779220 0.891073
O O16 0.807067 0.449171 0.623020
#
# Coordination Sequence:
#
# PCOD9081897 Si02
#       8
#     2   2   2   2   2   2   2   2
#     4  10  19  32  57  79 109 145 181 219 268 323
#     4  11  22  33  55  85 112 143 175 219 276 324
#     4  10  20  37  56  81 114 138 178 226 269 322
#     4   8  17  31  58  82 102 139 183 223 269 315
#     4   9  18  34  53  79 111 136 174 225 270 315
#     4  11  21  34  54  85 109 145 176 221 273 322
#     4   9  17  32  55  84 102 141 189 218 262 321
#     4  10  20  36  53  80 111 146 181 221 264 318
#
# _framework density 22.420921
#
# number of rings (size 3 to 8) (size 9 to 14) (size 15 to 20)
#    0.000    2.250    2.500    1.500    3.500    0.500 
#    0.000    0.625    0.000    0.750   19.500    0.000 
#    0.000    0.000    0.000    0.000    0.000    0.000 
#
# Total GULP energy -89243.246782 kJ/mol
# GULP energy per Si atom -5577.702924 kJ/mol
# Density = 2.236989 g / cm^3
# Si number density = 22.420921 Si / 1000 Ang^3
#
#
#
# Elastic Constant Matrix: (Units=GPa)
#
#
# Indices 1 2 3 4 5 6 
#
# 1 47.1484 30.6125 6.3006 8.9128 12.9429 24.6553
# 2 30.6125 71.3880 -12.6990 8.2053 7.3392 13.4932
# 3 6.3006 -12.6990 70.5569 1.8434 5.5528 9.6945
# 4 8.9128 8.2053 1.8434 18.3361 15.3125 1.5040
# 5 12.9429 7.3392 5.5528 15.3125 25.4366 0.0141
# 6 24.6553 13.4932 9.6945 1.5040 0.0141 26.4629
#
#
#
# Elastic Compliance Matrix: (Units=1/GPa)
#
#
# Indices 1 2 3 4 5 6 
#
# 1 0.070474 -0.016090 0.001485 0.007843 -0.036230 -0.058426
# 2 -0.016090 0.021495 0.004723 -0.006611 0.004932 0.002674
# 3 0.001485 0.004723 0.016776 0.002265 -0.007138 -0.010062
# 4 0.007843 -0.006611 0.002265 0.113661 -0.070994 -0.011188
# 5 -0.036230 0.004932 -0.007138 -0.070994 0.100600 0.037837
# 6 -0.058426 0.002674 -0.010062 -0.011188 0.037837 0.095163
#
#
# Mechanical properties :
#
#
# Convention : Reuss Voigt Hill
#
# Bulk Modulus (GPa) = 11.23841 26.39127 18.81484
# Shear Modulus (GPa) = 10.69309 25.03906 17.86608
#
# Velocity S-wave (km/s) = 2.18623 3.34544 2.82591
# Velocity P-wave (km/s) = 3.37582 5.16904 4.36550
#
# Compressibility (1/GPa) = 0.08898058
#
# Stress axis : x y z
#
# Youngs Moduli (GPa) = 14.18971 46.52218 59.61064
#
# Poissons Ratio (x) = 0.74853 -0.08853
# Poissons Ratio (y) = 0.22831 -0.28153
# Poissons Ratio (z) = -0.02107 -0.21971
#
# Static dielectric constant tensor:
#      x y z
#    x 1.858040 0.045960 0.011840 
#    y 0.045960 1.859060 0.002570 
#    z 0.011840 0.002570 1.859150 
# 
# From -- ./inp_files/305328.got.cif
#   From: 2010.05.17/outbox.cif.g08.bks.cpg/sg2_153_cif.got.tgz:305328.got - 2010.06.03 11:33:40.
