data_PCOD9081683
_publ_section_title
;
Structure prediction by ZEFSAII (Michael W. Deem and Ramdas Pophale) SiO2 
 PCOD9081683
Probable space group: P -1
;
_chemical_formula_sum "Si O2"
_cell_formula_units_Z 16
_cell_length_a 7.244160
_cell_length_b 16.071625
_cell_length_c 9.424482
_cell_angle_alpha 135.765833
_cell_angle_beta 90.919687
_cell_angle_gamma 77.058910
_cell_volume 728.969566
_symmetry_space_group_name_H-M "P -1"
_symmetry_group_IT_number 2
_symmetry_cell_setting 'triclinic'
loop_
_space_group_symop_operation_xyz
x,y,z
-x,-y,-z
loop_
_atom_site_type_symbol
_atom_site_label
_atom_site_fract_x
_atom_site_fract_y
_atom_site_fract_z
Si Si1 0.933185 0.063459 0.228876
Si Si2 0.789920 0.309562 0.416392
Si Si3 0.457399 0.342404 0.674980
Si Si4 0.074546 0.814300 0.029207
Si Si5 0.474436 0.092696 0.288165
Si Si6 0.617466 0.564212 0.685827
Si Si7 0.349965 0.169759 0.063801
Si Si8 0.678947 0.381498 0.998628
O O1 0.940035 0.204592 0.385823
O O2 0.705188 0.078237 0.260508
O O3 0.000000 0.000000 0.000000
O O4 0.054731 0.961885 0.217641
O O5 0.583940 0.330205 0.517571
O O6 0.801195 0.249389 0.186203
O O7 0.811455 0.447414 0.571576
O O8 0.394237 0.217180 0.533837
O O9 0.298323 0.479169 0.840435
O O10 0.609374 0.345409 0.803870
O O11 0.153433 0.727859 0.059209
O O12 0.858513 0.817447 0.988790
O O13 0.372063 0.128546 0.178443
O O14 0.488473 0.949584 0.151861
O O15 0.500000 0.500000 0.500000
O O16 0.635055 0.692253 0.782995
O O17 0.503306 0.598551 0.873378
#
# Coordination Sequence:
#
# PCOD9081683 Si02
#       8
#     2   2   2   2   2   2   2   2
#     4   8  15  28  50  77 105 132 171 223 260 306
#     4   9  17  31  52  77 107 136 179 220 266 314
#     4   9  19  36  58  78 110 150 182 220 271 329
#     4  10  19  32  53  87 108 137 182 231 267 316
#     4   9  18  35  52  75 112 152 176 214 281 327
#     4  11  19  33  55  81 102 141 183 228 266 320
#     4  10  21  33  54  82 114 140 178 233 275 311
#     4  10  20  34  58  85 107 141 189 226 266 320
#
# _framework density 21.948791
#
# number of rings (size 3 to 8) (size 9 to 14) (size 15 to 20)
#    0.000    2.500    1.250    2.250    1.750    0.500 
#    0.000    6.250    2.750    2.250    0.000    0.000 
#    0.000    0.000    0.000    0.000    0.000    0.000 
#
# Total GULP energy -89089.456524 kJ/mol
# GULP energy per Si atom -5568.091033 kJ/mol
# Density = 2.189883 g / cm^3
# Si number density = 21.948791 Si / 1000 Ang^3
#
#
#
# Elastic Constant Matrix: (Units=GPa)
#
#
# Indices 1 2 3 4 5 6 
#
# 1 45.7270 32.5510 7.7542 10.1322 2.8263 -13.7961
# 2 32.5510 179.3415 70.8274 64.5627 11.4118 -29.4869
# 3 7.7542 70.8274 80.5371 39.0065 19.6365 -5.2698
# 4 10.1322 64.5627 39.0065 65.1732 7.2442 -3.7032
# 5 2.8263 11.4118 19.6365 7.2442 14.2965 2.3117
# 6 -13.7961 -29.4869 -5.2698 -3.7032 2.3117 24.9354
#
#
#
# Elastic Compliance Matrix: (Units=1/GPa)
#
#
# Indices 1 2 3 4 5 6 
#
# 1 0.028676 -0.003509 0.004649 -0.001837 -0.010489 0.013398
# 2 -0.003509 0.014029 -0.007890 -0.008272 0.002664 0.011505
# 3 0.004649 -0.007890 0.030819 -0.007540 -0.033412 0.001733
# 4 -0.001837 -0.008272 -0.007540 0.027291 0.004916 -0.008795
# 5 -0.010489 0.002664 -0.033412 0.004916 0.116494 -0.019784
# 6 0.013398 0.011505 0.001733 -0.008795 -0.019784 0.062016
#
#
# Mechanical properties :
#
#
# Convention : Reuss Voigt Hill
#
# Bulk Modulus (GPa) = 16.65992 58.65231 37.65612
# Shear Modulus (GPa) = 15.98295 33.84589 24.91442
#
# Velocity S-wave (km/s) = 2.70143 3.93114 3.37280
# Velocity P-wave (km/s) = 4.16379 6.88371 5.68870
#
# Compressibility (1/GPa) = 0.06002429
#
# Stress axis : x y z
#
# Youngs Moduli (GPa) = 34.87207 71.28091 32.44710
#
# Poissons Ratio (x) = 0.25013 -0.15084
# Poissons Ratio (y) = 0.12237 0.25601
# Poissons Ratio (z) = -0.16212 0.56240
#
# Static dielectric constant tensor:
#      x y z
#    x 1.884070 0.026800 0.014420 
#    y 0.026800 1.933390 0.122720 
#    z 0.014420 0.122720 1.860230 
# 
# From -- ./inp_files/204243.got.cif
#   From: 2010.05.17/outbox.cif.g08.bks.cpg/sg2_103_cif.got.tgz:204243.got - 2010.06.03 11:33:40.
