data_PCOD9081945
_publ_section_title
;
Structure prediction by ZEFSAII (Michael W. Deem and Ramdas Pophale) SiO2 
 PCOD9081945
Probable space group: P -1
;
_chemical_formula_sum "Si O2"
_cell_formula_units_Z 16
_cell_length_a 15.297276
_cell_length_b 5.176571
_cell_length_c 12.578354
_cell_angle_alpha 103.379281
_cell_angle_beta 58.987255
_cell_angle_gamma 109.083497
_cell_volume 804.310676
_symmetry_space_group_name_H-M "P -1"
_symmetry_group_IT_number 2
_symmetry_cell_setting 'triclinic'
loop_
_space_group_symop_operation_xyz
x,y,z
-x,-y,-z
loop_
_atom_site_type_symbol
_atom_site_label
_atom_site_fract_x
_atom_site_fract_y
_atom_site_fract_z
Si Si1 0.058585 0.424444 0.295113
Si Si2 0.221438 0.690095 0.884038
Si Si3 0.887092 0.974171 0.623187
Si Si4 0.622830 0.323588 0.529734
Si Si5 0.903520 0.852326 0.970611
Si Si6 0.741690 0.687773 0.331797
Si Si7 0.824765 0.158439 0.467934
Si Si8 0.601646 0.934891 0.299135
O O1 0.102867 0.750011 0.287948
O O2 0.939097 0.369090 0.409767
O O3 0.128795 0.295574 0.321139
O O4 0.057111 0.252143 0.172887
O O5 0.172613 0.425340 0.960262
O O6 0.205391 0.553486 0.761422
O O7 0.160374 0.915464 0.975352
O O8 0.343111 0.867996 0.812193
O O9 0.814154 0.998979 0.571379
O O10 0.000000 0.000000 0.500000
O O11 0.656646 0.610364 0.473321
O O12 0.726207 0.285881 0.521080
O O13 0.516449 0.248933 0.656866
O O14 0.602351 0.125299 0.420356
O O15 0.000000 0.000000 0.000000
O O16 0.679485 0.754677 0.274766
O O17 0.823950 0.945243 0.352035
#
# Coordination Sequence:
#
# PCOD9081945 Si02
#       8
#     2   2   2   2   2   2   2   2
#     4  11  24  39  58  82 121 155 189 238 284 337
#     4  11  22  39  56  82 118 158 191 234 278 341
#     4  10  22  39  59  82 116 155 191 233 292 344
#     4   9  19  30  57  84 120 151 190 228 294 353
#     4  12  25  39  59  86 114 154 203 235 277 335
#     4  10  19  32  58  83 127 149 188 230 295 335
#     4  10  21  34  56  88 116 152 188 235 287 351
#     4   9  18  36  51  86 119 158 183 235 289 351
#
# _framework density 19.892810000000001
#
# number of rings (size 3 to 8) (size 9 to 14) (size 15 to 20)
#    0.000    1.750    1.250    3.750    8.750    1.000 
#    0.000    0.000    0.000    0.000    0.000    5.250 
#    0.000    0.000    0.000    0.000    0.000    0.000 
#
# Total GULP energy -89135.204071 kJ/mol
# GULP energy per Si atom -5570.950254 kJ/mol
# Density = 1.984753 g / cm^3
# Si number density = 19.892810 Si / 1000 Ang^3
#
#
#
# Elastic Constant Matrix: (Units=GPa)
#
#
# Indices 1 2 3 4 5 6 
#
# 1 49.9629 20.1921 19.1414 -7.9637 3.5649 9.6932
# 2 20.1921 105.6626 26.6802 -2.5761 -11.0733 -9.6736
# 3 19.1414 26.6802 73.5369 5.5928 -3.6899 5.2420
# 4 -7.9637 -2.5761 5.5928 42.4684 0.4977 -2.3778
# 5 3.5649 -11.0733 -3.6899 0.4977 17.4313 -4.3385
# 6 9.6932 -9.6736 5.2420 -2.3778 -4.3385 12.7722
#
#
#
# Elastic Compliance Matrix: (Units=1/GPa)
#
#
# Indices 1 2 3 4 5 6 
#
# 1 0.039284 -0.014051 -0.003535 0.004626 -0.029859 -0.048286
# 2 -0.014051 0.018846 -0.004578 0.000785 0.022464 0.034594
# 3 -0.003535 -0.004578 0.017045 -0.003664 -0.000632 -0.008677
# 4 0.004626 0.000785 -0.003664 0.025118 -0.001232 0.002845
# 5 -0.029859 0.022464 -0.000632 -0.001232 0.095612 0.072183
# 6 -0.048286 0.034594 -0.008677 0.002845 0.072183 0.169752
#
#
# Mechanical properties :
#
#
# Convention : Reuss Voigt Hill
#
# Bulk Modulus (GPa) = 32.42073 40.13218 36.27646
# Shear Modulus (GPa) = 11.89714 25.41096 18.65405
#
# Velocity S-wave (km/s) = 2.44818 3.57794 3.06556
# Velocity P-wave (km/s) = 4.93199 6.10630 5.55029
#
# Compressibility (1/GPa) = 0.03084446
#
# Stress axis : x y z
#
# Youngs Moduli (GPa) = 25.45585 53.06206 58.66660
#
# Poissons Ratio (x) = 0.74560 0.20741
# Poissons Ratio (y) = 0.35769 0.26860
# Poissons Ratio (z) = 0.09000 0.24294
#
# Static dielectric constant tensor:
#      x y z
#    x 1.740090 -0.025260 0.001130 
#    y -0.025260 1.833210 -0.025760 
#    z 0.001130 -0.025760 1.762280 
# 
# From -- ./inp_files/442159.got.cif
#   From: 2010.05.17/outbox.cif.g08.bks.cpg/sg2_222_cif.got.tgz:442159.got - 2010.06.03 11:33:40.
