data_PCOD9081264
_publ_section_title
;
Structure prediction by ZEFSAII (Michael W. Deem and Ramdas Pophale) SiO2 
 PCOD9081264
Probable space group: P -1
;
_chemical_formula_sum "Si O2"
_cell_formula_units_Z 16
_cell_length_a 10.314206
_cell_length_b 12.409172
_cell_length_c 7.793553
_cell_angle_alpha 48.404614
_cell_angle_beta 74.272443
_cell_angle_gamma 101.573167
_cell_volume 609.502564
_symmetry_space_group_name_H-M "P -1"
_symmetry_group_IT_number 2
_symmetry_cell_setting 'triclinic'
loop_
_space_group_symop_operation_xyz
x,y,z
-x,-y,-z
loop_
_atom_site_type_symbol
_atom_site_label
_atom_site_fract_x
_atom_site_fract_y
_atom_site_fract_z
Si Si1 0.783044 0.878434 0.006727
Si Si2 0.456602 0.157693 0.143364
Si Si3 0.630489 0.306773 0.230486
Si Si4 0.144529 0.706118 0.583803
Si Si5 0.277931 0.917440 0.963303
Si Si6 0.936553 0.857294 0.529567
Si Si7 0.077579 0.602718 0.187472
Si Si8 0.639533 0.609357 0.089248
O O1 0.734570 0.693294 0.146779
O O2 0.706590 0.907426 0.171749
O O3 0.969849 0.021624 0.793143
O O4 0.702078 0.925264 0.827002
O O5 0.568062 0.094099 0.105393
O O6 0.476427 0.162012 0.337459
O O7 0.502165 0.354175 0.886146
O O8 0.715505 0.239053 0.392074
O O9 0.768808 0.399405 0.935737
O O10 0.601088 0.429423 0.228905
O O11 0.205794 0.801935 0.281342
O O12 0.010683 0.742126 0.650319
O O13 0.059003 0.505276 0.786818
O O14 0.151261 0.802226 0.983458
O O15 0.751995 0.733674 0.762650
O O16 0.000000 0.000000 0.500000
O O17 0.000000 0.500000 0.500000
#
# Coordination Sequence:
#
# PCOD9081264 Si02
#       8
#     2   2   2   2   2   2   2   2
#     4   8  17  30  53  74  97 132 180 209 242 293
#     4   9  19  31  52  78 100 140 171 207 250 307
#     4  11  19  32  50  83 108 128 169 216 261 302
#     4  10  19  31  53  80 103 132 167 220 263 288
#     4   9  17  33  50  76  99 133 180 207 246 311
#     4   9  16  31  49  77  96 130 170 212 248 299
#     4   9  18  30  50  76 100 131 169 211 249 300
#     4   9  18  29  52  75 106 132 171 210 252 303
#
# _framework density 26.250914999999999
#
# number of rings (size 3 to 8) (size 9 to 14) (size 15 to 20)
#    0.750    2.000    1.250    1.125    0.000    0.000 
#    0.000    3.125    0.000    0.750   16.250    0.000 
#    0.000    0.000    0.000    0.000    0.000    0.000 
#
# Total GULP energy -89068.992770 kJ/mol
# GULP energy per Si atom -5566.812048 kJ/mol
# Density = 2.619117 g / cm^3
# Si number density = 26.250915 Si / 1000 Ang^3
#
#
#
# Elastic Constant Matrix: (Units=GPa)
#
#
# Indices 1 2 3 4 5 6 
#
# 1 69.0988 32.4772 15.5410 -3.1607 -5.3418 -3.8331
# 2 32.4772 190.9382 34.5630 1.8186 -12.6853 -16.2120
# 3 15.5410 34.5630 64.4105 -1.8085 -11.1711 -7.1333
# 4 -3.1607 1.8186 -1.8085 22.5227 4.7980 -9.0895
# 5 -5.3418 -12.6853 -11.1711 4.7980 20.2030 4.1772
# 6 -3.8331 -16.2120 -7.1333 -9.0895 4.1772 53.7871
#
#
#
# Elastic Compliance Matrix: (Units=1/GPa)
#
#
# Indices 1 2 3 4 5 6 
#
# 1 0.016279 -0.002247 -0.002450 0.002267 0.000903 0.000471
# 2 -0.002247 0.006290 -0.002385 -0.001012 0.002052 0.001089
# 3 -0.002450 -0.002385 0.018912 0.000043 0.008096 0.000993
# 4 0.002267 -0.001012 0.000043 0.051778 -0.014319 0.009724
# 5 0.000903 0.002052 0.008096 -0.014319 0.060003 -0.005323
# 6 0.000471 0.001089 0.000993 0.009724 -0.005323 0.021142
#
#
# Mechanical properties :
#
#
# Convention : Reuss Voigt Hill
#
# Bulk Modulus (GPa) = 36.60728 54.40110 45.50419
# Shear Modulus (GPa) = 25.29452 35.42697 30.36075
#
# Velocity S-wave (km/s) = 3.10751 3.67761 3.40451
# Velocity P-wave (km/s) = 5.18178 6.22909 5.72942
#
# Compressibility (1/GPa) = 0.02731697
#
# Stress axis : x y z
#
# Youngs Moduli (GPa) = 61.42980 158.99231 52.87769
#
# Poissons Ratio (x) = 0.35727 0.12953
# Poissons Ratio (y) = 0.13804 0.12611
# Poissons Ratio (z) = 0.15047 0.37917
#
# Static dielectric constant tensor:
#      x y z
#    x 2.064990 0.002920 -0.057800 
#    y 0.002920 2.171750 -0.000200 
#    z -0.057800 -0.000200 2.194630 
# 
# From -- ./inp_files/256808.got.cif
#   From: 2010.05.17/outbox.cif.g08.bks.cpg/sg2_129_cif.got.tgz:256808.got - 2010.06.03 11:33:40.
