data_PCOD9081730
_publ_section_title
;
Structure prediction by ZEFSAII (Michael W. Deem and Ramdas Pophale) SiO2 
 PCOD9081730
Probable space group: P -1
;
_chemical_formula_sum "Si O2"
_cell_formula_units_Z 14
_cell_length_a 8.457861
_cell_length_b 13.011143
_cell_length_c 11.639485
_cell_angle_alpha 36.221121
_cell_angle_beta 116.499675
_cell_angle_gamma 131.324601
_cell_volume 557.492979
_symmetry_space_group_name_H-M "P -1"
_symmetry_group_IT_number 2
_symmetry_cell_setting 'triclinic'
loop_
_space_group_symop_operation_xyz
x,y,z
-x,-y,-z
loop_
_atom_site_type_symbol
_atom_site_label
_atom_site_fract_x
_atom_site_fract_y
_atom_site_fract_z
Si Si1 0.689734 0.909499 0.564669
Si Si2 0.161590 0.913250 0.895459
Si Si3 0.839667 0.766332 0.558704
Si Si4 0.749106 0.907109 0.008240
Si Si5 0.275680 0.731749 0.442134
Si Si6 0.340464 0.305292 0.044307
Si Si7 0.808863 0.440214 0.670774
O O1 0.742369 0.750763 0.665809
O O2 0.475327 0.840714 0.493421
O O3 0.660903 0.875122 0.722579
O O4 0.910123 0.138948 0.420780
O O5 0.904375 0.764759 0.967430
O O6 0.179671 0.049219 0.669230
O O7 0.230938 0.753012 0.087159
O O8 0.291788 0.095566 0.869167
O O9 0.767569 0.584654 0.606273
O O10 0.617377 0.705403 0.066111
O O11 0.737275 0.089837 0.784133
O O12 0.000000 0.000000 0.000000
O O13 0.302304 0.623502 0.434686
O O14 0.058628 0.574161 0.585691
O O15 0.500000 0.500000 0.000000
#
# Coordination Sequence:
#
# PCOD9081730 Si02
#       7
#     2   2   2   2   2   2   2
#     4  10  22  38  55  83 121 156 190 231 292 348
#     4   9  19  36  57  81 109 149 195 232 282 342
#     4  10  22  41  59  79 122 163 185 233 290 345
#     4   9  18  34  55  81 115 149 184 237 294 331
#     4  10  20  35  58  89 114 145 198 246 284 341
#     4  10  19  32  54  84 115 146 185 240 288 334
#     4  10  20  36  61  86 111 150 197 242 287 337
#
# _framework density 25.112421999999999
#
# number of rings (size 3 to 8) (size 9 to 14) (size 15 to 20)
#    0.000    2.286    0.000    3.429    0.000    7.429 
#    0.000   10.714    0.000    0.000    0.000    0.000 
#    0.000    0.000    0.000    0.000    0.000    0.000 
#
# Total GULP energy -78117.661381 kJ/mol
# GULP energy per Si atom -5579.832956 kJ/mol
# Density = 2.505527 g / cm^3
# Si number density = 25.112422 Si / 1000 Ang^3
#
#
#
# Elastic Constant Matrix: (Units=GPa)
#
#
# Indices 1 2 3 4 5 6 
#
# 1 59.2337 27.6418 13.7815 1.8861 -2.8777 -6.3167
# 2 27.6418 144.2934 22.7754 8.9306 4.7609 -17.5423
# 3 13.7815 22.7754 75.8905 21.1707 -1.3099 -6.6297
# 4 1.8861 8.9306 21.1707 43.9578 1.8111 9.6707
# 5 -2.8777 4.7609 -1.3099 1.8111 26.8487 8.6627
# 6 -6.3167 -17.5423 -6.6297 9.6707 8.6627 54.5045
#
#
#
# Elastic Compliance Matrix: (Units=1/GPa)
#
#
# Indices 1 2 3 4 5 6 
#
# 1 0.019187 -0.003359 -0.002692 0.001000 0.002369 0.000261
# 2 -0.003359 0.008295 -0.001282 -0.001430 -0.002703 0.002808
# 3 -0.002692 -0.001282 0.016585 -0.008220 0.000437 0.002682
# 4 0.001000 -0.001430 -0.008220 0.028357 0.000110 -0.006393
# 5 0.002369 -0.002703 0.000437 0.000110 0.040238 -0.006957
# 6 0.000261 0.002808 0.002682 -0.006393 -0.006957 0.021847
#
#
# Mechanical properties :
#
#
# Convention : Reuss Voigt Hill
#
# Bulk Modulus (GPa) = 34.01086 45.31281 39.66183
# Shear Modulus (GPa) = 31.45131 39.41014 35.43073
#
# Velocity S-wave (km/s) = 3.54279 3.96580 3.76025
# Velocity P-wave (km/s) = 5.50527 6.24926 5.88903
#
# Compressibility (1/GPa) = 0.02940237
#
# Stress axis : x y z
#
# Youngs Moduli (GPa) = 52.11818 120.55125 60.29469
#
# Poissons Ratio (x) = 0.40495 0.16229
# Poissons Ratio (y) = 0.17507 0.07729
# Poissons Ratio (z) = 0.14028 0.15453
#
# Static dielectric constant tensor:
#      x y z
#    x 2.016860 -0.003280 -0.020130 
#    y -0.003280 2.108540 -0.039060 
#    z -0.020130 -0.039060 2.002630 
# 
# From -- ./inp_files/202636.got.cif
#   From: 2010.05.17/outbox.cif.g08.bks.cpg/sg2_102_cif.got.tgz:202636.got - 2010.06.03 11:33:40.
