data_PCOD9081911
_publ_section_title
;
Structure prediction by ZEFSAII (Michael W. Deem and Ramdas Pophale) SiO2 
 PCOD9081911
Probable space group: P -1
;
_chemical_formula_sum "Si O2"
_cell_formula_units_Z 16
_cell_length_a 9.965331
_cell_length_b 10.093388
_cell_length_c 19.456019
_cell_angle_alpha 19.964847
_cell_angle_beta 106.446160
_cell_angle_gamma 106.120898
_cell_volume 640.454397
_symmetry_space_group_name_H-M "P -1"
_symmetry_group_IT_number 2
_symmetry_cell_setting 'triclinic'
loop_
_space_group_symop_operation_xyz
x,y,z
-x,-y,-z
loop_
_atom_site_type_symbol
_atom_site_label
_atom_site_fract_x
_atom_site_fract_y
_atom_site_fract_z
Si Si1 0.161947 0.556155 0.475946
Si Si2 0.079369 0.322529 0.438430
Si Si3 0.839660 0.719541 0.124486
Si Si4 0.645328 0.167763 0.520019
Si Si5 0.052956 0.454724 0.918540
Si Si6 0.669727 0.970554 0.467253
Si Si7 0.785258 0.292820 0.056798
Si Si8 0.351451 0.963414 0.960199
O O1 0.148301 0.598336 0.372242
O O2 0.055811 0.512741 0.697890
O O3 0.244896 0.862753 0.387074
O O4 0.228460 0.141081 0.701993
O O5 0.202035 0.246755 0.440049
O O6 0.000000 0.500000 0.500000
O O7 0.037591 0.903041 0.671804
O O8 0.916496 0.772293 0.036919
O O9 0.770591 0.071253 0.983070
O O10 0.709845 0.418142 0.237856
O O11 0.482750 0.137237 0.531855
O O12 0.672624 0.606957 0.282726
O O13 0.661949 0.920874 0.572969
O O14 0.179033 0.463989 0.988153
O O15 0.920607 0.320742 0.011519
O O16 0.661374 0.319097 0.970009
O O17 0.500000 0.000000 0.000000
#
# Coordination Sequence:
#
# PCOD9081911 Si02
#       8
#     2   2   2   2   2   2   2   2
#     4  10  19  34  54  78 111 144 177 219 262 312
#     4  10  19  32  57  84 107 136 173 224 272 311
#     4  10  20  35  55  82 107 135 181 224 264 315
#     4   9  19  34  53  77 108 141 177 215 261 321
#     4   9  18  34  56  80 108 135 169 223 269 312
#     4   9  17  32  52  77 105 133 172 217 262 308
#     4   9  19  35  54  78 106 139 177 214 265 319
#     4  10  21  36  51  71 106 147 179 214 264 318
#
# _framework density 24.982261999999999
#
# number of rings (size 3 to 8) (size 9 to 14) (size 15 to 20)
#    0.000    2.500    0.000    3.750    0.000    4.000 
#    0.000    9.375    0.000    0.000    0.000    0.000 
#    0.000    0.000    0.000    0.000    0.000    0.000 
#
# Total GULP energy -89463.952234 kJ/mol
# GULP energy per Si atom -5591.497015 kJ/mol
# Density = 2.492540 g / cm^3
# Si number density = 24.982262 Si / 1000 Ang^3
#
#
#
# Elastic Constant Matrix: (Units=GPa)
#
#
# Indices 1 2 3 4 5 6 
#
# 1 113.4640 50.7362 3.5261 -3.7861 0.9730 15.0996
# 2 50.7362 180.2610 34.4532 3.6452 17.8055 36.3600
# 3 3.5261 34.4532 72.3973 19.8774 -5.4386 -0.7807
# 4 -3.7861 3.6452 19.8774 47.8588 1.3176 -0.5402
# 5 0.9730 17.8055 -5.4386 1.3176 34.5388 -1.0777
# 6 15.0996 36.3600 -0.7807 -0.5402 -1.0777 49.0051
#
#
#
# Elastic Compliance Matrix: (Units=1/GPa)
#
#
# Indices 1 2 3 4 5 6 
#
# 1 0.010264 -0.003024 0.000856 0.000640 0.001353 -0.000869
# 2 -0.003024 0.009099 -0.005010 0.001236 -0.005629 -0.006010
# 3 0.000856 -0.005010 0.018679 -0.007428 0.005902 0.003799
# 4 0.000640 0.001236 -0.007428 0.024001 -0.002772 -0.001029
# 5 0.001353 -0.005629 0.005902 -0.002772 0.032994 0.004549
# 6 -0.000869 -0.006010 0.003799 -0.001029 0.004549 0.025282
#
#
# Mechanical properties :
#
#
# Convention : Reuss Voigt Hill
#
# Bulk Modulus (GPa) = 42.21838 60.39481 51.30659
# Shear Modulus (GPa) = 35.07011 44.77435 39.92223
#
# Velocity S-wave (km/s) = 3.75080 4.23808 4.00186
# Velocity P-wave (km/s) = 5.97445 6.94090 6.47573
#
# Compressibility (1/GPa) = 0.02368637
#
# Stress axis : x y z
#
# Youngs Moduli (GPa) = 97.42529 109.89695 53.53590
#
# Poissons Ratio (x) = 0.33232 -0.04581
# Poissons Ratio (y) = 0.29460 0.26822
# Poissons Ratio (z) = -0.08337 0.55058
#
# Static dielectric constant tensor:
#      x y z
#    x 1.958290 -0.002640 -0.014480 
#    y -0.002640 2.051110 -0.058130 
#    z -0.014480 -0.058130 2.092050 
# 
# From -- ./inp_files/593102.got.cif
#   From: 2010.05.17/outbox.cif.g08.bks.cpg/sg2_297_cif.got.tgz:593102.got - 2010.06.03 11:33:40.
