data_PCOD9081804
_publ_section_title
;
Structure prediction by ZEFSAII (Michael W. Deem and Ramdas Pophale) SiO2 
 PCOD9081804
Probable space group: P -1
;
_chemical_formula_sum "Si O2"
_cell_formula_units_Z 12
_cell_length_a 4.925703
_cell_length_b 12.175501
_cell_length_c 10.187139
_cell_angle_alpha 79.891745
_cell_angle_beta 71.503489
_cell_angle_gamma 74.422882
_cell_volume 555.376750
_symmetry_space_group_name_H-M "P -1"
_symmetry_group_IT_number 2
_symmetry_cell_setting 'triclinic'
loop_
_space_group_symop_operation_xyz
x,y,z
-x,-y,-z
loop_
_atom_site_type_symbol
_atom_site_label
_atom_site_fract_x
_atom_site_fract_y
_atom_site_fract_z
Si Si1 0.731804 0.728166 0.288947
Si Si2 0.675749 0.598022 0.682542
Si Si3 0.777781 0.368136 0.557276
Si Si4 0.285042 0.122899 0.992836
Si Si5 0.343409 0.765367 0.892065
Si Si6 0.085936 0.564806 0.094103
O O1 0.459127 0.707141 0.419647
O O2 0.021004 0.701935 0.340721
O O3 0.693900 0.832307 0.170380
O O4 0.222479 0.669070 0.009378
O O5 0.654225 0.500825 0.596771
O O6 0.448467 0.712582 0.743895
O O7 0.986718 0.627891 0.593226
O O8 0.708827 0.522784 0.824608
O O9 0.209794 0.380841 0.793713
O O10 0.401428 0.203241 0.064939
O O11 0.945541 0.130327 0.081587
O O12 0.500000 0.000000 0.000000
O O13 0.000000 0.500000 0.000000
#
# Coordination Sequence:
#
# PCOD9081804 Si02
#       6
#     2   2   2   2   2   2
#     4  10  20  36  53  78 108 144 186 223 275 324
#     4  10  20  34  53  83 118 152 183 207 265 338
#     4  10  22  34  54  81 118 155 177 211 257 339
#     4  11  23  40  62  82 104 140 190 249 294 320
#     4  11  22  36  58  85 114 144 184 235 279 327
#     4  10  19  32  55  85 120 148 178 224 274 332
#
# _framework density 21.606954000000002
#
# number of rings (size 3 to 8) (size 9 to 14) (size 15 to 20)
#    0.000    1.667    0.000    7.000    0.000   10.000 
#    0.000    0.000    0.000    6.000    0.000    0.000 
#    0.000    0.000    0.000    0.000    0.000    0.000 
#
# Total GULP energy -66964.993128 kJ/mol
# GULP energy per Si atom -5580.416094 kJ/mol
# Density = 2.155778 g / cm^3
# Si number density = 21.606954 Si / 1000 Ang^3
#
#
#
# Elastic Constant Matrix: (Units=GPa)
#
#
# Indices 1 2 3 4 5 6 
#
# 1 59.8943 -7.4353 3.5131 1.5643 5.2382 -0.6056
# 2 -7.4353 80.1567 17.9556 0.8167 -0.1007 -25.6041
# 3 3.5131 17.9556 75.1988 15.7371 -12.9945 -6.4399
# 4 1.5643 0.8167 15.7371 23.2988 -5.3682 -1.0296
# 5 5.2382 -0.1007 -12.9945 -5.3682 42.7059 2.7235
# 6 -0.6056 -25.6041 -6.4399 -1.0296 2.7235 29.4659
#
#
#
# Elastic Compliance Matrix: (Units=1/GPa)
#
#
# Indices 1 2 3 4 5 6 
#
# 1 0.017444 0.002854 -0.001609 -0.000729 -0.002888 0.002728
# 2 0.002854 0.018621 -0.004068 0.002069 -0.002281 0.015633
# 3 -0.001609 -0.004068 0.017197 -0.010435 0.004144 -0.000557
# 4 -0.000729 0.002069 -0.010435 0.050733 0.003234 0.000976
# 5 -0.002888 -0.002281 0.004144 0.003234 0.025649 -0.003393
# 6 0.002728 0.015633 -0.000557 0.000976 -0.003393 0.047804
#
#
# Mechanical properties :
#
#
# Convention : Reuss Voigt Hill
#
# Bulk Modulus (GPa) = 21.00160 27.03518 24.01839
# Shear Modulus (GPa) = 25.12986 32.50856 28.81921
#
# Velocity S-wave (km/s) = 3.41404 3.88305 3.65608
# Velocity P-wave (km/s) = 5.02811 5.71345 5.38170
#
# Compressibility (1/GPa) = 0.04761541
#
# Stress axis : x y z
#
# Youngs Moduli (GPa) = 57.32647 53.70199 58.15085
#
# Poissons Ratio (x) = -0.15325 0.09358
# Poissons Ratio (y) = -0.16360 0.23655
# Poissons Ratio (z) = 0.09225 0.21845
#
# Static dielectric constant tensor:
#      x y z
#    x 0.914840 0.240240 1.008790 
#    y 0.240240 1.725130 -0.294790 
#    z 1.008790 -0.294790 0.758490 
# 
# From -- ./inp_files/365692.got.cif
#   From: 2010.05.17/outbox.cif.g08.bks.cpg/sg2_183_cif.got.tgz:365692.got - 2010.06.03 11:33:40.
