data_PCOD9081103
_publ_section_title
;
Structure prediction by ZEFSAII (Michael W. Deem and Ramdas Pophale) SiO2 
 PCOD9081103
Probable space group: P -1
;
_chemical_formula_sum "Si O2"
_cell_formula_units_Z 14
_cell_length_a 14.795581
_cell_length_b 12.945778
_cell_length_c 11.155240
_cell_angle_alpha 95.041074
_cell_angle_beta 83.850272
_cell_angle_gamma 160.397792
_cell_volume 712.158935
_symmetry_space_group_name_H-M "P -1"
_symmetry_group_IT_number 2
_symmetry_cell_setting 'triclinic'
loop_
_space_group_symop_operation_xyz
x,y,z
-x,-y,-z
loop_
_atom_site_type_symbol
_atom_site_label
_atom_site_fract_x
_atom_site_fract_y
_atom_site_fract_z
Si Si1 0.325480 0.778890 0.237879
Si Si2 0.006745 0.884660 0.500609
Si Si3 0.719862 0.107513 0.569524
Si Si4 0.149261 0.447677 0.685110
Si Si5 0.876184 0.271461 0.917351
Si Si6 0.770807 0.092939 0.161469
Si Si7 0.435065 0.219184 0.620810
O O1 0.292301 0.786393 0.378242
O O2 0.308537 0.860952 0.161166
O O3 0.601523 0.015541 0.205016
O O4 0.077502 0.440013 0.197890
O O5 0.976834 0.796406 0.366319
O O6 0.748268 0.568982 0.582325
O O7 0.269307 0.124542 0.556893
O O8 0.000000 0.000000 0.500000
O O9 0.003030 0.370257 0.606361
O O10 0.465593 0.784722 0.645663
O O11 0.671307 0.006753 0.436795
O O12 0.068468 0.406909 0.821111
O O13 0.244362 0.931011 0.982502
O O14 0.000000 0.500000 0.000000
O O15 0.636657 0.859926 0.237323
#
# Coordination Sequence:
#
# PCOD9081103 Si02
#       7
#     2   2   2   2   2   2   2
#     4  10  19  31  47  70 101 144 181 196 225 281
#     4  10  20  38  60  75  93 124 166 216 262 307
#     4   9  17  31  47  69 101 130 167 209 238 284
#     4   9  18  31  51  75  96 126 170 212 242 282
#     4   9  18  32  50  72 104 141 176 196 225 285
#     4  11  21  31  47  72 106 139 164 203 245 287
#     4  10  21  34  51  78 102 124 160 208 266 304
#
# _framework density 19.658532999999998
#
# number of rings (size 3 to 8) (size 9 to 14) (size 15 to 20)
#    0.000    2.286    0.000    4.286    0.000    4.571 
#    0.000    0.000    0.000    1.714    0.000    0.000 
#    0.000    0.000    0.000    0.000    0.000    0.000 
#
# Total GULP energy -78052.306492 kJ/mol
# GULP energy per Si atom -5575.164749 kJ/mol
# Density = 1.961379 g / cm^3
# Si number density = 19.658533 Si / 1000 Ang^3
#
#
#
# Elastic Constant Matrix: (Units=GPa)
#
#
# Indices 1 2 3 4 5 6 
#
# 1 70.4558 5.5605 28.6686 2.9475 -7.7906 2.1814
# 2 5.5605 31.6185 16.2237 -2.7753 -2.0704 5.0775
# 3 28.6686 16.2237 104.8842 -17.3853 -3.4195 -9.3697
# 4 2.9475 -2.7753 -17.3853 19.8537 -0.9492 0.1051
# 5 -7.7906 -2.0704 -3.4195 -0.9492 20.4781 2.7386
# 6 2.1814 5.0775 -9.3697 0.1051 2.7386 22.4518
#
#
#
# Elastic Compliance Matrix: (Units=1/GPa)
#
#
# Indices 1 2 3 4 5 6 
#
# 1 0.018039 0.000827 -0.006685 -0.008092 0.006183 -0.005446
# 2 0.000827 0.037243 -0.007046 -0.000810 0.004469 -0.011985
# 3 -0.006685 -0.007046 0.015415 0.013401 -0.001232 0.008764
# 4 -0.008092 -0.000810 0.013401 0.063216 0.001189 0.006121
# 5 0.006183 0.004469 -0.001232 0.001189 0.052630 -0.008551
# 6 -0.005446 -0.011985 0.008764 0.006121 -0.008551 0.052451
#
#
# Mechanical properties :
#
#
# Convention : Reuss Voigt Hill
#
# Bulk Modulus (GPa) = 22.27688 34.20712 28.24200
# Shear Modulus (GPa) = 17.87215 22.99044 20.43130
#
# Velocity S-wave (km/s) = 3.01845 3.42349 3.22733
# Velocity P-wave (km/s) = 4.84815 5.75026 5.31837
#
# Compressibility (1/GPa) = 0.04488960
#
# Stress axis : x y z
#
# Youngs Moduli (GPa) = 55.43583 26.85063 64.87018
#
# Poissons Ratio (x) = -0.02220 0.43364
# Poissons Ratio (y) = -0.04583 0.45707
# Poissons Ratio (z) = 0.37057 0.18919
#
# Static dielectric constant tensor:
#      x y z
#    x 1.689290 0.002760 0.009240 
#    y 0.002760 1.713280 -0.013780 
#    z 0.009240 -0.013780 1.768510 
# 
# From -- ./inp_files/74024.got.cif
#   From: 2010.05.17/outbox.cif.g08.bks.cpg/sg2_38_cif.got.tgz:74024.got - 2010.06.03 11:33:40.
