data_PCOD9081339
_publ_section_title
;
Structure prediction by ZEFSAII (Michael W. Deem and Ramdas Pophale) SiO2 
 PCOD9081339
Probable space group: P -1
;
_chemical_formula_sum "Si O2"
_cell_formula_units_Z 14
_cell_length_a 7.738064
_cell_length_b 7.193603
_cell_length_c 17.149630
_cell_angle_alpha 133.929846
_cell_angle_beta 125.917249
_cell_angle_gamma 56.645468
_cell_volume 539.837571
_symmetry_space_group_name_H-M "P -1"
_symmetry_group_IT_number 2
_symmetry_cell_setting 'triclinic'
loop_
_space_group_symop_operation_xyz
x,y,z
-x,-y,-z
loop_
_atom_site_type_symbol
_atom_site_label
_atom_site_fract_x
_atom_site_fract_y
_atom_site_fract_z
Si Si1 0.615149 0.705479 0.973686
Si Si2 0.092248 0.723162 0.336432
Si Si3 0.667022 0.732355 0.435825
Si Si4 0.033906 0.718789 0.152551
Si Si5 0.168125 0.164130 0.244870
Si Si6 0.836287 0.384187 0.508793
Si Si7 0.609270 0.734239 0.241071
O O1 0.441324 0.525674 0.887504
O O2 0.793660 0.538821 0.910198
O O3 0.782175 0.702290 0.089255
O O4 0.500000 0.000000 0.000000
O O5 0.133123 0.799524 0.282290
O O6 0.832709 0.824112 0.312530
O O7 0.212241 0.740528 0.456955
O O8 0.114206 0.402578 0.239426
O O9 0.671842 0.483924 0.423067
O O10 0.611282 0.670613 0.315423
O O11 0.922583 0.755041 0.501535
O O12 0.500000 0.000000 0.500000
O O13 0.022206 0.955268 0.155644
O O14 0.409789 0.984005 0.244430
O O15 0.145127 0.331473 0.367780
#
# Coordination Sequence:
#
# PCOD9081339 Si02
#       7
#     2   2   2   2   2   2   2
#     4  10  22  38  55  82 110 146 185 226 269 333
#     4   9  19  35  56  82 110 143 183 226 271 326
#     4  10  15  29  54  82 104 144 181 221 265 330
#     4  10  21  38  58  79 113 146 181 225 281 317
#     4   9  18  35  55  80 109 142 181 223 267 329
#     4   8  18  29  52  82 106 140 183 215 275 320
#     4  10  19  33  56  82 108 145 187 221 276 320
#
# _framework density 25.933727000000001
#
# number of rings (size 3 to 8) (size 9 to 14) (size 15 to 20)
#    0.857    1.714    1.429    0.857    0.000    1.714 
#    0.000   10.000    0.000   11.143    0.000    0.000 
#    0.000    0.000    0.000    0.000    0.000    0.000 
#
# Total GULP energy -78152.335630 kJ/mol
# GULP energy per Si atom -5582.309688 kJ/mol
# Density = 2.587470 g / cm^3
# Si number density = 25.933727 Si / 1000 Ang^3
#
#
#
# Elastic Constant Matrix: (Units=GPa)
#
#
# Indices 1 2 3 4 5 6 
#
# 1 81.5463 8.7821 4.8591 -11.0371 11.4506 -8.0984
# 2 8.7821 98.2174 0.1484 0.3984 -18.7923 -7.6849
# 3 4.8591 0.1484 64.3676 -1.3593 2.7802 11.7457
# 4 -11.0371 0.3984 -1.3593 39.2002 1.2503 -6.7053
# 5 11.4506 -18.7923 2.7802 1.2503 27.0551 -3.6653
# 6 -8.0984 -7.6849 11.7457 -6.7053 -3.6653 33.2630
#
#
#
# Elastic Compliance Matrix: (Units=1/GPa)
#
#
# Indices 1 2 3 4 5 6 
#
# 1 0.014710 -0.002494 -0.001339 0.004986 -0.007556 0.003651
# 2 -0.002494 0.012712 -0.000987 -0.000564 0.010517 0.003723
# 3 -0.001339 -0.000987 0.017028 -0.000894 -0.002783 -0.007054
# 4 0.004986 -0.000564 -0.000894 0.028135 -0.002794 0.006763
# 5 -0.007556 0.010517 -0.002783 -0.002794 0.048744 0.006381
# 6 0.003651 0.003723 -0.007054 0.006763 0.006381 0.036370
#
#
# Mechanical properties :
#
#
# Convention : Reuss Voigt Hill
#
# Bulk Modulus (GPa) = 28.72714 30.19005 29.45860
# Shear Modulus (GPa) = 27.94248 35.25979 31.60113
#
# Velocity S-wave (km/s) = 3.28603 3.69129 3.49454
# Velocity P-wave (km/s) = 5.04960 5.46205 5.25987
#
# Compressibility (1/GPa) = 0.03481028
#
# Stress axis : x y z
#
# Youngs Moduli (GPa) = 67.98249 78.66728 58.72832
#
# Poissons Ratio (x) = 0.19616 0.07865
# Poissons Ratio (y) = 0.16951 0.05795
# Poissons Ratio (z) = 0.09104 0.07762
#
# Static dielectric constant tensor:
#      x y z
#    x 2.125970 0.099850 0.073880 
#    y 0.099850 2.137720 0.078510 
#    z 0.073880 0.078510 2.104120 
# 
# From -- ./inp_files/554612.got.cif
#   From: 2010.05.17/outbox.cif.g08.bks.cpg/sg2_278_cif.got.tgz:554612.got - 2010.06.03 11:33:40.
