data_PCOD9081961
_publ_section_title
;
Structure prediction by ZEFSAII (Michael W. Deem and Ramdas Pophale) SiO2 
 PCOD9081961
Probable space group: P -1
;
_chemical_formula_sum "Si O2"
_cell_formula_units_Z 14
_cell_length_a 19.071305
_cell_length_b 16.742646
_cell_length_c 21.847493
_cell_angle_alpha 153.932964
_cell_angle_beta 12.246669
_cell_angle_gamma 149.947155
_cell_volume 644.574134
_symmetry_space_group_name_H-M "P -1"
_symmetry_group_IT_number 2
_symmetry_cell_setting 'triclinic'
loop_
_space_group_symop_operation_xyz
x,y,z
-x,-y,-z
loop_
_atom_site_type_symbol
_atom_site_label
_atom_site_fract_x
_atom_site_fract_y
_atom_site_fract_z
Si Si1 0.432771 0.050664 0.702862
Si Si2 0.606802 0.352300 0.573194
Si Si3 0.703306 0.386287 0.194738
Si Si4 0.694400 0.774755 0.940398
Si Si5 0.181033 0.562449 0.681443
Si Si6 0.186442 0.896181 0.992146
Si Si7 0.386160 0.597645 0.260443
O O1 0.408373 0.230843 0.805273
O O2 0.322328 0.869771 0.642805
O O3 0.276019 0.118833 0.947979
O O4 0.814610 0.977551 0.345334
O O5 0.207110 0.422055 0.958773
O O6 0.772763 0.423538 0.420563
O O7 0.706192 0.413325 0.597070
O O8 0.432080 0.392107 0.376098
O O9 0.817451 0.195569 0.000947
O O10 0.000000 0.500000 0.000000
O O11 0.471444 0.609735 0.022237
O O12 0.062336 0.664285 0.541457
O O13 0.608312 0.932007 0.071951
O O14 0.500000 0.500000 0.500000
O O15 0.298603 0.740110 0.737916
#
# Coordination Sequence:
#
# PCOD9081961 Si02
#       7
#     2   2   2   2   2   2   2
#     4  10  19  35  55  82 110 144 191 237 276 331
#     4  11  22  37  57  83 117 149 185 231 286 330
#     4  10  19  32  58  88 116 143 181 233 288 326
#     4  10  20  38  55  78 114 144 199 231 276 335
#     4  10  20  36  55  86 116 143 184 233 280 340
#     4   9  19  33  55  85 111 144 183 235 284 326
#     4  10  23  35  54  81 108 157 190 232 279 335
#
# _framework density 21.719767000000001
#
# number of rings (size 3 to 8) (size 9 to 14) (size 15 to 20)
#    0.000    2.000    1.429    3.429    4.000    0.571 
#    0.000    0.000    0.000    1.714    0.000    0.000 
#    0.000    0.000    0.000    0.000    0.000    0.000 
#
# Total GULP energy -78077.623557 kJ/mol
# GULP energy per Si atom -5576.973111 kJ/mol
# Density = 2.167033 g / cm^3
# Si number density = 21.719767 Si / 1000 Ang^3
#
#
#
# Elastic Constant Matrix: (Units=GPa)
#
#
# Indices 1 2 3 4 5 6 
#
# 1 95.8118 43.2873 28.7504 15.8292 -9.4319 -19.8789
# 2 43.2873 68.5773 28.5509 17.9014 3.0788 -19.5829
# 3 28.7504 28.5509 71.4055 -1.1603 -8.5156 -10.5314
# 4 15.8292 17.9014 -1.1603 34.2850 -8.1449 0.5789
# 5 -9.4319 3.0788 -8.5156 -8.1449 31.4903 4.2257
# 6 -19.8789 -19.5829 -10.5314 0.5789 4.2257 40.5750
#
#
#
# Elastic Compliance Matrix: (Units=1/GPa)
#
#
# Indices 1 2 3 4 5 6 
#
# 1 0.016155 -0.007696 -0.002551 -0.002682 0.003781 0.003183
# 2 -0.007696 0.031553 -0.009876 -0.016713 -0.013802 0.010570
# 3 -0.002551 -0.009876 0.019823 0.008967 0.008129 -0.001845
# 4 -0.002682 -0.016713 0.008967 0.043325 0.015710 -0.009307
# 5 0.003781 -0.013802 0.008129 0.015710 0.041471 -0.007242
# 6 0.003183 0.010570 -0.001845 -0.009307 -0.007242 0.031715
#
#
# Mechanical properties :
#
#
# Convention : Reuss Voigt Hill
#
# Bulk Modulus (GPa) = 36.64929 48.55243 42.60086
# Shear Modulus (GPa) = 21.42404 30.28381 25.85392
#
# Velocity S-wave (km/s) = 3.14408 3.73808 3.45387
# Velocity P-wave (km/s) = 5.48550 6.40574 5.96340
#
# Compressibility (1/GPa) = 0.02728566
#
# Stress axis : x y z
#
# Youngs Moduli (GPa) = 61.89885 31.69321 50.44567
#
# Poissons Ratio (x) = 0.24392 0.12867
# Poissons Ratio (y) = 0.47639 0.49819
# Poissons Ratio (z) = 0.15789 0.31300
#
# Static dielectric constant tensor:
#      x y z
#    x 1.783510 -0.001320 -0.031830 
#    y -0.001320 1.940420 -0.011250 
#    z -0.031830 -0.011250 1.872660 
# 
# From -- ./inp_files/445318.got.cif
#   From: 2010.05.17/outbox.cif.g08.bks.cpg/sg2_223_cif.got.tgz:445318.got - 2010.06.03 11:33:40.
