data_PCOD9081222
_publ_section_title
;
Structure prediction by ZEFSAII (Michael W. Deem and Ramdas Pophale) SiO2 
 PCOD9081222
Probable space group: P -1
;
_chemical_formula_sum "Si O2"
_cell_formula_units_Z 16
_cell_length_a 10.965836
_cell_length_b 9.526053
_cell_length_c 18.764031
_cell_angle_alpha 131.965689
_cell_angle_beta 31.817548
_cell_angle_gamma 122.082190
_cell_volume 764.938822
_symmetry_space_group_name_H-M "P -1"
_symmetry_group_IT_number 2
_symmetry_cell_setting 'triclinic'
loop_
_space_group_symop_operation_xyz
x,y,z
-x,-y,-z
loop_
_atom_site_type_symbol
_atom_site_label
_atom_site_fract_x
_atom_site_fract_y
_atom_site_fract_z
Si Si1 0.006663 0.522727 0.178758
Si Si2 0.340115 0.921521 0.756324
Si Si3 0.641289 0.089048 0.560824
Si Si4 0.278566 0.393606 0.506199
Si Si5 0.858869 0.860119 0.943606
Si Si6 0.116075 0.057611 0.388858
Si Si7 0.548357 0.690134 0.398420
Si Si8 0.438292 0.695465 0.051928
O O1 0.905718 0.587872 0.330614
O O2 0.793182 0.564448 0.245375
O O3 0.085547 0.304238 0.080150
O O4 0.232401 0.628866 0.081775
O O5 0.490744 0.720103 0.614276
O O6 0.112436 0.918601 0.819148
O O7 0.503193 0.075411 0.698627
O O8 0.266315 0.970398 0.890312
O O9 0.535512 0.259395 0.622331
O O10 0.913386 0.084917 0.440174
O O11 0.593217 0.890901 0.480005
O O12 0.207246 0.256832 0.432092
O O13 0.350839 0.584051 0.499916
O O14 0.691684 0.772345 0.939204
O O15 0.303494 0.883190 0.217834
O O16 0.000000 0.000000 0.500000
O O17 0.500000 0.500000 0.000000
#
# Coordination Sequence:
#
# PCOD9081222 Si02
#       8
#     2   2   2   2   2   2   2   2
#     4  11  19  35  59  87 112 149 192 238 280 342
#     4  11  19  35  57  86 110 148 187 243 283 337
#     4  11  23  38  60  84 119 152 193 237 298 338
#     4  12  21  34  65  87 115 145 199 245 285 328
#     4  10  21  31  56  86 116 139 191 238 285 333
#     4  12  19  36  60  88 113 148 191 246 284 335
#     4  11  22  37  57  90 115 153 189 243 289 344
#     4  10  19  31  51  88 114 143 182 236 285 332
#
# _framework density 20.916706000000001
#
# number of rings (size 3 to 8) (size 9 to 14) (size 15 to 20)
#    0.000    1.000    7.500    1.125    0.000    0.500 
#    0.000    0.625    0.000    0.750    3.250    0.000 
#    0.000    0.000    0.000    0.000    0.000    0.000 
#
# Total GULP energy -89154.020125 kJ/mol
# GULP energy per Si atom -5572.126258 kJ/mol
# Density = 2.086910 g / cm^3
# Si number density = 20.916706 Si / 1000 Ang^3
#
#
#
# Elastic Constant Matrix: (Units=GPa)
#
#
# Indices 1 2 3 4 5 6 
#
# 1 76.3354 37.0792 12.9610 -4.8161 -28.9196 9.8456
# 2 37.0792 72.7228 7.3994 1.2467 -11.8603 13.8124
# 3 12.9610 7.3994 61.9256 3.5266 -20.0073 5.0510
# 4 -4.8161 1.2467 3.5266 25.5887 10.8490 -6.4962
# 5 -28.9196 -11.8603 -20.0073 10.8490 30.6711 -1.7462
# 6 9.8456 13.8124 5.0510 -6.4962 -1.7462 39.4296
#
#
#
# Elastic Compliance Matrix: (Units=1/GPa)
#
#
# Indices 1 2 3 4 5 6 
#
# 1 0.027398 -0.008823 0.005462 -0.008512 0.028735 -0.004580
# 2 -0.008823 0.019403 0.000429 -0.004308 0.000684 -0.005328
# 3 0.005462 0.000429 0.024914 -0.015244 0.026616 -0.006039
# 4 -0.008512 -0.004308 -0.015244 0.060317 -0.040188 0.013745
# 5 0.028735 0.000684 0.026616 -0.040188 0.090776 -0.013425
# 6 -0.004580 -0.005328 -0.006039 0.013745 -0.013425 0.030815
#
#
# Mechanical properties :
#
#
# Convention : Reuss Voigt Hill
#
# Bulk Modulus (GPa) = 15.18565 36.20701 25.69633
# Shear Modulus (GPa) = 17.76590 29.37416 23.57003
#
# Velocity S-wave (km/s) = 2.91755 3.75152 3.36050
# Velocity P-wave (km/s) = 4.31570 6.00940 5.23154
#
# Compressibility (1/GPa) = 0.06585162
#
# Stress axis : x y z
#
# Youngs Moduli (GPa) = 36.49858 51.53758 40.13822
#
# Poissons Ratio (x) = 0.45472 -0.21923
# Poissons Ratio (y) = 0.32203 -0.01723
# Poissons Ratio (z) = -0.19935 -0.02212
#
# Static dielectric constant tensor:
#      x y z
#    x 1.806670 0.052460 -0.016990 
#    y 0.052460 1.791050 -0.024390 
#    z -0.016990 -0.024390 1.807650 
# 
# From -- ./inp_files/260060.got.cif
#   From: 2010.05.17/outbox.cif.g08.bks.cpg/sg2_131_cif.got.tgz:260060.got - 2010.06.03 11:33:40.
