data_PCOD9081693
_publ_section_title
;
Structure prediction by ZEFSAII (Michael W. Deem and Ramdas Pophale) SiO2 
 PCOD9081693
Probable space group: P -1
;
_chemical_formula_sum "Si O2"
_cell_formula_units_Z 14
_cell_length_a 9.661909
_cell_length_b 9.769263
_cell_length_c 9.411954
_cell_angle_alpha 102.723387
_cell_angle_beta 118.726647
_cell_angle_gamma 120.502074
_cell_volume 529.618703
_symmetry_space_group_name_H-M "P -1"
_symmetry_group_IT_number 2
_symmetry_cell_setting 'triclinic'
loop_
_space_group_symop_operation_xyz
x,y,z
-x,-y,-z
loop_
_atom_site_type_symbol
_atom_site_label
_atom_site_fract_x
_atom_site_fract_y
_atom_site_fract_z
Si Si1 0.991112 0.927560 0.289420
Si Si2 0.520897 0.723948 0.989905
Si Si3 0.115119 0.642488 0.777124
Si Si4 0.085219 0.766104 0.516034
Si Si5 0.497919 0.234568 0.533806
Si Si6 0.401310 0.933212 0.228774
Si Si7 0.336759 0.452734 0.119163
O O1 0.251064 0.125702 0.443384
O O2 0.610461 0.179327 0.667789
O O3 0.969361 0.825755 0.400747
O O4 0.208482 0.086413 0.821692
O O5 0.361839 0.745899 0.866112
O O6 0.509444 0.586241 0.842990
O O7 0.420026 0.608911 0.067107
O O8 0.008485 0.672584 0.612537
O O9 0.972689 0.407485 0.651517
O O10 0.190484 0.766131 0.985652
O O11 0.355222 0.957069 0.688967
O O12 0.647631 0.463656 0.702127
O O13 0.436502 0.117761 0.331245
O O14 0.911009 0.763002 0.092939
#
# Coordination Sequence:
#
# PCOD9081693 Si02
#       7
#     2   2   2   2   2   2   2
#     4   9  18  33  52  86  98 134 174 212 261 307
#     4   9  17  33  53  77 111 125 171 224 258 290
#     4  11  19  36  53  81 108 132 168 223 259 309
#     4  10  20  33  56  77 104 141 172 205 274 297
#     4  10  19  32  54  76 106 142 170 211 262 300
#     4  10  21  34  49  80 109 135 175 214 253 314
#     4   9  16  32  50  77 110 126 169 224 249 303
#
# _framework density 26.434111000000001
#
# number of rings (size 3 to 8) (size 9 to 14) (size 15 to 20)
#    0.857    1.429    2.857    0.429    0.000    1.714 
#    2.571    4.286    0.000    1.714    0.000    0.000 
#    0.000    0.000    0.000    0.000    0.000    0.000 
#
# Total GULP energy -78195.172066 kJ/mol
# GULP energy per Si atom -5585.369433 kJ/mol
# Density = 2.637395 g / cm^3
# Si number density = 26.434111 Si / 1000 Ang^3
#
#
#
# Elastic Constant Matrix: (Units=GPa)
#
#
# Indices 1 2 3 4 5 6 
#
# 1 81.4154 19.4531 23.5276 -3.6791 -2.5605 -6.3754
# 2 19.4531 34.1138 6.6476 2.6150 8.5484 -10.3115
# 3 23.5276 6.6476 181.6987 19.2066 -8.9753 3.4149
# 4 -3.6791 2.6150 19.2066 24.7994 -1.7539 0.7866
# 5 -2.5605 8.5484 -8.9753 -1.7539 60.6694 8.8745
# 6 -6.3754 -10.3115 3.4149 0.7866 8.8745 25.2102
#
#
#
# Elastic Compliance Matrix: (Units=1/GPa)
#
#
# Indices 1 2 3 4 5 6 
#
# 1 0.015367 -0.009357 -0.002077 0.005023 0.001875 -0.000476
# 2 -0.009357 0.043424 -0.000481 -0.006875 -0.009569 0.019043
# 3 -0.002077 -0.000481 0.006414 -0.005094 0.001045 -0.001800
# 4 0.005023 -0.006875 -0.005094 0.045992 0.002205 -0.003063
# 5 0.001875 -0.009569 0.001045 0.002205 0.019676 -0.010576
# 6 -0.000476 0.019043 -0.001800 -0.003063 -0.010576 0.051398
#
#
# Mechanical properties :
#
#
# Convention : Reuss Voigt Hill
#
# Bulk Modulus (GPa) = 24.16872 44.05383 34.11127
# Shear Modulus (GPa) = 22.73841 38.64244 30.69042
#
# Velocity S-wave (km/s) = 2.93608 3.82755 3.41106
# Velocity P-wave (km/s) = 4.54499 6.01957 5.33349
#
# Compressibility (1/GPa) = 0.04137580
#
# Stress axis : x y z
#
# Youngs Moduli (GPa) = 65.07351 23.02862 155.90778
#
# Poissons Ratio (x) = 0.21548 0.32380
# Poissons Ratio (y) = 0.60890 0.07498
# Poissons Ratio (z) = 0.13515 0.01107
#
# Static dielectric constant tensor:
#      x y z
#    x 2.086200 0.013650 -0.117890 
#    y 0.013650 2.081550 0.023590 
#    z -0.117890 0.023590 2.152070 
# 
# From -- ./inp_files/430403.got.cif
#   From: 2010.05.17/outbox.cif.g08.bks.cpg/sg2_216_cif.got.tgz:430403.got - 2010.06.03 11:33:40.
