data_PCOD9081274
_publ_section_title
;
Structure prediction by ZEFSAII (Michael W. Deem and Ramdas Pophale) SiO2 
 PCOD9081274
Probable space group: P -1
;
_chemical_formula_sum "Si O2"
_cell_formula_units_Z 16
_cell_length_a 21.100045
_cell_length_b 7.334295
_cell_length_c 12.386667
_cell_angle_alpha 106.371395
_cell_angle_beta 35.304440
_cell_angle_gamma 128.437179
_cell_volume 752.444812
_symmetry_space_group_name_H-M "P -1"
_symmetry_group_IT_number 2
_symmetry_cell_setting 'triclinic'
loop_
_space_group_symop_operation_xyz
x,y,z
-x,-y,-z
loop_
_atom_site_type_symbol
_atom_site_label
_atom_site_fract_x
_atom_site_fract_y
_atom_site_fract_z
Si Si1 0.133969 0.376509 0.420095
Si Si2 0.236585 0.865004 0.442916
Si Si3 0.923814 0.583928 0.735702
Si Si4 0.888458 0.906927 0.977579
Si Si5 0.484043 0.727221 0.005701
Si Si6 0.498988 0.639300 0.194566
Si Si7 0.161474 0.923156 0.122820
Si Si8 0.772812 0.778417 0.351260
O O1 0.159450 0.564136 0.512604
O O2 0.115729 0.452474 0.341289
O O3 0.964083 0.095826 0.643501
O O4 0.299925 0.480897 0.204623
O O5 0.111200 0.813041 0.528826
O O6 0.399622 0.008056 0.185545
O O7 0.246265 0.022233 0.554528
O O8 0.862846 0.318117 0.834661
O O9 0.859209 0.688281 0.905554
O O10 0.782520 0.773795 0.208675
O O11 0.865514 0.065567 0.963364
O O12 0.064880 0.098829 0.805880
O O13 0.549541 0.606055 0.847683
O O14 0.517076 0.806440 0.098555
O O15 0.366096 0.503532 0.444546
O O16 0.662502 0.809617 0.051597
#
# Coordination Sequence:
#
# PCOD9081274 Si02
#       8
#     2   2   2   2   2   2   2   2
#     4  11  20  33  55  85 115 144 180 225 279 333
#     4   9  18  34  54  78 111 144 177 226 277 319
#     4  10  21  37  57  84 115 144 181 228 276 329
#     4  10  21  40  61  79 107 148 192 228 270 325
#     4  10  19  31  53  82 111 148 183 222 277 329
#     4  10  20  34  52  80 115 144 183 229 273 329
#     4  11  22  36  56  83 113 148 182 224 279 331
#     4   9  20  39  58  78 108 147 187 232 271 317
#
# _framework density 21.264016999999999
#
# number of rings (size 3 to 8) (size 9 to 14) (size 15 to 20)
#    0.000    2.000    0.000    4.875    0.000    4.500 
#    0.000   11.875    0.000    0.000    0.000    0.000 
#    0.000    0.000    0.000    0.000    0.000    0.000 
#
# Total GULP energy -89122.464621 kJ/mol
# GULP energy per Si atom -5570.154039 kJ/mol
# Density = 2.121562 g / cm^3
# Si number density = 21.264017 Si / 1000 Ang^3
#
#
#
# Elastic Constant Matrix: (Units=GPa)
#
#
# Indices 1 2 3 4 5 6 
#
# 1 107.9696 12.3457 48.2234 5.6602 21.5205 6.3867
# 2 12.3457 44.7067 22.9647 9.0567 11.2163 8.2506
# 3 48.2234 22.9647 154.2279 4.0939 12.9338 15.0692
# 4 5.6602 9.0567 4.0939 27.2410 2.6429 2.7112
# 5 21.5205 11.2163 12.9338 2.6429 36.8595 2.1278
# 6 6.3867 8.2506 15.0692 2.7112 2.1278 18.8786
#
#
#
# Elastic Compliance Matrix: (Units=1/GPa)
#
#
# Indices 1 2 3 4 5 6 
#
# 1 0.011920 0.000208 -0.003164 -0.001437 -0.005767 -0.000742
# 2 0.000208 0.028524 -0.002707 -0.007611 -0.006814 -0.008515
# 3 -0.003164 -0.002707 0.008296 0.000759 -0.000036 -0.004474
# 4 -0.001437 -0.007611 0.000759 0.039656 0.000190 -0.002510
# 5 -0.005767 -0.006814 -0.000036 0.000190 0.032497 0.001268
# 6 -0.000742 -0.008515 -0.004474 -0.002510 0.001268 0.060731
#
#
# Mechanical properties :
#
#
# Convention : Reuss Voigt Hill
#
# Bulk Modulus (GPa) = 26.72721 52.66354 39.69537
# Shear Modulus (GPa) = 24.34047 31.48717 27.91382
#
# Velocity S-wave (km/s) = 3.38698 3.85225 3.62709
# Velocity P-wave (km/s) = 5.28129 6.67883 6.02075
#
# Compressibility (1/GPa) = 0.03741506
#
# Stress axis : x y z
#
# Youngs Moduli (GPa) = 83.89413 35.05846 120.53642
#
# Poissons Ratio (x) = -0.00731 0.38136
# Poissons Ratio (y) = -0.01748 0.32629
# Poissons Ratio (z) = 0.26543 0.09490
#
# Static dielectric constant tensor:
#      x y z
#    x 1.842500 -0.136620 0.013750 
#    y -0.136620 1.925480 -0.057410 
#    z 0.013750 -0.057410 1.823410 
# 
# From -- ./inp_files/177555.got.cif
#   From: 2010.05.17/outbox.cif.g08.bks.cpg/sg2_89_cif.got.tgz:177555.got - 2010.06.03 11:33:40.
