data_PCOD9081410
_publ_section_title
;
Structure prediction by ZEFSAII (Michael W. Deem and Ramdas Pophale) SiO2 
 PCOD9081410
Probable space group: P -1
;
_chemical_formula_sum "Si O2"
_cell_formula_units_Z 16
_cell_length_a 18.886185
_cell_length_b 7.026331
_cell_length_c 11.275382
_cell_angle_alpha 66.929360
_cell_angle_beta 30.689431
_cell_angle_gamma 66.225184
_cell_volume 695.577875
_symmetry_space_group_name_H-M "P -1"
_symmetry_group_IT_number 2
_symmetry_cell_setting 'triclinic'
loop_
_space_group_symop_operation_xyz
x,y,z
-x,-y,-z
loop_
_atom_site_type_symbol
_atom_site_label
_atom_site_fract_x
_atom_site_fract_y
_atom_site_fract_z
Si Si1 0.099664 0.373911 0.211146
Si Si2 0.556203 0.769427 0.918798
Si Si3 0.867741 0.922759 0.267623
Si Si4 0.613444 0.424658 0.620737
Si Si5 0.391230 0.342924 0.658279
Si Si6 0.564690 0.045007 0.626035
Si Si7 0.872222 0.749784 0.540548
Si Si8 0.913063 0.444548 0.251926
O O1 0.124206 0.225162 0.327810
O O2 0.008447 0.583050 0.347797
O O3 0.002552 0.315860 0.257054
O O4 0.245059 0.400438 0.927204
O O5 0.715473 0.693848 0.751895
O O6 0.548257 0.840290 0.775394
O O7 0.461747 0.600977 0.140491
O O8 0.500000 0.000000 0.000000
O O9 0.873840 0.937032 0.398408
O O10 0.867070 0.676011 0.313305
O O11 0.730569 0.028927 0.370521
O O12 0.000000 0.000000 0.000000
O O13 0.615845 0.622378 0.481893
O O14 0.543416 0.251305 0.690311
O O15 0.776355 0.358246 0.426445
O O16 0.500000 0.500000 0.500000
O O17 0.458653 0.111719 0.657182
O O18 0.000000 0.500000 0.000000
#
# Coordination Sequence:
#
# PCOD9081410 Si02
#       8
#     2   2   2   2   2   2   2   2
#     4  10  19  34  53  81 117 139 192 239 280 335
#     4   9  17  34  57  82 113 147 189 239 286 341
#     4  10  21  36  58  82 116 150 191 238 283 347
#     4  10  19  34  59  87 113 150 198 234 282 347
#     4  10  19  31  58  86 110 150 197 240 276 338
#     4   9  19  35  58  85 111 149 195 238 286 331
#     4   9  19  33  55  83 109 147 186 243 281 323
#     4  11  21  36  58  84 117 155 187 233 295 343
#
# _framework density 23.002457
#
# number of rings (size 3 to 8) (size 9 to 14) (size 15 to 20)
#    0.000    2.250    1.250    3.000    5.250    0.000 
#    0.000    6.250    2.750    8.250    0.000    0.000 
#    0.000    0.000    0.000    0.000    0.000    0.000 
#
# Total GULP energy -89073.588176 kJ/mol
# GULP energy per Si atom -5567.099261 kJ/mol
# Density = 2.295010 g / cm^3
# Si number density = 23.002457 Si / 1000 Ang^3
#
#
#
# Elastic Constant Matrix: (Units=GPa)
#
#
# Indices 1 2 3 4 5 6 
#
# 1 123.0658 35.1362 59.7560 -16.7903 26.0858 -49.4845
# 2 35.1362 85.0298 34.4525 -5.7579 4.2193 -27.7522
# 3 59.7560 34.4525 193.8918 -10.8760 15.1790 -40.0343
# 4 -16.7903 -5.7579 -10.8760 33.5670 -9.0512 5.5622
# 5 26.0858 4.2193 15.1790 -9.0512 35.4120 0.7433
# 6 -49.4845 -27.7522 -40.0343 5.5622 0.7433 43.5359
#
#
#
# Elastic Compliance Matrix: (Units=1/GPa)
#
#
# Indices 1 2 3 4 5 6 
#
# 1 0.021786 0.000060 -0.000292 0.002494 -0.015807 0.024484
# 2 0.000060 0.015065 -0.000682 0.000464 -0.001618 0.009013
# 3 -0.000292 -0.000682 0.006707 0.000310 -0.002612 0.005405
# 4 0.002494 0.000464 0.000310 0.033113 0.006458 -0.000926
# 5 -0.015807 -0.001618 -0.002612 0.006458 0.043328 -0.022965
# 6 0.024484 0.009013 0.005405 -0.000926 -0.022965 0.062025
#
#
# Mechanical properties :
#
#
# Convention : Reuss Voigt Hill
#
# Bulk Modulus (GPa) = 23.96336 73.40853 48.68595
# Shear Modulus (GPa) = 25.28279 40.67916 32.98098
#
# Velocity S-wave (km/s) = 3.31892 4.20988 3.79067
# Velocity P-wave (km/s) = 5.01271 7.45744 6.35377
#
# Compressibility (1/GPa) = 0.04173037
#
# Stress axis : x y z
#
# Youngs Moduli (GPa) = 45.90088 66.37710 149.10329
#
# Poissons Ratio (x) = -0.00400 0.04359
# Poissons Ratio (y) = -0.00276 0.10166
# Poissons Ratio (z) = 0.01342 0.04526
#
# Static dielectric constant tensor:
#      x y z
#    x 1.964360 0.009810 0.101130 
#    y 0.009810 1.940970 0.056480 
#    z 0.101130 0.056480 1.910880 
# 
# From -- ./inp_files/468849.got.cif
#   From: 2010.05.17/outbox.cif.g08.bks.cpg/sg2_235_cif.got.tgz:468849.got - 2010.06.03 11:33:40.
