data_PCOD9081453
_publ_section_title
;
Structure prediction by ZEFSAII (Michael W. Deem and Ramdas Pophale) SiO2 
 PCOD9081453
Probable space group: P -1
;
_chemical_formula_sum "Si O2"
_cell_formula_units_Z 16
_cell_length_a 15.954257
_cell_length_b 11.622130
_cell_length_c 7.821734
_cell_angle_alpha 96.237323
_cell_angle_beta 44.356737
_cell_angle_gamma 129.187439
_cell_volume 608.259570
_symmetry_space_group_name_H-M "P -1"
_symmetry_group_IT_number 2
_symmetry_cell_setting 'triclinic'
loop_
_space_group_symop_operation_xyz
x,y,z
-x,-y,-z
loop_
_atom_site_type_symbol
_atom_site_label
_atom_site_fract_x
_atom_site_fract_y
_atom_site_fract_z
Si Si1 0.062195 0.219126 0.979369
Si Si2 0.689756 0.291397 0.643815
Si Si3 0.679626 0.799885 0.488364
Si Si4 0.419395 0.902807 0.862011
Si Si5 0.131612 0.199178 0.259171
Si Si6 0.276478 0.575098 0.880094
Si Si7 0.453721 0.335979 0.969562
Si Si8 0.008125 0.342519 0.563142
O O1 0.213387 0.242098 0.685933
O O2 0.156485 0.419035 0.879651
O O3 0.066513 0.190374 0.169264
O O4 0.838500 0.015525 0.215697
O O5 0.599830 0.184241 0.945112
O O6 0.913085 0.504422 0.389682
O O7 0.590774 0.333363 0.730301
O O8 0.622714 0.130531 0.604756
O O9 0.461689 0.640371 0.694541
O O10 0.657198 0.801404 0.724003
O O11 0.228241 0.840842 0.132310
O O12 0.380126 0.779690 0.750945
O O13 0.337415 0.288366 0.964236
O O14 0.106922 0.291981 0.433562
O O15 0.000000 0.000000 0.500000
O O16 0.110916 0.459305 0.253768
O O17 0.500000 0.500000 0.000000
#
# Coordination Sequence:
#
# PCOD9081453 Si02
#       8
#     2   2   2   2   2   2   2   2
#     4  10  23  36  56  82 117 152 191 233 278 344
#     4  10  19  32  49  78 113 146 183 232 283 329
#     4  11  21  38  56  82 117 153 192 227 285 343
#     4  10  20  31  52  78 114 149 184 235 284 324
#     4  11  20  33  54  82 118 145 178 235 287 340
#     4  10  19  33  52  78 111 145 184 237 278 325
#     4  12  20  35  57  83 119 148 184 230 292 342
#     4  10  19  32  48  80 112 146 184 227 287 330
#
# _framework density 26.304559000000001
#
# number of rings (size 3 to 8) (size 9 to 14) (size 15 to 20)
#    0.000    1.500    5.000    3.375    1.750    1.000 
#    0.000    0.000    0.000    0.000    0.000    8.750 
#    0.000    0.125    0.000    0.000    0.000    0.000 
#
# Total GULP energy -89290.010027 kJ/mol
# GULP energy per Si atom -5580.625627 kJ/mol
# Density = 2.624469 g / cm^3
# Si number density = 26.304559 Si / 1000 Ang^3
#
#
#
# Elastic Constant Matrix: (Units=GPa)
#
#
# Indices 1 2 3 4 5 6 
#
# 1 70.7551 7.8624 7.5251 -6.7445 -18.0587 -25.0807
# 2 7.8624 152.0545 13.5710 -12.3515 -0.3645 -11.9052
# 3 7.5251 13.5710 62.7936 -5.1934 -3.3824 6.3595
# 4 -6.7445 -12.3515 -5.1934 20.8415 2.2083 -12.1001
# 5 -18.0587 -0.3645 -3.3824 2.2083 42.1302 5.6731
# 6 -25.0807 -11.9052 6.3595 -12.1001 5.6731 26.0803
#
#
#
# Elastic Compliance Matrix: (Units=1/GPa)
#
#
# Indices 1 2 3 4 5 6 
#
# 1 0.063205 0.013787 -0.014036 0.088299 0.006641 0.110021
# 2 0.013787 0.011306 -0.005072 0.029302 -0.000426 0.033344
# 3 -0.014036 -0.005072 0.020134 -0.020147 0.000681 -0.030219
# 4 0.088299 0.029302 -0.020147 0.203960 -0.000871 0.198021
# 5 0.006641 -0.000426 0.000681 -0.000871 0.026705 -0.000186
# 6 0.110021 0.033344 -0.030219 0.198021 -0.000186 0.258650
#
#
# Mechanical properties :
#
#
# Convention : Reuss Voigt Hill
#
# Bulk Modulus (GPa) = 11.90421 38.16890 25.03656
# Shear Modulus (GPa) = 8.03079 34.92005 21.47542
#
# Velocity S-wave (km/s) = 1.74918 3.64748 2.86040
# Velocity P-wave (km/s) = 2.93511 5.68161 4.52192
#
# Compressibility (1/GPa) = 0.08400386
#
# Stress axis : x y z
#
# Youngs Moduli (GPa) = 15.82150 88.44601 49.66659
#
# Poissons Ratio (x) = -1.21942 0.69712
# Poissons Ratio (y) = -0.21813 0.25192
# Poissons Ratio (z) = 0.22207 0.44861
#
# Static dielectric constant tensor:
#      x y z
#    x 2.187020 0.081140 0.039390 
#    y 0.081140 2.203800 0.043790 
#    z 0.039390 0.043790 2.396760 
# 
# From -- ./inp_files/333342.got.cif
#   From: 2010.05.17/outbox.cif.g08.bks.cpg/sg2_167_cif.got.tgz:333342.got - 2010.06.03 11:33:40.
