data_PCOD9081575
_publ_section_title
;
Structure prediction by ZEFSAII (Michael W. Deem and Ramdas Pophale) SiO2 
 PCOD9081575
Probable space group: P -1
;
_chemical_formula_sum "Si O2"
_cell_formula_units_Z 16
_cell_length_a 17.157774
_cell_length_b 10.255793
_cell_length_c 5.366476
_cell_angle_alpha 89.157257
_cell_angle_beta 75.855763
_cell_angle_gamma 125.553867
_cell_volume 730.116120
_symmetry_space_group_name_H-M "P -1"
_symmetry_group_IT_number 2
_symmetry_cell_setting 'triclinic'
loop_
_space_group_symop_operation_xyz
x,y,z
-x,-y,-z
loop_
_atom_site_type_symbol
_atom_site_label
_atom_site_fract_x
_atom_site_fract_y
_atom_site_fract_z
Si Si1 0.369234 0.737645 0.549844
Si Si2 0.263293 0.224805 0.693028
Si Si3 0.981365 0.824590 0.556087
Si Si4 0.591833 0.476910 0.135156
Si Si5 0.938385 0.075980 0.008923
Si Si6 0.408478 0.030125 0.768402
Si Si7 0.237735 0.437669 0.383852
Si Si8 0.623024 0.837786 0.722821
O O1 0.392118 0.626439 0.680923
O O2 0.359911 0.842643 0.755581
O O3 0.273128 0.611012 0.459099
O O4 0.469866 0.867323 0.307140
O O5 0.365878 0.354836 0.759634
O O6 0.220743 0.321041 0.629047
O O7 0.285313 0.163915 0.429754
O O8 0.178431 0.073320 0.925763
O O9 0.864556 0.674493 0.687197
O O10 0.044202 0.839693 0.742444
O O11 0.000000 0.000000 0.500000
O O12 0.018682 0.807393 0.263635
O O13 0.475184 0.350921 0.160375
O O14 0.666558 0.520446 0.847968
O O15 0.000000 0.000000 0.000000
O O16 0.391951 0.091781 0.519948
O O17 0.369417 0.066082 0.041448
#
# Coordination Sequence:
#
# PCOD9081575 Si02
#       8
#     2   2   2   2   2   2   2   2
#     4   9  21  36  59  81 108 151 189 248 269 310
#     4  11  23  34  55  82 119 152 182 221 283 351
#     4  10  19  32  52  78 112 136 178 229 276 329
#     4  10  21  35  53  84 118 147 186 226 280 334
#     4  10  19  35  51  76 109 144 181 227 269 323
#     4  10  22  41  57  79 112 149 203 229 269 315
#     4  11  20  33  57  85 116 146 182 227 292 332
#     4  11  24  38  55  82 115 159 183 224 272 343
#
# _framework density 21.91432
#
# number of rings (size 3 to 8) (size 9 to 14) (size 15 to 20)
#    0.000    1.750    3.750    1.875    5.250    2.000 
#    0.000    0.000    0.000    0.000    0.000    5.250 
#    0.000    0.000    0.000    0.000    0.000    0.000 
#
# Total GULP energy -89364.736125 kJ/mol
# GULP energy per Si atom -5585.296008 kJ/mol
# Density = 2.186444 g / cm^3
# Si number density = 21.914320 Si / 1000 Ang^3
#
#
#
# Elastic Constant Matrix: (Units=GPa)
#
#
# Indices 1 2 3 4 5 6 
#
# 1 20.8016 27.0748 12.5245 7.3516 0.1125 3.8313
# 2 27.0748 110.6669 34.4282 21.2483 -18.2467 14.9607
# 3 12.5245 34.4282 134.0644 18.9112 -2.4185 3.8704
# 4 7.3516 21.2483 18.9112 38.2935 4.9560 -4.9555
# 5 0.1125 -18.2467 -2.4185 4.9560 29.5132 3.0232
# 6 3.8313 14.9607 3.8704 -4.9555 3.0232 16.6027
#
#
#
# Elastic Compliance Matrix: (Units=1/GPa)
#
#
# Indices 1 2 3 4 5 6 
#
# 1 0.075503 -0.020776 -0.002163 0.000471 -0.013846 0.004464
# 2 -0.020776 0.023649 -0.001079 -0.014234 0.019467 -0.024058
# 3 -0.002163 -0.001079 0.008496 -0.003506 0.000801 -0.001701
# 4 0.000471 -0.014234 -0.003506 0.041957 -0.019162 0.029547
# 5 -0.013846 0.019467 0.000801 -0.019162 0.052305 -0.029776
# 6 0.004464 -0.024058 -0.001701 0.029547 -0.029776 0.095517
#
#
# Mechanical properties :
#
#
# Convention : Reuss Voigt Hill
#
# Bulk Modulus (GPa) = 16.77481 45.95423 31.36452
# Shear Modulus (GPa) = 13.68608 29.64891 21.66750
#
# Velocity S-wave (km/s) = 2.50176 3.68223 3.14783
# Velocity P-wave (km/s) = 4.00206 6.25251 5.24930
#
# Compressibility (1/GPa) = 0.05961320
#
# Stress axis : x y z
#
# Youngs Moduli (GPa) = 13.24443 42.28422 117.69780
#
# Poissons Ratio (x) = 0.87849 0.25463
# Poissons Ratio (y) = 0.27516 0.12697
# Poissons Ratio (z) = 0.02865 0.04562
#
# Static dielectric constant tensor:
#      x y z
#    x 1.800610 -0.017550 -0.002980 
#    y -0.017550 1.817530 0.012390 
#    z -0.002980 0.012390 1.832000 
# 
# From -- ./inp_files/67151.got.cif
#   From: 2010.05.17/outbox.cif.g08.bks.cpg/sg2_34_cif.got.tgz:67151.got - 2010.06.03 11:33:40.
