data_PCOD9081138
_publ_section_title
;
Structure prediction by ZEFSAII (Michael W. Deem and Ramdas Pophale) SiO2 
 PCOD9081138
Probable space group: P -1
;
_chemical_formula_sum "Si O2"
_cell_formula_units_Z 16
_cell_length_a 6.422917
_cell_length_b 9.649431
_cell_length_c 26.866111
_cell_angle_alpha 135.605822
_cell_angle_beta 55.906783
_cell_angle_gamma 99.305345
_cell_volume 878.885761
_symmetry_space_group_name_H-M "P -1"
_symmetry_group_IT_number 2
_symmetry_cell_setting 'triclinic'
loop_
_space_group_symop_operation_xyz
x,y,z
-x,-y,-z
loop_
_atom_site_type_symbol
_atom_site_label
_atom_site_fract_x
_atom_site_fract_y
_atom_site_fract_z
Si Si1 0.285980 0.189682 0.110115
Si Si2 0.768204 0.764271 0.758555
Si Si3 0.680001 0.362085 0.757307
Si Si4 0.778549 0.685868 0.378083
Si Si5 0.681830 0.653257 0.572967
Si Si6 0.798622 0.965752 0.703932
Si Si7 0.434918 0.752861 0.528009
Si Si8 0.656803 0.449590 0.243400
O O1 0.287675 0.123599 0.150949
O O2 0.350901 0.403400 0.159003
O O3 0.974994 0.281331 0.154661
O O4 0.500000 0.000000 0.000000
O O5 0.806367 0.906815 0.745700
O O6 0.526210 0.686448 0.758382
O O7 0.029257 0.535466 0.674306
O O8 0.457466 0.411581 0.755843
O O9 0.984016 0.253382 0.662347
O O10 0.666848 0.210953 0.764764
O O11 0.555003 0.831767 0.485357
O O12 0.638633 0.609779 0.332426
O O13 0.631116 0.842518 0.667590
O O14 0.617544 0.745613 0.549673
O O15 0.532940 0.490056 0.553513
O O16 0.000000 0.500000 0.500000
O O17 0.116197 0.871986 0.617681
#
# Coordination Sequence:
#
# PCOD9081138 Si02
#       8
#     2   2   2   2   2   2   2   2
#     4   9  19  38  63  82  95 125 169 208 253 316
#     4   9  18  31  53  78 102 133 172 209 251 309
#     4   9  21  34  50  77 109 136 167 210 262 315
#     4   9  17  33  51  72 100 141 187 219 247 286
#     4   9  18  29  45  69  96 134 178 219 255 289
#     4  11  21  33  48  76 110 141 173 212 261 301
#     4  10  19  31  49  71 102 143 189 224 242 283
#     4   8  17  35  55  74 101 134 167 211 255 303
#
# _framework density 18.204868000000001
#
# number of rings (size 3 to 8) (size 9 to 14) (size 15 to 20)
#    0.000    3.250    0.000    3.000    0.000    8.500 
#    0.000    1.875    0.000    1.500    0.000    0.000 
#    0.000    0.000    0.000    0.000    0.000    0.000 
#
# Total GULP energy -89121.030480 kJ/mol
# GULP energy per Si atom -5570.064405 kJ/mol
# Density = 1.816343 g / cm^3
# Si number density = 18.204868 Si / 1000 Ang^3
#
#
#
# Elastic Constant Matrix: (Units=GPa)
#
#
# Indices 1 2 3 4 5 6 
#
# 1 113.7516 29.6161 31.0825 -7.8230 7.1800 -18.1940
# 2 29.6161 137.2566 34.4948 -16.1690 10.5821 -33.9658
# 3 31.0825 34.4948 63.9162 -10.9072 2.9743 -8.0199
# 4 -7.8230 -16.1690 -10.9072 17.0966 -0.5581 1.5408
# 5 7.1800 10.5821 2.9743 -0.5581 10.2450 -3.6224
# 6 -18.1940 -33.9658 -8.0199 1.5408 -3.6224 14.6327
#
#
#
# Elastic Compliance Matrix: (Units=1/GPa)
#
#
# Indices 1 2 3 4 5 6 
#
# 1 0.013504 0.005774 -0.005270 0.005825 -0.004541 0.025568
# 2 0.005774 0.023590 -0.005494 0.016225 -0.006250 0.055669
# 3 -0.005270 -0.005494 0.021260 0.006716 0.000664 -0.008196
# 4 0.005825 0.016225 0.006716 0.077091 -0.004694 0.039307
# 5 -0.004541 -0.006250 0.000664 -0.004694 0.109566 0.007828
# 6 0.025568 0.055669 -0.008196 0.039307 0.007828 0.222657
#
#
# Mechanical properties :
#
#
# Convention : Reuss Voigt Hill
#
# Bulk Modulus (GPa) = 20.67216 56.14570 38.40893
# Shear Modulus (GPa) = 10.12611 23.04360 16.58486
#
# Velocity S-wave (km/s) = 2.36101 3.56166 3.02157
# Velocity P-wave (km/s) = 4.33733 6.91534 5.77210
#
# Compressibility (1/GPa) = 0.04837423
#
# Stress axis : x y z
#
# Youngs Moduli (GPa) = 74.04970 42.39137 47.03633
#
# Poissons Ratio (x) = -0.24476 0.24787
# Poissons Ratio (y) = -0.42755 0.25842
# Poissons Ratio (z) = 0.39022 0.23290
#
# Static dielectric constant tensor:
#      x y z
#    x 1.636470 -0.002010 -0.003430 
#    y -0.002010 1.681950 -0.001780 
#    z -0.003430 -0.001780 1.623800 
# 
# From -- ./inp_files/138723.got.cif
#   From: 2010.05.17/outbox.cif.g08.bks.cpg/sg2_70_cif.got.tgz:138723.got - 2010.06.03 11:33:40.
