data_PCOD9081881
_publ_section_title
;
Structure prediction by ZEFSAII (Michael W. Deem and Ramdas Pophale) SiO2 
 PCOD9081881
Probable space group: P -1
;
_chemical_formula_sum "Si O2"
_cell_formula_units_Z 13
_cell_length_a 10.507976
_cell_length_b 11.300784
_cell_length_c 8.404054
_cell_angle_alpha 38.894242
_cell_angle_beta 52.054924
_cell_angle_gamma 53.825164
_cell_volume 481.414204
_symmetry_space_group_name_H-M "P -1"
_symmetry_group_IT_number 2
_symmetry_cell_setting 'triclinic'
loop_
_space_group_symop_operation_xyz
x,y,z
-x,-y,-z
loop_
_atom_site_type_symbol
_atom_site_label
_atom_site_fract_x
_atom_site_fract_y
_atom_site_fract_z
Si Si1 0.848894 0.403161 0.921325
Si Si2 0.140368 0.815946 0.142138
Si Si3 0.890972 0.974146 0.759624
Si Si4 0.516235 0.814190 0.842759
Si Si5 0.477177 0.751008 0.602036
Si Si6 0.000000 0.500000 0.000000
Si Si7 0.342749 0.289625 0.826710
O O1 0.683070 0.338285 0.174101
O O2 0.893742 0.556863 0.847348
O O3 0.996111 0.215983 0.048914
O O4 0.858935 0.381977 0.744101
O O5 0.129142 0.837570 0.316193
O O6 0.318649 0.860247 0.921480
O O7 0.000000 0.000000 0.000000
O O8 0.719308 0.913729 0.921182
O O9 0.000000 0.000000 0.500000
O O10 0.578516 0.706544 0.739615
O O11 0.571930 0.015501 0.601231
O O12 0.452144 0.284400 0.906394
O O13 0.575495 0.688912 0.428427
O O14 0.824866 0.554907 0.170701
#
# Coordination Sequence:
#
# PCOD9081881 Si02
#       7
#     2   2   2   2   2   1   2
#     4   9  20  37  58  82 116 162 197 242 300 349
#     4   9  18  34  55  87 122 151 182 246 309 352
#     4  10  19  32  56  91 122 148 190 245 310 362
#     4  10  20  35  62  99 123 147 194 252 320 364
#     4  10  20  36  64  94 122 149 193 262 313 355
#     4  10  24  44  58  80 126 170 210 244 280 356
#     4  11  22  39  62  85 127 163 200 247 295 359
#
# _framework density 27.003772999999999
#
# number of rings (size 3 to 8) (size 9 to 14) (size 15 to 20)
#    0.000    2.154    1.538    1.385    2.154    1.846 
#    0.000    3.846    3.385    0.000    0.000    0.000 
#    0.000    0.000    0.000    0.000    0.000    0.000 
#
# Total GULP energy -72389.959598 kJ/mol
# GULP energy per Si atom -5568.458431 kJ/mol
# Density = 2.694231 g / cm^3
# Si number density = 27.003773 Si / 1000 Ang^3
#
#
#
# Elastic Constant Matrix: (Units=GPa)
#
#
# Indices 1 2 3 4 5 6 
#
# 1 143.9926 20.4022 83.7197 16.0403 7.8441 12.0419
# 2 20.4022 91.7570 73.6805 26.8828 7.4030 7.3140
# 3 83.7197 73.6805 96.4859 45.3277 2.0365 31.9607
# 4 16.0403 26.8828 45.3277 66.7095 16.7505 2.2492
# 5 7.8441 7.4030 2.0365 16.7505 41.9520 9.7617
# 6 12.0419 7.3140 31.9607 2.2492 9.7617 33.4641
#
#
#
# Elastic Compliance Matrix: (Units=1/GPa)
#
#
# Indices 1 2 3 4 5 6 
#
# 1 0.000352 -0.010627 0.017186 -0.009026 0.008310 -0.016036
# 2 -0.010627 -0.000098 0.023109 -0.015381 0.011827 -0.020641
# 3 0.017186 0.023109 -0.041678 0.018916 -0.020569 0.033299
# 4 -0.009026 -0.015381 0.018916 0.010352 0.002337 -0.012834
# 5 0.008310 0.011827 -0.020569 0.002337 0.018264 0.008585
# 6 -0.016036 -0.020641 0.033299 -0.012834 0.008585 0.006720
#
#
# Mechanical properties :
#
#
# Convention : Reuss Voigt Hill
#
# Bulk Modulus (GPa) = 55.82332 76.42669 66.12501
# Shear Modulus (GPa) = -84.09953 38.72065 -22.68944
#
# Velocity S-wave (km/s) = -5.58670 3.79079 -2.90182
# Velocity P-wave (km/s) = 4.57140 6.89375 3.64871
#
# Compressibility (1/GPa) = 0.01791366
#
# Stress axis : x y z
#
# Youngs Moduli (GPa) = 2842.23734 -10246.49554 -23.99372
#
# Poissons Ratio (x) = -108.88607 0.41237
# Poissons Ratio (y) = 30.20350 0.55447
# Poissons Ratio (z) = -48.84779 236.78397
#
# Static dielectric constant tensor:
#      x y z
#    x 2.185940 -0.137620 0.063110 
#    y -0.137620 2.101310 -0.068250 
#    z 0.063110 -0.068250 2.070590 
# 
# From -- ./inp_files/247026.got.cif
#   From: 2010.05.17/outbox.cif.g08.bks.cpg/sg2_124_cif.got.tgz:247026.got - 2010.06.03 11:33:40.
