data_PCOD9081247
_publ_section_title
;
Structure prediction by ZEFSAII (Michael W. Deem and Ramdas Pophale) SiO2 
 PCOD9081247
Probable space group: P -1
;
_chemical_formula_sum "Si O2"
_cell_formula_units_Z 16
_cell_length_a 13.758307
_cell_length_b 13.945944
_cell_length_c 14.476473
_cell_angle_alpha 20.758230
_cell_angle_beta 128.017736
_cell_angle_gamma 128.361618
_cell_volume 765.579311
_symmetry_space_group_name_H-M "P -1"
_symmetry_group_IT_number 2
_symmetry_cell_setting 'triclinic'
loop_
_space_group_symop_operation_xyz
x,y,z
-x,-y,-z
loop_
_atom_site_type_symbol
_atom_site_label
_atom_site_fract_x
_atom_site_fract_y
_atom_site_fract_z
Si Si1 0.612686 0.977332 0.794434
Si Si2 0.153656 0.891447 0.533924
Si Si3 0.380750 0.751508 0.265734
Si Si4 0.660347 0.863990 0.267421
Si Si5 0.203688 0.511290 0.071020
Si Si6 0.450337 0.423878 0.243741
Si Si7 0.084232 0.215693 0.423208
Si Si8 0.359132 0.069951 0.352297
O O1 0.676379 0.143667 0.768893
O O2 0.500624 0.150914 0.549958
O O3 0.677284 0.943616 0.764237
O O4 0.559932 0.673672 0.071060
O O5 0.007061 0.761096 0.564613
O O6 0.160290 0.216124 0.262744
O O7 0.251393 0.879775 0.518862
O O8 0.198667 0.744657 0.783086
O O9 0.531461 0.852118 0.259728
O O10 0.356825 0.425629 0.535969
O O11 0.331178 0.891586 0.021055
O O12 0.786598 0.876500 0.388428
O O13 0.349108 0.506513 0.180463
O O14 0.123148 0.487551 0.138706
O O15 0.383873 0.356557 0.165443
O O16 0.000000 0.000000 0.500000
O O17 0.500000 0.000000 0.500000
#
# Coordination Sequence:
#
# PCOD9081247 Si02
#       8
#     2   2   2   2   2   2   2   2
#     4  11  20  33  55  81 112 147 195 235 279 342
#     4  10  21  34  50  78 115 146 183 225 278 344
#     4  10  22  39  59  85 111 154 196 233 281 332
#     4  10  22  40  60  83 117 147 190 242 284 337
#     4  10  19  33  51  77 113 147 181 217 274 350
#     4  10  19  31  52  83 115 148 184 234 290 336
#     4  10  22  38  60  87 116 151 187 232 295 352
#     4   9  19  34  53  81 117 153 188 237 291 333
#
# _framework density 20.899207000000001
#
# number of rings (size 3 to 8) (size 9 to 14) (size 15 to 20)
#    0.000    2.000    0.000    4.500    0.000   11.000 
#    0.000    0.000    0.000    1.500    0.000    0.000 
#    0.000    0.000    0.000    0.000    0.000    0.000 
#
# Total GULP energy -89216.034077 kJ/mol
# GULP energy per Si atom -5576.002130 kJ/mol
# Density = 2.085164 g / cm^3
# Si number density = 20.899207 Si / 1000 Ang^3
#
#
#
# Elastic Constant Matrix: (Units=GPa)
#
#
# Indices 1 2 3 4 5 6 
#
# 1 124.4114 28.6106 14.4838 3.2105 -24.9654 2.2801
# 2 28.6106 68.8620 10.1811 5.5680 -2.8956 -9.8949
# 3 14.4838 10.1811 40.4506 4.9935 3.1473 -3.8963
# 4 3.2105 5.5680 4.9935 31.5385 3.5163 10.4335
# 5 -24.9654 -2.8956 3.1473 3.5163 28.0622 7.1226
# 6 2.2801 -9.8949 -3.8963 10.4335 7.1226 33.6874
#
#
#
# Elastic Compliance Matrix: (Units=1/GPa)
#
#
# Indices 1 2 3 4 5 6 
#
# 1 0.012220 -0.004731 -0.004782 0.000843 0.012240 -0.005619
# 2 -0.004731 0.017996 -0.001249 -0.004631 -0.003574 0.007651
# 3 -0.004782 -0.001249 0.028693 -0.005080 -0.008660 0.006680
# 4 0.000843 -0.004631 -0.005080 0.037797 -0.000438 -0.013619
# 5 0.012240 -0.003574 -0.008660 -0.000438 0.050594 -0.013441
# 6 -0.005619 0.007651 0.006680 -0.013619 -0.013441 0.040145
#
#
# Mechanical properties :
#
#
# Convention : Reuss Voigt Hill
#
# Bulk Modulus (GPa) = 26.74931 37.80833 32.27882
# Shear Modulus (GPa) = 22.58059 30.68753 26.63406
#
# Velocity S-wave (km/s) = 3.29059 3.83607 3.57375
# Velocity P-wave (km/s) = 5.22152 6.14416 5.70153
#
# Compressibility (1/GPa) = 0.03738415
#
# Stress axis : x y z
#
# Youngs Moduli (GPa) = 81.83304 55.56926 34.85231
#
# Poissons Ratio (x) = 0.26289 0.16668
# Poissons Ratio (y) = 0.38714 0.04352
# Poissons Ratio (z) = 0.39136 0.06939
#
# Static dielectric constant tensor:
#      x y z
#    x 1.861610 -0.026960 0.025760 
#    y -0.026960 1.807270 0.010920 
#    z 0.025760 0.010920 1.803300 
# 
# From -- ./inp_files/534012.got.cif
#   From: 2010.05.17/outbox.cif.g08.bks.cpg/sg2_268_cif.got.tgz:534012.got - 2010.06.03 11:33:40.
