data_PCOD9081081
_publ_section_title
;
Structure prediction by ZEFSAII (Michael W. Deem and Ramdas Pophale) SiO2 
 PCOD9081081
Probable space group: P -1
;
_chemical_formula_sum "Si O2"
_cell_formula_units_Z 14
_cell_length_a 14.763956
_cell_length_b 9.034271
_cell_length_c 10.272819
_cell_angle_alpha 55.271153
_cell_angle_beta 125.060735
_cell_angle_gamma 139.217280
_cell_volume 708.961902
_symmetry_space_group_name_H-M "P -1"
_symmetry_group_IT_number 2
_symmetry_cell_setting 'triclinic'
loop_
_space_group_symop_operation_xyz
x,y,z
-x,-y,-z
loop_
_atom_site_type_symbol
_atom_site_label
_atom_site_fract_x
_atom_site_fract_y
_atom_site_fract_z
Si Si1 0.697937 0.354850 0.291547
Si Si2 0.195231 0.601731 0.351753
Si Si3 0.714141 0.586111 0.674751
Si Si4 0.007999 0.378478 0.691717
Si Si5 0.157192 0.125321 0.121036
Si Si6 0.599155 0.846055 0.766400
Si Si7 0.406998 0.157712 0.549802
O O1 0.758159 0.421866 0.455699
O O2 0.833141 0.541752 0.217739
O O3 0.547754 0.305375 0.197704
O O4 0.660488 0.107794 0.352867
O O5 0.190871 0.433562 0.333331
O O6 0.317650 0.878073 0.280584
O O7 0.045458 0.554055 0.266979
O O8 0.556548 0.333985 0.661396
O O9 0.686245 0.765821 0.523511
O O10 0.782216 0.666805 0.833141
O O11 0.000000 0.500000 0.500000
O O12 0.883939 0.100035 0.718430
O O13 0.283345 0.188473 0.098220
O O14 0.000000 0.000000 0.000000
O O15 0.563323 0.796635 0.605654
#
# Coordination Sequence:
#
# PCOD9081081 Si02
#       7
#     2   2   2   2   2   2   2
#     4  10  15  29  49  75 101 128 161 205 252 298
#     4   9  15  27  48  78 101 128 163 205 246 295
#     4  10  16  27  50  75 101 125 171 208 245 283
#     4   9  19  33  52  74 103 134 165 200 250 297
#     4  10  22  37  50  70 103 139 168 201 247 300
#     4   9  15  29  51  71  96 132 168 197 243 303
#     4   9  16  25  48  81 101 121 160 217 251 282
#
# _framework density 19.747183
#
# number of rings (size 3 to 8) (size 9 to 14) (size 15 to 20)
#    0.000    2.571    2.857    3.429    0.000    0.000 
#    0.000   10.000    0.000    0.857    0.000    0.000 
#    0.000    0.000    0.000    0.000    0.000    0.000 
#
# Total GULP energy -77952.597125 kJ/mol
# GULP energy per Si atom -5568.042652 kJ/mol
# Density = 1.970224 g / cm^3
# Si number density = 19.747183 Si / 1000 Ang^3
#
#
#
# Elastic Constant Matrix: (Units=GPa)
#
#
# Indices 1 2 3 4 5 6 
#
# 1 182.5830 57.8758 21.6700 18.2411 35.8193 2.9397
# 2 57.8758 64.5991 12.2358 12.7579 5.5575 -6.0447
# 3 21.6700 12.2358 38.5396 20.8409 15.2306 0.2071
# 4 18.2411 12.7579 20.8409 23.6718 10.5250 1.5824
# 5 35.8193 5.5575 15.2306 10.5250 22.3833 9.4624
# 6 2.9397 -6.0447 0.2071 1.5824 9.4624 46.8356
#
#
#
# Elastic Compliance Matrix: (Units=1/GPa)
#
#
# Indices 1 2 3 4 5 6 
#
# 1 0.012136 -0.009946 0.003551 0.002221 -0.021331 0.002173
# 2 -0.009946 0.025815 -0.003282 -0.010688 0.016329 0.001033
# 3 0.003551 -0.003282 0.057296 -0.039420 -0.027882 0.006065
# 4 0.002221 -0.010688 -0.039420 0.087633 -0.014722 -0.001331
# 5 -0.021331 0.016329 -0.027882 -0.014722 0.108171 -0.017787
# 6 0.002173 0.001033 0.006065 -0.001331 -0.017787 0.024960
#
#
# Mechanical properties :
#
#
# Convention : Reuss Voigt Hill
#
# Bulk Modulus (GPa) = 13.17651 52.14274 32.65963
# Shear Modulus (GPa) = 13.86335 31.50748 22.68542
#
# Velocity S-wave (km/s) = 2.65248 3.99876 3.39306
# Velocity P-wave (km/s) = 4.00849 6.91249 5.65025
#
# Compressibility (1/GPa) = 0.07589263
#
# Stress axis : x y z
#
# Youngs Moduli (GPa) = 82.40025 38.73721 17.45320
#
# Poissons Ratio (x) = 0.38526 -0.06197
# Poissons Ratio (y) = 0.81952 0.05729
# Poissons Ratio (z) = -0.29259 0.12715
#
# Static dielectric constant tensor:
#      x y z
#    x 1.755210 0.023940 0.069220 
#    y 0.023940 1.673000 -0.011950 
#    z 0.069220 -0.011950 1.787000 
# 
# From -- ./inp_files/205123.got.cif
#   From: 2010.05.17/outbox.cif.g08.bks.cpg/sg2_103_cif.got.tgz:205123.got - 2010.06.03 11:33:40.
