data_PCOD9081935
_publ_section_title
;
Structure prediction by ZEFSAII (Michael W. Deem and Ramdas Pophale) SiO2 
 PCOD9081935
Probable space group: P -1
;
_chemical_formula_sum "Si O2"
_cell_formula_units_Z 15
_cell_length_a 9.267281
_cell_length_b 12.162327
_cell_length_c 15.033188
_cell_angle_alpha 153.718217
_cell_angle_beta 71.802998
_cell_angle_gamma 92.049062
_cell_volume 580.278199
_symmetry_space_group_name_H-M "P -1"
_symmetry_group_IT_number 2
_symmetry_cell_setting 'triclinic'
loop_
_space_group_symop_operation_xyz
x,y,z
-x,-y,-z
loop_
_atom_site_type_symbol
_atom_site_label
_atom_site_fract_x
_atom_site_fract_y
_atom_site_fract_z
Si Si1 0.881246 0.852754 0.244764
Si Si2 0.632445 0.277153 0.133695
Si Si3 0.295549 0.235715 0.158718
Si Si4 0.779060 0.248616 0.702301
Si Si5 0.176619 0.472715 0.624649
Si Si6 0.247027 0.831161 0.158404
Si Si7 0.000000 0.500000 0.500000
Si Si8 0.786376 0.798454 0.033465
O O1 0.045865 0.895770 0.232178
O O2 0.743782 0.068754 0.506654
O O3 0.770470 0.929683 0.229317
O O4 0.000000 0.500000 0.000000
O O5 0.452786 0.277134 0.185511
O O6 0.678830 0.457403 0.318583
O O7 0.641008 0.342791 0.077955
O O8 0.779736 0.906576 0.857853
O O9 0.097747 0.553602 0.431767
O O10 0.334428 0.060882 0.931988
O O11 0.685636 0.325814 0.872522
O O12 0.761116 0.530239 0.863826
O O13 0.000000 0.000000 0.500000
O O14 0.127625 0.552558 0.589013
O O15 0.993174 0.672705 0.867714
O O16 0.251348 0.124944 0.374874
#
# Coordination Sequence:
#
# PCOD9081935 Si02
#       8
#     2   2   2   2   2   2   1   2
#     4  11  18  32  60  95 123 164 204 257 306 358
#     4  11  24  44  63  89 126 175 201 249 326 375
#     4  10  25  45  62  91 128 159 215 260 305 377
#     4  10  19  32  57  94 128 153 206 256 306 360
#     4  11  21  36  64  92 126 162 204 252 316 366
#     4  11  20  35  60  94 123 161 205 250 299 386
#     4  10  22  40  64  94 120 154 208 268 294 360
#     4  11  20  37  61  95 123 160 208 265 298 354
#
# _framework density 25.849668999999999
#
# number of rings (size 3 to 8) (size 9 to 14) (size 15 to 20)
#    0.000    1.333    8.000    0.000    0.000    3.733 
#    0.000    0.667    0.000    1.600    0.000    0.000 
#    0.000    0.000    0.000    0.000    0.000    0.000 
#
# Total GULP energy -83663.869712 kJ/mol
# GULP energy per Si atom -5577.591314 kJ/mol
# Density = 2.579083 g / cm^3
# Si number density = 25.849669 Si / 1000 Ang^3
#
#
#
# Elastic Constant Matrix: (Units=GPa)
#
#
# Indices 1 2 3 4 5 6 
#
# 1 150.9372 34.0418 45.8169 -10.7422 39.7884 -3.3687
# 2 34.0418 132.7980 44.4187 -29.5094 20.7883 -6.2748
# 3 45.8169 44.4187 76.0652 -20.9858 36.0853 -5.8358
# 4 -10.7422 -29.5094 -20.9858 48.0762 -14.6365 18.6203
# 5 39.7884 20.7883 36.0853 -14.6365 47.1057 -7.7192
# 6 -3.3687 -6.2748 -5.8358 18.6203 -7.7192 39.6519
#
#
#
# Elastic Compliance Matrix: (Units=1/GPa)
#
#
# Indices 1 2 3 4 5 6 
#
# 1 0.009007 -0.000841 -0.002614 -0.001271 -0.005672 -0.000260
# 2 -0.000841 0.010160 -0.004744 0.004788 0.001154 -0.001186
# 3 -0.002614 -0.004744 0.025061 0.003897 -0.013987 -0.001837
# 4 -0.001271 0.004788 0.003897 0.031171 0.003577 -0.012718
# 5 -0.005672 0.001154 -0.013987 0.003577 0.037883 0.003338
# 6 -0.000260 -0.001186 -0.001837 -0.012718 0.003338 0.031362
#
#
# Mechanical properties :
#
#
# Convention : Reuss Voigt Hill
#
# Bulk Modulus (GPa) = 35.93284 67.59501 51.76393
# Shear Modulus (GPa) = 29.35683 42.66830 36.01256
#
# Velocity S-wave (km/s) = 3.37363 4.06720 3.73655
# Velocity P-wave (km/s) = 5.39501 6.94710 6.21966
#
# Compressibility (1/GPa) = 0.02782970
#
# Stress axis : x y z
#
# Youngs Moduli (GPa) = 111.01925 98.42650 39.90337
#
# Poissons Ratio (x) = 0.08283 0.10430
# Poissons Ratio (y) = 0.09342 0.18929
# Poissons Ratio (z) = 0.29020 0.46690
#
# Static dielectric constant tensor:
#      x y z
#    x 2.288490 -0.200410 -0.252390 
#    y -0.200410 2.170280 0.062770 
#    z -0.252390 0.062770 2.392210 
# 
# From -- ./inp_files/501111.got.cif
#   From: 2010.05.17/outbox.cif.g08.bks.cpg/sg2_251_cif.got.tgz:501111.got - 2010.06.03 11:33:40.
