data_PCOD9081805
_publ_section_title
;
Structure prediction by ZEFSAII (Michael W. Deem and Ramdas Pophale) SiO2 
 PCOD9081805
Probable space group: P -1
;
_chemical_formula_sum "Si O2"
_cell_formula_units_Z 16
_cell_length_a 30.782376
_cell_length_b 15.500215
_cell_length_c 11.626689
_cell_angle_alpha 154.065861
_cell_angle_beta 25.845393
_cell_angle_gamma 161.059652
_cell_volume 738.324953
_symmetry_space_group_name_H-M "P -1"
_symmetry_group_IT_number 2
_symmetry_cell_setting 'triclinic'
loop_
_space_group_symop_operation_xyz
x,y,z
-x,-y,-z
loop_
_atom_site_type_symbol
_atom_site_label
_atom_site_fract_x
_atom_site_fract_y
_atom_site_fract_z
Si Si1 0.634862 0.766406 0.646824
Si Si2 0.382061 0.934072 0.123141
Si Si3 0.637862 0.460837 0.684113
Si Si4 0.921185 0.078364 0.234424
Si Si5 0.451192 0.677780 0.518187
Si Si6 0.898989 0.311152 0.366884
Si Si7 0.755266 0.042323 0.156366
Si Si8 0.691555 0.087378 0.118123
O O1 0.538806 0.471869 0.586860
O O2 0.561530 0.808451 0.781937
O O3 0.756818 0.826651 0.358664
O O4 0.710522 0.003032 0.850956
O O5 0.246493 0.815661 0.375943
O O6 0.353029 0.716300 0.841729
O O7 0.500000 0.000000 0.000000
O O8 0.617949 0.500421 0.647048
O O9 0.711692 0.351917 0.379980
O O10 0.477849 0.194071 0.791844
O O11 0.712930 0.750624 0.913949
O O12 0.934345 0.156571 0.162828
O O13 0.984547 0.360812 0.485673
O O14 0.000000 0.000000 0.000000
O O15 0.612195 0.960927 0.438247
O O16 0.872934 0.253051 0.224156
O O17 0.777554 0.130443 0.075811
#
# Coordination Sequence:
#
# PCOD9081805 Si02
#       8
#     2   2   2   2   2   2   2   2
#     4  11  21  37  62  86 116 155 203 239 286 354
#     4  11  22  36  56  91 122 150 191 246 297 347
#     4  10  19  32  55  85 127 163 185 225 296 359
#     4  10  23  45  64  80 110 163 207 242 290 342
#     4  11  19  34  56  87 126 154 188 234 293 356
#     4  10  23  42  61  86 118 154 197 247 296 349
#     4  11  20  35  57  88 125 149 186 243 295 351
#     4  10  19  33  56  88 117 163 191 227 295 357
#
# _framework density 21.670674999999999
#
# number of rings (size 3 to 8) (size 9 to 14) (size 15 to 20)
#    0.000    1.500    5.000    1.500    0.000    1.500 
#    2.250    0.625    0.000    1.500    0.000    0.000 
#    0.000    0.000    0.000    0.000    0.000    0.000 
#
# Total GULP energy -89334.654237 kJ/mol
# GULP energy per Si atom -5583.415890 kJ/mol
# Density = 2.162135 g / cm^3
# Si number density = 21.670675 Si / 1000 Ang^3
#
#
#
# Elastic Constant Matrix: (Units=GPa)
#
#
# Indices 1 2 3 4 5 6 
#
# 1 125.1512 11.9906 10.9040 0.7760 -16.0756 -5.8623
# 2 11.9906 22.7737 -10.5021 0.8230 -4.0452 -7.6052
# 3 10.9040 -10.5021 61.0673 5.2763 -17.5544 -9.9930
# 4 0.7760 0.8230 5.2763 16.4359 0.4282 1.7296
# 5 -16.0756 -4.0452 -17.5544 0.4282 39.4387 11.9898
# 6 -5.8623 -7.6052 -9.9930 1.7296 11.9898 29.7364
#
#
#
# Elastic Compliance Matrix: (Units=1/GPa)
#
#
# Indices 1 2 3 4 5 6 
#
# 1 0.008990 -0.005812 -0.002175 0.000658 0.002553 -0.001513
# 2 -0.005812 0.063001 0.017727 -0.010735 0.006324 0.018998
# 3 -0.002175 0.017727 0.024865 -0.009988 0.009280 0.009300
# 4 0.000658 -0.010735 -0.009988 0.065529 -0.003437 -0.008398
# 5 0.002553 0.006324 0.009280 -0.003437 0.033689 -0.008144
# 6 -0.001513 0.018998 0.009300 -0.008398 -0.008144 0.045087
#
#
# Mechanical properties :
#
#
# Convention : Reuss Voigt Hill
#
# Bulk Modulus (GPa) = 8.59588 25.97524 17.28556
# Shear Modulus (GPa) = 19.19694 30.22883 24.71288
#
# Velocity S-wave (km/s) = 2.97955 3.73891 3.38062
# Velocity P-wave (km/s) = 3.97645 5.53640 4.81995
#
# Compressibility (1/GPa) = 0.11633487
#
# Stress axis : x y z
#
# Youngs Moduli (GPa) = 111.23934 15.87283 40.21745
#
# Poissons Ratio (x) = 0.09225 0.08748
# Poissons Ratio (y) = 0.64649 -0.71292
# Poissons Ratio (z) = 0.24197 -0.28137
#
# Static dielectric constant tensor:
#      x y z
#    x 1.823130 -0.000090 0.022090 
#    y -0.000090 1.791270 0.017540 
#    z 0.022090 0.017540 1.826600 
# 
# From -- ./inp_files/466856.got.cif
#   From: 2010.05.17/outbox.cif.g08.bks.cpg/sg2_234_cif.got.tgz:466856.got - 2010.06.03 11:33:40.
