data_PCOD9081759
_publ_section_title
;
Structure prediction by ZEFSAII (Michael W. Deem and Ramdas Pophale) SiO2 
 PCOD9081759
Probable space group: P -1
;
_chemical_formula_sum "Si O2"
_cell_formula_units_Z 16
_cell_length_a 19.483277
_cell_length_b 18.407883
_cell_length_c 10.958371
_cell_angle_alpha 33.322388
_cell_angle_beta 20.397230
_cell_angle_gamma 27.643848
_cell_volume 635.198373
_symmetry_space_group_name_H-M "P -1"
_symmetry_group_IT_number 2
_symmetry_cell_setting 'triclinic'
loop_
_space_group_symop_operation_xyz
x,y,z
-x,-y,-z
loop_
_atom_site_type_symbol
_atom_site_label
_atom_site_fract_x
_atom_site_fract_y
_atom_site_fract_z
Si Si1 0.683813 0.514673 0.930857
Si Si2 0.048507 0.854307 0.702411
Si Si3 0.737828 0.812447 0.122936
Si Si4 0.194633 0.815381 0.883305
Si Si5 0.486493 0.660393 0.823288
Si Si6 0.262442 0.079812 0.640611
Si Si7 0.395258 0.886972 0.235822
Si Si8 0.786838 0.639541 0.793818
O O1 0.500765 0.658065 0.949609
O O2 0.700087 0.537775 0.015100
O O3 0.934165 0.464248 0.523752
O O4 0.674139 0.361532 0.141086
O O5 0.281053 0.813581 0.442549
O O6 0.983905 0.756841 0.856258
O O7 0.861897 0.910701 0.041741
O O8 0.000000 0.000000 0.500000
O O9 0.685594 0.674343 0.399944
O O10 0.516477 0.928953 0.414877
O O11 0.687487 0.939508 0.921111
O O12 0.251030 0.792350 0.964441
O O13 0.303362 0.895500 0.512234
O O14 0.926075 0.891877 0.189359
O O15 0.500000 0.500000 0.000000
O O16 0.279324 0.230493 0.384119
O O17 0.665256 0.749520 0.958926
#
# Coordination Sequence:
#
# PCOD9081759 Si02
#       8
#     2   2   2   2   2   2   2   2
#     4   9  18  33  54  77 104 140 173 214 259 303
#     4   9  17  29  48  80 112 131 158 212 274 317
#     4  10  19  32  55  78 102 138 174 218 264 305
#     4   9  19  35  51  73 107 141 175 215 252 304
#     4  10  21  36  53  74 105 142 181 214 251 308
#     4   9  17  31  52  77 103 133 176 222 262 307
#     4   9  19  34  54  82 108 133 170 216 269 315
#     4   9  17  32  56  81 103 132 175 217 263 315
#
# _framework density 25.188980999999998
#
# number of rings (size 3 to 8) (size 9 to 14) (size 15 to 20)
#    0.000    2.750    0.000    1.125    0.000    4.500 
#    0.000    0.625    0.000    9.000    0.000    0.000 
#    0.000    0.000    0.000    0.000    0.000    0.000 
#
# Total GULP energy -89216.479478 kJ/mol
# GULP energy per Si atom -5576.029967 kJ/mol
# Density = 2.513165 g / cm^3
# Si number density = 25.188981 Si / 1000 Ang^3
#
#
#
# Elastic Constant Matrix: (Units=GPa)
#
#
# Indices 1 2 3 4 5 6 
#
# 1 73.1584 19.6243 17.0442 -2.6911 -20.9969 -14.6904
# 2 19.6243 62.0783 13.9539 -16.7462 3.5648 0.3266
# 3 17.0442 13.9539 85.5887 -26.7799 -8.9901 8.6908
# 4 -2.6911 -16.7462 -26.7799 39.1607 4.8546 0.0577
# 5 -20.9969 3.5648 -8.9901 4.8546 41.9021 3.6730
# 6 -14.6904 0.3266 8.6908 0.0577 3.6730 21.4889
#
#
#
# Elastic Compliance Matrix: (Units=1/GPa)
#
#
# Indices 1 2 3 4 5 6 
#
# 1 0.023773 -0.008917 -0.006363 -0.007885 0.010716 0.017150
# 2 -0.008917 0.021875 0.001396 0.010540 -0.006737 -0.005870
# 3 -0.006363 0.001396 0.017764 0.012313 0.000095 -0.011605
# 4 -0.007885 0.010540 0.012313 0.038659 -0.005840 -0.009636
# 5 0.010716 -0.006737 0.000095 -0.005840 0.030310 0.002225
# 6 0.017150 -0.005870 -0.011605 -0.009636 0.002225 0.062688
#
#
# Mechanical properties :
#
#
# Convention : Reuss Voigt Hill
#
# Bulk Modulus (GPa) = 28.05672 35.78559 31.92115
# Shear Modulus (GPa) = 21.30190 31.85720 26.57955
#
# Velocity S-wave (km/s) = 2.91122 3.56016 3.25192
# Velocity P-wave (km/s) = 4.73951 5.58008 5.17688
#
# Compressibility (1/GPa) = 0.03564208
#
# Stress axis : x y z
#
# Youngs Moduli (GPa) = 42.06466 45.71451 56.29238
#
# Poissons Ratio (x) = 0.40766 0.35821
# Poissons Ratio (y) = 0.37511 -0.07857
# Poissons Ratio (z) = 0.26767 -0.06380
#
# Static dielectric constant tensor:
#      x y z
#    x 1.760540 0.123260 -0.333950 
#    y 0.123260 2.056080 -0.016790 
#    z -0.333950 -0.016790 1.868020 
# 
# From -- ./inp_files/262167.got.cif
#   From: 2010.05.17/outbox.cif.g08.bks.cpg/sg2_132_cif.got.tgz:262167.got - 2010.06.03 11:33:40.
