data_PCOD9081722
_publ_section_title
;
Structure prediction by ZEFSAII (Michael W. Deem and Ramdas Pophale) SiO2 
 PCOD9081722
Probable space group: P -1
;
_chemical_formula_sum "Si O2"
_cell_formula_units_Z 12
_cell_length_a 10.766954
_cell_length_b 10.738849
_cell_length_c 6.921075
_cell_angle_alpha 91.610502
_cell_angle_beta 141.835329
_cell_angle_gamma 95.725799
_cell_volume 484.580595
_symmetry_space_group_name_H-M "P -1"
_symmetry_group_IT_number 2
_symmetry_cell_setting 'triclinic'
loop_
_space_group_symop_operation_xyz
x,y,z
-x,-y,-z
loop_
_atom_site_type_symbol
_atom_site_label
_atom_site_fract_x
_atom_site_fract_y
_atom_site_fract_z
Si Si1 0.877883 0.170576 0.366041
Si Si2 0.952525 0.392175 0.208490
Si Si3 0.135587 0.661445 0.317319
Si Si4 0.866279 0.969523 0.035224
Si Si5 0.443787 0.520993 0.145378
Si Si6 0.666724 0.702811 0.722176
O O1 0.016850 0.288672 0.423811
O O2 0.757478 0.243174 0.379711
O O3 0.987942 0.086170 0.637387
O O4 0.793461 0.080088 0.076830
O O5 0.884876 0.487496 0.664788
O O6 0.828347 0.323589 0.867079
O O7 0.785238 0.453976 0.117161
O O8 0.900359 0.684421 0.031717
O O9 0.679469 0.851905 0.762481
O O10 0.000000 0.000000 0.000000
O O11 0.583851 0.644677 0.415701
O O12 0.456172 0.394036 0.276478
O O13 0.500000 0.500000 0.000000
#
# Coordination Sequence:
#
# PCOD9081722 Si02
#       6
#     2   2   2   2   2   2
#     4  10  19  32  54  83 111 144 185 228 283 334
#     4  10  20  34  55  86 114 146 189 239 284 329
#     4   9  19  34  57  84 115 146 186 241 284 327
#     4  10  21  36  57  84 116 150 189 238 282 331
#     4  10  22  38  59  83 115 152 185 228 286 346
#     4   9  20  38  57  83 113 149 191 228 279 338
#
# _framework density 24.763683
#
# number of rings (size 3 to 8) (size 9 to 14) (size 15 to 20)
#    0.000    2.333    0.000    2.500    0.000   14.667 
#    0.000    0.833    0.000    3.000    0.000    0.000 
#    0.000    0.000    0.000    0.000    0.000    0.000 
#
# Total GULP energy -66956.964750 kJ/mol
# GULP energy per Si atom -5579.747063 kJ/mol
# Density = 2.470732 g / cm^3
# Si number density = 24.763683 Si / 1000 Ang^3
#
#
#
# Elastic Constant Matrix: (Units=GPa)
#
#
# Indices 1 2 3 4 5 6 
#
# 1 103.5657 32.8014 50.5228 13.4194 -55.1477 1.0888
# 2 32.8014 134.5058 58.6593 19.0914 -37.3797 1.9623
# 3 50.5228 58.6593 125.4362 20.7790 -49.2845 3.7057
# 4 13.4194 19.0914 20.7790 65.2087 -11.7687 -17.5848
# 5 -55.1477 -37.3797 -49.2845 -11.7687 62.4962 1.8760
# 6 1.0888 1.9623 3.7057 -17.5848 1.8760 28.3342
#
#
#
# Elastic Compliance Matrix: (Units=1/GPa)
#
#
# Indices 1 2 3 4 5 6 
#
# 1 0.018597 0.000612 -0.001376 -0.001446 0.015495 -0.002500
# 2 0.000612 0.009959 -0.003060 -0.001844 0.003788 -0.001708
# 3 -0.001376 -0.003060 0.013282 -0.002773 0.007018 -0.003658
# 4 -0.001446 -0.001844 -0.002773 0.020444 -0.001116 0.013308
# 5 0.015495 0.003788 0.007018 -0.001116 0.037412 -0.004945
# 6 -0.002500 -0.001708 -0.003658 0.013308 -0.004945 0.044572
#
#
# Mechanical properties :
#
#
# Convention : Reuss Voigt Hill
#
# Bulk Modulus (GPa) = 29.24595 71.94162 50.59379
# Shear Modulus (GPa) = 30.61666 45.97609 38.29637
#
# Velocity S-wave (km/s) = 3.52000 4.31350 3.93679
# Velocity P-wave (km/s) = 5.32505 7.34320 6.41400
#
# Compressibility (1/GPa) = 0.03419277
#
# Stress axis : x y z
#
# Youngs Moduli (GPa) = 53.77119 100.41175 75.29071
#
# Poissons Ratio (x) = -0.06150 0.10357
# Poissons Ratio (y) = -0.03293 0.23036
# Poissons Ratio (z) = 0.07397 0.30722
#
# Static dielectric constant tensor:
#      x y z
#    x 2.038790 -0.048730 0.015680 
#    y -0.048730 2.001160 0.019950 
#    z 0.015680 0.019950 2.070560 
# 
# From -- ./inp_files/62357.got.cif
#   From: 2010.05.17/outbox.cif.g08.bks.cpg/sg2_32_cif.got.tgz:62357.got - 2010.06.03 11:33:40.
