data_PCOD9081507
_publ_section_title
;
Structure prediction by ZEFSAII (Michael W. Deem and Ramdas Pophale) SiO2 
 PCOD9081507
Probable space group: P -1
;
_chemical_formula_sum "Si O2"
_cell_formula_units_Z 16
_cell_length_a 14.183742
_cell_length_b 21.555870
_cell_length_c 10.440207
_cell_angle_alpha 150.604215
_cell_angle_beta 149.797418
_cell_angle_gamma 27.425223
_cell_volume 660.709677
_symmetry_space_group_name_H-M "P -1"
_symmetry_group_IT_number 2
_symmetry_cell_setting 'triclinic'
loop_
_space_group_symop_operation_xyz
x,y,z
-x,-y,-z
loop_
_atom_site_type_symbol
_atom_site_label
_atom_site_fract_x
_atom_site_fract_y
_atom_site_fract_z
Si Si1 0.503347 0.056650 0.462783
Si Si2 0.892328 0.036704 0.760023
Si Si3 0.716901 0.725398 0.103062
Si Si4 0.634275 0.347381 0.688284
Si Si5 0.808565 0.448922 0.566925
Si Si6 0.042586 0.202026 0.074908
Si Si7 0.305715 0.711952 0.649897
Si Si8 0.683808 0.038182 0.253502
O O1 0.689606 0.091945 0.717748
O O2 0.598191 0.893815 0.212103
O O3 0.500000 0.000000 0.500000
O O4 0.266414 0.188250 0.364191
O O5 0.106521 0.876210 0.756401
O O6 0.817342 0.003785 0.479195
O O7 0.956085 0.154957 0.010779
O O8 0.929042 0.678745 0.357188
O O9 0.802133 0.600880 0.867501
O O10 0.530149 0.711190 0.929139
O O11 0.385061 0.498884 0.671922
O O12 0.707410 0.317372 0.569938
O O13 0.606159 0.209878 0.444184
O O14 0.827945 0.333784 0.982400
O O15 0.717975 0.402717 0.498508
O O16 0.152909 0.066302 0.856016
O O17 0.500000 0.000000 0.000000
#
# Coordination Sequence:
#
# PCOD9081507 Si02
#       8
#     2   2   2   2   2   2   2   2
#     4  12  25  39  58  83 116 160 202 240 285 339
#     4  11  20  34  58  84 118 151 190 237 298 346
#     4  10  20  35  52  80 117 143 188 238 274 342
#     4  10  19  32  50  86 120 147 184 229 292 364
#     4  10  21  34  57  87 119 154 181 232 300 349
#     4  11  20  38  54  82 121 151 190 246 288 349
#     4  11  18  34  56  87 120 147 188 226 295 355
#     4  11  19  30  56  85 118 154 178 237 306 350
#
# _framework density 24.216386
#
# number of rings (size 3 to 8) (size 9 to 14) (size 15 to 20)
#    0.000    1.250    6.250    3.000    0.000    0.500 
#    2.250    0.000    0.000    0.750    0.000    8.750 
#    0.000    0.000    0.000    0.000    0.000    0.000 
#
# Total GULP energy -89385.654990 kJ/mol
# GULP energy per Si atom -5586.603437 kJ/mol
# Density = 2.416127 g / cm^3
# Si number density = 24.216386 Si / 1000 Ang^3
#
#
#
# Elastic Constant Matrix: (Units=GPa)
#
#
# Indices 1 2 3 4 5 6 
#
# 1 106.1616 19.1385 41.1440 -10.1288 14.9129 13.3655
# 2 19.1385 110.3680 51.6884 -48.7153 6.6742 11.4298
# 3 41.1440 51.6884 90.7134 -41.8629 8.7300 -2.8249
# 4 -10.1288 -48.7153 -41.8629 53.9823 -1.8596 7.6818
# 5 14.9129 6.6742 8.7300 -1.8596 37.8814 -4.1778
# 6 13.3655 11.4298 -2.8249 7.6818 -4.1778 27.0009
#
#
#
# Elastic Compliance Matrix: (Units=1/GPa)
#
#
# Indices 1 2 3 4 5 6 
#
# 1 0.013763 0.002483 -0.007294 0.000343 -0.005209 -0.009531
# 2 0.002483 0.020461 -0.004899 0.017256 -0.004370 -0.015989
# 3 -0.007294 -0.004899 0.022284 0.010784 -0.000332 0.004897
# 4 0.000343 0.017256 0.010784 0.045187 -0.005657 -0.020077
# 5 -0.005209 -0.004370 -0.000332 -0.005657 0.030195 0.010675
# 6 -0.009531 -0.015989 0.004897 -0.020077 0.010675 0.056398
#
#
# Mechanical properties :
#
#
# Convention : Reuss Voigt Hill
#
# Bulk Modulus (GPa) = 26.96239 59.02051 42.99145
# Shear Modulus (GPa) = 22.71993 36.79104 29.75549
#
# Velocity S-wave (km/s) = 3.06634 3.90200 3.50913
# Velocity P-wave (km/s) = 4.86772 6.68774 5.84895
#
# Compressibility (1/GPa) = 0.03708869
#
# Stress axis : x y z
#
# Youngs Moduli (GPa) = 72.65656 48.87342 44.87436
#
# Poissons Ratio (x) = -0.12136 0.32733
# Poissons Ratio (y) = -0.18041 0.21982
# Poissons Ratio (z) = 0.52999 0.23941
#
# Static dielectric constant tensor:
#      x y z
#    x 1.962310 -0.062160 -0.059750 
#    y -0.062160 1.987870 -0.022320 
#    z -0.059750 -0.022320 2.006190 
# 
# From -- ./inp_files/425528.got.cif
#   From: 2010.05.17/outbox.cif.g08.bks.cpg/sg2_213_cif.got.tgz:425528.got - 2010.06.03 11:33:40.
