data_PCOD9081571
_publ_section_title
;
Structure prediction by ZEFSAII (Michael W. Deem and Ramdas Pophale) SiO2 
 PCOD9081571
Probable space group: P -1
;
_chemical_formula_sum "Si O2"
_cell_formula_units_Z 14
_cell_length_a 16.971807
_cell_length_b 11.424958
_cell_length_c 7.140051
_cell_angle_alpha 133.458463
_cell_angle_beta 56.261702
_cell_angle_gamma 149.365942
_cell_volume 509.585167
_symmetry_space_group_name_H-M "P -1"
_symmetry_group_IT_number 2
_symmetry_cell_setting 'triclinic'
loop_
_space_group_symop_operation_xyz
x,y,z
-x,-y,-z
loop_
_atom_site_type_symbol
_atom_site_label
_atom_site_fract_x
_atom_site_fract_y
_atom_site_fract_z
Si Si1 0.404197 0.789361 0.558207
Si Si2 0.106695 0.264665 0.386484
Si Si3 0.868999 0.376096 0.365914
Si Si4 0.170926 0.271781 0.712917
Si Si5 0.218256 0.980788 0.154122
Si Si6 0.306357 0.990893 0.449647
Si Si7 0.550331 0.486778 0.219590
O O1 0.284031 0.482985 0.321580
O O2 0.276380 0.755831 0.715803
O O3 0.532029 0.892507 0.641357
O O4 0.500000 0.000000 0.500000
O O5 0.038705 0.331861 0.447270
O O6 0.142430 0.342388 0.648141
O O7 0.978507 0.952832 0.205183
O O8 0.806952 0.244906 0.507984
O O9 0.911930 0.274603 0.085838
O O10 0.330773 0.495932 0.862523
O O11 0.182884 0.113077 0.417723
O O12 0.237817 0.911567 0.246368
O O13 0.380057 0.206907 0.069887
O O14 0.360516 0.247802 0.708968
O O15 0.500000 0.500000 0.500000
#
# Coordination Sequence:
#
# PCOD9081571 Si02
#       7
#     2   2   2   2   2   2   2
#     4   8  15  29  48  72 101 125 162 206 245 294
#     4   9  17  31  52  75 100 137 171 201 255 308
#     4   9  20  30  50  82  98 128 172 208 257 294
#     4   9  17  32  52  72 102 138 170 204 248 307
#     4  10  19  32  52  78 101 131 170 212 249 297
#     4   9  16  33  51  72 104 132 165 209 253 292
#     4   8  16  29  49  70  98 133 168 199 247 299
#
# _framework density 27.473326
#
# number of rings (size 3 to 8) (size 9 to 14) (size 15 to 20)
#    0.857    2.571    0.000    2.571    0.000    1.714 
#    0.000    2.857    0.000    0.000    0.000   14.000 
#    0.000    0.000    0.000    0.000    0.000    0.000 
#
# Total GULP energy -78016.316364 kJ/mol
# GULP energy per Si atom -5572.594026 kJ/mol
# Density = 2.741080 g / cm^3
# Si number density = 27.473326 Si / 1000 Ang^3
#
#
#
# Elastic Constant Matrix: (Units=GPa)
#
#
# Indices 1 2 3 4 5 6 
#
# 1 106.9242 48.3306 14.9075 -7.0346 12.1560 -19.6496
# 2 48.3306 172.4600 15.2340 6.5268 18.5725 -36.6057
# 3 14.9075 15.2340 72.4441 -3.9128 6.8475 -15.9393
# 4 -7.0346 6.5268 -3.9128 23.6746 -8.8326 1.5307
# 5 12.1560 18.5725 6.8475 -8.8326 17.0077 3.5755
# 6 -19.6496 -36.6057 -15.9393 1.5307 3.5755 53.3917
#
#
#
# Elastic Compliance Matrix: (Units=1/GPa)
#
#
# Indices 1 2 3 4 5 6 
#
# 1 0.011667 -0.002011 -0.000685 0.001592 -0.005680 0.003045
# 2 -0.002011 0.010182 0.001099 -0.010102 -0.017051 0.008000
# 3 -0.000685 0.001099 0.015783 -0.001705 -0.009186 0.005877
# 4 0.001592 -0.010102 -0.001705 0.063058 0.045792 -0.011723
# 5 -0.005680 -0.017051 -0.009186 0.045792 0.114315 -0.025491
# 6 0.003045 0.008000 0.005877 -0.011723 -0.025491 0.029133
#
#
# Mechanical properties :
#
#
# Convention : Reuss Voigt Hill
#
# Bulk Modulus (GPa) = 29.03844 56.53028 42.78436
# Shear Modulus (GPa) = 19.31914 37.03855 28.17885
#
# Velocity S-wave (km/s) = 2.65466 3.67572 3.20610
# Velocity P-wave (km/s) = 4.47090 6.21576 5.41408
#
# Compressibility (1/GPa) = 0.03443711
#
# Stress axis : x y z
#
# Youngs Moduli (GPa) = 85.71055 98.21604 63.35978
#
# Poissons Ratio (x) = 0.19754 0.04340
# Poissons Ratio (y) = 0.17239 -0.06964
# Poissons Ratio (z) = 0.05872 -0.10795
#
# Static dielectric constant tensor:
#      x y z
#    x 2.299700 0.091180 -0.059170 
#    y 0.091180 2.350000 0.099560 
#    z -0.059170 0.099560 2.199870 
# 
# From -- ./inp_files/344785.got.cif
#   From: 2010.05.17/outbox.cif.g08.bks.cpg/sg2_173_cif.got.tgz:344785.got - 2010.06.03 11:33:40.
