data_PCOD9081396
_publ_section_title
;
Structure prediction by ZEFSAII (Michael W. Deem and Ramdas Pophale) SiO2 
 PCOD9081396
Probable space group: P -1
;
_chemical_formula_sum "Si O2"
_cell_formula_units_Z 16
_cell_length_a 22.552560
_cell_length_b 8.608414
_cell_length_c 12.496400
_cell_angle_alpha 33.044107
_cell_angle_beta 27.871742
_cell_angle_gamma 40.420041
_cell_volume 616.483511
_symmetry_space_group_name_H-M "P -1"
_symmetry_group_IT_number 2
_symmetry_cell_setting 'triclinic'
loop_
_space_group_symop_operation_xyz
x,y,z
-x,-y,-z
loop_
_atom_site_type_symbol
_atom_site_label
_atom_site_fract_x
_atom_site_fract_y
_atom_site_fract_z
Si Si1 0.740259 0.226398 0.039118
Si Si2 0.320645 0.673126 0.374857
Si Si3 0.068666 0.364214 0.263881
Si Si4 0.188209 0.776959 0.317950
Si Si5 0.817151 0.043748 0.245128
Si Si6 0.524232 0.063367 0.760442
Si Si7 0.460478 0.323913 0.504332
Si Si8 0.141396 0.181358 0.471635
O O1 0.767478 0.187408 0.893666
O O2 0.769365 0.557073 0.822998
O O3 0.816659 0.036740 0.119635
O O4 0.591201 0.212466 0.305261
O O5 0.279423 0.621626 0.349565
O O6 0.347329 0.389301 0.564634
O O7 0.219091 0.893945 0.469560
O O8 0.452876 0.825285 0.071931
O O9 0.938548 0.394034 0.388726
O O10 0.146272 0.086826 0.252914
O O11 0.041512 0.278171 0.481107
O O12 0.153404 0.629065 0.969284
O O13 0.672086 0.988305 0.540887
O O14 0.897665 0.876129 0.309814
O O15 0.444026 0.114894 0.749533
O O16 0.519930 0.368527 0.649547
#
# Coordination Sequence:
#
# PCOD9081396 Si02
#       8
#     2   2   2   2   2   2   2   2
#     4  10  21  38  56  88 125 149 185 243 299 339
#     4  11  20  35  60  85 116 157 195 227 280 352
#     4   9  22  44  62  80 111 158 204 239 280 343
#     4  10  23  42  59  80 123 161 186 236 298 349
#     4  10  20  37  65  90 112 148 202 245 280 334
#     4  10  19  32  58  91 114 143 195 242 276 331
#     4  10  19  31  57  86 116 149 187 236 282 334
#     4  10  19  35  63  90 108 150 204 243 278 332
#
# _framework density 25.953652999999999
#
# number of rings (size 3 to 8) (size 9 to 14) (size 15 to 20)
#    0.000    2.000    2.500    1.125    5.250    2.500 
#    0.000   15.625    0.000    0.000    0.000    0.000 
#    0.000    0.000    0.000    0.000    0.000    0.000 
#
# Total GULP energy -89584.173186 kJ/mol
# GULP energy per Si atom -5599.010824 kJ/mol
# Density = 2.589458 g / cm^3
# Si number density = 25.953653 Si / 1000 Ang^3
#
#
#
# Elastic Constant Matrix: (Units=GPa)
#
#
# Indices 1 2 3 4 5 6 
#
# 1 214.8170 22.8593 36.9384 -2.8627 37.9617 -20.9011
# 2 22.8593 50.3935 0.2447 -1.6697 7.9135 11.8969
# 3 36.9384 0.2447 60.2892 -9.0334 17.8330 -1.3320
# 4 -2.8627 -1.6697 -9.0334 36.9741 1.2190 10.1263
# 5 37.9617 7.9135 17.8330 1.2190 50.3466 -5.6612
# 6 -20.9011 11.8969 -1.3320 10.1263 -5.6612 30.8711
#
#
#
# Elastic Compliance Matrix: (Units=1/GPa)
#
#
# Indices 1 2 3 4 5 6 
#
# 1 0.006727 -0.004225 -0.003592 -0.002199 -0.002372 0.006313
# 2 -0.004225 0.026366 0.004407 0.006399 -0.004445 -0.015745
# 3 -0.003592 0.004407 0.021664 0.007293 -0.006599 -0.006798
# 4 -0.002199 0.006399 0.007293 0.033307 -0.004468 -0.015385
# 5 -0.002372 -0.004445 -0.006599 -0.004468 0.025465 0.005958
# 6 0.006313 -0.015745 -0.006798 -0.015385 0.005958 0.048581
#
#
# Mechanical properties :
#
#
# Convention : Reuss Voigt Hill
#
# Bulk Modulus (GPa) = 20.86071 49.50939 35.18505
# Shear Modulus (GPa) = 27.04041 41.33551 34.18796
#
# Velocity S-wave (km/s) = 3.23131 3.99515 3.63336
# Velocity P-wave (km/s) = 4.68796 6.35603 5.58462
#
# Compressibility (1/GPa) = 0.04793701
#
# Stress axis : x y z
#
# Youngs Moduli (GPa) = 148.66351 37.92777 46.15908
#
# Poissons Ratio (x) = 0.16023 0.16582
# Poissons Ratio (y) = 0.62805 -0.20343
# Poissons Ratio (z) = 0.53405 -0.16715
#
# Static dielectric constant tensor:
#      x y z
#    x 2.102780 -0.007870 0.002790 
#    y -0.007870 2.014270 0.027090 
#    z 0.002790 0.027090 1.964650 
# 
# From -- ./inp_files/474087.got.cif
#   From: 2010.05.17/outbox.cif.g08.bks.cpg/sg2_238_cif.got.tgz:474087.got - 2010.06.03 11:33:40.
