data_PCOD9081155
_publ_section_title
;
Structure prediction by ZEFSAII (Michael W. Deem and Ramdas Pophale) SiO2 
 PCOD9081155
Probable space group: P -1
;
_chemical_formula_sum "Si O2"
_cell_formula_units_Z 14
_cell_length_a 12.698002
_cell_length_b 9.213612
_cell_length_c 9.671217
_cell_angle_alpha 134.789765
_cell_angle_beta 39.321246
_cell_angle_gamma 114.841382
_cell_volume 488.819796
_symmetry_space_group_name_H-M "P -1"
_symmetry_group_IT_number 2
_symmetry_cell_setting 'triclinic'
loop_
_space_group_symop_operation_xyz
x,y,z
-x,-y,-z
loop_
_atom_site_type_symbol
_atom_site_label
_atom_site_fract_x
_atom_site_fract_y
_atom_site_fract_z
Si Si1 0.199465 0.103760 0.450459
Si Si2 0.302234 0.508650 0.725679
Si Si3 0.171390 0.652399 0.674160
Si Si4 0.990006 0.191018 0.444146
Si Si5 0.656428 0.849365 0.916345
Si Si6 0.202550 0.387683 0.030474
Si Si7 0.448954 0.745391 0.272602
O O1 0.255004 0.290899 0.591754
O O2 0.340456 0.000797 0.118726
O O3 0.047607 0.198398 0.553452
O O4 0.126498 0.966279 0.537831
O O5 0.500000 0.500000 0.500000
O O6 0.198515 0.670221 0.823455
O O7 0.257260 0.522686 0.940792
O O8 0.276612 0.401187 0.366993
O O9 0.275308 0.780238 0.561336
O O10 0.966412 0.691320 0.883452
O O11 0.878027 0.415707 0.651676
O O12 0.180014 0.131211 0.144426
O O13 0.480092 0.880472 0.198398
O O14 0.387554 0.242103 0.790397
O O15 0.500000 0.500000 0.000000
#
# Coordination Sequence:
#
# PCOD9081155 Si02
#       7
#     2   2   2   2   2   2   2
#     4   8  16  33  52  78 104 140 168 215 267 313
#     4  11  19  32  53  76 113 135 169 219 269 310
#     4   9  18  31  45  77 107 131 167 216 262 308
#     4   8  16  31  53  80 104 130 182 213 258 315
#     4   7  14  28  50  69 103 136 165 205 260 300
#     4  11  20  31  55  84 100 137 178 216 264 310
#     4  10  19  31  49  77 112 137 167 223 264 301
#
# _framework density 28.640411
#
# number of rings (size 3 to 8) (size 9 to 14) (size 15 to 20)
#    0.857    2.000    2.857    0.429    0.000    5.143 
#    0.000    0.714    0.000    0.857    0.000    3.000 
#    0.000    0.000    0.000    0.000    0.000    0.000 
#
# Total GULP energy -78189.141341 kJ/mol
# GULP energy per Si atom -5584.938667 kJ/mol
# Density = 2.857522 g / cm^3
# Si number density = 28.640411 Si / 1000 Ang^3
#
#
#
# Elastic Constant Matrix: (Units=GPa)
#
#
# Indices 1 2 3 4 5 6 
#
# 1 83.4518 4.5747 36.5190 -7.9425 -23.2792 4.9514
# 2 4.5747 111.4612 55.2826 -34.4408 2.8057 5.1729
# 3 36.5190 55.2826 154.2328 -60.5333 -20.7259 1.2966
# 4 -7.9425 -34.4408 -60.5333 70.5881 -0.7617 3.9410
# 5 -23.2792 2.8057 -20.7259 -0.7617 61.1807 -20.4578
# 6 4.9514 5.1729 1.2966 3.9410 -20.4578 34.0639
#
#
#
# Elastic Compliance Matrix: (Units=1/GPa)
#
#
# Indices 1 2 3 4 5 6 
#
# 1 0.014611 0.000662 -0.003484 -0.001015 0.004600 0.000788
# 2 0.000662 0.011884 -0.003580 0.002982 -0.002720 -0.003744
# 3 -0.003484 -0.003580 0.012386 0.008420 0.003763 0.001864
# 4 -0.001015 0.002982 0.008420 0.022868 0.001902 -0.002129
# 5 0.004600 -0.002720 0.003763 0.001902 0.024164 0.013893
# 6 0.000788 -0.003744 0.001864 -0.002129 0.013893 0.038330
#
#
# Mechanical properties :
#
#
# Convention : Reuss Voigt Hill
#
# Bulk Modulus (GPa) = 38.34580 60.21093 49.27837
# Shear Modulus (GPa) = 34.30800 50.01783 42.16292
#
# Velocity S-wave (km/s) = 3.46481 4.18354 3.84102
# Velocity P-wave (km/s) = 5.42442 6.66368 6.07573
#
# Compressibility (1/GPa) = 0.02607848
#
# Stress axis : x y z
#
# Youngs Moduli (GPa) = 68.44178 84.14729 80.73391
#
# Poissons Ratio (x) = -0.05573 0.28125
# Poissons Ratio (y) = -0.04533 0.28903
# Poissons Ratio (z) = 0.23843 0.30125
#
# Static dielectric constant tensor:
#      x y z
#    x 2.376620 -0.026710 0.083410 
#    y -0.026710 2.266810 0.000830 
#    z 0.083410 0.000830 2.294970 
# 
# From -- ./inp_files/449215.got.cif
#   From: 2010.05.17/outbox.cif.g08.bks.cpg/sg2_225_cif.got.tgz:449215.got - 2010.06.03 11:33:40.
