data_PCOD9081726
_publ_section_title
;
Structure prediction by ZEFSAII (Michael W. Deem and Ramdas Pophale) SiO2 
 PCOD9081726
Probable space group: P -1
;
_chemical_formula_sum "Si O2"
_cell_formula_units_Z 16
_cell_length_a 11.678031
_cell_length_b 10.837892
_cell_length_c 8.728648
_cell_angle_alpha 46.794928
_cell_angle_beta 76.309522
_cell_angle_gamma 81.257229
_cell_volume 782.299262
_symmetry_space_group_name_H-M "P -1"
_symmetry_group_IT_number 2
_symmetry_cell_setting 'triclinic'
loop_
_space_group_symop_operation_xyz
x,y,z
-x,-y,-z
loop_
_atom_site_type_symbol
_atom_site_label
_atom_site_fract_x
_atom_site_fract_y
_atom_site_fract_z
Si Si1 0.135610 0.512329 0.493557
Si Si2 0.362399 0.022951 0.052071
Si Si3 0.018398 0.035342 0.717523
Si Si4 0.833260 0.145661 0.936185
Si Si5 0.169812 0.569731 0.799938
Si Si6 0.353191 0.354097 0.622082
Si Si7 0.392875 0.698575 0.501040
Si Si8 0.936171 0.762426 0.756770
O O1 0.189282 0.656783 0.243112
O O2 0.140708 0.552148 0.641100
O O3 0.223779 0.354705 0.586647
O O4 0.000000 0.500000 0.500000
O O5 0.280460 0.957842 0.995015
O O6 0.342598 0.881047 0.310103
O O7 0.500000 0.000000 0.000000
O O8 0.346814 0.225823 0.878897
O O9 0.930757 0.917020 0.745130
O O10 0.075874 0.167784 0.469590
O O11 0.114347 0.921116 0.866989
O O12 0.937605 0.117684 0.802232
O O13 0.303486 0.636411 0.713347
O O14 0.069560 0.693320 0.786765
O O15 0.148224 0.390877 0.039709
O O16 0.376070 0.548469 0.505401
O O17 0.465170 0.297784 0.532955
#
# Coordination Sequence:
#
# PCOD9081726 Si02
#       8
#     2   2   2   2   2   2   2   2
#     4  11  21  34  52  88 120 148 180 241 298 343
#     4  10  19  32  54  83 117 145 183 236 295 339
#     4  10  22  35  54  80 116 149 193 236 290 342
#     4  11  21  36  54  85 119 144 188 251 288 335
#     4  10  19  34  55  76 112 150 193 234 281 341
#     4   9  19  30  52  78 119 145 181 226 303 327
#     4   9  17  35  50  82 113 141 188 243 272 340
#     4  10  20  36  52  81 113 159 192 228 287 354
#
# _framework density 20.452529999999999
#
# number of rings (size 3 to 8) (size 9 to 14) (size 15 to 20)
#    0.000    2.000    3.750    0.750    7.000    0.000 
#    0.000    0.000    0.000    0.000    0.000   43.750 
#    0.000    0.000    0.000    0.000    0.000    0.000 
#
# Total GULP energy -89122.602903 kJ/mol
# GULP energy per Si atom -5570.162681 kJ/mol
# Density = 2.040598 g / cm^3
# Si number density = 20.452530 Si / 1000 Ang^3
#
#
#
# Elastic Constant Matrix: (Units=GPa)
#
#
# Indices 1 2 3 4 5 6 
#
# 1 109.4374 12.5165 39.9474 -2.2548 5.0831 -13.5041
# 2 12.5165 20.5952 18.7741 -4.5379 0.9348 -8.4428
# 3 39.9474 18.7741 155.2109 -19.4148 0.0311 -7.7767
# 4 -2.2548 -4.5379 -19.4148 23.4494 -3.3849 5.1531
# 5 5.0831 0.9348 0.0311 -3.3849 34.4383 -2.7983
# 6 -13.5041 -8.4428 -7.7767 5.1531 -2.7983 24.5820
#
#
#
# Elastic Compliance Matrix: (Units=1/GPa)
#
#
# Indices 1 2 3 4 5 6 
#
# 1 0.011010 -0.002990 -0.002602 -0.002904 -0.001450 0.004642
# 2 -0.002990 0.063475 -0.005576 0.003563 0.000512 0.017706
# 3 -0.002602 -0.005576 0.008474 0.006238 0.000990 -0.001859
# 4 -0.002904 0.003563 0.006238 0.050758 0.004624 -0.008512
# 5 -0.001450 0.000512 0.000990 0.004624 0.029864 0.002123
# 6 0.004642 0.017706 -0.001859 -0.008512 0.002123 0.050749
#
#
# Mechanical properties :
#
#
# Convention : Reuss Voigt Hill
#
# Bulk Modulus (GPa) = 16.49542 47.52436 32.00989
# Shear Modulus (GPa) = 19.46486 30.76099 25.11293
#
# Velocity S-wave (km/s) = 3.08832 3.88238 3.50789
# Velocity P-wave (km/s) = 4.56067 6.58665 5.66497
#
# Compressibility (1/GPa) = 0.06062288
#
# Stress axis : x y z
#
# Youngs Moduli (GPa) = 90.82802 15.75423 118.00773
#
# Poissons Ratio (x) = 0.04711 0.30710
# Poissons Ratio (y) = 0.27158 0.65796
# Poissons Ratio (z) = 0.23637 0.08784
#
# Static dielectric constant tensor:
#      x y z
#    x 1.779320 -0.002090 -0.020380 
#    y -0.002090 1.800830 -0.043080 
#    z -0.020380 -0.043080 1.773130 
# 
# From -- ./inp_files/255810.got.cif
#   From: 2010.05.17/outbox.cif.g08.bks.cpg/sg2_128_cif.got.tgz:255810.got - 2010.06.03 11:33:40.
