data_PCOD9081377
_publ_section_title
;
Structure prediction by ZEFSAII (Michael W. Deem and Ramdas Pophale) SiO2 
 PCOD9081377
Probable space group: P -1
;
_chemical_formula_sum "Si O2"
_cell_formula_units_Z 14
_cell_length_a 12.006791
_cell_length_b 6.999201
_cell_length_c 8.663803
_cell_angle_alpha 75.900492
_cell_angle_beta 113.458811
_cell_angle_gamma 123.854024
_cell_volume 554.443576
_symmetry_space_group_name_H-M "P -1"
_symmetry_group_IT_number 2
_symmetry_cell_setting 'triclinic'
loop_
_space_group_symop_operation_xyz
x,y,z
-x,-y,-z
loop_
_atom_site_type_symbol
_atom_site_label
_atom_site_fract_x
_atom_site_fract_y
_atom_site_fract_z
Si Si1 0.587389 0.931311 0.945352
Si Si2 0.743589 0.355796 0.782601
Si Si3 0.942989 0.875516 0.834058
Si Si4 0.631422 0.329999 0.389501
Si Si5 0.101531 0.264197 0.618054
Si Si6 0.456790 0.311944 0.738046
Si Si7 0.195880 0.018731 0.481715
O O1 0.733318 0.151344 0.922832
O O2 0.494109 0.844184 0.756389
O O3 0.500000 0.000000 0.000000
O O4 0.590184 0.744358 0.096331
O O5 0.884733 0.605649 0.833991
O O6 0.696625 0.285612 0.589985
O O7 0.614636 0.376270 0.779553
O O8 0.811007 0.912195 0.709589
O O9 0.069450 0.059271 0.757251
O O10 0.000000 0.000000 0.000000
O O11 0.769229 0.484941 0.326972
O O12 0.568360 0.489114 0.373826
O O13 0.945507 0.228126 0.521675
O O14 0.151673 0.187505 0.509999
O O15 0.343429 0.085689 0.622113
#
# Coordination Sequence:
#
# PCOD9081377 Si02
#       7
#     2   2   2   2   2   2   2
#     4  10  24  36  53  84 120 150 180 233 291 330
#     4  11  21  37  57  85 119 146 183 235 285 335
#     4  10  19  31  56  85 105 143 190 235 266 328
#     4  11  19  37  63  82 108 154 193 228 268 342
#     4   8  16  31  53  80 103 140 190 225 270 318
#     4  10  20  35  57  87 115 145 191 231 276 329
#     4   8  15  32  51  80 105 144 177 230 266 319
#
# _framework density 25.250540999999998
#
# number of rings (size 3 to 8) (size 9 to 14) (size 15 to 20)
#    0.857    1.429    2.857    1.286    4.000    0.000 
#    0.000    0.000    0.000   15.429    0.000    0.000 
#    0.000    0.000    0.000    0.000    0.000    0.000 
#
# Total GULP energy -77935.819168 kJ/mol
# GULP energy per Si atom -5566.844226 kJ/mol
# Density = 2.519307 g / cm^3
# Si number density = 25.250541 Si / 1000 Ang^3
#
#
#
# Elastic Constant Matrix: (Units=GPa)
#
#
# Indices 1 2 3 4 5 6 
#
# 1 37.4105 7.9819 -1.8818 -0.4993 8.9544 9.8120
# 2 7.9819 117.3585 49.6821 3.6609 -13.4238 39.8605
# 3 -1.8818 49.6821 146.3319 4.3531 -18.7176 4.1393
# 4 -0.4993 3.6609 4.3531 35.9222 3.2121 2.8888
# 5 8.9544 -13.4238 -18.7176 3.2121 27.9943 -4.2677
# 6 9.8120 39.8605 4.1393 2.8888 -4.2677 32.1511
#
#
#
# Elastic Compliance Matrix: (Units=1/GPa)
#
#
# Indices 1 2 3 4 5 6 
#
# 1 0.033173 0.001393 -0.001445 0.002785 -0.013315 -0.013683
# 2 0.001393 0.018561 -0.005496 0.000497 0.001277 -0.022604
# 3 -0.001445 -0.005496 0.009200 -0.001597 0.005214 0.006906
# 4 0.002785 0.000497 -0.001597 0.028904 -0.005741 -0.004620
# 5 -0.013315 0.001277 0.005214 -0.005741 0.046024 0.008434
# 6 -0.013683 -0.022604 0.006906 -0.004620 0.008434 0.063948
#
#
# Mechanical properties :
#
#
# Convention : Reuss Voigt Hill
#
# Bulk Modulus (GPa) = 20.06498 45.85169 32.95833
# Shear Modulus (GPa) = 21.97611 35.56809 28.77210
#
# Velocity S-wave (km/s) = 2.95332 3.75721 3.37926
# Velocity P-wave (km/s) = 4.42641 6.08443 5.32040
#
# Compressibility (1/GPa) = 0.04983809
#
# Stress axis : x y z
#
# Youngs Moduli (GPa) = 30.14466 53.87740 108.69265
#
# Poissons Ratio (x) = -0.07505 0.15709
# Poissons Ratio (y) = -0.04199 0.59735
# Poissons Ratio (z) = 0.04357 0.29610
#
# Static dielectric constant tensor:
#      x y z
#    x 2.028950 -0.010370 0.027070 
#    y -0.010370 2.141270 -0.010180 
#    z 0.027070 -0.010180 2.418720 
# 
# From -- ./inp_files/325968.got.cif
#   From: 2010.05.17/outbox.cif.g08.bks.cpg/sg2_163_cif.got.tgz:325968.got - 2010.06.03 11:33:40.
