data_PCOD9081819
_publ_section_title
;
Structure prediction by ZEFSAII (Michael W. Deem and Ramdas Pophale) SiO2 
 PCOD9081819
Probable space group: P -1
;
_chemical_formula_sum "Si O2"
_cell_formula_units_Z 16
_cell_length_a 7.619186
_cell_length_b 13.796882
_cell_length_c 13.542912
_cell_angle_alpha 146.167612
_cell_angle_beta 87.654600
_cell_angle_gamma 93.933982
_cell_volume 790.437358
_symmetry_space_group_name_H-M "P -1"
_symmetry_group_IT_number 2
_symmetry_cell_setting 'triclinic'
loop_
_space_group_symop_operation_xyz
x,y,z
-x,-y,-z
loop_
_atom_site_type_symbol
_atom_site_label
_atom_site_fract_x
_atom_site_fract_y
_atom_site_fract_z
Si Si1 0.988497 0.473730 0.094016
Si Si2 0.714162 0.697076 0.937300
Si Si3 0.926187 0.674544 0.441281
Si Si4 0.664156 0.597349 0.634721
Si Si5 0.610145 0.842970 0.687420
Si Si6 0.193608 0.899348 0.758903
Si Si7 0.155454 0.647565 0.714663
Si Si8 0.673011 0.241649 0.998548
O O1 0.164093 0.396183 0.068167
O O2 0.955560 0.651431 0.305257
O O3 0.000000 0.500000 0.000000
O O4 0.824517 0.341492 0.016866
O O5 0.677758 0.597232 0.750176
O O6 0.518749 0.717270 0.999668
O O7 0.796500 0.891505 0.072497
O O8 0.725161 0.715778 0.510231
O O9 0.959533 0.479981 0.317886
O O10 0.061407 0.812355 0.607164
O O11 0.500000 0.500000 0.500000
O O12 0.662644 0.790861 0.753514
O O13 0.810894 0.489860 0.488884
O O14 0.396001 0.840452 0.687660
O O15 0.682486 0.035136 0.821158
O O16 0.123960 0.820041 0.798645
O O17 0.305871 0.707370 0.842050
#
# Coordination Sequence:
#
# PCOD9081819 Si02
#       8
#     2   2   2   2   2   2   2   2
#     4  11  26  45  65  85 111 153 208 265 305 344
#     4  11  23  38  63  89 123 162 196 243 301 352
#     4  10  23  37  59  86 116 162 203 243 288 350
#     4  11  18  32  57  94 131 163 193 227 280 361
#     4  10  21  35  59  90 129 162 186 236 292 354
#     4  11  20  36  58  91 129 160 194 228 292 365
#     4  10  19  32  55  88 128 163 194 231 281 351
#     4  10  21  40  60  89 123 156 199 247 295 359
#
# _framework density 20.241959000000001
#
# number of rings (size 3 to 8) (size 9 to 14) (size 15 to 20)
#    0.000    1.500    2.500    2.625    0.000    5.500 
#    0.000    8.750    0.000    3.000    0.000    0.000 
#    0.000    0.000    0.000    0.000    0.000    0.000 
#
# Total GULP energy -89210.772848 kJ/mol
# GULP energy per Si atom -5575.673303 kJ/mol
# Density = 2.019589 g / cm^3
# Si number density = 20.241959 Si / 1000 Ang^3
#
#
#
# Elastic Constant Matrix: (Units=GPa)
#
#
# Indices 1 2 3 4 5 6 
#
# 1 94.9674 44.4068 29.1004 -3.8846 3.3265 -9.5912
# 2 44.4068 112.4660 54.4437 -22.7126 0.0285 -6.9721
# 3 29.1004 54.4437 76.5639 -8.9716 9.5055 -2.3284
# 4 -3.8846 -22.7126 -8.9716 33.0092 1.9596 2.5193
# 5 3.3265 0.0285 9.5055 1.9596 27.1438 8.5742
# 6 -9.5912 -6.9721 -2.3284 2.5193 8.5742 26.3030
#
#
#
# Elastic Compliance Matrix: (Units=1/GPa)
#
#
# Indices 1 2 3 4 5 6 
#
# 1 0.013736 -0.004825 -0.001630 -0.002355 -0.002387 0.004589
# 2 -0.004825 0.017293 -0.009898 0.008435 0.003423 0.000024
# 3 -0.001630 -0.009898 0.021626 -0.000765 -0.007714 0.001284
# 4 -0.002355 0.008435 -0.000765 0.035828 -0.001526 -0.001625
# 5 -0.002387 0.003423 -0.007714 -0.001526 0.044702 -0.015072
# 6 0.004589 0.000024 0.001284 -0.001625 -0.015072 0.044881
#
#
# Mechanical properties :
#
#
# Convention : Reuss Voigt Hill
#
# Bulk Modulus (GPa) = 50.12947 59.98880 55.05913
# Shear Modulus (GPa) = 22.99664 27.69428 25.34546
#
# Velocity S-wave (km/s) = 3.37425 3.70288 3.54238
# Velocity P-wave (km/s) = 6.32452 6.92690 6.63256
#
# Compressibility (1/GPa) = 0.01994834
#
# Stress axis : x y z
#
# Youngs Moduli (GPa) = 72.79903 57.82764 46.24039
#
# Poissons Ratio (x) = 0.27904 0.07536
# Poissons Ratio (y) = 0.35128 0.45771
# Poissons Ratio (z) = 0.11864 0.57240
#
# Static dielectric constant tensor:
#      x y z
#    x 1.876040 0.010860 -0.014570 
#    y 0.010860 1.710990 0.029230 
#    z -0.014570 0.029230 1.747730 
# 
# From -- ./inp_files/391627.got.cif
#   From: 2010.05.17/outbox.cif.g08.bks.cpg/sg2_196_cif.got.tgz:391627.got - 2010.06.03 11:33:40.
