data_PCOD9081290
_publ_section_title
;
Structure prediction by ZEFSAII (Michael W. Deem and Ramdas Pophale) SiO2 
 PCOD9081290
Probable space group: P -1
;
_chemical_formula_sum "Si O2"
_cell_formula_units_Z 12
_cell_length_a 15.430648
_cell_length_b 10.374016
_cell_length_c 8.755413
_cell_angle_alpha 28.870456
_cell_angle_beta 123.050797
_cell_angle_gamma 122.717724
_cell_volume 560.316891
_symmetry_space_group_name_H-M "P -1"
_symmetry_group_IT_number 2
_symmetry_cell_setting 'triclinic'
loop_
_space_group_symop_operation_xyz
x,y,z
-x,-y,-z
loop_
_atom_site_type_symbol
_atom_site_label
_atom_site_fract_x
_atom_site_fract_y
_atom_site_fract_z
Si Si1 0.714404 0.412885 0.729343
Si Si2 0.455943 0.721282 0.826397
Si Si3 0.103683 0.115644 0.259769
Si Si4 0.421868 0.116397 0.920788
Si Si5 0.929176 0.700862 0.636495
Si Si6 0.228369 0.675246 0.771625
O O1 0.642831 0.647896 0.434670
O O2 0.827004 0.527905 0.646859
O O3 0.738388 0.330137 0.011875
O O4 0.659774 0.156990 0.846255
O O5 0.500000 0.000000 0.500000
O O6 0.500000 0.500000 0.000000
O O7 0.507428 0.752186 0.010165
O O8 0.331078 0.662009 0.786073
O O9 0.993205 0.914983 0.360459
O O10 0.114716 0.137077 0.433524
O O11 0.134464 0.424599 0.916583
O O12 0.185331 0.954721 0.424390
O O13 0.500000 0.000000 0.000000
O O14 0.000000 0.500000 0.000000
#
# Coordination Sequence:
#
# PCOD9081290 Si02
#       6
#     2   2   2   2   2   2
#     4  11  22  35  61  92 131 158 201 251 324 366
#     4  12  27  44  64  89 125 167 220 258 302 375
#     4  10  19  31  53  86 128 158 197 248 312 365
#     4  12  25  40  63  91 126 167 204 259 318 367
#     4  10  19  31  53  92 134 158 193 251 320 369
#     4  11  21  36  60  88 122 163 207 250 310 362
#
# _framework density 21.416454000000002
#
# number of rings (size 3 to 8) (size 9 to 14) (size 15 to 20)
#    0.000    1.000    5.000    4.500    4.667    0.000 
#    0.000    0.000    0.000    0.000    0.000   23.333 
#    0.000    0.000    0.000    0.000    0.000    0.000 
#
# Total GULP energy -66956.328313 kJ/mol
# GULP energy per Si atom -5579.694026 kJ/mol
# Density = 2.136771 g / cm^3
# Si number density = 21.416454 Si / 1000 Ang^3
#
#
#
# Elastic Constant Matrix: (Units=GPa)
#
#
# Indices 1 2 3 4 5 6 
#
# 1 105.8236 25.8436 8.2513 -25.2407 -11.1488 4.7927
# 2 25.8436 56.8011 15.1788 -30.5262 3.8904 2.5462
# 3 8.2513 15.1788 85.1529 -34.9619 11.1692 -2.0516
# 4 -25.2407 -30.5262 -34.9619 36.6994 0.3059 0.1465
# 5 -11.1488 3.8904 11.1692 0.3059 36.6337 -17.8348
# 6 4.7927 2.5462 -2.0516 0.1465 -17.8348 36.1093
#
#
#
# Elastic Compliance Matrix: (Units=1/GPa)
#
#
# Indices 1 2 3 4 5 6 
#
# 1 0.012219 -0.001021 0.002811 0.010209 0.002880 -0.000009
# 2 -0.001021 0.040251 0.013071 0.045375 -0.013157 -0.008642
# 3 0.002811 0.013071 0.025989 0.037683 -0.011529 -0.005665
# 4 0.010209 0.045375 0.037683 0.108132 -0.020397 -0.012926
# 5 0.002880 -0.013157 -0.011529 -0.020397 0.043768 0.021590
# 6 -0.000009 -0.008642 -0.005665 -0.012926 0.021590 0.038699
#
#
# Mechanical properties :
#
#
# Convention : Reuss Voigt Hill
#
# Bulk Modulus (GPa) = 9.24372 38.48058 23.86215
# Shear Modulus (GPa) = 18.15583 35.12209 26.63896
#
# Velocity S-wave (km/s) = 2.91478 4.05403 3.53066
# Velocity P-wave (km/s) = 3.95644 6.31826 5.27133
#
# Compressibility (1/GPa) = 0.10818152
#
# Stress axis : x y z
#
# Youngs Moduli (GPa) = 81.84251 24.84429 38.47807
#
# Poissons Ratio (x) = 0.02537 -0.10818
# Poissons Ratio (y) = 0.08357 -0.50296
# Poissons Ratio (z) = -0.23009 -0.32475
#
# Static dielectric constant tensor:
#      x y z
#    x 1.863810 0.090700 0.064150 
#    y 0.090700 1.844130 0.106450 
#    z 0.064150 0.106450 2.037170 
# 
# From -- ./inp_files/293731.got.cif
#   From: 2010.05.17/outbox.cif.g08.bks.cpg/sg2_147_cif.got.tgz:293731.got - 2010.06.03 11:33:40.
