data_PCOD9081940
_publ_section_title
;
Structure prediction by ZEFSAII (Michael W. Deem and Ramdas Pophale) SiO2 
 PCOD9081940
Probable space group: P -1
;
_chemical_formula_sum "Si O2"
_cell_formula_units_Z 14
_cell_length_a 8.169707
_cell_length_b 10.451093
_cell_length_c 16.671776
_cell_angle_alpha 141.669993
_cell_angle_beta 127.475719
_cell_angle_gamma 44.830544
_cell_volume 617.969186
_symmetry_space_group_name_H-M "P -1"
_symmetry_group_IT_number 2
_symmetry_cell_setting 'triclinic'
loop_
_space_group_symop_operation_xyz
x,y,z
-x,-y,-z
loop_
_atom_site_type_symbol
_atom_site_label
_atom_site_fract_x
_atom_site_fract_y
_atom_site_fract_z
Si Si1 0.517917 0.377413 0.650807
Si Si2 0.965565 0.695999 0.190845
Si Si3 0.448264 0.476235 0.849910
Si Si4 0.376914 0.819430 0.717931
Si Si5 0.626815 0.035942 0.978973
Si Si6 0.118339 0.721169 0.019071
Si Si7 0.258174 0.951115 0.578018
O O1 0.400237 0.392868 0.709194
O O2 0.390606 0.618019 0.680849
O O3 0.570987 0.161857 0.501178
O O4 0.775024 0.348520 0.734544
O O5 0.966316 0.455547 0.055168
O O6 0.842868 0.920373 0.205727
O O7 0.796957 0.809531 0.275311
O O8 0.246483 0.598112 0.914390
O O9 0.680481 0.279541 0.865296
O O10 0.495074 0.696521 0.951687
O O11 0.598059 0.867228 0.822134
O O12 0.350106 0.774991 0.594706
O O13 0.892458 0.956483 0.043214
O O14 0.500000 0.000000 0.000000
O O15 0.000000 0.000000 0.500000
#
# Coordination Sequence:
#
# PCOD9081940 Si02
#       7
#     2   2   2   2   2   2   2
#     4  11  19  35  56  85 104 143 179 230 264 317
#     4   9  19  34  56  79 108 138 180 220 271 317
#     4  11  24  36  55  80 114 148 181 216 274 327
#     4  10  19  32  58  81 110 133 180 226 278 302
#     4  12  22  36  59  84 106 141 187 228 268 322
#     4  11  23  39  53  78 116 150 175 223 272 325
#     4   8  18  32  55  83 110 132 176 230 274 311
#
# _framework density 22.654851000000001
#
# number of rings (size 3 to 8) (size 9 to 14) (size 15 to 20)
#    0.857    0.857    4.286    0.857    2.000    1.143 
#    0.000    0.714    0.000    0.857    0.000    0.000 
#    0.000    0.000    0.000    0.000    0.000    0.000 
#
# Total GULP energy -78053.837613 kJ/mol
# GULP energy per Si atom -5575.274115 kJ/mol
# Density = 2.260329 g / cm^3
# Si number density = 22.654851 Si / 1000 Ang^3
#
#
#
# Elastic Constant Matrix: (Units=GPa)
#
#
# Indices 1 2 3 4 5 6 
#
# 1 39.2966 8.8439 10.6100 -5.7809 -22.2543 1.9578
# 2 8.8439 103.2014 25.4230 -19.9748 -4.4839 -3.9641
# 3 10.6100 25.4230 92.6844 -8.7911 -37.0091 3.6733
# 4 -5.7809 -19.9748 -8.7911 38.9714 6.8256 0.6271
# 5 -22.2543 -4.4839 -37.0091 6.8256 34.4413 0.4118
# 6 1.9578 -3.9641 3.6733 0.6271 0.4118 25.0766
#
#
#
# Elastic Compliance Matrix: (Units=1/GPa)
#
#
# Indices 1 2 3 4 5 6 
#
# 1 0.050940 -0.006617 0.015997 -0.000764 0.049492 -0.008160
# 2 -0.006617 0.012711 -0.006726 0.005896 -0.011059 0.003545
# 3 0.015997 -0.006726 0.026012 -0.001725 0.037834 -0.006701
# 4 -0.000764 0.005896 -0.001725 0.029470 -0.007428 0.000629
# 5 0.049492 -0.011059 0.037834 -0.007428 0.101853 -0.012641
# 6 -0.008160 0.003545 -0.006701 0.000629 -0.012641 0.042249
#
#
# Mechanical properties :
#
#
# Convention : Reuss Voigt Hill
#
# Bulk Modulus (GPa) = 10.52968 36.10405 23.31686
# Shear Modulus (GPa) = 17.26616 32.38489 24.82552
#
# Velocity S-wave (km/s) = 2.76368 3.78496 3.31390
# Velocity P-wave (km/s) = 3.85252 5.92220 4.99571
#
# Compressibility (1/GPa) = 0.09496968
#
# Stress axis : x y z
#
# Youngs Moduli (GPa) = 19.63105 78.67402 38.44324
#
# Poissons Ratio (x) = 0.52058 -0.61497
# Poissons Ratio (y) = 0.12990 0.25858
# Poissons Ratio (z) = -0.31403 0.52919
#
# Static dielectric constant tensor:
#      x y z
#    x 1.870270 0.010700 -0.067300 
#    y 0.010700 1.841210 -0.024700 
#    z -0.067300 -0.024700 1.946570 
# 
# From -- ./inp_files/258700.got.cif
#   From: 2010.05.17/outbox.cif.g08.bks.cpg/sg2_130_cif.got.tgz:258700.got - 2010.06.03 11:33:40.
