data_PCOD9081740
_publ_section_title
;
Structure prediction by ZEFSAII (Michael W. Deem and Ramdas Pophale) SiO2 
 PCOD9081740
Probable space group: P -1
;
_chemical_formula_sum "Si O2"
_cell_formula_units_Z 16
_cell_length_a 21.059649
_cell_length_b 11.591083
_cell_length_c 18.043314
_cell_angle_alpha 141.620406
_cell_angle_beta 160.890873
_cell_angle_gamma 47.464502
_cell_volume 848.691289
_symmetry_space_group_name_H-M "P -1"
_symmetry_group_IT_number 2
_symmetry_cell_setting 'triclinic'
loop_
_space_group_symop_operation_xyz
x,y,z
-x,-y,-z
loop_
_atom_site_type_symbol
_atom_site_label
_atom_site_fract_x
_atom_site_fract_y
_atom_site_fract_z
Si Si1 0.617607 0.306169 0.809287
Si Si2 0.832159 0.971341 0.866688
Si Si3 0.092859 0.312257 0.722479
Si Si4 0.440171 0.464993 0.830029
Si Si5 0.549633 0.114112 0.918696
Si Si6 0.848644 0.908568 0.608071
Si Si7 0.958312 0.300853 0.398391
Si Si8 0.696216 0.012421 0.174882
O O1 0.750159 0.157324 0.885176
O O2 0.585095 0.404467 0.901309
O O3 0.383149 0.196858 0.471154
O O4 0.745271 0.475040 0.978944
O O5 0.960313 0.942952 0.065135
O O6 0.000000 0.000000 0.000000
O O7 0.019584 0.326613 0.564684
O O8 0.883323 0.218001 0.489468
O O9 0.210486 0.153979 0.780195
O O10 0.240334 0.273732 0.523451
O O11 0.500000 0.500000 0.000000
O O12 0.436911 0.683899 0.919211
O O13 0.337591 0.027943 0.597769
O O14 0.719295 0.183939 0.077648
O O15 0.619223 0.985699 0.991096
O O16 0.923466 0.822254 0.575372
O O17 0.000000 0.500000 0.500000
O O18 0.500000 0.000000 0.000000
#
# Coordination Sequence:
#
# PCOD9081740 Si02
#       8
#     2   2   2   2   2   2   2   2
#     4  11  23  39  55  82 123 157 202 241 284 351
#     4  11  25  38  56  80 118 172 206 235 284 351
#     4  10  22  36  58  89 116 156 197 237 302 359
#     4  10  19  32  54  85 123 151 183 231 300 360
#     4  10  22  33  54  90 118 154 189 241 301 359
#     4  11  21  32  52  80 119 153 196 232 287 353
#     4  11  20  31  54  85 120 152 179 237 305 354
#     4  10  20  37  57  83 120 154 194 241 301 355
#
# _framework density 18.852556
#
# number of rings (size 3 to 8) (size 9 to 14) (size 15 to 20)
#    0.000    1.500    2.500    3.750    7.000    1.000 
#    0.000    0.000    0.000    0.750    0.000   13.125 
#    0.000    0.000    0.000    0.000    0.000    0.000 
#
# Total GULP energy -89135.486589 kJ/mol
# GULP energy per Si atom -5570.967912 kJ/mol
# Density = 1.880965 g / cm^3
# Si number density = 18.852556 Si / 1000 Ang^3
#
#
#
# Elastic Constant Matrix: (Units=GPa)
#
#
# Indices 1 2 3 4 5 6 
#
# 1 55.3206 18.6086 30.8541 1.3681 30.6390 -3.1360
# 2 18.6086 64.6380 34.3871 -11.3983 6.3016 10.9821
# 3 30.8541 34.3871 129.5733 -18.7772 23.2271 2.5098
# 4 1.3681 -11.3983 -18.7772 30.0922 -1.4194 1.1757
# 5 30.6390 6.3016 23.2271 -1.4194 37.4786 -9.4356
# 6 -3.1360 10.9821 2.5098 1.1757 -9.4356 30.1568
#
#
#
# Elastic Compliance Matrix: (Units=1/GPa)
#
#
# Indices 1 2 3 4 5 6 
#
# 1 0.038586 -0.007766 -0.003022 -0.007887 -0.029093 -0.001703
# 2 -0.007766 0.021710 -0.003301 0.006964 0.003055 -0.007754
# 3 -0.003022 -0.003301 0.010828 0.005519 -0.003836 -0.001429
# 4 -0.007887 0.006964 0.005519 0.039958 0.002190 -0.004688
# 5 -0.029093 0.003055 -0.003836 0.002190 0.055827 0.013563
# 6 -0.001703 -0.007754 -0.001429 -0.004688 0.013563 0.040352
#
#
# Mechanical properties :
#
#
# Convention : Reuss Voigt Hill
#
# Bulk Modulus (GPa) = 23.28456 46.35904 34.82180
# Shear Modulus (GPa) = 20.01978 30.59101 25.30539
#
# Velocity S-wave (km/s) = 3.26224 4.03258 3.66769
# Velocity P-wave (km/s) = 5.15434 6.80632 6.03710
#
# Compressibility (1/GPa) = 0.04294692
#
# Stress axis : x y z
#
# Youngs Moduli (GPa) = 25.91645 46.06161 92.35101
#
# Poissons Ratio (x) = 0.35771 0.27907
# Poissons Ratio (y) = 0.20126 0.30482
# Poissons Ratio (z) = 0.07832 0.15203
#
# Static dielectric constant tensor:
#      x y z
#    x 1.667760 0.003760 0.013680 
#    y 0.003760 1.703060 -0.000280 
#    z 0.013680 -0.000280 1.777060 
# 
# From -- ./inp_files/577852.got.cif
#   From: 2010.05.17/outbox.cif.g08.bks.cpg/sg2_289_cif.got.tgz:577852.got - 2010.06.03 11:33:40.
