data_PCOD9081700
_publ_section_title
;
Structure prediction by ZEFSAII (Michael W. Deem and Ramdas Pophale) SiO2 
 PCOD9081700
Probable space group: P -1
;
_chemical_formula_sum "Si O2"
_cell_formula_units_Z 16
_cell_length_a 12.489168
_cell_length_b 7.939287
_cell_length_c 9.314932
_cell_angle_alpha 134.053794
_cell_angle_beta 114.667041
_cell_angle_gamma 78.858078
_cell_volume 596.539817
_symmetry_space_group_name_H-M "P -1"
_symmetry_group_IT_number 2
_symmetry_cell_setting 'triclinic'
loop_
_space_group_symop_operation_xyz
x,y,z
-x,-y,-z
loop_
_atom_site_type_symbol
_atom_site_label
_atom_site_fract_x
_atom_site_fract_y
_atom_site_fract_z
Si Si1 0.267164 0.293162 0.101019
Si Si2 0.528578 0.285944 0.198912
Si Si3 0.027008 0.625080 0.794320
Si Si4 0.777432 0.992908 0.531659
Si Si5 0.273562 0.659996 0.056006
Si Si6 0.789573 0.368601 0.510153
Si Si7 0.526773 0.759840 0.291621
Si Si8 0.025087 0.025186 0.796878
O O1 0.404491 0.294513 0.221945
O O2 0.268451 0.473089 0.073663
O O3 0.217238 0.374949 0.270958
O O4 0.165713 0.077896 0.865542
O O5 0.670004 0.312918 0.321776
O O6 0.523320 0.529717 0.251393
O O7 0.500000 0.000000 0.000000
O O8 0.926956 0.408248 0.564395
O O9 0.014965 0.835222 0.804212
O O10 0.163673 0.581104 0.843479
O O11 0.005106 0.723367 0.001863
O O12 0.751658 0.096650 0.736348
O O13 0.773445 0.192631 0.530209
O O14 0.913714 0.949433 0.584056
O O15 0.657575 0.809883 0.324720
O O16 0.407291 0.707996 0.096706
O O17 0.500000 0.000000 0.500000
#
# Coordination Sequence:
#
# PCOD9081700 Si02
#       8
#     2   2   2   2   2   2   2   2
#     4   9  18  32  52  76 104 140 182 222 262 319
#     4  11  23  38  55  79 114 146 176 224 281 326
#     4   9  16  26  46  78 110 136 172 225 274 312
#     4   9  16  28  49  77 106 136 177 226 268 310
#     4   8  15  27  45  75 108 136 171 222 272 308
#     4  10  19  32  54  79 105 143 187 224 264 322
#     4   9  18  33  55  79 107 143 182 222 263 317
#     4   9  16  26  46  78 110 137 173 226 273 309
#
# _framework density 26.821342999999999
#
# number of rings (size 3 to 8) (size 9 to 14) (size 15 to 20)
#    0.000    2.750    0.000    2.625    0.000    7.000 
#    0.000    0.625    0.000    9.750    0.000    0.000 
#    0.000    0.000    0.000    0.000    0.000    0.000 
#
# Total GULP energy -89163.897702 kJ/mol
# GULP energy per Si atom -5572.743606 kJ/mol
# Density = 2.676030 g / cm^3
# Si number density = 26.821343 Si / 1000 Ang^3
#
#
#
# Elastic Constant Matrix: (Units=GPa)
#
#
# Indices 1 2 3 4 5 6 
#
# 1 140.2126 31.5623 59.4469 -4.9903 62.7917 -28.1403
# 2 31.5623 110.3377 36.8490 1.0324 26.3443 -17.4057
# 3 59.4469 36.8490 154.2154 6.0299 61.0806 -14.7472
# 4 -4.9903 1.0324 6.0299 35.2467 -11.5548 25.1346
# 5 62.7917 26.3443 61.0806 -11.5548 83.3694 -14.8808
# 6 -28.1403 -17.4057 -14.7472 25.1346 -14.8808 37.8448
#
#
#
# Elastic Compliance Matrix: (Units=1/GPa)
#
#
# Indices 1 2 3 4 5 6 
#
# 1 0.013770 0.000737 0.000265 -0.011777 -0.009816 0.014643
# 2 0.000737 0.011391 -0.000496 -0.008138 -0.003178 0.009748
# 3 0.000265 -0.000496 0.010734 -0.009727 -0.007916 0.007498
# 4 -0.011777 -0.008138 -0.009727 0.078082 0.018526 -0.060864
# 5 -0.009816 -0.003178 -0.007916 0.018526 0.026295 -0.013811
# 6 0.014643 0.009748 0.007498 -0.060864 -0.013811 0.079709
#
#
# Mechanical properties :
#
#
# Convention : Reuss Voigt Hill
#
# Bulk Modulus (GPa) = 27.09715 73.38689 50.24202
# Shear Modulus (GPa) = 21.61949 49.75267 35.68608
#
# Velocity S-wave (km/s) = 2.84219 4.31160 3.65157
# Velocity P-wave (km/s) = 4.57116 7.22547 6.04578
#
# Compressibility (1/GPa) = 0.03690425
#
# Stress axis : x y z
#
# Youngs Moduli (GPa) = 72.62373 87.78846 93.16348
#
# Poissons Ratio (x) = -0.06466 -0.02467
# Poissons Ratio (y) = -0.05349 0.04625
# Poissons Ratio (z) = -0.01923 0.04358
#
# Static dielectric constant tensor:
#      x y z
#    x 2.115660 -0.164320 0.019880 
#    y -0.164320 2.029980 0.009590 
#    z 0.019880 0.009590 2.183160 
# 
# From -- ./inp_files/208292.got.cif
#   From: 2010.05.17/outbox.cif.g08.bks.cpg/sg2_105_cif.got.tgz:208292.got - 2010.06.03 11:33:40.
