data_PCOD9081149
_publ_section_title
;
Structure prediction by ZEFSAII (Michael W. Deem and Ramdas Pophale) SiO2 
 PCOD9081149
Probable space group: P -1
;
_chemical_formula_sum "Si O2"
_cell_formula_units_Z 16
_cell_length_a 11.161288
_cell_length_b 11.427170
_cell_length_c 7.634547
_cell_angle_alpha 67.015198
_cell_angle_beta 115.023078
_cell_angle_gamma 133.025430
_cell_volume 637.353604
_symmetry_space_group_name_H-M "P -1"
_symmetry_group_IT_number 2
_symmetry_cell_setting 'triclinic'
loop_
_space_group_symop_operation_xyz
x,y,z
-x,-y,-z
loop_
_atom_site_type_symbol
_atom_site_label
_atom_site_fract_x
_atom_site_fract_y
_atom_site_fract_z
Si Si1 0.655162 0.810010 0.081750
Si Si2 0.415373 0.806258 0.698499
Si Si3 0.440259 0.624284 0.557778
Si Si4 0.649177 0.526561 0.794740
Si Si5 0.654328 0.035020 0.184132
Si Si6 0.941784 0.528294 0.264506
Si Si7 0.016267 0.337658 0.219340
Si Si8 0.117415 0.280316 0.681943
O O1 0.494129 0.619347 0.089073
O O2 0.823774 0.826175 0.169374
O O3 0.659644 0.890391 0.221303
O O4 0.593218 0.871480 0.859170
O O5 0.423608 0.757137 0.536054
O O6 0.369497 0.921508 0.660923
O O7 0.253453 0.633932 0.781483
O O8 0.614082 0.656175 0.692665
O O9 0.398739 0.563621 0.369897
O O10 0.293873 0.461484 0.665076
O O11 0.845117 0.610438 0.872149
O O12 0.828652 0.196542 0.126578
O O13 0.500000 0.000000 0.000000
O O14 0.974619 0.694848 0.238035
O O15 0.000000 0.500000 0.500000
O O16 0.038574 0.496397 0.204838
O O17 0.039849 0.259567 0.452400
#
# Coordination Sequence:
#
# PCOD9081149 Si02
#       8
#     2   2   2   2   2   2   2   2
#     4  10  19  31  49  75 102 123 160 207 238 277
#     4   9  17  31  51  68  92 136 168 188 234 295
#     4   8  15  29  48  71 101 129 156 190 243 297
#     4   9  17  29  49  77 100 120 153 205 248 279
#     4   9  19  34  49  67  96 135 168 194 234 290
#     4   8  14  26  45  69  92 119 162 199 227 276
#     4   9  16  30  50  68  95 132 159 189 243 296
#     4   8  15  26  46  74  96 118 157 205 238 273
#
# _framework density 25.103801000000001
#
# number of rings (size 3 to 8) (size 9 to 14) (size 15 to 20)
#    0.000    3.250    0.000    1.500    0.000    5.000 
#    0.000    6.250    0.000    4.500    0.000    5.250 
#    0.000    0.000    0.000    0.000    0.000    0.000 
#
# Total GULP energy -89127.368431 kJ/mol
# GULP energy per Si atom -5570.460527 kJ/mol
# Density = 2.504666 g / cm^3
# Si number density = 25.103801 Si / 1000 Ang^3
#
#
#
# Elastic Constant Matrix: (Units=GPa)
#
#
# Indices 1 2 3 4 5 6 
#
# 1 94.1680 21.5743 16.2754 12.3049 26.7108 -9.6795
# 2 21.5743 68.3162 5.8100 6.7838 7.9565 1.0924
# 3 16.2754 5.8100 45.3246 17.8641 0.1668 -11.1808
# 4 12.3049 6.7838 17.8641 24.3711 -0.9085 -3.1974
# 5 26.7108 7.9565 0.1668 -0.9085 35.6528 3.8889
# 6 -9.6795 1.0924 -11.1808 -3.1974 3.8889 31.1806
#
#
#
# Elastic Compliance Matrix: (Units=1/GPa)
#
#
# Indices 1 2 3 4 5 6 
#
# 1 0.016503 -0.003117 -0.001796 -0.005884 -0.012413 0.005533
# 2 -0.003117 0.016102 -0.000171 -0.003057 -0.001143 -0.001764
# 3 -0.001796 -0.000171 0.034011 -0.022762 -0.000376 0.009357
# 4 -0.005884 -0.003057 -0.022762 0.061218 0.007249 -0.004508
# 5 -0.012413 -0.001143 -0.000376 0.007249 0.038665 -0.008027
# 6 0.005533 -0.001764 0.009357 -0.004508 -0.008027 0.037745
#
#
# Mechanical properties :
#
#
# Convention : Reuss Voigt Hill
#
# Bulk Modulus (GPa) = 17.71592 32.79201 25.25397
# Shear Modulus (GPa) = 21.43837 29.18417 25.31127
#
# Velocity S-wave (km/s) = 2.92548 3.41330 3.17876
# Velocity P-wave (km/s) = 4.29926 5.35024 4.85328
#
# Compressibility (1/GPa) = 0.05644639
#
# Stress axis : x y z
#
# Youngs Moduli (GPa) = 60.59672 62.10574 29.40226
#
# Poissons Ratio (x) = 0.19359 0.05282
# Poissons Ratio (y) = 0.18889 0.00502
# Poissons Ratio (z) = 0.10886 0.01060
#
# Static dielectric constant tensor:
#      x y z
#    x 2.089020 -0.015760 0.022680 
#    y -0.015760 1.984740 -0.056180 
#    z 0.022680 -0.056180 2.183440 
# 
# From -- ./inp_files/257058.got.cif
#   From: 2010.05.17/outbox.cif.g08.bks.cpg/sg2_129_cif.got.tgz:257058.got - 2010.06.03 11:33:40.
