data_PCOD9081258
_publ_section_title
;
Structure prediction by ZEFSAII (Michael W. Deem and Ramdas Pophale) SiO2 
 PCOD9081258
Probable space group: P -1
;
_chemical_formula_sum "Si O2"
_cell_formula_units_Z 16
_cell_length_a 19.150442
_cell_length_b 9.545301
_cell_length_c 14.140500
_cell_angle_alpha 110.445107
_cell_angle_beta 21.355817
_cell_angle_gamma 111.565068
_cell_volume 875.214831
_symmetry_space_group_name_H-M "P -1"
_symmetry_group_IT_number 2
_symmetry_cell_setting 'triclinic'
loop_
_space_group_symop_operation_xyz
x,y,z
-x,-y,-z
loop_
_atom_site_type_symbol
_atom_site_label
_atom_site_fract_x
_atom_site_fract_y
_atom_site_fract_z
Si Si1 0.505063 0.628807 0.915933
Si Si2 0.704503 0.809116 0.524622
Si Si3 0.115100 0.330430 0.457242
Si Si4 0.346105 0.911561 0.243747
Si Si5 0.427028 0.614652 0.692698
Si Si6 0.209125 0.461759 0.113879
Si Si7 0.097745 0.143193 0.253703
Si Si8 0.896344 0.182207 0.882275
O O1 0.312866 0.417432 0.268627
O O2 0.404526 0.744857 0.134891
O O3 0.352310 0.505021 0.031415
O O4 0.599031 0.723617 0.728635
O O5 0.604011 0.724422 0.541719
O O6 0.933364 0.804823 0.250892
O O7 0.662740 0.982493 0.628732
O O8 0.155867 0.207583 0.298937
O O9 0.971385 0.442883 0.626336
O O10 0.002971 0.242263 0.664930
O O11 0.133762 0.899927 0.463538
O O12 0.500000 0.000000 0.000000
O O13 0.500000 0.500000 0.500000
O O14 0.317772 0.520237 0.894836
O O15 0.274126 0.715944 0.864116
O O16 0.145387 0.284215 0.156652
O O17 0.179900 0.992724 0.081488
#
# Coordination Sequence:
#
# PCOD9081258 Si02
#       8
#     2   2   2   2   2   2   2   2
#     4   9  17  30  48  75 109 149 173 201 250 309
#     4   8  17  32  50  77 106 127 172 223 260 302
#     4  10  19  31  53  76 110 148 179 200 249 322
#     4   9  17  29  49  74 108 145 170 204 252 303
#     4  10  21  38  61  76  94 136 184 227 270 312
#     4  10  21  37  49  77 117 139 173 222 263 310
#     4  11  20  33  52  78 116 147 168 213 264 305
#     4   9  20  34  52  80 103 137 180 214 254 318
#
# _framework density 18.281226
#
# number of rings (size 3 to 8) (size 9 to 14) (size 15 to 20)
#    0.000    2.500    1.250    1.500    3.500    1.000 
#    0.000    0.625    0.000    3.000    0.000    0.000 
#    0.000    0.000    0.000    0.000    0.000    0.000 
#
# Total GULP energy -89244.082707 kJ/mol
# GULP energy per Si atom -5577.755169 kJ/mol
# Density = 1.823962 g / cm^3
# Si number density = 18.281226 Si / 1000 Ang^3
#
#
#
# Elastic Constant Matrix: (Units=GPa)
#
#
# Indices 1 2 3 4 5 6 
#
# 1 65.8993 35.6907 42.4699 11.1959 -14.3136 25.2108
# 2 35.6907 121.0849 53.6550 14.6796 -11.3316 14.2029
# 3 42.4699 53.6550 77.3474 20.8697 -15.6451 18.3238
# 4 11.1959 14.6796 20.8697 30.8213 2.1724 3.7033
# 5 -14.3136 -11.3316 -15.6451 2.1724 20.0895 -3.2520
# 6 25.2108 14.2029 18.3238 3.7033 -3.2520 29.4708
#
#
#
# Elastic Compliance Matrix: (Units=1/GPa)
#
#
# Indices 1 2 3 4 5 6 
#
# 1 0.032599 -0.001983 -0.008110 -0.003923 0.012985 -0.019963
# 2 -0.001983 0.012061 -0.007459 -0.000008 -0.000339 0.000485
# 3 -0.008110 -0.007459 0.030704 -0.014716 0.014694 -0.005088
# 4 -0.003923 -0.000008 -0.014716 0.044539 -0.018284 0.004895
# 5 0.012985 -0.000339 0.014694 -0.018284 0.070641 -0.009988
# 6 -0.019963 0.000485 -0.005088 0.004895 -0.009988 0.052222
#
#
# Mechanical properties :
#
#
# Convention : Reuss Voigt Hill
#
# Bulk Modulus (GPa) = 24.83850 58.66254 41.75052
# Shear Modulus (GPa) = 17.16510 24.91071 21.03791
#
# Velocity S-wave (km/s) = 3.06755 3.69540 3.39601
# Velocity P-wave (km/s) = 5.11496 7.09694 6.18585
#
# Compressibility (1/GPa) = 0.04026008
#
# Stress axis : x y z
#
# Youngs Moduli (GPa) = 30.67569 82.91416 32.56901
#
# Poissons Ratio (x) = 0.16441 0.26413
# Poissons Ratio (y) = 0.06082 0.24294
# Poissons Ratio (z) = 0.24878 0.61847
#
# Static dielectric constant tensor:
#      x y z
#    x 1.640810 -0.014980 -0.021840 
#    y -0.014980 1.661640 -0.018920 
#    z -0.021840 -0.018920 1.627700 
# 
# From -- ./inp_files/189428.got.cif
#   From: 2010.05.17/outbox.cif.g08.bks.cpg/sg2_95_cif.got.tgz:189428.got - 2010.06.03 11:33:40.
