data_PCOD9081775
_publ_section_title
;
Structure prediction by ZEFSAII (Michael W. Deem and Ramdas Pophale) SiO2 
 PCOD9081775
Probable space group: P -1
;
_chemical_formula_sum "Si O2"
_cell_formula_units_Z 14
_cell_length_a 9.771268
_cell_length_b 8.793836
_cell_length_c 8.584789
_cell_angle_alpha 105.480327
_cell_angle_beta 103.698615
_cell_angle_gamma 77.958322
_cell_volume 682.301319
_symmetry_space_group_name_H-M "P -1"
_symmetry_group_IT_number 2
_symmetry_cell_setting 'triclinic'
loop_
_space_group_symop_operation_xyz
x,y,z
-x,-y,-z
loop_
_atom_site_type_symbol
_atom_site_label
_atom_site_fract_x
_atom_site_fract_y
_atom_site_fract_z
Si Si1 0.259338 0.537309 0.322552
Si Si2 0.093728 0.330699 0.029389
Si Si3 0.247185 0.294741 0.744911
Si Si4 0.451722 0.635399 0.151188
Si Si5 0.935534 0.893107 0.581604
Si Si6 0.132129 0.584378 0.617267
Si Si7 0.844551 0.180578 0.845340
O O1 0.158177 0.695409 0.269559
O O2 0.403492 0.549683 0.271118
O O3 0.253072 0.553494 0.508968
O O4 0.307338 0.754688 0.100393
O O5 0.980119 0.211727 0.989959
O O6 0.194398 0.262721 0.894446
O O7 0.000000 0.500000 0.000000
O O8 0.416195 0.271370 0.765046
O O9 0.172621 0.199872 0.569063
O O10 0.192138 0.484645 0.755221
O O11 0.190598 0.383300 0.208143
O O12 0.500000 0.500000 0.000000
O O13 0.063958 0.767625 0.653400
O O14 0.860162 0.007568 0.726842
O O15 0.000000 0.000000 0.500000
O O16 0.000000 0.500000 0.500000
#
# Coordination Sequence:
#
# PCOD9081775 Si02
#       7
#     2   2   2   2   2   2   2
#     4   9  18  31  54  78 107 137 178 218 262 314
#     4  10  15  30  55  77  98 136 185 217 248 309
#     4  11  21  32  55  82 108 141 174 224 274 308
#     4  10  19  34  53  80 109 139 183 221 256 324
#     4  11  17  33  53  79 111 137 178 226 260 318
#     4  10  20  33  53  83 109 135 178 226 269 308
#     4   9  18  29  52  81 100 135 183 215 259 302
#
# _framework density 20.518794
#
# number of rings (size 3 to 8) (size 9 to 14) (size 15 to 20)
#    0.857    1.143    4.286    2.571    0.000    1.143 
#    0.000    0.000    0.000   21.429    0.000    6.000 
#    0.000    0.000    0.000    0.000    0.000    0.000 
#
# Total GULP energy -78050.192788 kJ/mol
# GULP energy per Si atom -5575.013771 kJ/mol
# Density = 2.047209 g / cm^3
# Si number density = 20.518794 Si / 1000 Ang^3
#
#
#
# Elastic Constant Matrix: (Units=GPa)
#
#
# Indices 1 2 3 4 5 6 
#
# 1 150.4501 25.5734 57.0463 13.6116 -11.0197 14.7792
# 2 25.5734 55.2845 27.0839 13.9008 -3.9019 -2.2713
# 3 57.0463 27.0839 112.5617 24.2423 -20.1797 3.6334
# 4 13.6116 13.9008 24.2423 35.7249 4.3807 -3.8063
# 5 -11.0197 -3.9019 -20.1797 4.3807 36.3361 3.4044
# 6 14.7792 -2.2713 3.6334 -3.8063 3.4044 18.8489
#
#
#
# Elastic Compliance Matrix: (Units=1/GPa)
#
#
# Indices 1 2 3 4 5 6 
#
# 1 0.009302 -0.002559 -0.003290 -0.001311 0.001582 -0.007518
# 2 -0.002559 0.022253 -0.003049 -0.005186 0.000152 0.004201
# 3 -0.003290 -0.003049 0.014890 -0.009125 0.008421 -0.004022
# 4 -0.001311 -0.005186 -0.009125 0.039473 -0.011932 0.012288
# 5 0.001582 0.000152 0.008421 -0.011932 0.035220 -0.011616
# 6 -0.007518 0.004201 -0.004022 0.012288 -0.011616 0.064809
#
#
# Mechanical properties :
#
#
# Convention : Reuss Voigt Hill
#
# Bulk Modulus (GPa) = 34.90531 59.74482 47.32506
# Shear Modulus (GPa) = 23.44185 32.08816 27.76501
#
# Velocity S-wave (km/s) = 3.38369 3.95883 3.68251
# Velocity P-wave (km/s) = 5.68455 7.07650 6.41837
#
# Compressibility (1/GPa) = 0.02864894
#
# Stress axis : x y z
#
# Youngs Moduli (GPa) = 107.50206 44.93804 67.15992
#
# Poissons Ratio (x) = 0.11499 0.22096
# Poissons Ratio (y) = 0.27507 0.20478
# Poissons Ratio (z) = 0.35369 0.13702
#
# Static dielectric constant tensor:
#      x y z
#    x 1.749090 0.002580 0.002400 
#    y 0.002580 1.771880 -0.020400 
#    z 0.002400 -0.020400 1.779040 
# 
# From -- ./inp_files/380287.got.cif
#   From: 2010.05.17/outbox.cif.g08.bks.cpg/sg2_191_cif.got.tgz:380287.got - 2010.06.03 11:33:40.
