data_PCOD9081743
_publ_section_title
;
Structure prediction by ZEFSAII (Michael W. Deem and Ramdas Pophale) SiO2 
 PCOD9081743
Probable space group: P -1
;
_chemical_formula_sum "Si O2"
_cell_formula_units_Z 16
_cell_length_a 8.545002
_cell_length_b 10.284311
_cell_length_c 11.067412
_cell_angle_alpha 82.229829
_cell_angle_beta 108.011750
_cell_angle_gamma 137.973714
_cell_volume 612.358689
_symmetry_space_group_name_H-M "P -1"
_symmetry_group_IT_number 2
_symmetry_cell_setting 'triclinic'
loop_
_space_group_symop_operation_xyz
x,y,z
-x,-y,-z
loop_
_atom_site_type_symbol
_atom_site_label
_atom_site_fract_x
_atom_site_fract_y
_atom_site_fract_z
Si Si1 0.773880 0.865969 0.710915
Si Si2 0.963062 0.208612 0.077636
Si Si3 0.732430 0.570360 0.105302
Si Si4 0.475194 0.680860 0.439137
Si Si5 0.376427 0.991279 0.160775
Si Si6 0.692881 0.085115 0.422810
Si Si7 0.838467 0.726638 0.375694
Si Si8 0.937870 0.465104 0.804454
O O1 0.896391 0.809146 0.801569
O O2 0.528052 0.705431 0.591592
O O3 0.717007 0.941171 0.788643
O O4 0.981719 0.047708 0.649467
O O5 0.028290 0.393804 0.113399
O O6 0.074020 0.255698 0.964942
O O7 0.679327 0.014168 0.994191
O O8 0.744345 0.620820 0.238912
O O9 0.800988 0.457152 0.143808
O O10 0.500000 0.500000 0.000000
O O11 0.617218 0.645571 0.414736
O O12 0.203816 0.553210 0.341064
O O13 0.635635 0.900320 0.406619
O O14 0.244536 0.768188 0.179904
O O15 0.635922 0.120946 0.277294
O O16 0.967981 0.257877 0.517970
O O17 0.500000 0.000000 0.500000
#
# Coordination Sequence:
#
# PCOD9081743 Si02
#       8
#     2   2   2   2   2   2   2   2
#     4  11  20  35  61  92 122 155 190 247 301 346
#     4  11  22  37  60  89 125 155 195 240 302 354
#     4  11  22  38  66  86 113 155 203 240 289 358
#     4  10  21  35  61  89 119 154 204 242 292 342
#     4  10  18  32  60  86 111 152 199 236 287 350
#     4  10  15  30  54  83 110 146 201 245 277 327
#     4  11  20  35  59  91 119 150 202 249 285 348
#     4  10  21  40  62  85 114 159 204 242 282 357
#
# _framework density 26.128474000000001
#
# number of rings (size 3 to 8) (size 9 to 14) (size 15 to 20)
#    0.000    1.500    5.000    4.875    0.000    1.500 
#    0.000    0.000    8.250   14.250    0.000    0.000 
#    0.000    0.000    0.000    0.000    0.000    0.000 
#
# Total GULP energy -89259.774110 kJ/mol
# GULP energy per Si atom -5578.735882 kJ/mol
# Density = 2.606900 g / cm^3
# Si number density = 26.128474 Si / 1000 Ang^3
#
#
#
# Elastic Constant Matrix: (Units=GPa)
#
#
# Indices 1 2 3 4 5 6 
#
# 1 147.6516 38.9120 86.9956 21.4673 39.4270 -22.7860
# 2 38.9120 51.9014 38.7790 2.9902 8.1584 -17.3349
# 3 86.9956 38.7790 243.0965 33.4880 69.7498 -22.9416
# 4 21.4673 2.9902 33.4880 44.2807 -3.5975 -9.8004
# 5 39.4270 8.1584 69.7498 -3.5975 60.0004 0.7440
# 6 -22.7860 -17.3349 -22.9416 -9.8004 0.7440 27.6580
#
#
#
# Elastic Compliance Matrix: (Units=1/GPa)
#
#
# Indices 1 2 3 4 5 6 
#
# 1 0.011611 -0.005760 -0.000176 -0.004716 -0.006978 0.004326
# 2 -0.005760 0.029567 -0.003507 0.006687 0.004080 0.013137
# 3 -0.000176 -0.003507 0.008790 -0.006497 -0.010052 0.002916
# 4 -0.004716 0.006687 -0.006497 0.031551 0.011562 0.005786
# 5 -0.006978 0.004080 -0.010052 0.011562 0.033179 -0.008325
# 6 0.004326 0.013137 0.002916 0.005786 -0.008325 0.052647
#
#
# Mechanical properties :
#
#
# Convention : Reuss Voigt Hill
#
# Bulk Modulus (GPa) = 32.17337 85.78032 58.97684
# Shear Modulus (GPa) = 25.43310 44.91868 35.17589
#
# Velocity S-wave (km/s) = 3.12330 4.15076 3.67313
# Velocity P-wave (km/s) = 5.03457 7.47484 6.37260
#
# Compressibility (1/GPa) = 0.03108161
#
# Stress axis : x y z
#
# Youngs Moduli (GPa) = 86.12326 33.82093 113.75994
#
# Poissons Ratio (x) = 0.19481 0.02004
# Poissons Ratio (y) = 0.49608 0.39901
# Poissons Ratio (z) = 0.01517 0.11863
#
# Static dielectric constant tensor:
#      x y z
#    x 2.996300 0.790030 0.462690 
#    y 0.790030 2.723260 0.306680 
#    z 0.462690 0.306680 2.275260 
# 
# From -- ./inp_files/390476.got.cif
#   From: 2010.05.17/outbox.cif.g08.bks.cpg/sg2_196_cif.got.tgz:390476.got - 2010.06.03 11:33:40.
