data_PCOD9081285
_publ_section_title
;
Structure prediction by ZEFSAII (Michael W. Deem and Ramdas Pophale) SiO2 
 PCOD9081285
Probable space group: P -1
;
_chemical_formula_sum "Si O2"
_cell_formula_units_Z 13
_cell_length_a 9.910550
_cell_length_b 7.212310
_cell_length_c 11.872243
_cell_angle_alpha 128.079578
_cell_angle_beta 127.222433
_cell_angle_gamma 41.660537
_cell_volume 426.839433
_symmetry_space_group_name_H-M "P -1"
_symmetry_group_IT_number 2
_symmetry_cell_setting 'triclinic'
loop_
_space_group_symop_operation_xyz
x,y,z
-x,-y,-z
loop_
_atom_site_type_symbol
_atom_site_label
_atom_site_fract_x
_atom_site_fract_y
_atom_site_fract_z
Si Si1 0.042547 0.990135 0.187927
Si Si2 0.471377 0.049743 0.189179
Si Si3 0.950055 0.533502 0.736083
Si Si4 0.286022 0.491809 0.577194
Si Si5 0.000000 0.500000 0.000000
Si Si6 0.545888 0.591064 0.888097
Si Si7 0.289012 0.976102 0.504247
O O1 0.940196 0.823393 0.053704
O O2 0.269337 0.751692 0.149868
O O3 0.110354 0.981775 0.348515
O O4 0.038225 0.698597 0.786979
O O5 0.291070 0.208904 0.250546
O O6 0.381390 0.279957 0.124761
O O7 0.668021 0.010331 0.337031
O O8 0.522271 0.755721 0.051758
O O9 0.905291 0.373879 0.557980
O O10 0.053262 0.389860 0.852531
O O11 0.333544 0.647105 0.754674
O O12 0.499804 0.329187 0.549854
O O13 0.283750 0.240595 0.544315
#
# Coordination Sequence:
#
# PCOD9081285 Si02
#       7
#     2   2   2   2   1   2   2
#     4  10  21  36  55  80 106 137 179 217 258 313
#     4  10  19  31  53  85 112 135 167 213 271 323
#     4  10  21  36  55  80 106 137 179 217 258 313
#     4   8  16  30  50  77 104 132 169 213 265 316
#     4  12  22  36  56  76 102 148 180 224 250 292
#     4  10  19  31  53  85 112 135 167 213 271 323
#     4   8  16  30  50  77 104 132 169 213 265 316
#
# _framework density 30.456420000000001
#
# number of rings (size 3 to 8) (size 9 to 14) (size 15 to 20)
#    0.000    2.462    1.538    3.231    2.154    4.308 
#    0.000    0.000    0.000    3.692    0.000    6.462 
#    0.000    0.000    0.000    0.000    0.000    0.000 
#
# Total GULP energy -72741.334920 kJ/mol
# GULP energy per Si atom -5595.487302 kJ/mol
# Density = 3.038710 g / cm^3
# Si number density = 30.456420 Si / 1000 Ang^3
#
#
#
# Elastic Constant Matrix: (Units=GPa)
#
#
# Indices 1 2 3 4 5 6 
#
# 1 94.7796 15.5570 38.8491 7.5225 1.6710 6.1718
# 2 15.5570 73.0249 46.8900 -9.3886 8.7690 3.0657
# 3 38.8491 46.8900 259.5152 23.6795 -7.4488 -13.5912
# 4 7.5225 -9.3886 23.6795 67.7033 -3.7594 0.0950
# 5 1.6710 8.7690 -7.4488 -3.7594 66.5637 8.6755
# 6 6.1718 3.0657 -13.5912 0.0950 8.6755 46.7188
#
#
#
# Elastic Compliance Matrix: (Units=1/GPa)
#
#
# Indices 1 2 3 4 5 6 
#
# 1 0.011609 -0.001580 -0.001459 -0.000999 -0.000063 -0.001841
# 2 -0.001580 0.016916 -0.003283 0.003551 -0.002165 -0.001462
# 3 -0.001459 -0.003283 0.004957 -0.001991 0.000686 0.001727
# 4 -0.000999 0.003551 -0.001991 0.016090 0.000344 -0.000777
# 5 -0.000063 -0.002165 0.000686 0.000344 0.015742 -0.002574
# 6 -0.001841 -0.001462 0.001727 -0.000777 -0.002574 0.022726
#
#
# Mechanical properties :
#
#
# Convention : Reuss Voigt Hill
#
# Bulk Modulus (GPa) = 47.98896 69.99021 58.98959
# Shear Modulus (GPa) = 46.45591 57.93207 52.19399
#
# Velocity S-wave (km/s) = 3.90978 4.36607 4.14421
# Velocity P-wave (km/s) = 6.01437 6.96040 6.50460
#
# Compressibility (1/GPa) = 0.02083813
#
# Stress axis : x y z
#
# Youngs Moduli (GPa) = 86.14338 59.11452 201.74488
#
# Poissons Ratio (x) = 0.09338 0.29443
# Poissons Ratio (y) = 0.13607 0.66228
# Poissons Ratio (z) = 0.12572 0.19406
#
# Static dielectric constant tensor:
#      x y z
#    x 2.004640 0.047180 -0.299450 
#    y 0.047180 2.212910 0.138790 
#    z -0.299450 0.138790 2.060880 
# 
# From -- ./inp_files/284002.got.cif
#   From: 2010.05.17/outbox.cif.g08.bks.cpg/sg2_143_cif.got.tgz:284002.got - 2010.06.03 11:33:40.
