data_PCOD9081888
_publ_section_title
;
Structure prediction by ZEFSAII (Michael W. Deem and Ramdas Pophale) SiO2 
 PCOD9081888
Probable space group: P -1
;
_chemical_formula_sum "Si O2"
_cell_formula_units_Z 16
_cell_length_a 8.236310
_cell_length_b 17.896700
_cell_length_c 9.470937
_cell_angle_alpha 54.030141
_cell_angle_beta 105.142977
_cell_angle_gamma 138.008266
_cell_volume 715.176150
_symmetry_space_group_name_H-M "P -1"
_symmetry_group_IT_number 2
_symmetry_cell_setting 'triclinic'
loop_
_space_group_symop_operation_xyz
x,y,z
-x,-y,-z
loop_
_atom_site_type_symbol
_atom_site_label
_atom_site_fract_x
_atom_site_fract_y
_atom_site_fract_z
Si Si1 0.006305 0.584089 0.133857
Si Si2 0.519048 0.069664 0.563581
Si Si3 0.281921 0.157272 0.396624
Si Si4 0.394912 0.672219 0.461334
Si Si5 0.369735 0.566065 0.291392
Si Si6 0.741637 0.124427 0.023810
Si Si7 0.064516 0.727009 0.354799
Si Si8 0.450712 0.571505 0.995784
O O1 0.805810 0.478342 0.334792
O O2 0.833044 0.521296 0.024711
O O3 0.177092 0.563997 0.187558
O O4 0.187561 0.747281 0.028348
O O5 0.482877 0.159094 0.406759
O O6 0.784499 0.165755 0.599373
O O7 0.500000 0.000000 0.500000
O O8 0.306691 0.960499 0.758401
O O9 0.360791 0.217951 0.505016
O O10 0.346649 0.268107 0.186991
O O11 0.000000 0.000000 0.500000
O O12 0.483768 0.670162 0.333482
O O13 0.243127 0.708829 0.378662
O O14 0.206091 0.418978 0.492077
O O15 0.486276 0.574209 0.166873
O O16 0.953172 0.213510 0.849478
O O17 0.500000 0.000000 0.000000
O O18 0.500000 0.500000 0.000000
#
# Coordination Sequence:
#
# PCOD9081888 Si02
#       8
#     2   2   2   2   2   2   2   2
#     4  10  19  36  63  91 123 156 200 251 305 357
#     4  10  23  34  59  92 124 161 204 241 302 364
#     4  10  24  45  61  81 125 169 200 248 307 366
#     4   9  17  36  64  90 117 156 201 251 307 357
#     4  11  19  36  69  91 116 150 207 260 307 358
#     4  10  19  32  56  92 131 153 190 253 311 354
#     4   9  17  34  56  96 122 148 192 259 307 353
#     4  11  27  42  61  89 125 166 208 250 308 368
#
# _framework density 22.372109999999999
#
# number of rings (size 3 to 8) (size 9 to 14) (size 15 to 20)
#    0.000    2.000    2.500    1.875    5.250    0.000 
#    0.000    3.125    5.500    0.000    0.000    0.000 
#    0.000    0.000    0.000    0.000    0.000    0.000 
#
# Total GULP energy -89201.522450 kJ/mol
# GULP energy per Si atom -5575.095153 kJ/mol
# Density = 2.232119 g / cm^3
# Si number density = 22.372110 Si / 1000 Ang^3
#
#
#
# Elastic Constant Matrix: (Units=GPa)
#
#
# Indices 1 2 3 4 5 6 
#
# 1 18.7620 19.9957 11.1755 4.3055 -4.0821 -4.1285
# 2 19.9957 159.7764 70.3913 18.9436 -21.1799 -5.1906
# 3 11.1755 70.3913 122.0451 9.8500 0.0117 -15.6107
# 4 4.3055 18.9436 9.8500 53.0384 -11.6932 -7.8167
# 5 -4.0821 -21.1799 0.0117 -11.6932 12.1960 -0.3384
# 6 -4.1285 -5.1906 -15.6107 -7.8167 -0.3384 34.7503
#
#
#
# Elastic Compliance Matrix: (Units=1/GPa)
#
#
# Indices 1 2 3 4 5 6 
#
# 1 0.064230 -0.005197 -0.002165 0.000952 0.013560 0.006228
# 2 -0.005197 0.012762 -0.007208 0.001910 0.022225 -0.001303
# 3 -0.002165 -0.007208 0.013256 -0.002583 -0.015623 0.003888
# 4 0.000952 0.001910 -0.002583 0.025596 0.028325 0.005271
# 5 0.013560 0.022225 -0.015623 0.028325 0.152462 0.005769
# 6 0.006228 -0.001303 0.003888 0.005271 0.005769 0.032311
#
#
# Mechanical properties :
#
#
# Convention : Reuss Voigt Hill
#
# Bulk Modulus (GPa) = 16.36450 55.96763 36.16607
# Shear Modulus (GPa) = 14.28050 33.26501 23.77275
#
# Velocity S-wave (km/s) = 2.52923 3.86021 3.26330
# Velocity P-wave (km/s) = 3.98245 6.70368 5.51359
#
# Compressibility (1/GPa) = 0.06110789
#
# Stress axis : x y z
#
# Youngs Moduli (GPa) = 15.56898 78.35757 75.43504
#
# Poissons Ratio (x) = 0.40725 0.16334
# Poissons Ratio (y) = 0.08092 0.54372
# Poissons Ratio (z) = 0.03371 0.56478
#
# Static dielectric constant tensor:
#      x y z
#    x 1.890870 0.025150 -0.049620 
#    y 0.025150 1.846120 0.048640 
#    z -0.049620 0.048640 1.632640 
# 
# From -- ./inp_files/206373.got.cif
#   From: 2010.05.17/outbox.cif.g08.bks.cpg/sg2_104_cif.got.tgz:206373.got - 2010.06.03 11:33:40.
