data_PCOD9081490
_publ_section_title
;
Structure prediction by ZEFSAII (Michael W. Deem and Ramdas Pophale) SiO2 
 PCOD9081490
Probable space group: P -1
;
_chemical_formula_sum "Si O2"
_cell_formula_units_Z 16
_cell_length_a 9.956320
_cell_length_b 15.668457
_cell_length_c 8.487264
_cell_angle_alpha 41.828790
_cell_angle_beta 119.997088
_cell_angle_gamma 134.208736
_cell_volume 632.401466
_symmetry_space_group_name_H-M "P -1"
_symmetry_group_IT_number 2
_symmetry_cell_setting 'triclinic'
loop_
_space_group_symop_operation_xyz
x,y,z
-x,-y,-z
loop_
_atom_site_type_symbol
_atom_site_label
_atom_site_fract_x
_atom_site_fract_y
_atom_site_fract_z
Si Si1 0.948978 0.051155 0.556547
Si Si2 0.062697 0.212604 0.947725
Si Si3 0.198591 0.535523 0.643208
Si Si4 0.859127 0.662658 0.536265
Si Si5 0.733923 0.120742 0.099789
Si Si6 0.751644 0.243471 0.357489
Si Si7 0.420981 0.061807 0.161077
Si Si8 0.603059 0.339362 0.722582
O O1 0.120471 0.206453 0.520390
O O2 0.813623 0.092958 0.342766
O O3 0.874775 0.904397 0.828994
O O4 0.000000 0.000000 0.500000
O O5 0.159579 0.369448 0.891848
O O6 0.100575 0.275774 0.705641
O O7 0.849076 0.122753 0.014918
O O8 0.260298 0.653593 0.658714
O O9 0.365150 0.610910 0.507914
O O10 0.000000 0.500000 0.500000
O O11 0.030817 0.651281 0.707637
O O12 0.675049 0.490613 0.660108
O O13 0.512666 0.004216 0.166867
O O14 0.742752 0.279399 0.895403
O O15 0.576774 0.169795 0.237941
O O16 0.734187 0.092131 0.632118
O O17 0.412153 0.189230 0.882984
#
# Coordination Sequence:
#
# PCOD9081490 Si02
#       8
#     2   2   2   2   2   2   2   2
#     4  10  21  31  48  75 104 140 171 212 256 301
#     4  10  19  32  50  77 105 134 172 211 257 306
#     4  11  17  32  52  79 106 129 172 217 264 298
#     4  11  18  33  54  78 105 130 173 219 257 298
#     4   9  16  34  46  72 110 131 164 212 246 310
#     4  11  19  32  53  78 108 141 162 214 263 310
#     4   9  21  32  47  81 111 137 169 199 269 316
#     4   9  18  32  52  79 104 130 167 218 263 297
#
# _framework density 25.300384000000001
#
# number of rings (size 3 to 8) (size 9 to 14) (size 15 to 20)
#    0.750    1.250    5.000    0.375    0.000    4.500 
#    0.000    0.000    0.000    0.750    6.500    2.625 
#    0.000    0.000    0.000    0.000    0.000    0.000 
#
# Total GULP energy -89172.046506 kJ/mol
# GULP energy per Si atom -5573.252907 kJ/mol
# Density = 2.524280 g / cm^3
# Si number density = 25.300384 Si / 1000 Ang^3
#
#
#
# Elastic Constant Matrix: (Units=GPa)
#
#
# Indices 1 2 3 4 5 6 
#
# 1 38.9537 30.4925 15.5653 -0.0915 2.8037 -6.3601
# 2 30.4925 106.6534 14.2640 -18.7570 16.1873 -32.0267
# 3 15.5653 14.2640 96.7377 -23.2206 11.0499 5.0352
# 4 -0.0915 -18.7570 -23.2206 37.1526 -3.5473 6.8850
# 5 2.8037 16.1873 11.0499 -3.5473 39.2964 -0.3138
# 6 -6.3601 -32.0267 5.0352 6.8850 -0.3138 37.1956
#
#
#
# Elastic Compliance Matrix: (Units=1/GPa)
#
#
# Indices 1 2 3 4 5 6 
#
# 1 0.037818 -0.012670 -0.006939 -0.010000 0.003556 -0.001622
# 2 -0.012670 0.018866 0.001072 0.007227 -0.006416 0.012541
# 3 -0.006939 0.001072 0.014228 0.009871 -0.003088 -0.004043
# 4 -0.010000 0.007227 0.009871 0.037238 -0.001707 -0.003731
# 5 0.003556 -0.006416 -0.003088 -0.001707 0.028520 -0.003942
# 6 -0.001622 0.012541 -0.004043 -0.003731 -0.003942 0.038610
#
#
# Mechanical properties :
#
#
# Convention : Reuss Voigt Hill
#
# Bulk Modulus (GPa) = 29.55295 40.33207 34.94251
# Shear Modulus (GPa) = 22.35806 34.86377 28.61092
#
# Velocity S-wave (km/s) = 2.97594 3.71616 3.36646
# Velocity P-wave (km/s) = 4.84917 5.86422 5.38068
#
# Compressibility (1/GPa) = 0.03383757
#
# Stress axis : x y z
#
# Youngs Moduli (GPa) = 26.44272 53.00602 70.28215
#
# Poissons Ratio (x) = 0.67157 0.48768
# Poissons Ratio (y) = 0.33502 -0.07531
# Poissons Ratio (z) = 0.18348 -0.05680
#
# Static dielectric constant tensor:
#      x y z
#    x 2.090570 -0.013470 -0.004210 
#    y -0.013470 2.009900 0.043860 
#    z -0.004210 0.043860 2.089620 
# 
# From -- ./inp_files/316915.got.cif
#   From: 2010.05.17/outbox.cif.g08.bks.cpg/sg2_159_cif.got.tgz:316915.got - 2010.06.03 11:33:40.
