data_PCOD9081615
_publ_section_title
;
Structure prediction by ZEFSAII (Michael W. Deem and Ramdas Pophale) SiO2 
 PCOD9081615
Probable space group: P -1
;
_chemical_formula_sum "Si O2"
_cell_formula_units_Z 14
_cell_length_a 9.261090
_cell_length_b 13.856994
_cell_length_c 7.588578
_cell_angle_alpha 65.240086
_cell_angle_beta 68.855495
_cell_angle_gamma 35.108385
_cell_volume 508.290985
_symmetry_space_group_name_H-M "P -1"
_symmetry_group_IT_number 2
_symmetry_cell_setting 'triclinic'
loop_
_space_group_symop_operation_xyz
x,y,z
-x,-y,-z
loop_
_atom_site_type_symbol
_atom_site_label
_atom_site_fract_x
_atom_site_fract_y
_atom_site_fract_z
Si Si1 0.608175 0.326684 0.760436
Si Si2 0.945972 0.363202 0.174328
Si Si3 0.095827 0.461039 0.242275
Si Si4 0.555888 0.008420 0.670325
Si Si5 0.247373 0.889452 0.586514
Si Si6 0.641032 0.536692 0.617344
Si Si7 0.637952 0.098375 0.119220
O O1 0.342878 0.501217 0.838259
O O2 0.753696 0.357359 0.709569
O O3 0.527083 0.366140 0.562060
O O4 0.690189 0.165568 0.910077
O O5 0.940224 0.437513 0.299696
O O6 0.152796 0.164659 0.272360
O O7 0.030557 0.388695 0.952980
O O8 0.152609 0.495666 0.364817
O O9 0.358940 0.277896 0.180503
O O10 0.391383 0.008647 0.846718
O O11 0.500000 0.000000 0.500000
O O12 0.547953 0.140605 0.575012
O O13 0.401059 0.701746 0.720119
O O14 0.186698 0.982235 0.725258
O O15 0.000000 0.000000 0.500000
#
# Coordination Sequence:
#
# PCOD9081615 Si02
#       7
#     2   2   2   2   2   2   2
#     4  10  20  34  51  71 102 133 163 207 251 290
#     4   9  16  30  53  76  94 124 164 203 249 291
#     4   8  16  30  50  75  98 120 163 213 243 283
#     4   9  17  31  51  74 100 126 161 201 237 289
#     4  10  19  32  53  75  97 129 167 201 239 296
#     4  10  21  34  48  74 104 130 162 206 253 288
#     4   8  17  33  51  71  97 130 163 203 248 283
#
# _framework density 27.543278000000001
#
# number of rings (size 3 to 8) (size 9 to 14) (size 15 to 20)
#    0.000    2.857    0.000    2.571    0.000    6.857 
#    0.000    1.429    0.000    3.429    0.000    0.000 
#    0.000    0.000    0.000    0.000    0.000    0.000 
#
# Total GULP energy -78030.088635 kJ/mol
# GULP energy per Si atom -5573.577760 kJ/mol
# Density = 2.748059 g / cm^3
# Si number density = 27.543278 Si / 1000 Ang^3
#
#
#
# Elastic Constant Matrix: (Units=GPa)
#
#
# Indices 1 2 3 4 5 6 
#
# 1 205.9535 24.6232 51.8002 -6.7142 -3.5551 30.8119
# 2 24.6232 55.5855 16.5158 -18.5839 1.6198 14.2179
# 3 51.8002 16.5158 104.7285 -32.7626 0.3665 19.3663
# 4 -6.7142 -18.5839 -32.7626 26.6175 2.7030 -1.2306
# 5 -3.5551 1.6198 0.3665 2.7030 46.8087 -10.0103
# 6 30.8119 14.2179 19.3663 -1.2306 -10.0103 43.3780
#
#
#
# Elastic Compliance Matrix: (Units=1/GPa)
#
#
# Indices 1 2 3 4 5 6 
#
# 1 0.006345 -0.003127 -0.004178 -0.005863 0.000610 -0.001642
# 2 -0.003127 0.030544 0.008837 0.031438 -0.005783 -0.012178
# 3 -0.004178 0.008837 0.022294 0.032582 -0.004833 -0.010073
# 4 -0.005863 0.031438 0.032582 0.098396 -0.011884 -0.020637
# 5 0.000610 -0.005783 -0.004833 -0.011884 0.024232 0.008875
# 6 -0.001642 -0.012178 -0.010073 -0.020637 0.008875 0.034171
#
#
# Mechanical properties :
#
#
# Convention : Reuss Voigt Hill
#
# Bulk Modulus (GPa) = 16.06512 61.34954 38.70733
# Shear Modulus (GPa) = 21.39788 41.58273 31.49031
#
# Velocity S-wave (km/s) = 2.79028 3.88973 3.38494
# Velocity P-wave (km/s) = 4.02818 6.51886 5.41857
#
# Compressibility (1/GPa) = 0.06224664
#
# Stress axis : x y z
#
# Youngs Moduli (GPa) = 157.59764 32.73943 44.85588
#
# Poissons Ratio (x) = 0.10239 0.18741
# Poissons Ratio (y) = 0.49288 -0.39640
# Poissons Ratio (z) = 0.65844 -0.28933
#
# Static dielectric constant tensor:
#      x y z
#    x 2.291240 -0.056650 -0.125710 
#    y -0.056650 2.189470 0.125850 
#    z -0.125710 0.125850 2.336850 
# 
# From -- ./inp_files/169385.got.cif
#   From: 2010.05.17/outbox.cif.g08.bks.cpg/sg2_85_cif.got.tgz:169385.got - 2010.06.03 11:33:40.
