data_PCOD9081559
_publ_section_title
;
Structure prediction by ZEFSAII (Michael W. Deem and Ramdas Pophale) SiO2 
 PCOD9081559
Probable space group: P -1
;
_chemical_formula_sum "Si O2"
_cell_formula_units_Z 14
_cell_length_a 8.607196
_cell_length_b 21.691568
_cell_length_c 10.794806
_cell_angle_alpha 138.665853
_cell_angle_beta 139.060165
_cell_angle_gamma 35.392294
_cell_volume 714.799090
_symmetry_space_group_name_H-M "P -1"
_symmetry_group_IT_number 2
_symmetry_cell_setting 'triclinic'
loop_
_space_group_symop_operation_xyz
x,y,z
-x,-y,-z
loop_
_atom_site_type_symbol
_atom_site_label
_atom_site_fract_x
_atom_site_fract_y
_atom_site_fract_z
Si Si1 0.709338 0.764315 0.790371
Si Si2 0.699605 0.625142 0.990449
Si Si3 0.845357 0.350567 0.321652
Si Si4 0.641862 0.668171 0.294303
Si Si5 0.169664 0.883815 0.501124
Si Si6 0.072809 0.252328 0.825615
Si Si7 0.403934 0.422413 0.639977
O O1 0.390248 0.872065 0.720931
O O2 0.669422 0.660742 0.593110
O O3 0.939975 0.744883 0.795294
O O4 0.820372 0.761827 0.989806
O O5 0.437603 0.635662 0.774293
O O6 0.565878 0.657995 0.096552
O O7 0.747969 0.717221 0.105051
O O8 0.000000 0.500000 0.000000
O O9 0.727094 0.466148 0.349537
O O10 0.068322 0.335299 0.537072
O O11 0.385396 0.781401 0.379966
O O12 0.707247 0.565317 0.267518
O O13 0.954325 0.852321 0.375274
O O14 0.000000 0.000000 0.500000
O O15 0.744115 0.359952 0.767480
#
# Coordination Sequence:
#
# PCOD9081559 Si02
#       7
#     2   2   2   2   2   2   2
#     4   9  19  34  57  80 105 137 183 237 264 313
#     4  12  24  32  49  82 123 160 168 203 268 333
#     4  10  19  32  52  75 109 151 187 215 260 314
#     4   9  21  36  53  79 109 141 190 226 261 320
#     4   9  20  42  66  80  95 134 191 247 280 301
#     4  10  21  35  50  83 115 138 183 219 264 334
#     4   9  18  32  52  75 106 150 188 222 254 304
#
# _framework density 19.585920999999999
#
# number of rings (size 3 to 8) (size 9 to 14) (size 15 to 20)
#    0.000    2.857    1.429    3.429    4.000    4.571 
#    0.000    0.714    0.000    4.286    0.000    0.000 
#    0.000    0.000    0.000    0.000    0.000    0.000 
#
# Total GULP energy -77992.277727 kJ/mol
# GULP energy per Si atom -5570.876980 kJ/mol
# Density = 1.954134 g / cm^3
# Si number density = 19.585921 Si / 1000 Ang^3
#
#
#
# Elastic Constant Matrix: (Units=GPa)
#
#
# Indices 1 2 3 4 5 6 
#
# 1 32.1356 6.9328 11.3167 4.4704 30.9615 2.6338
# 2 6.9328 87.4588 15.3907 -10.2697 16.9210 13.4975
# 3 11.3167 15.3907 61.0034 -18.7359 23.9221 -4.0966
# 4 4.4704 -10.2697 -18.7359 17.9947 0.5332 3.5248
# 5 30.9615 16.9210 23.9221 0.5332 44.7557 1.5516
# 6 2.6338 13.4975 -4.0966 3.5248 1.5516 15.9617
#
#
#
# Elastic Compliance Matrix: (Units=1/GPa)
#
#
# Indices 1 2 3 4 5 6 
#
# 1 0.104783 0.005670 0.003837 -0.014488 -0.076146 -0.010498
# 2 0.005670 0.017019 0.002314 0.014338 -0.011181 -0.016812
# 3 0.003837 0.002314 0.036112 0.038573 -0.023305 0.000426
# 4 -0.014488 0.014338 0.038573 0.112526 -0.016556 -0.023073
# 5 -0.076146 -0.011181 -0.023305 -0.016556 0.091527 0.010797
# 6 -0.010498 -0.016812 0.000426 -0.023073 0.010797 0.082754
#
#
# Mechanical properties :
#
#
# Convention : Reuss Voigt Hill
#
# Bulk Modulus (GPa) = 5.50800 27.54204 16.52502
# Shear Modulus (GPa) = 10.38210 25.53960 17.96085
#
# Velocity S-wave (km/s) = 2.30484 3.61498 3.03153
# Velocity P-wave (km/s) = 3.14665 5.61398 4.55073
#
# Compressibility (1/GPa) = 0.18155420
#
# Stress axis : x y z
#
# Youngs Moduli (GPa) = 9.54349 58.75824 27.69200
#
# Poissons Ratio (x) = -0.33316 -0.10624
# Poissons Ratio (y) = -0.05411 -0.06407
# Poissons Ratio (z) = -0.03661 -0.13594
#
# Static dielectric constant tensor:
#      x y z
#    x 1.717310 -0.018270 0.038550 
#    y -0.018270 1.688610 0.004290 
#    z 0.038550 0.004290 1.740130 
# 
# From -- ./inp_files/349565.got.cif
#   From: 2010.05.17/outbox.cif.g08.bks.cpg/sg2_175_cif.got.tgz:349565.got - 2010.06.03 11:33:40.
