data_PCOD9081863
_publ_section_title
;
Structure prediction by ZEFSAII (Michael W. Deem and Ramdas Pophale) SiO2 
 PCOD9081863
Probable space group: P -1
;
_chemical_formula_sum "Si O2"
_cell_formula_units_Z 14
_cell_length_a 16.456742
_cell_length_b 11.329815
_cell_length_c 4.908062
_cell_angle_alpha 69.100880
_cell_angle_beta 93.136003
_cell_angle_gamma 54.257538
_cell_volume 650.785028
_symmetry_space_group_name_H-M "P -1"
_symmetry_group_IT_number 2
_symmetry_cell_setting 'triclinic'
loop_
_space_group_symop_operation_xyz
x,y,z
-x,-y,-z
loop_
_atom_site_type_symbol
_atom_site_label
_atom_site_fract_x
_atom_site_fract_y
_atom_site_fract_z
Si Si1 0.100222 0.871233 0.815726
Si Si2 0.988413 0.747820 0.019703
Si Si3 0.302256 0.526773 0.047447
Si Si4 0.388676 0.572353 0.549905
Si Si5 0.163858 0.251276 0.664543
Si Si6 0.828777 0.583688 0.969260
Si Si7 0.781365 0.048264 0.847636
O O1 0.196052 0.712598 0.792717
O O2 0.151484 0.931677 0.947561
O O3 0.059168 0.798587 0.064487
O O4 0.000000 0.000000 0.500000
O O5 0.061731 0.596110 0.952373
O O6 0.947976 0.700520 0.298116
O O7 0.873264 0.916057 0.755948
O O8 0.393241 0.487369 0.897010
O O9 0.329332 0.542587 0.343696
O O10 0.266971 0.417931 0.103157
O O11 0.500000 0.500000 0.500000
O O12 0.318073 0.770155 0.414289
O O13 0.174575 0.291715 0.331627
O O14 0.245045 0.057056 0.920489
O O15 0.176402 0.359530 0.774025
#
# Coordination Sequence:
#
# PCOD9081863 Si02
#       7
#     2   2   2   2   2   2   2
#     4  10  19  32  56  85 125 153 191 237 292 348
#     4   9  20  32  54  81 117 158 194 231 271 339
#     4  10  23  38  63  87 116 152 194 236 294 352
#     4  11  22  43  66  89 112 143 194 256 305 345
#     4  10  23  34  57  79 127 155 201 226 270 341
#     4  11  21  39  54  85 119 164 190 225 275 344
#     4   9  22  35  56  89 117 154 197 238 300 334
#
# _framework density 21.51248
#
# number of rings (size 3 to 8) (size 9 to 14) (size 15 to 20)
#    0.857    1.143    0.000    3.429    2.000    5.714 
#    0.000    0.000    0.000    5.143    0.000    0.000 
#    0.000    0.000    0.000    0.000    0.000    0.000 
#
# Total GULP energy -78143.960291 kJ/mol
# GULP energy per Si atom -5581.711449 kJ/mol
# Density = 2.146352 g / cm^3
# Si number density = 21.512480 Si / 1000 Ang^3
#
#
#
# Elastic Constant Matrix: (Units=GPa)
#
#
# Indices 1 2 3 4 5 6 
#
# 1 78.6980 26.7740 -2.5125 -12.0121 -16.6514 4.9138
# 2 26.7740 51.6387 9.0028 -11.8878 -13.0280 13.2073
# 3 -2.5125 9.0028 30.1955 4.7532 -3.1634 4.6455
# 4 -12.0121 -11.8878 4.7532 26.7450 -1.1633 -2.3455
# 5 -16.6514 -13.0280 -3.1634 -1.1633 21.7036 5.8967
# 6 4.9138 13.2073 4.6455 -2.3455 5.8967 39.4120
#
#
#
# Elastic Compliance Matrix: (Units=1/GPa)
#
#
# Indices 1 2 3 4 5 6 
#
# 1 0.018192 -0.004993 0.003833 0.005588 0.012521 -0.002587
# 2 -0.004993 0.035148 -0.009258 0.014828 0.020021 -0.012178
# 3 0.003833 -0.009258 0.038468 -0.009347 0.003293 -0.002959
# 4 0.005588 0.014828 -0.009347 0.048476 0.015510 -0.004000
# 5 0.012521 0.020021 0.003293 0.015510 0.074125 -0.018826
# 6 -0.002587 -0.012178 -0.002959 -0.004000 -0.018826 0.032704
#
#
# Mechanical properties :
#
#
# Convention : Reuss Voigt Hill
#
# Bulk Modulus (GPa) = 14.09048 25.22900 19.65974
# Shear Modulus (GPa) = 17.14641 26.05667 21.60154
#
# Velocity S-wave (km/s) = 2.82626 3.48406 3.17225
# Velocity P-wave (km/s) = 4.14903 5.28563 4.75144
#
# Compressibility (1/GPa) = 0.07096991
#
# Stress axis : x y z
#
# Youngs Moduli (GPa) = 54.97054 28.45134 25.99553
#
# Poissons Ratio (x) = 0.14207 -0.09963
# Poissons Ratio (y) = 0.27449 0.24067
# Poissons Ratio (z) = -0.21068 0.26340
#
# Static dielectric constant tensor:
#      x y z
#    x 1.792410 0.009900 -0.034130 
#    y 0.009900 1.835150 -0.012460 
#    z -0.034130 -0.012460 1.853540 
# 
# From -- ./inp_files/91343.got.cif
#   From: 2010.05.17/outbox.cif.g08.bks.cpg/sg2_46_cif.got.tgz:91343.got - 2010.06.03 11:33:40.
