data_PCOD9081395
_publ_section_title
;
Structure prediction by ZEFSAII (Michael W. Deem and Ramdas Pophale) SiO2 
 PCOD9081395
Probable space group: P -1
;
_chemical_formula_sum "Si O2"
_cell_formula_units_Z 16
_cell_length_a 12.914408
_cell_length_b 20.769670
_cell_length_c 9.175165
_cell_angle_alpha 133.014563
_cell_angle_beta 130.587826
_cell_angle_gamma 22.981700
_cell_volume 700.376502
_symmetry_space_group_name_H-M "P -1"
_symmetry_group_IT_number 2
_symmetry_cell_setting 'triclinic'
loop_
_space_group_symop_operation_xyz
x,y,z
-x,-y,-z
loop_
_atom_site_type_symbol
_atom_site_label
_atom_site_fract_x
_atom_site_fract_y
_atom_site_fract_z
Si Si1 0.159732 0.950098 0.432127
Si Si2 0.298214 0.499196 0.408062
Si Si3 0.068527 0.851973 0.960234
Si Si4 0.960252 0.536789 0.193460
Si Si5 0.878055 0.824384 0.965477
Si Si6 0.574240 0.238432 0.027938
Si Si7 0.602987 0.804637 0.751038
Si Si8 0.195821 0.684549 0.330721
O O1 0.146507 0.881739 0.196808
O O2 0.456802 0.811929 0.534315
O O3 0.000000 0.000000 0.500000
O O4 0.006753 0.124264 0.517090
O O5 0.045052 0.590505 0.385931
O O6 0.205527 0.609545 0.355929
O O7 0.511099 0.434552 0.598061
O O8 0.469910 0.323606 0.223373
O O9 0.296552 0.742322 0.881931
O O10 0.019148 0.788775 0.900104
O O11 0.795277 0.040589 0.934523
O O12 0.163288 0.364270 0.200191
O O13 0.661792 0.668114 0.142760
O O14 0.000000 0.500000 0.000000
O O15 0.080296 0.710576 0.113377
O O16 0.635393 0.023088 0.101633
O O17 0.735233 0.810581 0.791408
#
# Coordination Sequence:
#
# PCOD9081395 Si02
#       8
#     2   2   2   2   2   2   2   2
#     4  11  19  35  60  83 112 143 189 232 275 322
#     4  10  19  34  56  85 112 144 184 235 277 325
#     4  11  21  37  59  80 112 154 185 226 276 338
#     4  10  19  33  55  78 110 143 183 230 274 320
#     4  10  19  33  55  86 108 141 185 236 275 318
#     4  10  22  36  56  80 112 150 189 220 281 342
#     4  10  20  32  56  87 109 136 190 235 276 318
#     4  10  19  31  57  86 110 139 188 232 277 321
#
# _framework density 22.844854999999999
#
# number of rings (size 3 to 8) (size 9 to 14) (size 15 to 20)
#    0.000    1.750    3.750    3.750    0.000    2.000 
#    0.000    3.125    5.500    2.250    0.000    0.000 
#    0.000    0.000    0.000    0.000    0.000    0.000 
#
# Total GULP energy -89437.596566 kJ/mol
# GULP energy per Si atom -5589.849785 kJ/mol
# Density = 2.279286 g / cm^3
# Si number density = 22.844855 Si / 1000 Ang^3
#
#
#
# Elastic Constant Matrix: (Units=GPa)
#
#
# Indices 1 2 3 4 5 6 
#
# 1 106.8456 30.2592 27.9808 -15.9039 32.6493 1.7831
# 2 30.2592 92.1811 42.1462 -40.8808 17.1373 6.1224
# 3 27.9808 42.1462 86.5629 -33.6870 30.7650 -11.4245
# 4 -15.9039 -40.8808 -33.6870 45.5775 -10.9360 5.6917
# 5 32.6493 17.1373 30.7650 -10.9360 38.9094 -0.9015
# 6 1.7831 6.1224 -11.4245 5.6917 -0.9015 25.0475
#
#
#
# Elastic Compliance Matrix: (Units=1/GPa)
#
#
# Indices 1 2 3 4 5 6 
#
# 1 0.013118 -0.002488 0.000811 0.000500 -0.010423 -0.000444
# 2 -0.002488 0.022041 -0.005304 0.016638 0.000987 -0.011375
# 3 0.000811 -0.005304 0.023419 0.008204 -0.014335 0.009540
# 4 0.000500 0.016638 0.008204 0.043889 -0.002140 -0.010411
# 5 -0.010423 0.000987 -0.014335 -0.002140 0.044654 -0.003944
# 6 -0.000444 -0.011375 0.009540 -0.010411 -0.003944 0.049311
#
#
# Mechanical properties :
#
#
# Convention : Reuss Voigt Hill
#
# Bulk Modulus (GPa) = 22.41309 54.04023 38.22666
# Shear Modulus (GPa) = 22.19594 34.25377 28.22486
#
# Velocity S-wave (km/s) = 3.12042 3.87642 3.51878
# Velocity P-wave (km/s) = 4.77651 6.61379 5.76876
#
# Compressibility (1/GPa) = 0.04461678
#
# Stress axis : x y z
#
# Youngs Moduli (GPa) = 76.22882 45.37011 42.70037
#
# Poissons Ratio (x) = 0.11289 -0.03465
# Poissons Ratio (y) = 0.18967 0.22649
# Poissons Ratio (z) = -0.06186 0.24065
#
# Static dielectric constant tensor:
#      x y z
#    x 1.951670 -0.041250 -0.003540 
#    y -0.041250 1.866980 0.025430 
#    z -0.003540 0.025430 1.889530 
# 
# From -- ./inp_files/435903.got.cif
#   From: 2010.05.17/outbox.cif.g08.bks.cpg/sg2_218_cif.got.tgz:435903.got - 2010.06.03 11:33:40.
