data_PCOD9081658
_publ_section_title
;
Structure prediction by ZEFSAII (Michael W. Deem and Ramdas Pophale) SiO2 
 PCOD9081658
Probable space group: P -1
;
_chemical_formula_sum "Si O2"
_cell_formula_units_Z 16
_cell_length_a 12.555641
_cell_length_b 21.268714
_cell_length_c 15.461215
_cell_angle_alpha 27.961485
_cell_angle_beta 28.259930
_cell_angle_gamma 29.426202
_cell_volume 832.285056
_symmetry_space_group_name_H-M "P -1"
_symmetry_group_IT_number 2
_symmetry_cell_setting 'triclinic'
loop_
_space_group_symop_operation_xyz
x,y,z
-x,-y,-z
loop_
_atom_site_type_symbol
_atom_site_label
_atom_site_fract_x
_atom_site_fract_y
_atom_site_fract_z
Si Si1 0.122283 0.040047 0.279567
Si Si2 0.645487 0.034751 0.971795
Si Si3 0.973903 0.582299 0.550907
Si Si4 0.184927 0.651475 0.824924
Si Si5 0.528551 0.596046 0.943144
Si Si6 0.332390 0.348003 0.845985
Si Si7 0.026772 0.277231 0.800584
Si Si8 0.527106 0.555182 0.549710
O O1 0.185680 0.962047 0.235274
O O2 0.386737 0.034187 0.125685
O O3 0.000000 0.000000 0.500000
O O4 0.929702 0.210454 0.196377
O O5 0.543240 0.186595 0.914337
O O6 0.789957 0.882570 0.103725
O O7 0.736257 0.648490 0.701773
O O8 0.916863 0.675721 0.390891
O O9 0.023763 0.411845 0.699433
O O10 0.225686 0.564048 0.438256
O O11 0.357671 0.668171 0.605727
O O12 0.358250 0.509271 0.927817
O O13 0.945017 0.640559 0.967459
O O14 0.500000 0.500000 0.000000
O O15 0.251227 0.711947 0.017594
O O16 0.370456 0.472547 0.721924
O O17 0.386254 0.371184 0.679006
#
# Coordination Sequence:
#
# PCOD9081658 Si02
#       8
#     2   2   2   2   2   2   2   2
#     4  10  21  32  55  83 112 149 175 230 287 334
#     4  10  22  37  53  81 120 146 183 221 286 343
#     4  10  20  34  56  83 108 142 192 229 277 324
#     4  11  20  35  57  85 113 139 189 233 280 329
#     4  10  19  32  53  81 110 140 177 229 279 322
#     4  10  23  39  56  83 112 152 186 235 275 325
#     4  10  21  34  54  83 112 146 176 234 279 338
#     4  11  21  37  61  82 110 146 196 235 271 324
#
# _framework density 19.224181999999999
#
# number of rings (size 3 to 8) (size 9 to 14) (size 15 to 20)
#    0.000    1.750    2.500    2.625    5.250    1.000 
#    0.000    0.625    0.000    0.750    0.000    0.000 
#    0.000    0.000    0.000    0.000    0.000    0.000 
#
# Total GULP energy -89218.694435 kJ/mol
# GULP energy per Si atom -5576.168402 kJ/mol
# Density = 1.918043 g / cm^3
# Si number density = 19.224182 Si / 1000 Ang^3
#
#
#
# Elastic Constant Matrix: (Units=GPa)
#
#
# Indices 1 2 3 4 5 6 
#
# 1 34.1602 12.0767 2.9283 5.0007 8.5557 -8.8886
# 2 12.0767 87.8762 14.9470 9.2602 14.2599 -13.5206
# 3 2.9283 14.9470 59.9051 20.2927 14.2429 2.3141
# 4 5.0007 9.2602 20.2927 34.5923 -6.7455 5.5445
# 5 8.5557 14.2599 14.2429 -6.7455 24.8693 -0.2327
# 6 -8.8886 -13.5206 2.3141 5.5445 -0.2327 17.3435
#
#
#
# Elastic Compliance Matrix: (Units=1/GPa)
#
#
# Indices 1 2 3 4 5 6 
#
# 1 0.048301 0.005210 0.012609 -0.028147 -0.034126 0.035674
# 2 0.005210 0.017489 0.003570 -0.014171 -0.017521 0.020123
# 3 0.012609 0.003570 0.033181 -0.031107 -0.033692 0.014311
# 4 -0.028147 -0.014171 -0.031107 0.072762 0.054950 -0.043846
# 5 -0.034126 -0.017521 -0.033692 0.054950 0.095795 -0.042935
# 6 0.035674 0.020123 0.014311 -0.043846 -0.042935 0.103161
#
#
# Mechanical properties :
#
#
# Convention : Reuss Voigt Hill
#
# Bulk Modulus (GPa) = 7.05465 26.87173 16.96319
# Shear Modulus (GPa) = 13.32766 25.49364 19.41065
#
# Velocity S-wave (km/s) = 2.63587 3.64555 3.18102
# Velocity P-wave (km/s) = 3.59741 5.63280 4.72598
#
# Compressibility (1/GPa) = 0.14175046
#
# Stress axis : x y z
#
# Youngs Moduli (GPa) = 20.70340 57.17896 30.13781
#
# Poissons Ratio (x) = -0.29789 -0.38002
# Poissons Ratio (y) = -0.10786 -0.10761
# Poissons Ratio (z) = -0.26106 -0.20415
#
# Static dielectric constant tensor:
#      x y z
#    x 1.663650 0.008470 0.005390 
#    y 0.008470 1.704360 -0.001820 
#    z 0.005390 -0.001820 1.714950 
# 
# From -- ./inp_files/423499.got.cif
#   From: 2010.05.17/outbox.cif.g08.bks.cpg/sg2_212_cif.got.tgz:423499.got - 2010.06.03 11:33:40.
