data_PCOD9081370
_publ_section_title
;
Structure prediction by ZEFSAII (Michael W. Deem and Ramdas Pophale) SiO2 
 PCOD9081370
Probable space group: P -1
;
_chemical_formula_sum "Si O2"
_cell_formula_units_Z 14
_cell_length_a 14.726173
_cell_length_b 13.289821
_cell_length_c 5.448542
_cell_angle_alpha 117.166736
_cell_angle_beta 93.420723
_cell_angle_gamma 42.468259
_cell_volume 568.297028
_symmetry_space_group_name_H-M "P -1"
_symmetry_group_IT_number 2
_symmetry_cell_setting 'triclinic'
loop_
_space_group_symop_operation_xyz
x,y,z
-x,-y,-z
loop_
_atom_site_type_symbol
_atom_site_label
_atom_site_fract_x
_atom_site_fract_y
_atom_site_fract_z
Si Si1 0.695883 0.409664 0.843985
Si Si2 0.890987 0.503254 0.963019
Si Si3 0.992390 0.825893 0.573702
Si Si4 0.483865 0.607680 0.412668
Si Si5 0.079676 0.169364 0.934788
Si Si6 0.615785 0.043671 0.173064
Si Si7 0.444611 0.206051 0.838043
O O1 0.626919 0.353609 0.738215
O O2 0.604212 0.610959 0.945870
O O3 0.863448 0.248341 0.584024
O O4 0.652467 0.470345 0.189636
O O5 0.949713 0.361905 0.601158
O O6 0.923817 0.388088 0.073825
O O7 0.715291 0.698166 0.111372
O O8 0.000000 0.500000 0.000000
O O9 0.881093 0.926855 0.432767
O O10 0.935165 0.903820 0.925046
O O11 0.500000 0.500000 0.500000
O O12 0.404100 0.801346 0.684957
O O13 0.203103 0.142845 0.989101
O O14 0.535943 0.077979 0.952415
O O15 0.537627 0.096535 0.480167
#
# Coordination Sequence:
#
# PCOD9081370 Si02
#       7
#     2   2   2   2   2   2   2
#     4   9  19  33  53  87 107 150 196 242 269 333
#     4   9  22  40  64  90 112 147 194 238 283 345
#     4   9  21  37  62  78 116 151 191 228 293 338
#     4  10  19  31  56  82 117 146 197 240 276 327
#     4  10  22  39  60  82 119 156 182 236 292 343
#     4  11  22  39  57  86 117 155 191 231 291 335
#     4  10  21  36  63  82 114 152 194 232 283 343
#
# _framework density 24.635005
#
# number of rings (size 3 to 8) (size 9 to 14) (size 15 to 20)
#    0.857    1.429    1.429    0.857    6.000    0.571 
#    0.000    2.857    0.000    0.000    0.000    0.000 
#    0.000    0.000    0.000    0.000    0.000    0.000 
#
# Total GULP energy -77987.616582 kJ/mol
# GULP energy per Si atom -5570.544042 kJ/mol
# Density = 2.457893 g / cm^3
# Si number density = 24.635005 Si / 1000 Ang^3
#
#
#
# Elastic Constant Matrix: (Units=GPa)
#
#
# Indices 1 2 3 4 5 6 
#
# 1 106.9738 20.7886 24.6235 3.6954 -12.1087 -12.6060
# 2 20.7886 110.3745 52.7399 -23.0726 -5.2854 -28.0291
# 3 24.6235 52.7399 92.0444 -26.9020 -24.2034 -14.5492
# 4 3.6954 -23.0726 -26.9020 38.5435 3.2125 0.5121
# 5 -12.1087 -5.2854 -24.2034 3.2125 31.9038 9.9975
# 6 -12.6060 -28.0291 -14.5492 0.5121 9.9975 46.6279
#
#
#
# Elastic Compliance Matrix: (Units=1/GPa)
#
#
# Indices 1 2 3 4 5 6 
#
# 1 0.010639 -0.001214 -0.002568 -0.003716 0.001960 0.000966
# 2 -0.001214 0.015719 -0.007891 0.004480 -0.006824 0.008072
# 3 -0.002568 -0.007891 0.022523 0.010074 0.014287 -0.001584
# 4 -0.003716 0.004480 0.010074 0.035784 0.002123 0.003983
# 5 0.001960 -0.006824 0.014287 0.002123 0.044288 -0.008633
# 6 0.000966 0.008072 -0.001584 0.003983 -0.008633 0.027873
#
#
# Mechanical properties :
#
#
# Convention : Reuss Voigt Hill
#
# Bulk Modulus (GPa) = 39.16276 56.18852 47.67564
# Shear Modulus (GPa) = 26.49920 37.49776 31.99848
#
# Velocity S-wave (km/s) = 3.28330 3.90568 3.60794
# Velocity P-wave (km/s) = 5.50501 6.57245 6.06227
#
# Compressibility (1/GPa) = 0.02553447
#
# Stress axis : x y z
#
# Youngs Moduli (GPa) = 93.99146 63.61783 44.39817
#
# Poissons Ratio (x) = 0.07725 0.11404
# Poissons Ratio (y) = 0.11413 0.35034
# Poissons Ratio (z) = 0.24141 0.50200
#
# Static dielectric constant tensor:
#      x y z
#    x 2.384900 -0.218250 0.440610 
#    y -0.218250 2.103180 -0.208480 
#    z 0.440610 -0.208480 2.475320 
# 
# From -- ./inp_files/98244.got.cif
#   From: 2010.05.17/outbox.cif.g08.bks.cpg/sg2_50_cif.got.tgz:98244.got - 2010.06.03 11:33:40.
