data_PCOD9081188
_publ_section_title
;
Structure prediction by ZEFSAII (Michael W. Deem and Ramdas Pophale) SiO2 
 PCOD9081188
Probable space group: P -1
;
_chemical_formula_sum "Si O2"
_cell_formula_units_Z 16
_cell_length_a 12.180909
_cell_length_b 10.707265
_cell_length_c 16.486639
_cell_angle_alpha 45.105145
_cell_angle_beta 135.346760
_cell_angle_gamma 99.926625
_cell_volume 802.176673
_symmetry_space_group_name_H-M "P -1"
_symmetry_group_IT_number 2
_symmetry_cell_setting 'triclinic'
loop_
_space_group_symop_operation_xyz
x,y,z
-x,-y,-z
loop_
_atom_site_type_symbol
_atom_site_label
_atom_site_fract_x
_atom_site_fract_y
_atom_site_fract_z
Si Si1 0.029932 0.452457 0.276803
Si Si2 0.735881 0.278512 0.038824
Si Si3 0.685309 0.816736 0.600564
Si Si4 0.413610 0.272327 0.143106
Si Si5 0.874184 0.254871 0.854002
Si Si6 0.868748 0.950881 0.757964
Si Si7 0.187788 0.982067 0.641582
Si Si8 0.523602 0.543477 0.652794
O O1 0.121349 0.326518 0.294660
O O2 0.124002 0.576859 0.280268
O O3 0.110031 0.241553 0.475451
O O4 0.780922 0.641356 0.053405
O O5 0.958974 0.120746 0.184121
O O6 0.750468 0.123069 0.187798
O O7 0.668672 0.507767 0.944739
O O8 0.576941 0.384363 0.831262
O O9 0.743602 0.890902 0.673841
O O10 0.630666 0.657856 0.666991
O O11 0.502670 0.046593 0.347602
O O12 0.609467 0.189323 0.230451
O O13 0.645138 0.382679 0.710995
O O14 0.012250 0.202809 0.029530
O O15 0.000000 0.000000 0.000000
O O16 0.716961 0.222853 0.580711
O O17 0.000000 0.000000 0.500000
#
# Coordination Sequence:
#
# PCOD9081188 Si02
#       8
#     2   2   2   2   2   2   2   2
#     4  10  21  35  55  79 115 152 178 224 268 319
#     4  11  21  30  48  79 115 146 179 208 254 331
#     4  10  19  31  50  85 113 137 179 213 281 341
#     4  11  19  32  52  79 119 153 176 212 262 330
#     4  10  24  41  57  80 106 141 194 234 272 321
#     4  11  20  33  55  81 109 143 176 220 285 331
#     4  11  22  32  49  82 120 155 179 205 266 334
#     4  10  22  33  55  79 111 144 172 232 277 325
#
# _framework density 19.945732
#
# number of rings (size 3 to 8) (size 9 to 14) (size 15 to 20)
#    0.000    1.500    3.750    2.250    1.750    2.000 
#    0.000    0.000    0.000    3.000    0.000    5.250 
#    0.000    0.000    0.000    0.000    0.000    0.000 
#
# Total GULP energy -89328.440851 kJ/mol
# GULP energy per Si atom -5583.027553 kJ/mol
# Density = 1.990033 g / cm^3
# Si number density = 19.945732 Si / 1000 Ang^3
#
#
#
# Elastic Constant Matrix: (Units=GPa)
#
#
# Indices 1 2 3 4 5 6 
#
# 1 105.3667 9.1814 61.5149 -15.7904 -6.9064 -3.5494
# 2 9.1814 37.4124 24.3519 -25.2188 -7.4945 -9.1020
# 3 61.5149 24.3519 137.5600 -18.5848 -4.8423 -6.0808
# 4 -15.7904 -25.2188 -18.5848 32.4828 -4.8286 2.9566
# 5 -6.9064 -7.4945 -4.8423 -4.8286 55.1518 -8.4653
# 6 -3.5494 -9.1020 -6.0808 2.9566 -8.4653 13.1531
#
#
#
# Elastic Compliance Matrix: (Units=1/GPa)
#
#
# Indices 1 2 3 4 5 6 
#
# 1 0.015179 0.015221 -0.006640 0.015253 0.006624 0.012394
# 2 0.015221 0.123569 -0.010495 0.095143 0.039762 0.088970
# 3 -0.006640 -0.010495 0.011153 -0.004955 -0.002374 -0.004312
# 4 0.015253 0.095143 -0.004955 0.108341 0.033884 0.065119
# 5 0.006624 0.039762 -0.002374 0.033884 0.033602 0.042215
# 6 0.012394 0.088970 -0.004312 0.065119 0.042215 0.151478
#
#
# Mechanical properties :
#
#
# Convention : Reuss Voigt Hill
#
# Bulk Modulus (GPa) = 6.84592 52.27061 29.55827
# Shear Modulus (GPa) = 10.08386 32.51027 21.29706
#
# Velocity S-wave (km/s) = 2.25092 4.04163 3.27119
# Velocity P-wave (km/s) = 3.19300 6.93130 5.39621
#
# Compressibility (1/GPa) = 0.14607241
#
# Stress axis : x y z
#
# Youngs Moduli (GPa) = 65.88196 8.09264 89.65948
#
# Poissons Ratio (x) = -0.12318 0.59538
# Poissons Ratio (y) = -1.00280 0.94098
# Poissons Ratio (z) = 0.43749 0.08493
#
# Static dielectric constant tensor:
#      x y z
#    x 1.732260 -0.001030 0.028120 
#    y -0.001030 1.710080 0.001590 
#    z 0.028120 0.001590 1.741090 
# 
# From -- ./inp_files/436890.got.cif
#   From: 2010.05.17/outbox.cif.g08.bks.cpg/sg2_219_cif.got.tgz:436890.got - 2010.06.03 11:33:40.
