data_PCOD9081976
_publ_section_title
;
Structure prediction by ZEFSAII (Michael W. Deem and Ramdas Pophale) SiO2 
 PCOD9081976
Probable space group: P -1
;
_chemical_formula_sum "Si O2"
_cell_formula_units_Z 12
_cell_length_a 14.384303
_cell_length_b 8.698839
_cell_length_c 8.019297
_cell_angle_alpha 124.767283
_cell_angle_beta 32.953636
_cell_angle_gamma 114.051787
_cell_volume 442.695851
_symmetry_space_group_name_H-M "P -1"
_symmetry_group_IT_number 2
_symmetry_cell_setting 'triclinic'
loop_
_space_group_symop_operation_xyz
x,y,z
-x,-y,-z
loop_
_atom_site_type_symbol
_atom_site_label
_atom_site_fract_x
_atom_site_fract_y
_atom_site_fract_z
Si Si1 0.122213 0.951310 0.445086
Si Si2 0.952526 0.448492 0.729811
Si Si3 0.195237 0.883504 0.760950
Si Si4 0.489945 0.808308 0.507028
Si Si5 0.706429 0.809255 0.449973
Si Si6 0.307528 0.490621 0.212165
O O1 0.149511 0.725777 0.249241
O O2 0.271616 0.076253 0.343224
O O3 0.000000 0.000000 0.500000
O O4 0.991768 0.026809 0.839433
O O5 0.149780 0.398019 0.475381
O O6 0.000000 0.500000 0.500000
O O7 0.842376 0.617051 0.105437
O O8 0.299378 0.792389 0.712334
O O9 0.220298 0.709385 0.487886
O O10 0.264427 0.051259 0.661932
O O11 0.517138 0.783099 0.649644
O O12 0.500000 0.000000 0.500000
O O13 0.632920 0.640783 0.116197
O O14 0.500000 0.500000 0.000000
#
# Coordination Sequence:
#
# PCOD9081976 Si02
#       6
#     2   2   2   2   2   2
#     4  12  26  40  59  90 128 165 204 249 304 365
#     4  12  20  37  66  91 118 156 208 255 303 353
#     4  10  19  37  61  89 122 155 203 255 302 358
#     4   9  18  32  57  93 120 149 199 255 306 353
#     4  11  21  37  63  90 119 156 208 258 298 358
#     4  10  19  32  58  94 121 149 193 257 308 349
#
# _framework density 27.106646999999999
#
# number of rings (size 3 to 8) (size 9 to 14) (size 15 to 20)
#    0.000    1.333    5.000    2.500    0.000    0.667 
#    0.000    0.833    0.000    1.000    0.000    0.000 
#    0.000    0.000    0.000    0.000    0.000    0.000 
#
# Total GULP energy -66832.869084 kJ/mol
# GULP energy per Si atom -5569.405757 kJ/mol
# Density = 2.704495 g / cm^3
# Si number density = 27.106647 Si / 1000 Ang^3
#
#
#
# Elastic Constant Matrix: (Units=GPa)
#
#
# Indices 1 2 3 4 5 6 
#
# 1 193.4559 42.3345 26.2561 17.3861 -9.8672 30.2704
# 2 42.3345 72.2406 50.6583 35.3147 15.0110 18.2984
# 3 26.2561 50.6583 206.5058 39.6673 6.0133 18.5074
# 4 17.3861 35.3147 39.6673 45.1732 18.7224 8.9324
# 5 -9.8672 15.0110 6.0133 18.7224 41.2521 6.4958
# 6 30.2704 18.2984 18.5074 8.9324 6.4958 41.9433
#
#
#
# Elastic Compliance Matrix: (Units=1/GPa)
#
#
# Indices 1 2 3 4 5 6 
#
# 1 0.006815 -0.003631 0.000466 -0.001069 0.003987 -0.003930
# 2 -0.003631 0.027066 -0.002761 -0.015390 -0.002656 -0.004281
# 3 0.000466 -0.002761 0.006340 -0.004292 0.002357 -0.001380
# 4 -0.001069 -0.015390 -0.004292 0.043818 -0.014272 0.002258
# 5 0.003987 -0.002656 0.002357 -0.014272 0.033057 -0.004839
# 6 -0.003930 -0.004281 -0.001380 0.002258 -0.004839 0.029423
#
#
# Mechanical properties :
#
#
# Convention : Reuss Voigt Hill
#
# Bulk Modulus (GPa) = 35.24977 78.96668 57.10822
# Shear Modulus (GPa) = 29.79274 49.20396 39.49835
#
# Velocity S-wave (km/s) = 3.31885 4.26514 3.82140
# Velocity P-wave (km/s) = 5.26486 7.31097 6.37060
#
# Compressibility (1/GPa) = 0.02836898
#
# Stress axis : x y z
#
# Youngs Moduli (GPa) = 146.74042 36.94686 157.72703
#
# Poissons Ratio (x) = 0.13414 -0.07343
# Poissons Ratio (y) = 0.53278 0.43544
# Poissons Ratio (z) = -0.06832 0.10200
#
# Static dielectric constant tensor:
#      x y z
#    x 2.764070 0.267790 -0.162300 
#    y 0.267790 2.456010 -0.157110 
#    z -0.162300 -0.157110 2.087660 
# 
# From -- ./inp_files/296536.got.cif
#   From: 2010.05.17/outbox.cif.g08.bks.cpg/sg2_149_cif.got.tgz:296536.got - 2010.06.03 11:33:40.
