data_PCOD9081851
_publ_section_title
;
Structure prediction by ZEFSAII (Michael W. Deem and Ramdas Pophale) SiO2 
 PCOD9081851
Probable space group: P -1
;
_chemical_formula_sum "Si O2"
_cell_formula_units_Z 16
_cell_length_a 7.756656
_cell_length_b 10.531389
_cell_length_c 8.739976
_cell_angle_alpha 112.685107
_cell_angle_beta 102.785319
_cell_angle_gamma 108.410566
_cell_volume 575.003290
_symmetry_space_group_name_H-M "P -1"
_symmetry_group_IT_number 2
_symmetry_cell_setting 'triclinic'
loop_
_space_group_symop_operation_xyz
x,y,z
-x,-y,-z
loop_
_atom_site_type_symbol
_atom_site_label
_atom_site_fract_x
_atom_site_fract_y
_atom_site_fract_z
Si Si1 0.687162 0.431457 0.396267
Si Si2 0.428428 0.857843 0.255917
Si Si3 0.274019 0.145725 0.110284
Si Si4 0.953934 0.129241 0.243943
Si Si5 0.885840 0.357120 0.135297
Si Si6 0.749372 0.191816 0.492773
Si Si7 0.205197 0.371191 0.990877
Si Si8 0.376491 0.349522 0.704426
O O1 0.484363 0.281562 0.248034
O O2 0.754593 0.353707 0.512534
O O3 0.655531 0.586194 0.438049
O O4 0.825144 0.452583 0.286436
O O5 0.319185 0.759405 0.041059
O O6 0.258957 0.819110 0.332248
O O7 0.578425 0.797446 0.333785
O O8 0.544545 0.040321 0.336502
O O9 0.182850 0.221164 0.005685
O O10 0.135763 0.098750 0.211913
O O11 0.241501 0.995698 0.939606
O O12 0.909348 0.152454 0.419280
O O13 0.981214 0.283621 0.238718
O O14 0.044235 0.412129 0.057153
O O15 0.414734 0.511651 0.138972
O O16 0.222060 0.338300 0.801361
#
# Coordination Sequence:
#
# PCOD9081851 Si02
#       8
#     2   2   2   2   2   2   2   2
#     4  10  20  35  56  79 106 137 178 224 266 311
#     4  11  22  36  55  78 109 146 178 216 264 315
#     4   9  16  29  54  81 105 136 176 224 269 310
#     4   9  17  31  54  79 106 138 178 221 265 313
#     4  10  19  32  56  84 107 137 179 223 266 313
#     4  10  22  38  53  76 111 146 180 215 259 316
#     4   9  18  32  53  85 111 132 174 228 270 311
#     4  10  20  34  55  80 109 140 173 219 271 315
#
# _framework density 27.825928999999999
#
# number of rings (size 3 to 8) (size 9 to 14) (size 15 to 20)
#    0.000    2.250    0.000    4.500    0.000    4.500 
#    0.000    1.250    0.000   25.500    0.000    0.000 
#    0.000    0.000    0.000    0.000    0.000    0.000 
#
# Total GULP energy -89409.584742 kJ/mol
# GULP energy per Si atom -5588.099046 kJ/mol
# Density = 2.776260 g / cm^3
# Si number density = 27.825929 Si / 1000 Ang^3
#
#
#
# Elastic Constant Matrix: (Units=GPa)
#
#
# Indices 1 2 3 4 5 6 
#
# 1 71.6746 49.8539 29.4385 -10.8938 -11.3767 31.6122
# 2 49.8539 131.1117 21.7869 -14.4622 -6.0111 -9.7259
# 3 29.4385 21.7869 106.0495 -5.9082 -6.6602 10.3509
# 4 -10.8938 -14.4622 -5.9082 30.0169 12.8193 2.7611
# 5 -11.3767 -6.0111 -6.6602 12.8193 51.7619 -5.2231
# 6 31.6122 -9.7259 10.3509 2.7611 -5.2231 42.3869
#
#
#
# Elastic Compliance Matrix: (Units=1/GPa)
#
#
# Indices 1 2 3 4 5 6 
#
# 1 0.049755 -0.019880 -0.005054 0.010752 0.001178 -0.040990
# 2 -0.019880 0.016411 0.000271 -0.000806 -0.000359 0.018534
# 3 -0.005054 0.000271 0.010685 0.000115 0.000395 0.001263
# 4 0.010752 -0.000806 0.000115 0.041948 -0.009327 -0.012114
# 5 0.001178 -0.000359 0.000395 -0.009327 0.022127 0.002277
# 6 -0.040990 0.018534 0.001263 -0.012114 0.002277 0.059176
#
#
# Mechanical properties :
#
#
# Convention : Reuss Voigt Hill
#
# Bulk Modulus (GPa) = 36.33117 56.77715 46.55416
# Shear Modulus (GPa) = 19.33472 38.68358 29.00915
#
# Velocity S-wave (km/s) = 2.63885 3.73258 3.23231
# Velocity P-wave (km/s) = 4.72966 6.24699 5.54051
#
# Compressibility (1/GPa) = 0.02752457
#
# Stress axis : x y z
#
# Youngs Moduli (GPa) = 20.09855 60.93613 93.59151
#
# Poissons Ratio (x) = 1.21139 0.47298
# Poissons Ratio (y) = 0.39955 -0.02532
# Poissons Ratio (z) = 0.10157 -0.01649
#
# Static dielectric constant tensor:
#      x y z
#    x 2.280600 -0.051530 0.035160 
#    y -0.051530 2.154510 0.005490 
#    z 0.035160 0.005490 2.132520 
# 
# From -- ./inp_files/181575.got.cif
#   From: 2010.05.17/outbox.cif.g08.bks.cpg/sg2_91_cif.got.tgz:181575.got - 2010.06.03 11:33:40.
