data_PCOD9081899
_publ_section_title
;
Structure prediction by ZEFSAII (Michael W. Deem and Ramdas Pophale) SiO2 
 PCOD9081899
Probable space group: P -1
;
_chemical_formula_sum "Si O2"
_cell_formula_units_Z 14
_cell_length_a 8.097603
_cell_length_b 14.071102
_cell_length_c 13.451314
_cell_angle_alpha 149.436276
_cell_angle_beta 75.357476
_cell_angle_gamma 86.405010
_cell_volume 619.621606
_symmetry_space_group_name_H-M "P -1"
_symmetry_group_IT_number 2
_symmetry_cell_setting 'triclinic'
loop_
_space_group_symop_operation_xyz
x,y,z
-x,-y,-z
loop_
_atom_site_type_symbol
_atom_site_label
_atom_site_fract_x
_atom_site_fract_y
_atom_site_fract_z
Si Si1 0.231207 0.735500 0.458081
Si Si2 0.120933 0.876804 0.269174
Si Si3 0.477373 0.990563 0.856706
Si Si4 0.779754 0.212409 0.259371
Si Si5 0.230989 0.373508 0.395076
Si Si6 0.598630 0.601989 0.149743
Si Si7 0.582413 0.759592 0.097006
O O1 0.225290 0.733746 0.575121
O O2 0.428376 0.724390 0.371432
O O3 0.269135 0.500617 0.199866
O O4 0.028616 0.963573 0.651440
O O5 0.340522 0.847609 0.201777
O O6 0.193518 0.615618 0.031738
O O7 0.000000 0.000000 0.500000
O O8 0.371536 0.867171 0.799218
O O9 0.716222 0.799696 0.677714
O O10 0.408518 0.075705 0.832194
O O11 0.384235 0.213750 0.139030
O O12 0.737541 0.430456 0.404579
O O13 0.000000 0.000000 0.000000
O O14 0.000000 0.500000 0.500000
O O15 0.627633 0.748951 0.198201
O O16 0.500000 0.500000 0.000000
#
# Coordination Sequence:
#
# PCOD9081899 Si02
#       7
#     2   2   2   2   2   2   2
#     4  10  19  35  60  89 128 162 210 259 310 375
#     4  10  15  30  59  92 123 164 210 257 312 372
#     4  11  25  42  66  94 128 171 212 268 327 378
#     4  12  25  44  66  94 133 171 214 271 322 380
#     4  11  24  46  67  90 125 169 222 268 320 381
#     4   8  16  31  53  89 121 159 203 252 310 375
#     4  10  19  33  61  92 120 165 209 253 319 381
#
# _framework density 22.594434
#
# number of rings (size 3 to 8) (size 9 to 14) (size 15 to 20)
#    0.000    2.000    7.143    0.429    2.000    0.000 
#    5.143    0.714    0.000    0.857    0.000    0.000 
#    0.000    0.000    0.000    0.000    0.000    0.000 
#
# Total GULP energy -78112.351248 kJ/mol
# GULP energy per Si atom -5579.453661 kJ/mol
# Density = 2.254301 g / cm^3
# Si number density = 22.594434 Si / 1000 Ang^3
#
#
#
# Elastic Constant Matrix: (Units=GPa)
#
#
# Indices 1 2 3 4 5 6 
#
# 1 32.3693 3.5942 25.9598 16.1460 -9.9885 1.5270
# 2 3.5942 119.7072 49.8324 28.1037 -11.8068 -4.8829
# 3 25.9598 49.8324 127.5449 23.6790 -16.9644 -5.4575
# 4 16.1460 28.1037 23.6790 48.3049 -10.3808 -5.4439
# 5 -9.9885 -11.8068 -16.9644 -10.3808 36.3903 10.7257
# 6 1.5270 -4.8829 -5.4575 -5.4439 10.7257 23.1611
#
#
#
# Elastic Compliance Matrix: (Units=1/GPa)
#
#
# Indices 1 2 3 4 5 6 
#
# 1 0.048255 0.006103 -0.008610 -0.014549 0.010684 -0.012291
# 2 0.006103 0.011640 -0.004400 -0.006386 0.001995 -0.001410
# 3 -0.008610 -0.004400 0.011490 0.000251 0.001075 0.001909
# 4 -0.014549 -0.006386 0.000251 0.030035 0.000736 0.006391
# 5 0.010684 0.001995 0.001075 0.000736 0.036744 -0.016873
# 6 -0.012291 -0.001410 0.001909 0.006391 -0.016873 0.053455
#
#
# Mechanical properties :
#
#
# Convention : Reuss Voigt Hill
#
# Bulk Modulus (GPa) = 17.36950 48.71046 33.03998
# Shear Modulus (GPa) = 22.25962 34.92026 28.58994
#
# Velocity S-wave (km/s) = 3.14217 3.93558 3.56104
# Velocity P-wave (km/s) = 4.56820 6.50055 5.61808
#
# Compressibility (1/GPa) = 0.05757218
#
# Stress axis : x y z
#
# Youngs Moduli (GPa) = 20.72345 85.90727 87.03445
#
# Poissons Ratio (x) = -0.52433 0.74936
# Poissons Ratio (y) = -0.12648 0.38292
# Poissons Ratio (z) = 0.17843 0.37796
#
# Static dielectric constant tensor:
#      x y z
#    x 1.943720 0.018470 0.013920 
#    y 0.018470 1.950950 0.030760 
#    z 0.013920 0.030760 1.767910 
# 
# From -- ./inp_files/505725.got.cif
#   From: 2010.05.17/outbox.cif.g08.bks.cpg/sg2_253_cif.got.tgz:505725.got - 2010.06.03 11:33:40.
