data_PCOD9081764
_publ_section_title
;
Structure prediction by ZEFSAII (Michael W. Deem and Ramdas Pophale) SiO2 
 PCOD9081764
Probable space group: P -1
;
_chemical_formula_sum "Si O2"
_cell_formula_units_Z 16
_cell_length_a 30.289774
_cell_length_b 14.803376
_cell_length_c 8.263931
_cell_angle_alpha 136.028842
_cell_angle_beta 44.145084
_cell_angle_gamma 161.713312
_cell_volume 797.209452
_symmetry_space_group_name_H-M "P -1"
_symmetry_group_IT_number 2
_symmetry_cell_setting 'triclinic'
loop_
_space_group_symop_operation_xyz
x,y,z
-x,-y,-z
loop_
_atom_site_type_symbol
_atom_site_label
_atom_site_fract_x
_atom_site_fract_y
_atom_site_fract_z
Si Si1 0.864435 0.871148 0.854718
Si Si2 0.172391 0.901990 0.715864
Si Si3 0.961969 0.775338 0.481051
Si Si4 0.593805 0.598837 0.008789
Si Si5 0.372716 0.614977 0.372852
Si Si6 0.050242 0.668113 0.246054
Si Si7 0.690483 0.961701 0.783506
Si Si8 0.296527 0.743250 0.737558
O O1 0.935047 0.871563 0.745102
O O2 0.701100 0.534217 0.803060
O O3 0.938228 0.024735 0.682099
O O4 0.870453 0.025901 0.114343
O O5 0.040618 0.567066 0.674784
O O6 0.265316 0.016184 0.473980
O O7 0.272684 0.091542 0.855910
O O8 0.017486 0.760446 0.426900
O O9 0.813124 0.455889 0.378835
O O10 0.476378 0.352459 0.140099
O O11 0.500000 0.500000 0.000000
O O12 0.646423 0.563397 0.738832
O O13 0.295733 0.597907 0.629794
O O14 0.541761 0.946052 0.350024
O O15 0.213661 0.936966 0.204506
O O16 0.000000 0.500000 0.000000
O O17 0.733251 0.191876 0.983844
#
# Coordination Sequence:
#
# PCOD9081764 Si02
#       8
#     2   2   2   2   2   2   2   2
#     4   9  18  34  53  78 107 143 178 222 273 319
#     4  11  22  37  56  82 114 146 177 221 284 332
#     4  10  19  32  55  79 106 138 187 232 257 308
#     4  10  21  36  59  83 104 140 187 229 263 317
#     4   8  17  29  53  79 101 129 180 224 258 310
#     4  12  21  35  56  85 109 141 192 231 259 313
#     4  11  22  35  56  81 115 145 174 222 283 330
#     4   9  16  32  51  79 102 137 174 221 263 316
#
# _framework density 20.070007
#
# number of rings (size 3 to 8) (size 9 to 14) (size 15 to 20)
#    0.000    2.000    2.500    1.500    3.500    0.000 
#    0.000    0.625    2.750    0.750    0.000    0.000 
#    0.000    0.000    0.000    0.000    0.000    0.000 
#
# Total GULP energy -89155.986369 kJ/mol
# GULP energy per Si atom -5572.249148 kJ/mol
# Density = 2.002433 g / cm^3
# Si number density = 20.070007 Si / 1000 Ang^3
#
#
#
# Elastic Constant Matrix: (Units=GPa)
#
#
# Indices 1 2 3 4 5 6 
#
# 1 75.7912 9.0849 51.8080 5.3748 -38.9358 9.3225
# 2 9.0849 89.4943 2.1977 -2.2304 -7.4936 8.4807
# 3 51.8080 2.1977 126.0151 0.7195 -46.6155 -13.9912
# 4 5.3748 -2.2304 0.7195 19.8417 -0.7896 -2.7669
# 5 -38.9358 -7.4936 -46.6155 -0.7896 43.7568 -4.5930
# 6 9.3225 8.4807 -13.9912 -2.7669 -4.5930 27.5024
#
#
#
# Elastic Compliance Matrix: (Units=1/GPa)
#
#
# Indices 1 2 3 4 5 6 
#
# 1 0.028295 -0.000486 -0.006548 -0.008318 0.016835 -0.010798
# 2 -0.000486 0.011651 0.000219 0.001081 0.001505 -0.002956
# 3 -0.006548 0.000219 0.017408 0.003653 0.014266 0.013758
# 4 -0.008318 0.001081 0.003653 0.053918 -0.001349 0.009544
# 5 0.016835 0.001505 0.014266 -0.001349 0.054317 0.010022
# 6 -0.010798 -0.002956 0.013758 0.009544 0.010022 0.050565
#
#
# Mechanical properties :
#
#
# Convention : Reuss Voigt Hill
#
# Bulk Modulus (GPa) = 22.87098 46.38685 34.62892
# Shear Modulus (GPa) = 20.46176 33.43419 26.94798
#
# Velocity S-wave (km/s) = 3.19646 4.08595 3.66826
# Velocity P-wave (km/s) = 5.00434 6.73963 5.93574
#
# Compressibility (1/GPa) = 0.04372353
#
# Stress axis : x y z
#
# Youngs Moduli (GPa) = 35.34214 85.82953 57.44583
#
# Poissons Ratio (x) = 0.04171 0.37616
# Poissons Ratio (y) = 0.01718 -0.01259
# Poissons Ratio (z) = 0.23142 -0.01880
#
# Static dielectric constant tensor:
#      x y z
#    x 1.738210 -0.024870 -0.049720 
#    y -0.024870 1.798830 0.027250 
#    z -0.049720 0.027250 1.726830 
# 
# From -- ./inp_files/261602.got.cif
#   From: 2010.05.17/outbox.cif.g08.bks.cpg/sg2_131_cif.got.tgz:261602.got - 2010.06.03 11:33:40.
