data_PCOD9081424
_publ_section_title
;
Structure prediction by ZEFSAII (Michael W. Deem and Ramdas Pophale) SiO2 
 PCOD9081424
Probable space group: P -1
;
_chemical_formula_sum "Si O2"
_cell_formula_units_Z 16
_cell_length_a 9.406534
_cell_length_b 8.289485
_cell_length_c 11.751035
_cell_angle_alpha 80.864144
_cell_angle_beta 67.285286
_cell_angle_gamma 44.506641
_cell_volume 582.780093
_symmetry_space_group_name_H-M "P -1"
_symmetry_group_IT_number 2
_symmetry_cell_setting 'triclinic'
loop_
_space_group_symop_operation_xyz
x,y,z
-x,-y,-z
loop_
_atom_site_type_symbol
_atom_site_label
_atom_site_fract_x
_atom_site_fract_y
_atom_site_fract_z
Si Si1 0.740375 0.028569 0.516233
Si Si2 0.513514 0.677291 0.081966
Si Si3 0.801495 0.338175 0.437470
Si Si4 0.915128 0.212013 0.151538
Si Si5 0.775841 0.779101 0.045864
Si Si6 0.326611 0.500368 0.191293
Si Si7 0.142897 0.114473 0.767185
Si Si8 0.732544 0.677431 0.562457
O O1 0.635776 0.930443 0.585333
O O2 0.970292 0.845565 0.538794
O O3 0.773339 0.979574 0.375406
O O4 0.673662 0.269771 0.524415
O O5 0.743335 0.869909 0.172195
O O6 0.568835 0.821705 0.077442
O O7 0.521848 0.650159 0.946376
O O8 0.326932 0.696776 0.187243
O O9 0.700349 0.592753 0.468952
O O10 0.851705 0.289944 0.293817
O O11 0.146485 0.126613 0.065769
O O12 0.911357 0.022714 0.151636
O O13 0.728160 0.426329 0.102179
O O14 0.000000 0.500000 0.000000
O O15 0.088982 0.620056 0.211303
O O16 0.364668 0.372553 0.307838
O O17 0.000000 0.500000 0.500000
#
# Coordination Sequence:
#
# PCOD9081424 Si02
#       8
#     2   2   2   2   2   2   2   2
#     4   9  19  31  54  88 112 141 190 251 276 333
#     4  10  24  38  57  81 126 149 187 238 300 341
#     4   9  18  31  52  87 116 135 189 246 287 323
#     4  10  21  34  60  85 115 150 190 246 286 341
#     4  10  20  32  57  85 108 151 197 233 276 346
#     4  11  21  39  58  86 115 156 187 242 290 346
#     4  11  19  36  63  83 113 146 203 238 282 338
#     4  10  19  31  61  83 111 148 198 234 285 342
#
# _framework density 27.454609999999999
#
# number of rings (size 3 to 8) (size 9 to 14) (size 15 to 20)
#    0.000    2.000    5.000    0.375    7.000    0.000 
#    0.000    1.250    2.750    1.500    0.000    0.000 
#    0.000    0.000    0.000    0.000    0.000    0.000 
#
# Total GULP energy -89502.852224 kJ/mol
# GULP energy per Si atom -5593.928264 kJ/mol
# Density = 2.739212 g / cm^3
# Si number density = 27.454610 Si / 1000 Ang^3
#
#
#
# Elastic Constant Matrix: (Units=GPa)
#
#
# Indices 1 2 3 4 5 6 
#
# 1 145.8173 30.2527 42.0623 5.5071 7.0985 39.4461
# 2 30.2527 135.3030 43.6549 -8.5875 -0.1561 29.7016
# 3 42.0623 43.6549 165.4206 -6.2619 3.9084 25.3022
# 4 5.5071 -8.5875 -6.2619 43.9970 6.6641 -3.3304
# 5 7.0985 -0.1561 3.9084 6.6641 43.1375 -0.9089
# 6 39.4461 29.7016 25.3022 -3.3304 -0.9089 59.4605
#
#
#
# Elastic Compliance Matrix: (Units=1/GPa)
#
#
# Indices 1 2 3 4 5 6 
#
# 1 0.008873 -0.000516 -0.001364 -0.001614 -0.001198 -0.005157
# 2 -0.000516 0.008846 -0.001649 0.001307 -0.000005 -0.003302
# 3 -0.001364 -0.001649 0.007062 0.000848 -0.000578 -0.001238
# 4 -0.001614 0.001307 0.000848 0.023935 -0.003476 0.001345
# 5 -0.001198 -0.000005 -0.000578 -0.003476 0.023994 0.001215
# 6 -0.005157 -0.003302 -0.001238 0.001345 0.001215 0.022509
#
#
# Mechanical properties :
#
#
# Convention : Reuss Voigt Hill
#
# Bulk Modulus (GPa) = 56.42029 75.38674 65.90351
# Shear Modulus (GPa) = 46.21795 51.35707 48.78751
#
# Velocity S-wave (km/s) = 4.10742 4.32976 4.22005
# Velocity P-wave (km/s) = 6.56426 7.24665 6.91388
#
# Compressibility (1/GPa) = 0.01772412
#
# Stress axis : x y z
#
# Youngs Moduli (GPa) = 112.70638 113.04751 141.59736
#
# Poissons Ratio (x) = 0.05828 0.19315
# Poissons Ratio (y) = 0.05811 0.23345
# Poissons Ratio (z) = 0.15374 0.18638
#
# Static dielectric constant tensor:
#      x y z
#    x 2.256370 -0.128870 -0.034300 
#    y -0.128870 2.234050 -0.063750 
#    z -0.034300 -0.063750 2.081540 
# 
# From -- ./inp_files/275269.got.cif
#   From: 2010.05.17/outbox.cif.g08.bks.cpg/sg2_138_cif.got.tgz:275269.got - 2010.06.03 11:33:40.
