data_PCOD9081269
_publ_section_title
;
Structure prediction by ZEFSAII (Michael W. Deem and Ramdas Pophale) SiO2 
 PCOD9081269
Probable space group: P -1
;
_chemical_formula_sum "Si O2"
_cell_formula_units_Z 16
_cell_length_a 7.880876
_cell_length_b 10.372435
_cell_length_c 14.065203
_cell_angle_alpha 105.676526
_cell_angle_beta 81.299860
_cell_angle_gamma 43.378003
_cell_volume 646.723754
_symmetry_space_group_name_H-M "P -1"
_symmetry_group_IT_number 2
_symmetry_cell_setting 'triclinic'
loop_
_space_group_symop_operation_xyz
x,y,z
-x,-y,-z
loop_
_atom_site_type_symbol
_atom_site_label
_atom_site_fract_x
_atom_site_fract_y
_atom_site_fract_z
Si Si1 0.299539 0.953209 0.452659
Si Si2 0.312538 0.150584 0.343136
Si Si3 0.849659 0.208298 0.688113
Si Si4 0.782983 0.014991 0.050877
Si Si5 0.358258 0.510283 0.925204
Si Si6 0.216695 0.839999 0.738410
Si Si7 0.619103 0.071492 0.875590
Si Si8 0.345150 0.416915 0.488281
O O1 0.183483 0.918080 0.380000
O O2 0.506269 0.736116 0.460356
O O3 0.445224 0.978914 0.384228
O O4 0.033225 0.171067 0.585676
O O5 0.320885 0.299035 0.400486
O O6 0.970811 0.330175 0.414463
O O7 0.421794 0.032051 0.207653
O O8 0.536165 0.445545 0.803008
O O9 0.051332 0.058251 0.733134
O O10 0.648724 0.166679 0.185324
O O11 0.017541 0.751457 0.998427
O O12 0.578288 0.101560 0.998595
O O13 0.000000 0.000000 0.000000
O O14 0.431893 0.308915 0.893801
O O15 0.500000 0.500000 0.000000
O O16 0.444901 0.628076 0.605953
O O17 0.957314 0.904265 0.802974
#
# Coordination Sequence:
#
# PCOD9081269 Si02
#       8
#     2   2   2   2   2   2   2   2
#     4  10  19  37  54  78 112 141 177 224 271 317
#     4  11  22  40  54  80 109 143 189 218 269 324
#     4   9  18  31  54  87 109 135 178 223 269 317
#     4  10  19  31  53  81 108 141 175 213 276 320
#     4  11  17  32  52  79 116 137 165 225 268 313
#     4   9  17  37  52  81 112 134 176 227 267 312
#     4  10  21  34  55  82 107 139 181 222 264 319
#     4  10  24  37  57  77 108 150 179 224 270 322
#
# _framework density 24.740086000000002
#
# number of rings (size 3 to 8) (size 9 to 14) (size 15 to 20)
#    0.000    2.000    6.250    0.375    1.750    2.500 
#    0.000    0.625    0.000    0.750    0.000    0.000 
#    0.000    0.000    0.000    0.000    0.000    0.000 
#
# Total GULP energy -89411.933501 kJ/mol
# GULP energy per Si atom -5588.245844 kJ/mol
# Density = 2.468378 g / cm^3
# Si number density = 24.740086 Si / 1000 Ang^3
#
#
#
# Elastic Constant Matrix: (Units=GPa)
#
#
# Indices 1 2 3 4 5 6 
#
# 1 52.2949 -2.2338 4.8960 -4.9902 16.2792 7.4462
# 2 -2.2338 87.8103 29.9051 0.4845 10.7080 -10.4595
# 3 4.8960 29.9051 143.5822 -18.5158 20.5301 -3.6909
# 4 -4.9902 0.4845 -18.5158 40.4979 -6.1406 0.4105
# 5 16.2792 10.7080 20.5301 -6.1406 38.8633 7.3287
# 6 7.4462 -10.4595 -3.6909 0.4105 7.3287 16.0419
#
#
#
# Elastic Compliance Matrix: (Units=1/GPa)
#
#
# Indices 1 2 3 4 5 6 
#
# 1 0.022816 0.000755 0.000346 0.001733 -0.008510 -0.006175
# 2 0.000755 0.014115 -0.002167 -0.002000 -0.005429 0.010886
# 3 0.000346 -0.002167 0.008438 0.003319 -0.003867 0.002049
# 4 0.001733 -0.002000 0.003319 0.026932 0.002966 -0.003389
# 5 -0.008510 -0.005429 -0.003867 0.002966 0.036558 -0.017257
# 6 -0.006175 0.010886 0.002049 -0.003389 -0.017257 0.080743
#
#
# Mechanical properties :
#
#
# Convention : Reuss Voigt Hill
#
# Bulk Modulus (GPa) = 23.12836 38.75799 30.94317
# Shear Modulus (GPa) = 24.25463 35.82194 30.03828
#
# Velocity S-wave (km/s) = 3.13450 3.80930 3.48825
# Velocity P-wave (km/s) = 4.74014 5.92011 5.36268
#
# Compressibility (1/GPa) = 0.04323696
#
# Stress axis : x y z
#
# Youngs Moduli (GPa) = 43.82908 70.84495 118.51185
#
# Poissons Ratio (x) = -0.05350 -0.04104
# Poissons Ratio (y) = -0.03310 0.25687
# Poissons Ratio (z) = -0.01518 0.15356
#
# Static dielectric constant tensor:
#      x y z
#    x 2.047690 0.021920 -0.064160 
#    y 0.021920 1.997580 -0.042480 
#    z -0.064160 -0.042480 1.996090 
# 
# From -- ./inp_files/314132.got.cif
#   From: 2010.05.17/outbox.cif.g08.bks.cpg/sg2_158_cif.got.tgz:314132.got - 2010.06.03 11:33:40.
