data_PCOD9081492
_publ_section_title
;
Structure prediction by ZEFSAII (Michael W. Deem and Ramdas Pophale) SiO2 
 PCOD9081492
Probable space group: P -1
;
_chemical_formula_sum "Si O2"
_cell_formula_units_Z 14
_cell_length_a 12.906869
_cell_length_b 21.421860
_cell_length_c 9.372014
_cell_angle_alpha 37.434710
_cell_angle_beta 140.902115
_cell_angle_gamma 154.021544
_cell_volume 670.828965
_symmetry_space_group_name_H-M "P -1"
_symmetry_group_IT_number 2
_symmetry_cell_setting 'triclinic'
loop_
_space_group_symop_operation_xyz
x,y,z
-x,-y,-z
loop_
_atom_site_type_symbol
_atom_site_label
_atom_site_fract_x
_atom_site_fract_y
_atom_site_fract_z
Si Si1 0.160354 0.261702 0.763740
Si Si2 0.348549 0.122068 0.672385
Si Si3 0.688366 0.753636 0.319637
Si Si4 0.920948 0.812478 0.873636
Si Si5 0.108057 0.588308 0.306362
Si Si6 0.282189 0.425153 0.131180
Si Si7 0.140109 0.473627 0.276629
O O1 0.174244 0.181914 0.800511
O O2 0.439046 0.415287 0.833211
O O3 0.054275 0.316713 0.478751
O O4 0.031828 0.175534 0.930180
O O5 0.322715 0.159021 0.737675
O O6 0.235036 0.156661 0.384139
O O7 0.628120 0.236008 0.722438
O O8 0.171356 0.943241 0.816125
O O9 0.778728 0.697288 0.607661
O O10 0.407901 0.597725 0.270836
O O11 0.773189 0.648024 0.951297
O O12 0.155810 0.516243 0.381072
O O13 0.000000 0.500000 0.500000
O O14 0.904592 0.568759 0.059059
O O15 0.000000 0.500000 0.000000
#
# Coordination Sequence:
#
# PCOD9081492 Si02
#       7
#     2   2   2   2   2   2   2
#     4  11  19  32  56  81 102 135 178 214 256 309
#     4   9  21  37  52  75 106 142 171 210 264 303
#     4   9  19  34  53  75 103 136 172 212 259 309
#     4  10  20  36  54  73 107 141 174 212 253 314
#     4  11  20  32  53  78 104 133 174 217 255 308
#     4  10  19  33  52  78 105 134 170 215 264 303
#     4  10  19  32  50  77 108 132 164 218 267 299
#
# _framework density 20.869700999999999
#
# number of rings (size 3 to 8) (size 9 to 14) (size 15 to 20)
#    0.000    2.000    0.000    6.429    0.000    1.143 
#    0.000    0.000    0.000    7.714    0.000    0.000 
#    0.000    0.000    0.000    0.000    0.000    0.000 
#
# Total GULP energy -78103.328258 kJ/mol
# GULP energy per Si atom -5578.809161 kJ/mol
# Density = 2.082220 g / cm^3
# Si number density = 20.869701 Si / 1000 Ang^3
#
#
#
# Elastic Constant Matrix: (Units=GPa)
#
#
# Indices 1 2 3 4 5 6 
#
# 1 89.2597 8.8004 29.6400 -4.2431 -14.6483 5.1765
# 2 8.8004 62.0900 24.6291 -3.0482 0.3297 18.4604
# 3 29.6400 24.6291 82.7993 11.3246 -0.5487 13.5139
# 4 -4.2431 -3.0482 11.3246 19.8833 1.8122 1.1809
# 5 -14.6483 0.3297 -0.5487 1.8122 30.1249 7.2995
# 6 5.1765 18.4604 13.5139 1.1809 7.2995 25.8777
#
#
#
# Elastic Compliance Matrix: (Units=1/GPa)
#
#
# Indices 1 2 3 4 5 6 
#
# 1 0.014772 0.001554 -0.006027 0.006338 0.007478 -0.003315
# 2 0.001554 0.023109 -0.006035 0.007879 0.003555 -0.015007
# 3 -0.006027 -0.006035 0.018221 -0.012308 -0.001028 -0.003153
# 4 0.006338 0.007879 -0.012308 0.060060 -0.000070 -0.003182
# 5 0.007478 0.003555 -0.001028 -0.000070 0.040384 -0.014883
# 6 -0.003315 -0.015007 -0.003153 -0.003182 -0.014883 0.056002
#
#
# Mechanical properties :
#
#
# Convention : Reuss Voigt Hill
#
# Bulk Modulus (GPa) = 28.50057 40.03200 34.26628
# Shear Modulus (GPa) = 20.38663 26.58247 23.48455
#
# Velocity S-wave (km/s) = 3.12886 3.57281 3.35818
# Velocity P-wave (km/s) = 5.17098 6.02026 5.61171
#
# Compressibility (1/GPa) = 0.03508702
#
# Stress axis : x y z
#
# Youngs Moduli (GPa) = 67.69547 43.27324 54.88155
#
# Poissons Ratio (x) = -0.06724 0.33074
# Poissons Ratio (y) = -0.10519 0.33120
# Poissons Ratio (z) = 0.40797 0.26115
#
# Static dielectric constant tensor:
#      x y z
#    x 1.800070 -0.049980 -0.027180 
#    y -0.049980 1.785760 0.014690 
#    z -0.027180 0.014690 1.757660 
# 
# From -- ./inp_files/167726.got.cif
#   From: 2010.05.17/outbox.cif.g08.bks.cpg/sg2_84_cif.got.tgz:167726.got - 2010.06.03 11:33:40.
