data_PCOD9081584
_publ_section_title
;
Structure prediction by ZEFSAII (Michael W. Deem and Ramdas Pophale) SiO2 
 PCOD9081584
Probable space group: P -1
;
_chemical_formula_sum "Si O2"
_cell_formula_units_Z 16
_cell_length_a 5.419680
_cell_length_b 23.004056
_cell_length_c 9.103713
_cell_angle_alpha 46.902422
_cell_angle_beta 78.977985
_cell_angle_gamma 53.486348
_cell_volume 619.626190
_symmetry_space_group_name_H-M "P -1"
_symmetry_group_IT_number 2
_symmetry_cell_setting 'triclinic'
loop_
_space_group_symop_operation_xyz
x,y,z
-x,-y,-z
loop_
_atom_site_type_symbol
_atom_site_label
_atom_site_fract_x
_atom_site_fract_y
_atom_site_fract_z
Si Si1 0.305590 0.122202 0.278198
Si Si2 0.141745 0.565562 0.299923
Si Si3 0.131070 0.364687 0.295455
Si Si4 0.821918 0.858961 0.057208
Si Si5 0.636249 0.334584 0.504233
Si Si6 0.607704 0.198021 0.316377
Si Si7 0.697063 0.553343 0.217753
Si Si8 0.252682 0.951526 0.188999
O O1 0.339843 0.140964 0.071828
O O2 0.445552 0.163315 0.293778
O O3 0.923147 0.177593 0.250842
O O4 0.500000 0.000000 0.500000
O O5 0.377281 0.452037 0.390575
O O6 0.310429 0.613195 0.156980
O O7 0.167371 0.540511 0.512311
O O8 0.795741 0.614010 0.184540
O O9 0.429466 0.315877 0.461779
O O10 0.327678 0.315909 0.205227
O O11 0.907011 0.331517 0.391423
O O12 0.877014 0.486539 0.164512
O O13 0.828957 0.952340 0.877281
O O14 0.603100 0.889007 0.175555
O O15 0.171605 0.749261 0.244300
O O16 0.742333 0.123375 0.573930
O O17 0.000000 0.000000 0.000000
#
# Coordination Sequence:
#
# PCOD9081584 Si02
#       8
#     2   2   2   2   2   2   2   2
#     4  12  26  42  56  76 108 145 183 223 269 323
#     4   8  14  25  43  71 106 134 163 202 266 313
#     4  10  19  33  53  79 108 135 178 218 263 310
#     4  11  24  37  55  81 104 141 178 226 271 316
#     4  10  19  32  52  80 107 136 173 224 266 313
#     4  12  24  40  58  78 107 144 180 223 268 318
#     4   8  14  25  44  71 104 137 161 206 258 314
#     4  11  23  37  60  78 104 136 184 223 273 323
#
# _framework density 25.822016999999999
#
# number of rings (size 3 to 8) (size 9 to 14) (size 15 to 20)
#    0.000    1.750    2.500    2.625    3.500    0.000 
#    0.000    0.000    0.000    0.000    0.000    1.750 
#    0.000    0.000    0.000    0.000    0.000    0.000 
#
# Total GULP energy -89590.012181 kJ/mol
# GULP energy per Si atom -5599.375761 kJ/mol
# Density = 2.576325 g / cm^3
# Si number density = 25.822017 Si / 1000 Ang^3
#
#
#
# Elastic Constant Matrix: (Units=GPa)
#
#
# Indices 1 2 3 4 5 6 
#
# 1 172.3631 44.8454 7.2743 -0.2757 13.4611 -7.6479
# 2 44.8454 121.5033 18.4541 -2.7425 -6.8473 4.0954
# 3 7.2743 18.4541 77.2218 -3.9085 0.3894 11.4674
# 4 -0.2757 -2.7425 -3.9085 42.3363 11.4735 -0.9428
# 5 13.4611 -6.8473 0.3894 11.4735 23.5969 13.5733
# 6 -7.6479 4.0954 11.4674 -0.9428 13.5733 37.7037
#
#
#
# Elastic Compliance Matrix: (Units=1/GPa)
#
#
# Indices 1 2 3 4 5 6 
#
# 1 0.007784 -0.003489 -0.000581 0.002631 -0.010074 0.005827
# 2 -0.003489 0.010351 -0.001624 -0.001907 0.008507 -0.004448
# 3 -0.000581 -0.001624 0.014157 0.000456 0.002322 -0.005072
# 4 0.002631 -0.001907 0.000456 0.029658 -0.021762 0.009178
# 5 -0.010074 0.008507 0.002322 -0.021762 0.080163 -0.033076
# 6 0.005827 -0.004448 -0.005072 0.009178 -0.033076 0.041867
#
#
# Mechanical properties :
#
#
# Convention : Reuss Voigt Hill
#
# Bulk Modulus (GPa) = 47.83782 56.91507 52.37645
# Shear Modulus (GPa) = 24.71148 40.76167 32.73658
#
# Velocity S-wave (km/s) = 3.09689 3.97742 3.56445
# Velocity P-wave (km/s) = 5.59945 6.57133 6.10476
#
# Compressibility (1/GPa) = 0.02090396
#
# Stress axis : x y z
#
# Youngs Moduli (GPa) = 128.47515 96.60864 70.63670
#
# Poissons Ratio (x) = 0.33711 0.04102
# Poissons Ratio (y) = 0.44830 0.11470
# Poissons Ratio (z) = 0.07460 0.15687
#
# Static dielectric constant tensor:
#      x y z
#    x 2.129240 -0.031120 -0.036930 
#    y -0.031120 2.020960 0.000230 
#    z -0.036930 0.000230 2.075810 
# 
# From -- ./inp_files/42452.got.cif
#   From: 2010.05.17/outbox.cif.g08.bks.cpg/sg2_22_cif.got.tgz:42452.got - 2010.06.03 11:33:40.
