data_PCOD9081735
_publ_section_title
;
Structure prediction by ZEFSAII (Michael W. Deem and Ramdas Pophale) SiO2 
 PCOD9081735
Probable space group: P -1
;
_chemical_formula_sum "Si O2"
_cell_formula_units_Z 12
_cell_length_a 11.674085
_cell_length_b 12.554276
_cell_length_c 10.112941
_cell_angle_alpha 146.277326
_cell_angle_beta 36.205981
_cell_angle_gamma 139.525790
_cell_volume 467.566769
_symmetry_space_group_name_H-M "P -1"
_symmetry_group_IT_number 2
_symmetry_cell_setting 'triclinic'
loop_
_space_group_symop_operation_xyz
x,y,z
-x,-y,-z
loop_
_atom_site_type_symbol
_atom_site_label
_atom_site_fract_x
_atom_site_fract_y
_atom_site_fract_z
Si Si1 0.233066 0.119113 0.798485
Si Si2 0.902521 0.342836 0.540032
Si Si3 0.465964 0.936029 0.762052
Si Si4 0.984117 0.325846 0.043462
Si Si5 0.628634 0.643847 0.420501
Si Si6 0.473458 0.329846 0.030384
O O1 0.431477 0.100445 0.511945
O O2 0.098906 0.216157 0.928540
O O3 0.299281 0.248880 0.002931
O O4 0.117961 0.888990 0.699043
O O5 0.674100 0.349781 0.779888
O O6 0.000000 0.500000 0.500000
O O7 0.009023 0.450420 0.684671
O O8 0.608465 0.868188 0.665462
O O9 0.461992 0.162370 0.980060
O O10 0.243841 0.805276 0.872867
O O11 0.136250 0.349200 0.801753
O O12 0.500000 0.500000 0.500000
O O13 0.514545 0.536393 0.282247
#
# Coordination Sequence:
#
# PCOD9081735 Si02
#       6
#     2   2   2   2   2   2
#     4  10  21  36  55  88 124 147 178 225 282 346
#     4  10  19  32  54  84 119 152 182 220 273 339
#     4  10  21  39  61  86 116 148 186 232 283 339
#     4  10  22  37  60  87 114 152 186 224 284 342
#     4  10  24  43  59  80 111 149 197 243 277 321
#     4  10  21  37  58  84 118 153 183 229 284 334
#
# _framework density 25.664784000000001
#
# number of rings (size 3 to 8) (size 9 to 14) (size 15 to 20)
#    0.000    2.000    0.000    4.000    0.000   14.000 
#    0.000    4.167    0.000    0.000    0.000    0.000 
#    0.000    0.000    0.000    0.000    0.000    0.000 
#
# Total GULP energy -67090.953188 kJ/mol
# GULP energy per Si atom -5590.912766 kJ/mol
# Density = 2.560637 g / cm^3
# Si number density = 25.664784 Si / 1000 Ang^3
#
#
#
# Elastic Constant Matrix: (Units=GPa)
#
#
# Indices 1 2 3 4 5 6 
#
# 1 36.7253 20.4452 19.6734 -5.4594 0.2289 -7.0028
# 2 20.4452 198.8418 50.0364 -23.8725 -4.4463 -5.8300
# 3 19.6734 50.0364 84.0686 -6.5015 -7.8876 4.5151
# 4 -5.4594 -23.8725 -6.5015 69.3249 0.1822 -9.7467
# 5 0.2289 -4.4463 -7.8876 0.1822 20.5492 -4.9601
# 6 -7.0028 -5.8300 4.5151 -9.7467 -4.9601 48.4175
#
#
#
# Elastic Compliance Matrix: (Units=1/GPa)
#
#
# Indices 1 2 3 4 5 6 
#
# 1 0.033278 -0.001159 -0.007420 0.002321 -0.002135 0.005614
# 2 -0.001159 0.006271 -0.003346 0.001940 0.000389 0.001330
# 3 -0.007420 -0.003346 0.016181 -0.000597 0.004948 -0.002598
# 4 0.002321 0.001940 -0.000597 0.015765 0.000966 0.003898
# 5 -0.002135 0.000389 0.004948 0.000966 0.051816 0.004779
# 6 0.005614 0.001330 -0.002598 0.003898 0.004779 0.023142
#
#
# Mechanical properties :
#
#
# Convention : Reuss Voigt Hill
#
# Bulk Modulus (GPa) = 31.36840 55.54952 43.45896
# Shear Modulus (GPa) = 27.63504 42.95701 35.29602
#
# Velocity S-wave (km/s) = 3.28498 4.09561 3.71249
# Velocity P-wave (km/s) = 5.16110 6.63752 5.94532
#
# Compressibility (1/GPa) = 0.03187921
#
# Stress axis : x y z
#
# Youngs Moduli (GPa) = 30.04976 159.46608 61.80277
#
# Poissons Ratio (x) = 0.18483 0.45859
# Poissons Ratio (y) = 0.03483 0.20679
# Poissons Ratio (z) = 0.22297 0.53357
#
# Static dielectric constant tensor:
#      x y z
#    x 2.046860 -0.013810 0.044050 
#    y -0.013810 2.001740 -0.058540 
#    z 0.044050 -0.058540 2.157360 
# 
# From -- ./inp_files/455154.got.cif
#   From: 2010.05.17/outbox.cif.g08.bks.cpg/sg2_228_cif.got.tgz:455154.got - 2010.06.03 11:33:40.
