data_PCOD9081927
_publ_section_title
;
Structure prediction by ZEFSAII (Michael W. Deem and Ramdas Pophale) SiO2 
 PCOD9081927
Probable space group: P -1
;
_chemical_formula_sum "Si O2"
_cell_formula_units_Z 16
_cell_length_a 8.663597
_cell_length_b 10.922669
_cell_length_c 18.069592
_cell_angle_alpha 143.780726
_cell_angle_beta 57.167073
_cell_angle_gamma 137.942543
_cell_volume 669.802873
_symmetry_space_group_name_H-M "P -1"
_symmetry_group_IT_number 2
_symmetry_cell_setting 'triclinic'
loop_
_space_group_symop_operation_xyz
x,y,z
-x,-y,-z
loop_
_atom_site_type_symbol
_atom_site_label
_atom_site_fract_x
_atom_site_fract_y
_atom_site_fract_z
Si Si1 0.542779 0.136685 0.234276
Si Si2 0.412733 0.663118 0.125573
Si Si3 0.212646 0.893536 0.077197
Si Si4 0.067891 0.820573 0.922642
Si Si5 0.528148 0.775781 0.306299
Si Si6 0.160243 0.839095 0.454844
Si Si7 0.207368 0.094817 0.411103
Si Si8 0.163048 0.367455 0.829570
O O1 0.421814 0.834530 0.142132
O O2 0.438816 0.216263 0.362345
O O3 0.800351 0.236542 0.197441
O O4 0.429704 0.125194 0.180774
O O5 0.564125 0.850291 0.246643
O O6 0.155613 0.451098 0.119386
O O7 0.500000 0.500000 0.000000
O O8 0.219372 0.968439 0.028272
O O9 0.200359 0.636445 0.950110
O O10 0.986207 0.795697 0.137558
O O11 0.000000 0.000000 0.000000
O O12 0.271530 0.686589 0.346170
O O13 0.591552 0.580385 0.204147
O O14 0.711356 0.001427 0.425373
O O15 0.240949 0.021019 0.448229
O O16 0.895598 0.742190 0.480183
O O17 0.999237 0.823494 0.289965
#
# Coordination Sequence:
#
# PCOD9081927 Si02
#       8
#     2   2   2   2   2   2   2   2
#     4  11  22  39  60  85 120 164 197 246 298 355
#     4  12  22  38  61  90 127 158 194 242 297 359
#     4  10  20  36  54  83 125 158 195 239 296 362
#     4  12  25  37  57  89 124 163 199 240 293 365
#     4  10  19  32  57  91 119 155 201 249 296 347
#     4   9  18  32  56  91 117 149 209 253 288 357
#     4   9  17  33  55  84 116 152 201 250 301 343
#     4   9  18  32  58  89 116 160 198 240 295 360
#
# _framework density 23.887623999999999
#
# number of rings (size 3 to 8) (size 9 to 14) (size 15 to 20)
#    0.000    1.750    2.500    4.125    0.000    0.000 
#    0.000    0.000    0.000    1.500    0.000    0.000 
#    0.000    0.000    0.000    0.000    0.000    0.000 
#
# Total GULP energy -89334.586559 kJ/mol
# GULP energy per Si atom -5583.411660 kJ/mol
# Density = 2.383325 g / cm^3
# Si number density = 23.887624 Si / 1000 Ang^3
#
#
#
# Elastic Constant Matrix: (Units=GPa)
#
#
# Indices 1 2 3 4 5 6 
#
# 1 143.1650 36.9688 47.5515 -21.7210 -26.9345 7.0896
# 2 36.9688 80.3069 15.1993 -23.2626 -13.5574 24.5612
# 3 47.5515 15.1993 99.1581 -37.0479 -16.1841 3.4212
# 4 -21.7210 -23.2626 -37.0479 31.0925 3.9136 -4.7330
# 5 -26.9345 -13.5574 -16.1841 3.9136 68.1078 -21.0541
# 6 7.0896 24.5612 3.4212 -4.7330 -21.0541 35.9692
#
#
#
# Elastic Compliance Matrix: (Units=1/GPa)
#
#
# Indices 1 2 3 4 5 6 
#
# 1 0.009727 -0.004573 -0.004111 -0.001421 0.003024 0.003180
# 2 -0.004573 0.022957 0.006274 0.019545 -0.001011 -0.013391
# 3 -0.004111 0.006274 0.021899 0.027502 0.003233 -0.000046
# 4 -0.001421 0.019545 0.027502 0.077561 0.004535 -0.002822
# 5 0.003024 -0.001011 0.003233 0.004535 0.019905 0.012035
# 6 0.003180 -0.013391 -0.000046 -0.002822 0.012035 0.042996
#
#
# Mechanical properties :
#
#
# Convention : Reuss Voigt Hill
#
# Bulk Modulus (GPa) = 20.09560 58.00771 39.05166
# Shear Modulus (GPa) = 23.09965 41.89461 32.49713
#
# Velocity S-wave (km/s) = 3.11306 4.19241 3.69238
# Velocity P-wave (km/s) = 4.62086 6.91168 5.87893
#
# Compressibility (1/GPa) = 0.04976213
#
# Stress axis : x y z
#
# Youngs Moduli (GPa) = 102.80470 43.56046 45.66401
#
# Poissons Ratio (x) = 0.19922 0.18771
# Poissons Ratio (y) = 0.47018 -0.28649
# Poissons Ratio (z) = 0.42260 -0.27329
#
# Static dielectric constant tensor:
#      x y z
#    x 1.966910 0.051110 0.015280 
#    y 0.051110 1.895460 -0.007030 
#    z 0.015280 -0.007030 1.986650 
# 
# From -- ./inp_files/507804.got.cif
#   From: 2010.05.17/outbox.cif.g08.bks.cpg/sg2_254_cif.got.tgz:507804.got - 2010.06.03 11:33:40.
