data_PCOD9081122
_publ_section_title
;
Structure prediction by ZEFSAII (Michael W. Deem and Ramdas Pophale) SiO2 
 PCOD9081122
Probable space group: P -1
;
_chemical_formula_sum "Si O2"
_cell_formula_units_Z 16
_cell_length_a 12.584830
_cell_length_b 9.185851
_cell_length_c 7.476176
_cell_angle_alpha 84.744479
_cell_angle_beta 73.254260
_cell_angle_gamma 43.652520
_cell_volume 562.286529
_symmetry_space_group_name_H-M "P -1"
_symmetry_group_IT_number 2
_symmetry_cell_setting 'triclinic'
loop_
_space_group_symop_operation_xyz
x,y,z
-x,-y,-z
loop_
_atom_site_type_symbol
_atom_site_label
_atom_site_fract_x
_atom_site_fract_y
_atom_site_fract_z
Si Si1 0.017252 0.164609 0.139774
Si Si2 0.799715 0.776946 0.758644
Si Si3 0.492393 0.577201 0.195284
Si Si4 0.604503 0.036152 0.367574
Si Si5 0.282163 0.403983 0.975243
Si Si6 0.298851 0.507144 0.333956
Si Si7 0.204347 0.873052 0.728854
Si Si8 0.837824 0.620014 0.374983
O O1 0.152276 0.111145 0.205678
O O2 0.934878 0.101725 0.277241
O O3 0.868628 0.414486 0.108373
O O4 0.117280 0.020265 0.932992
O O5 0.688924 0.781574 0.930789
O O6 0.774736 0.771212 0.563487
O O7 0.975881 0.529122 0.725414
O O8 0.337249 0.639451 0.341170
O O9 0.648239 0.370717 0.251184
O O10 0.500000 0.500000 0.000000
O O11 0.540421 0.702111 0.159924
O O12 0.743820 0.796709 0.245811
O O13 0.500000 0.000000 0.500000
O O14 0.473121 0.254478 0.292700
O O15 0.702729 0.078036 0.404512
O O16 0.236981 0.544709 0.158855
O O17 0.192449 0.515599 0.523753
#
# Coordination Sequence:
#
# PCOD9081122 Si02
#       8
#     2   2   2   2   2   2   2   2
#     4  10  19  31  49  72 101 125 152 199 241 281
#     4  10  19  31  48  72  98 126 159 197 235 280
#     4   8  14  27  49  71  93 122 152 189 235 282
#     4   9  16  30  53  71  93 129 162 196 235 278
#     4   9  16  27  47  73  96 119 152 191 239 287
#     4   8  15  28  49  72  93 125 160 192 234 282
#     4   9  18  31  50  74  95 124 159 191 242 290
#     4   9  18  31  50  71  93 127 165 193 233 282
#
# _framework density 28.455241000000001
#
# number of rings (size 3 to 8) (size 9 to 14) (size 15 to 20)
#    0.000    3.000    0.000    1.125    0.000    0.000 
#    0.000    0.625    0.000   65.250    0.000    0.000 
#    0.000    0.000    0.000    0.000    0.000    0.000 
#
# Total GULP energy -89223.641075 kJ/mol
# GULP energy per Si atom -5576.477567 kJ/mol
# Density = 2.839048 g / cm^3
# Si number density = 28.455241 Si / 1000 Ang^3
#
#
#
# Elastic Constant Matrix: (Units=GPa)
#
#
# Indices 1 2 3 4 5 6 
#
# 1 186.6033 13.5988 30.6935 -9.6436 -42.9738 29.5118
# 2 13.5988 51.8302 4.7275 -9.2469 -23.7673 13.9101
# 3 30.6935 4.7275 80.1553 -11.0970 -14.9886 21.1620
# 4 -9.6436 -9.2469 -11.0970 27.7795 20.6110 -0.8432
# 5 -42.9738 -23.7673 -14.9886 20.6110 41.2245 -6.6527
# 6 29.5118 13.9101 21.1620 -0.8432 -6.6527 41.9766
#
#
#
# Elastic Compliance Matrix: (Units=1/GPa)
#
#
# Indices 1 2 3 4 5 6 
#
# 1 0.008795 0.004350 -0.000494 -0.005960 0.013614 -0.005337
# 2 0.004350 0.031197 0.003330 -0.005364 0.024592 -0.011285
# 3 -0.000494 0.003330 0.015895 0.004260 0.003748 -0.008089
# 4 -0.005960 -0.005364 0.004260 0.063119 -0.039503 -0.001173
# 5 0.013614 0.024592 0.003748 -0.039503 0.072297 -0.008946
# 6 -0.005337 -0.011285 -0.008089 -0.001173 -0.008946 0.033952
#
#
# Mechanical properties :
#
#
# Convention : Reuss Voigt Hill
#
# Bulk Modulus (GPa) = 14.23339 46.29204 30.26271
# Shear Modulus (GPa) = 21.33986 40.16739 30.75363
#
# Velocity S-wave (km/s) = 2.74148 3.76120 3.29108
# Velocity P-wave (km/s) = 3.87735 5.93008 5.00998
#
# Compressibility (1/GPa) = 0.07025733
#
# Stress axis : x y z
#
# Youngs Moduli (GPa) = 113.70465 32.05395 62.91247
#
# Poissons Ratio (x) = -0.13943 0.03111
# Poissons Ratio (y) = -0.49459 -0.20948
# Poissons Ratio (z) = 0.05622 -0.10673
#
# Static dielectric constant tensor:
#      x y z
#    x 2.680290 -0.086470 0.025730 
#    y -0.086470 2.363900 0.052810 
#    z 0.025730 0.052810 2.276590 
# 
# From -- ./inp_files/238379.got.cif
#   From: 2010.05.17/outbox.cif.g08.bks.cpg/sg2_120_cif.got.tgz:238379.got - 2010.06.03 11:33:40.
