data_PCOD9081496
_publ_section_title
;
Structure prediction by ZEFSAII (Michael W. Deem and Ramdas Pophale) SiO2 
 PCOD9081496
Probable space group: P -1
;
_chemical_formula_sum "Si O2"
_cell_formula_units_Z 16
_cell_length_a 12.621467
_cell_length_b 6.178922
_cell_length_c 11.611136
_cell_angle_alpha 77.342189
_cell_angle_beta 98.347155
_cell_angle_gamma 93.812567
_cell_volume 873.587131
_symmetry_space_group_name_H-M "P -1"
_symmetry_group_IT_number 2
_symmetry_cell_setting 'triclinic'
loop_
_space_group_symop_operation_xyz
x,y,z
-x,-y,-z
loop_
_atom_site_type_symbol
_atom_site_label
_atom_site_fract_x
_atom_site_fract_y
_atom_site_fract_z
Si Si1 0.639935 0.036557 0.122663
Si Si2 0.817532 0.773854 0.299167
Si Si3 0.256518 0.569509 0.060437
Si Si4 0.563096 0.720070 0.938317
Si Si5 0.102102 0.422293 0.453128
Si Si6 0.869916 0.227783 0.788037
Si Si7 0.917129 0.553273 0.124526
Si Si8 0.980498 0.885911 0.718023
O O1 0.527880 0.123005 0.144159
O O2 0.718109 0.923573 0.237613
O O3 0.700086 0.248146 0.047036
O O4 0.612899 0.858609 0.037692
O O5 0.810162 0.634462 0.431472
O O6 0.840322 0.619866 0.210316
O O7 0.926062 0.928013 0.309152
O O8 0.343527 0.381422 0.111624
O O9 0.225516 0.707860 0.151538
O O10 0.150977 0.453455 0.000866
O O11 0.500000 0.500000 0.000000
O O12 0.130912 0.609076 0.341417
O O13 0.000000 0.500000 0.500000
O O14 0.066776 0.209012 0.396978
O O15 0.979890 0.280172 0.871101
O O16 0.886159 0.985955 0.767424
O O17 0.963584 0.314388 0.185667
#
# Coordination Sequence:
#
# PCOD9081496 Si02
#       8
#     2   2   2   2   2   2   2   2
#     4  10  20  34  57  84 100 137 178 223 281 315
#     4  11  19  32  54  79 106 138 182 218 263 309
#     4  11  20  35  54  77 113 141 175 220 267 324
#     4   9  20  37  56  79 107 130 175 230 278 321
#     4  11  20  34  52  74 110 148 184 221 249 302
#     4  10  23  33  48  78 111 155 180 205 260 314
#     4  10  19  32  50  79 109 147 174 215 257 312
#     4  10  19  33  48  75 108 144 182 213 252 302
#
# _framework density 18.315287000000001
#
# number of rings (size 3 to 8) (size 9 to 14) (size 15 to 20)
#    0.000    1.750    6.250    0.750    0.000    2.500 
#    0.000    0.000    0.000    0.750    0.000    8.750 
#    0.000    0.000    0.000    0.000    0.000    0.000 
#
# Total GULP energy -89260.470652 kJ/mol
# GULP energy per Si atom -5578.779416 kJ/mol
# Density = 1.827360 g / cm^3
# Si number density = 18.315287 Si / 1000 Ang^3
#
#
#
# Elastic Constant Matrix: (Units=GPa)
#
#
# Indices 1 2 3 4 5 6 
#
# 1 78.3407 29.0494 44.7954 2.1596 10.8235 -43.8646
# 2 29.0494 89.2713 25.8941 15.9747 2.6056 -31.3560
# 3 44.7954 25.8941 74.9956 3.4760 8.4806 -28.1430
# 4 2.1596 15.9747 3.4760 27.9728 -9.3093 -3.6447
# 5 10.8235 2.6056 8.4806 -9.3093 19.6598 -2.7862
# 6 -43.8646 -31.3560 -28.1430 -3.6447 -2.7862 45.1409
#
#
#
# Elastic Compliance Matrix: (Units=1/GPa)
#
#
# Indices 1 2 3 4 5 6 
#
# 1 0.035623 0.002499 -0.009440 -0.003655 -0.013443 0.029341
# 2 0.002499 0.017121 -0.001730 -0.010187 -0.006015 0.012048
# 3 -0.009440 -0.001730 0.021007 -0.002013 -0.004263 0.002296
# 4 -0.003655 -0.010187 -0.002013 0.050353 0.027204 -0.006138
# 5 -0.013443 -0.006015 -0.004263 0.027204 0.071904 -0.013264
# 6 0.029341 0.012048 0.002296 -0.006138 -0.013264 0.059150
#
#
# Mechanical properties :
#
#
# Convention : Reuss Voigt Hill
#
# Bulk Modulus (GPa) = 17.72836 49.12059 33.42447
# Shear Modulus (GPa) = 17.16415 28.07927 22.62171
#
# Velocity S-wave (km/s) = 3.06461 3.91974 3.51825
# Velocity P-wave (km/s) = 4.71413 6.88211 5.89858
#
# Compressibility (1/GPa) = 0.05640681
#
# Stress axis : x y z
#
# Youngs Moduli (GPa) = 28.07172 58.40788 47.60243
#
# Poissons Ratio (x) = -0.14594 0.44939
# Poissons Ratio (y) = -0.07014 0.08237
# Poissons Ratio (z) = 0.26501 0.10107
#
# Static dielectric constant tensor:
#      x y z
#    x 1.663860 -0.002620 -0.012120 
#    y -0.002620 1.672950 -0.002770 
#    z -0.012120 -0.002770 1.624570 
# 
# From -- ./inp_files/66352.got.cif
#   From: 2010.05.17/outbox.cif.g08.bks.cpg/sg2_34_cif.got.tgz:66352.got - 2010.06.03 11:33:40.
