data_PCOD9081616
_publ_section_title
;
Structure prediction by ZEFSAII (Michael W. Deem and Ramdas Pophale) SiO2 
 PCOD9081616
Probable space group: P -1
;
_chemical_formula_sum "Si O2"
_cell_formula_units_Z 16
_cell_length_a 7.688157
_cell_length_b 11.574301
_cell_length_c 16.071685
_cell_angle_alpha 42.589041
_cell_angle_beta 42.461562
_cell_angle_gamma 45.590457
_cell_volume 613.768122
_symmetry_space_group_name_H-M "P -1"
_symmetry_group_IT_number 2
_symmetry_cell_setting 'triclinic'
loop_
_space_group_symop_operation_xyz
x,y,z
-x,-y,-z
loop_
_atom_site_type_symbol
_atom_site_label
_atom_site_fract_x
_atom_site_fract_y
_atom_site_fract_z
Si Si1 0.231326 0.932999 0.699438
Si Si2 0.784378 0.968222 0.967771
Si Si3 0.239155 0.374667 0.789660
Si Si4 0.215794 0.709816 0.522331
Si Si5 0.797693 0.707982 0.539038
Si Si6 0.221480 0.426305 0.036122
Si Si7 0.655802 0.370946 0.793670
Si Si8 0.169888 0.077204 0.303851
O O1 0.539295 0.806551 0.639056
O O2 0.066775 0.929368 0.673855
O O3 0.233617 0.138678 0.601017
O O4 0.051093 0.881443 0.860417
O O5 0.805556 0.163169 0.875864
O O6 0.500000 0.000000 0.000000
O O7 0.767812 0.825358 0.118551
O O8 0.443475 0.362507 0.801148
O O9 0.321798 0.504167 0.628236
O O10 0.934547 0.479895 0.876529
O O11 0.073059 0.691657 0.497167
O O12 0.987068 0.816266 0.616128
O O13 0.344072 0.868775 0.376334
O O14 0.795618 0.506133 0.635324
O O15 0.299129 0.210370 0.140870
O O16 0.485808 0.458798 0.889684
O O17 0.000000 0.500000 0.000000
#
# Coordination Sequence:
#
# PCOD9081616 Si02
#       8
#     2   2   2   2   2   2   2   2
#     4  10  19  34  56  79 104 133 175 218 256 305
#     4  10  20  34  56  79 100 135 183 223 251 296
#     4   9  17  32  53  75 100 134 178 223 253 296
#     4   9  18  30  50  77 107 134 167 214 266 311
#     4  10  20  33  53  80 108 137 166 210 266 317
#     4   9  15  27  52  76  95 125 170 217 251 286
#     4  10  19  32  53  76 102 136 175 217 258 303
#     4   9  16  30  51  76 102 131 170 217 254 295
#
# _framework density 26.068477000000001
#
# number of rings (size 3 to 8) (size 9 to 14) (size 15 to 20)
#    0.000    2.500    0.000    5.250    0.000    1.500 
#    0.000    6.250    0.000   21.750    0.000    0.000 
#    0.000    0.000    0.000    0.000    0.000    0.000 
#
# Total GULP energy -89283.529542 kJ/mol
# GULP energy per Si atom -5580.220596 kJ/mol
# Density = 2.600914 g / cm^3
# Si number density = 26.068477 Si / 1000 Ang^3
#
#
#
# Elastic Constant Matrix: (Units=GPa)
#
#
# Indices 1 2 3 4 5 6 
#
# 1 33.6458 1.6945 4.9569 -4.3647 -3.1224 -0.5066
# 2 1.6945 87.9830 73.8123 -17.4132 -0.8374 -1.5349
# 3 4.9569 73.8123 261.0774 -36.2878 -0.1371 5.0318
# 4 -4.3647 -17.4132 -36.2878 78.0503 5.8252 -1.2109
# 5 -3.1224 -0.8374 -0.1371 5.8252 29.0777 -8.5086
# 6 -0.5066 -1.5349 5.0318 -1.2109 -8.5086 12.1035
#
#
#
# Elastic Compliance Matrix: (Units=1/GPa)
#
#
# Indices 1 2 3 4 5 6 
#
# 1 0.030435 0.000262 -0.000569 0.001240 0.004422 0.004777
# 2 0.000262 0.015289 -0.004226 0.001417 0.001625 0.004991
# 3 -0.000569 -0.004226 0.005323 0.001559 -0.001556 -0.003710
# 4 0.001240 0.001417 0.001559 0.014127 -0.002968 -0.001089
# 5 0.004422 0.001625 -0.001556 -0.002968 0.044966 0.032352
# 6 0.004777 0.004991 -0.003710 -0.001089 0.032352 0.107630
#
#
# Mechanical properties :
#
#
# Convention : Reuss Voigt Hill
#
# Bulk Modulus (GPa) = 23.82002 60.40373 42.11188
# Shear Modulus (GPa) = 20.76152 43.99582 32.37867
#
# Velocity S-wave (km/s) = 2.82516 4.11262 3.52811
# Velocity P-wave (km/s) = 4.44964 6.76558 5.72592
#
# Compressibility (1/GPa) = 0.04198149
#
# Stress axis : x y z
#
# Youngs Moduli (GPa) = 32.85669 65.40639 187.85678
#
# Poissons Ratio (x) = -0.01716 0.10697
# Poissons Ratio (y) = -0.00862 0.79386
# Poissons Ratio (z) = 0.01871 0.27640
#
# Static dielectric constant tensor:
#      x y z
#    x 1.982520 0.021670 0.030630 
#    y 0.021670 2.158290 -0.056560 
#    z 0.030630 -0.056560 2.136450 
# 
# From -- ./inp_files/403277.got.cif
#   From: 2010.05.17/outbox.cif.g08.bks.cpg/sg2_202_cif.got.tgz:403277.got - 2010.06.03 11:33:40.
