data_PCOD9081503
_publ_section_title
;
Structure prediction by ZEFSAII (Michael W. Deem and Ramdas Pophale) SiO2 
 PCOD9081503
Probable space group: P -1
;
_chemical_formula_sum "Si O2"
_cell_formula_units_Z 12
_cell_length_a 15.835276
_cell_length_b 11.690236
_cell_length_c 9.362886
_cell_angle_alpha 141.242835
_cell_angle_beta 143.907751
_cell_angle_gamma 46.967853
_cell_volume 632.732410
_symmetry_space_group_name_H-M "P -1"
_symmetry_group_IT_number 2
_symmetry_cell_setting 'triclinic'
loop_
_space_group_symop_operation_xyz
x,y,z
-x,-y,-z
loop_
_atom_site_type_symbol
_atom_site_label
_atom_site_fract_x
_atom_site_fract_y
_atom_site_fract_z
Si Si1 0.867685 0.349776 0.837059
Si Si2 0.181259 0.367884 0.196781
Si Si3 0.496724 0.255292 0.625040
Si Si4 0.600973 0.523414 0.798740
Si Si5 0.832935 0.003329 0.318024
Si Si6 0.546795 0.149972 0.904643
O O1 0.833889 0.439766 0.720663
O O2 0.766411 0.476256 0.929946
O O3 0.821736 0.144482 0.573259
O O4 0.039746 0.349510 0.080043
O O5 0.326162 0.329632 0.448199
O O6 0.189259 0.210630 0.929565
O O7 0.573590 0.376762 0.739446
O O8 0.544645 0.256792 0.855705
O O9 0.515309 0.041266 0.393938
O O10 0.500000 0.500000 0.500000
O O11 0.547386 0.723432 0.985848
O O12 0.709982 0.094527 0.129647
O O13 0.000000 0.000000 0.500000
#
# Coordination Sequence:
#
# PCOD9081503 Si02
#       6
#     2   2   2   2   2   2
#     4  10  19  32  50  81 106 133 176 220 263 304
#     4   9  18  33  53  73 106 142 174 211 259 320
#     4  10  21  37  56  77 108 147 178 214 263 324
#     4  12  21  33  55  86 110 133 178 229 267 303
#     4   9  17  31  53  76 100 135 178 216 253 310
#     4  10  21  36  55  79 108 144 179 213 269 323
#
# _framework density 18.965361999999999
#
# number of rings (size 3 to 8) (size 9 to 14) (size 15 to 20)
#    0.000    2.000    3.333    0.500    0.000    2.000 
#    0.000    0.833    0.000   16.000    0.000    0.000 
#    0.000    0.000    0.000    0.000    0.000    0.000 
#
# Total GULP energy -66875.184786 kJ/mol
# GULP energy per Si atom -5572.932065 kJ/mol
# Density = 1.892220 g / cm^3
# Si number density = 18.965362 Si / 1000 Ang^3
#
#
#
# Elastic Constant Matrix: (Units=GPa)
#
#
# Indices 1 2 3 4 5 6 
#
# 1 85.6489 39.0497 26.0616 -8.9329 0.9879 -28.2517
# 2 39.0497 67.0855 12.6732 2.8162 3.4806 -22.0198
# 3 26.0616 12.6732 44.7929 10.0314 -1.9219 -17.1910
# 4 -8.9329 2.8162 10.0314 23.6827 -5.2808 2.1739
# 5 0.9879 3.4806 -1.9219 -5.2808 23.3933 5.7115
# 6 -28.2517 -22.0198 -17.1910 2.1739 5.7115 28.7401
#
#
#
# Elastic Compliance Matrix: (Units=1/GPa)
#
#
# Indices 1 2 3 4 5 6 
#
# 1 0.023499 -0.009644 -0.011061 0.014154 0.000809 0.007863
# 2 -0.009644 0.026272 0.008085 -0.014268 -0.010617 0.018674
# 3 -0.011061 0.008085 0.041249 -0.026855 -0.009235 0.023861
# 4 0.014154 -0.014268 -0.026855 0.067093 0.019861 -0.022103
# 5 0.000809 -0.010617 -0.009235 0.019861 0.054152 -0.025127
# 6 0.007863 0.018674 0.023861 -0.022103 -0.025127 0.077768
#
#
# Mechanical properties :
#
#
# Convention : Reuss Voigt Hill
#
# Bulk Modulus (GPa) = 15.20268 39.23291 27.21780
# Shear Modulus (GPa) = 14.82798 23.14606 18.98702
#
# Velocity S-wave (km/s) = 2.79918 3.49727 3.16752
# Velocity P-wave (km/s) = 4.29891 6.08600 5.26878
#
# Compressibility (1/GPa) = 0.06577789
#
# Stress axis : x y z
#
# Youngs Moduli (GPa) = 42.55540 38.06335 24.24327
#
# Poissons Ratio (x) = 0.36709 0.26816
# Poissons Ratio (y) = 0.41041 -0.19600
# Poissons Ratio (z) = 0.47071 -0.30773
#
# Static dielectric constant tensor:
#      x y z
#    x 1.642740 -0.019920 0.005370 
#    y -0.019920 1.685840 0.046200 
#    z 0.005370 0.046200 1.686040 
# 
# From -- ./inp_files/157572.got.cif
#   From: 2010.05.17/outbox.cif.g08.bks.cpg/sg2_79_cif.got.tgz:157572.got - 2010.06.03 11:33:40.
