data_PCOD9081751
_publ_section_title
;
Structure prediction by ZEFSAII (Michael W. Deem and Ramdas Pophale) SiO2 
 PCOD9081751
Probable space group: P -1
;
_chemical_formula_sum "Si O2"
_cell_formula_units_Z 16
_cell_length_a 15.329030
_cell_length_b 8.613774
_cell_length_c 9.878925
_cell_angle_alpha 71.636306
_cell_angle_beta 130.535907
_cell_angle_gamma 128.791708
_cell_volume 763.291768
_symmetry_space_group_name_H-M "P -1"
_symmetry_group_IT_number 2
_symmetry_cell_setting 'triclinic'
loop_
_space_group_symop_operation_xyz
x,y,z
-x,-y,-z
loop_
_atom_site_type_symbol
_atom_site_label
_atom_site_fract_x
_atom_site_fract_y
_atom_site_fract_z
Si Si1 0.790559 0.149602 0.385446
Si Si2 0.819720 0.797615 0.188837
Si Si3 0.436361 0.698545 0.630591
Si Si4 0.754508 0.013411 0.883609
Si Si5 0.835478 0.331719 0.673924
Si Si6 0.651953 0.355110 0.131442
Si Si7 0.061001 0.794341 0.743432
Si Si8 0.612514 0.706313 0.261808
O O1 0.839133 0.268783 0.541528
O O2 0.693289 0.202495 0.195947
O O3 0.913270 0.211778 0.386367
O O4 0.698794 0.910350 0.378688
O O5 0.795076 0.584643 0.212011
O O6 0.706666 0.751804 0.207096
O O7 0.956773 0.024160 0.299808
O O8 0.778882 0.842863 0.990301
O O9 0.593682 0.889295 0.709715
O O10 0.317025 0.712449 0.442678
O O11 0.414066 0.691192 0.772367
O O12 0.411353 0.485973 0.636077
O O13 0.851021 0.190228 0.826879
O O14 0.799314 0.122650 0.046190
O O15 0.943717 0.570867 0.734099
O O16 0.536224 0.339459 0.921799
#
# Coordination Sequence:
#
# PCOD9081751 Si02
#       8
#     2   2   2   2   2   2   2   2
#     4  10  21  31  52  79 106 134 169 218 259 299
#     4   8  16  29  57  74  98 130 179 210 245 292
#     4  10  18  32  54  81 105 133 169 221 254 301
#     4  10  18  35  58  75 102 137 177 210 252 307
#     4  11  22  33  53  80 109 135 169 210 268 304
#     4  10  15  30  54  84  99 133 178 214 250 304
#     4   9  19  38  54  74 101 143 176 210 247 305
#     4  10  15  32  52  78 107 134 170 212 257 305
#
# _framework density 20.961839999999999
#
# number of rings (size 3 to 8) (size 9 to 14) (size 15 to 20)
#    0.750    1.500    2.500    2.250    0.000    1.000 
#    0.000   11.875    2.750    0.750    0.000    0.000 
#    0.000    0.000    0.000    0.000    0.000    0.000 
#
# Total GULP energy -89087.739377 kJ/mol
# GULP energy per Si atom -5567.983711 kJ/mol
# Density = 2.091413 g / cm^3
# Si number density = 20.961840 Si / 1000 Ang^3
#
#
#
# Elastic Constant Matrix: (Units=GPa)
#
#
# Indices 1 2 3 4 5 6 
#
# 1 5.8250 18.4692 0.2012 0.4908 -0.2495 -2.0081
# 2 18.4692 142.3374 27.4038 2.1236 2.0612 18.2676
# 3 0.2012 27.4038 20.8343 0.3970 -1.1467 -1.6965
# 4 0.4908 2.1236 0.3970 29.2089 4.5344 -0.3086
# 5 -0.2495 2.0612 -1.1467 4.5344 11.7303 -2.8783
# 6 -2.0081 18.2676 -1.6965 -0.3086 -2.8783 17.6659
#
#
#
# Elastic Compliance Matrix: (Units=1/GPa)
#
#
# Indices 1 2 3 4 5 6 
#
# 1 -13.717809 3.686800 -5.425229 0.468943 -3.224021 -6.409758
# 2 3.686800 -0.978018 1.439386 -0.125601 0.858206 1.706266
# 3 -5.425229 1.439386 -2.069520 0.183167 -1.256167 -2.505301
# 4 0.468943 -0.125601 0.183167 0.020513 0.095179 0.216639
# 5 -3.224021 0.858206 -1.256167 0.095179 -0.656846 -1.479898
# 6 -6.409758 1.706266 -2.505301 0.216639 -1.479898 -2.914291
#
#
# Mechanical properties :
#
#
# Convention : Reuss Voigt Hill
#
# Bulk Modulus (GPa) = -0.05759 29.01612 14.47926
# Shear Modulus (GPa) = -0.19603 19.91588 9.85992
#
# Velocity S-wave (km/s) = -0.30614 3.08572 2.17117
# Velocity P-wave (km/s) = 0.39051 5.15441 3.63424
#
# Compressibility (1/GPa) = -17.36343199
#
# Stress axis : x y z
#
# Youngs Moduli (GPa) = -0.07290 -1.02248 -0.48320
#
# Poissons Ratio (x) = 3.76966 -2.62149
# Poissons Ratio (y) = 0.26876 0.69552
# Poissons Ratio (z) = -0.39549 1.47174
#
# Static dielectric constant tensor:
#      x y z
#    x 1.776220 -0.019310 0.059700 
#    y -0.019310 1.778560 0.001970 
#    z 0.059700 0.001970 1.775800 
# 
# From -- ./inp_files/327448.got.cif
#   From: 2010.05.17/outbox.cif.g08.bks.cpg/sg2_164_cif.got.tgz:327448.got - 2010.06.03 11:33:40.
