data_PCOD9081607
_publ_section_title
;
Structure prediction by ZEFSAII (Michael W. Deem and Ramdas Pophale) SiO2 
 PCOD9081607
Probable space group: P -1
;
_chemical_formula_sum "Si O2"
_cell_formula_units_Z 16
_cell_length_a 11.666143
_cell_length_b 8.199825
_cell_length_c 8.817550
_cell_angle_alpha 103.440351
_cell_angle_beta 89.927902
_cell_angle_gamma 48.207282
_cell_volume 597.298122
_symmetry_space_group_name_H-M "P -1"
_symmetry_group_IT_number 2
_symmetry_cell_setting 'triclinic'
loop_
_space_group_symop_operation_xyz
x,y,z
-x,-y,-z
loop_
_atom_site_type_symbol
_atom_site_label
_atom_site_fract_x
_atom_site_fract_y
_atom_site_fract_z
Si Si1 0.369830 0.139426 0.898779
Si Si2 0.589618 0.581768 0.203213
Si Si3 0.077040 0.203861 0.015808
Si Si4 0.219298 0.627523 0.387075
Si Si5 0.906994 0.612028 0.678978
Si Si6 0.243650 0.892466 0.210476
Si Si7 0.826912 0.121909 0.289371
Si Si8 0.458247 0.798636 0.576248
O O1 0.330000 0.368914 0.901895
O O2 0.435994 0.989218 0.712818
O O3 0.225757 0.172289 0.964415
O O4 0.500000 0.000000 0.000000
O O5 0.429396 0.684711 0.144522
O O6 0.711862 0.322837 0.208683
O O7 0.524163 0.732433 0.392163
O O8 0.993861 0.415557 0.181645
O O9 0.132127 0.004307 0.088994
O O10 0.051247 0.126378 0.845330
O O11 0.170231 0.490038 0.310495
O O12 0.195621 0.797391 0.304729
O O13 0.129092 0.772207 0.573424
O O14 0.405311 0.436794 0.383832
O O15 0.000000 0.500000 0.500000
O O16 0.782187 0.884805 0.701035
O O17 0.709263 0.125246 0.391910
#
# Coordination Sequence:
#
# PCOD9081607 Si02
#       8
#     2   2   2   2   2   2   2   2
#     4  11  19  29  48  79 123 159 190 231 273 337
#     4  11  18  32  51  88 121 163 186 213 282 364
#     4   9  22  38  51  86 121 149 193 246 290 332
#     4  11  19  38  65  85 115 160 198 227 290 353
#     4  10  24  44  62  81 111 150 209 258 288 337
#     4  10  20  37  62  87 114 156 200 232 282 356
#     4  10  20  34  56  90 128 150 182 235 284 355
#     4  10  19  32  52  85 125 157 186 221 275 360
#
# _framework density 26.787292999999998
#
# number of rings (size 3 to 8) (size 9 to 14) (size 15 to 20)
#    0.750    1.000    3.750    2.625    0.000    4.000 
#    0.000    0.625    0.000    0.750    0.000    0.000 
#    0.000    0.000    0.000    0.000    0.000    0.000 
#
# Total GULP energy -89439.644499 kJ/mol
# GULP energy per Si atom -5589.977781 kJ/mol
# Density = 2.672632 g / cm^3
# Si number density = 26.787293 Si / 1000 Ang^3
#
#
#
# Elastic Constant Matrix: (Units=GPa)
#
#
# Indices 1 2 3 4 5 6 
#
# 1 91.0234 36.1365 19.8935 -5.1297 13.8329 19.3974
# 2 36.1365 112.8590 40.1968 -5.5312 2.3911 23.6725
# 3 19.8935 40.1968 116.0569 43.7283 6.3777 22.9016
# 4 -5.1297 -5.5312 43.7283 52.7169 13.6830 -0.6091
# 5 13.8329 2.3911 6.3777 13.6830 31.3622 -4.6233
# 6 19.3974 23.6725 22.9016 -0.6091 -4.6233 41.7519
#
#
#
# Elastic Compliance Matrix: (Units=1/GPa)
#
#
# Indices 1 2 3 4 5 6 
#
# 1 0.015347 -0.002524 -0.002213 0.005412 -0.009289 -0.005435
# 2 -0.002524 0.012622 -0.005538 0.006115 -0.001842 -0.003061
# 3 -0.002213 -0.005538 0.018224 -0.017101 0.004328 -0.005599
# 4 0.005412 0.006115 -0.017101 0.038457 -0.015829 0.002207
# 5 -0.009289 -0.001842 0.004328 -0.015829 0.043261 0.007546
# 6 -0.005435 -0.003061 -0.005599 0.002207 0.007546 0.032150
#
#
# Mechanical properties :
#
#
# Convention : Reuss Voigt Hill
#
# Bulk Modulus (GPa) = 38.99558 56.93257 47.96407
# Shear Modulus (GPa) = 26.43297 40.08037 33.25667
#
# Velocity S-wave (km/s) = 3.14470 3.87233 3.52733
# Velocity P-wave (km/s) = 5.27016 6.42596 5.87655
#
# Compressibility (1/GPa) = 0.02564393
#
# Stress axis : x y z
#
# Youngs Moduli (GPa) = 65.16118 79.22749 54.87186
#
# Poissons Ratio (x) = 0.19994 0.12142
# Poissons Ratio (y) = 0.16445 0.30387
# Poissons Ratio (z) = 0.14419 0.43875
#
# Static dielectric constant tensor:
#      x y z
#    x 2.117490 -0.040550 0.034210 
#    y -0.040550 2.079540 0.057420 
#    z 0.034210 0.057420 2.134140 
# 
# From -- ./inp_files/292770.got.cif
#   From: 2010.05.17/outbox.cif.g08.bks.cpg/sg2_147_cif.got.tgz:292770.got - 2010.06.03 11:33:40.
