data_PCOD9081957
_publ_section_title
;
Structure prediction by ZEFSAII (Michael W. Deem and Ramdas Pophale) SiO2 
 PCOD9081957
Probable space group: P -1
;
_chemical_formula_sum "Si O2"
_cell_formula_units_Z 16
_cell_length_a 22.166799
_cell_length_b 10.250371
_cell_length_c 14.508825
_cell_angle_alpha 134.663601
_cell_angle_beta 21.831142
_cell_angle_gamma 127.753074
_cell_volume 861.778248
_symmetry_space_group_name_H-M "P -1"
_symmetry_group_IT_number 2
_symmetry_cell_setting 'triclinic'
loop_
_space_group_symop_operation_xyz
x,y,z
-x,-y,-z
loop_
_atom_site_type_symbol
_atom_site_label
_atom_site_fract_x
_atom_site_fract_y
_atom_site_fract_z
Si Si1 0.875503 0.166592 0.649551
Si Si2 0.362499 0.916443 0.213228
Si Si3 0.768452 0.405274 0.333020
Si Si4 0.765702 0.926001 0.854702
Si Si5 0.405592 0.383691 0.144409
Si Si6 0.242141 0.483706 0.894869
Si Si7 0.429376 0.730723 0.611778
Si Si8 0.868985 0.725122 0.216955
O O1 0.762433 0.161990 0.718599
O O2 0.068835 0.098345 0.331459
O O3 0.809662 0.030590 0.750722
O O4 0.854947 0.369530 0.825304
O O5 0.253502 0.083320 0.505934
O O6 0.462168 0.761274 0.059147
O O7 0.500000 0.000000 0.000000
O O8 0.699078 0.482884 0.567148
O O9 0.638095 0.310622 0.413003
O O10 0.806401 0.584660 0.310062
O O11 0.941487 0.270017 0.026955
O O12 0.709170 0.736651 0.808978
O O13 0.623744 0.059861 0.175546
O O14 0.500000 0.500000 0.000000
O O15 0.334884 0.608359 0.755417
O O16 0.380543 0.345370 0.682718
O O17 0.139703 0.369584 0.917264
#
# Coordination Sequence:
#
# PCOD9081957 Si02
#       8
#     2   2   2   2   2   2   2   2
#     4  10  19  32  58  87 114 144 187 249 289 337
#     4  12  21  36  60  90 116 150 204 243 287 339
#     4  10  19  35  55  85 116 147 189 237 296 339
#     4  10  19  35  55  85 116 147 189 237 296 339
#     4  12  25  40  58  84 123 162 194 237 292 354
#     4   9  17  26  45  80 112 137 169 228 296 326
#     4   9  17  28  50  74 107 139 179 229 276 338
#     4  10  19  32  58  87 114 144 187 249 289 337
#
# _framework density 18.566261999999998
#
# number of rings (size 3 to 8) (size 9 to 14) (size 15 to 20)
#    0.000    1.750    2.500    3.000    3.500    4.000 
#    0.000    1.875    0.000    0.000    0.000    0.000 
#    0.000    0.000    0.000    0.000    0.000    0.000 
#
# Total GULP energy -89334.211291 kJ/mol
# GULP energy per Si atom -5583.388206 kJ/mol
# Density = 1.852400 g / cm^3
# Si number density = 18.566262 Si / 1000 Ang^3
#
#
#
# Elastic Constant Matrix: (Units=GPa)
#
#
# Indices 1 2 3 4 5 6 
#
# 1 75.2500 31.2565 -1.7585 -11.0155 -7.9225 15.2841
# 2 31.2565 46.1683 15.8159 -1.5489 4.5817 0.8023
# 3 -1.7585 15.8159 38.0637 4.8458 -5.7886 -4.6238
# 4 -11.0155 -1.5489 4.8458 13.5792 6.1403 -0.7331
# 5 -7.9225 4.5817 -5.7886 6.1403 32.0638 10.3348
# 6 15.2841 0.8023 -4.6238 -0.7331 10.3348 23.3739
#
#
#
# Elastic Compliance Matrix: (Units=1/GPa)
#
#
# Indices 1 2 3 4 5 6 
#
# 1 0.036264 -0.030618 0.013214 0.008813 0.023798 -0.030294
# 2 -0.030618 0.053826 -0.025713 0.005160 -0.029338 0.026221
# 3 0.013214 -0.025713 0.041757 -0.016962 0.020684 -0.009175
# 4 0.008813 0.005160 -0.016962 0.097214 -0.021254 0.003151
# 5 0.023798 -0.029338 0.020684 -0.021254 0.061402 -0.038278
# 6 -0.030294 0.026221 -0.009175 0.003151 -0.038278 0.076900
#
#
# Mechanical properties :
#
#
# Convention : Reuss Voigt Hill
#
# Bulk Modulus (GPa) = 21.92316 27.78999 24.85657
# Shear Modulus (GPa) = 10.66552 21.41459 16.04006
#
# Velocity S-wave (km/s) = 2.39938 3.39988 2.94247
# Velocity P-wave (km/s) = 4.41698 5.51477 4.99612
#
# Compressibility (1/GPa) = 0.04561387
#
# Stress axis : x y z
#
# Youngs Moduli (GPa) = 27.57558 18.57843 23.94825
#
# Poissons Ratio (x) = 0.56883 -0.31646
# Poissons Ratio (y) = 0.84430 0.61579
# Poissons Ratio (z) = -0.36439 0.47771
#
# Static dielectric constant tensor:
#      x y z
#    x 1.632460 0.005070 -0.009800 
#    y 0.005070 1.616630 0.015010 
#    z -0.009800 0.015010 1.617230 
# 
# From -- ./inp_files/348972.got.cif
#   From: 2010.05.17/outbox.cif.g08.bks.cpg/sg2_175_cif.got.tgz:348972.got - 2010.06.03 11:33:40.
