data_PCOD9081305
_publ_section_title
;
Structure prediction by ZEFSAII (Michael W. Deem and Ramdas Pophale) SiO2 
 PCOD9081305
Probable space group: P -1
;
_chemical_formula_sum "Si O2"
_cell_formula_units_Z 16
_cell_length_a 11.530236
_cell_length_b 12.431711
_cell_length_c 9.394655
_cell_angle_alpha 62.847056
_cell_angle_beta 41.842350
_cell_angle_gamma 67.545331
_cell_volume 797.315214
_symmetry_space_group_name_H-M "P -1"
_symmetry_group_IT_number 2
_symmetry_cell_setting 'triclinic'
loop_
_space_group_symop_operation_xyz
x,y,z
-x,-y,-z
loop_
_atom_site_type_symbol
_atom_site_label
_atom_site_fract_x
_atom_site_fract_y
_atom_site_fract_z
Si Si1 0.184116 0.927616 0.840462
Si Si2 0.703915 0.033651 0.603287
Si Si3 0.703499 0.688179 0.507805
Si Si4 0.672942 0.896262 0.185203
Si Si5 0.399110 0.560311 0.189426
Si Si6 0.920087 0.273432 0.746065
Si Si7 0.826599 0.075206 0.764157
Si Si8 0.543673 0.791200 0.883708
O O1 0.223390 0.936009 0.634843
O O2 0.324218 0.001855 0.753305
O O3 0.166738 0.794010 0.000446
O O4 0.000000 0.000000 0.000000
O O5 0.507628 0.097316 0.739536
O O6 0.818351 0.075108 0.603433
O O7 0.676576 0.891433 0.736496
O O8 0.703060 0.772714 0.318736
O O9 0.642797 0.555042 0.609662
O O10 0.584205 0.752311 0.705293
O O11 0.898809 0.677978 0.400389
O O12 0.820600 0.941173 0.916992
O O13 0.218578 0.628870 0.256477
O O14 0.500000 0.500000 0.000000
O O15 0.523696 0.664645 0.061228
O O16 0.955827 0.162513 0.667825
O O17 0.641120 0.138243 0.951436
#
# Coordination Sequence:
#
# PCOD9081305 Si02
#       8
#     2   2   2   2   2   2   2   2
#     4  11  20  33  54  85 113 140 176 222 279 326
#     4  11  20  34  56  80 114 149 174 219 279 329
#     4  11  19  32  55  83 107 142 181 234 275 308
#     4  10  19  31  54  79 107 140 182 225 270 318
#     4   9  20  32  53  83 105 139 191 231 271 310
#     4  10  20  36  55  79 117 142 176 231 268 325
#     4   9  21  34  53  80 113 147 180 216 274 337
#     4   9  17  33  51  77 108 138 179 227 262 320
#
# _framework density 20.067343999999999
#
# number of rings (size 3 to 8) (size 9 to 14) (size 15 to 20)
#    0.000    2.000    2.500    3.000    7.000    0.000 
#    0.000    6.875    0.000    6.750    0.000    4.375 
#    0.000    0.000    0.000    0.000    0.000    0.000 
#
# Total GULP energy -89159.763725 kJ/mol
# GULP energy per Si atom -5572.485233 kJ/mol
# Density = 2.002167 g / cm^3
# Si number density = 20.067344 Si / 1000 Ang^3
#
#
#
# Elastic Constant Matrix: (Units=GPa)
#
#
# Indices 1 2 3 4 5 6 
#
# 1 65.0601 8.3508 20.3985 2.8524 9.9685 5.1799
# 2 8.3508 61.5680 25.6993 -29.6230 7.0801 -3.8771
# 3 20.3985 25.6993 74.6797 -16.6471 15.8731 7.4034
# 4 2.8524 -29.6230 -16.6471 30.0482 -7.1391 -3.7027
# 5 9.9685 7.0801 15.8731 -7.1391 37.3514 6.9281
# 6 5.1799 -3.8771 7.4034 -3.7027 6.9281 26.0049
#
#
#
# Elastic Compliance Matrix: (Units=1/GPa)
#
#
# Indices 1 2 3 4 5 6 
#
# 1 0.018958 -0.006209 -0.004518 -0.011754 -0.003435 -0.004174
# 2 -0.006209 0.037355 -0.004481 0.036799 0.001097 0.013029
# 3 -0.004518 -0.004481 0.018470 0.004834 -0.004277 -0.003199
# 4 -0.011754 0.036799 0.004834 0.076687 0.005831 0.015817
# 5 -0.003435 0.001097 -0.004277 0.005831 0.031429 -0.005478
# 6 -0.004174 0.013029 -0.003199 0.015817 -0.005478 0.045850
#
#
# Mechanical properties :
#
#
# Convention : Reuss Voigt Hill
#
# Bulk Modulus (GPa) = 22.53865 34.46720 28.50293
# Shear Modulus (GPa) = 18.25132 28.47151 23.36142
#
# Velocity S-wave (km/s) = 3.01907 3.77078 3.41567
# Velocity P-wave (km/s) = 4.83828 6.01427 5.45804
#
# Compressibility (1/GPa) = 0.04436823
#
# Stress axis : x y z
#
# Youngs Moduli (GPa) = 52.74886 26.77049 54.14125
#
# Poissons Ratio (x) = 0.16621 0.24460
# Poissons Ratio (y) = 0.32750 0.24259
# Poissons Ratio (z) = 0.23831 0.11995
#
# Static dielectric constant tensor:
#      x y z
#    x 1.764700 -0.028480 -0.040790 
#    y -0.028480 1.761690 -0.014680 
#    z -0.040790 -0.014680 1.764420 
# 
# From -- ./inp_files/222103.got.cif
#   From: 2010.05.17/outbox.cif.g08.bks.cpg/sg2_112_cif.got.tgz:222103.got - 2010.06.03 11:33:40.
