data_PCOD9081786
_publ_section_title
;
Structure prediction by ZEFSAII (Michael W. Deem and Ramdas Pophale) SiO2 
 PCOD9081786
Probable space group: P -1
;
_chemical_formula_sum "Si O2"
_cell_formula_units_Z 16
_cell_length_a 22.908744
_cell_length_b 8.277988
_cell_length_c 19.354534
_cell_angle_alpha 145.446840
_cell_angle_beta 162.301845
_cell_angle_gamma 39.281409
_cell_volume 631.656823
_symmetry_space_group_name_H-M "P -1"
_symmetry_group_IT_number 2
_symmetry_cell_setting 'triclinic'
loop_
_space_group_symop_operation_xyz
x,y,z
-x,-y,-z
loop_
_atom_site_type_symbol
_atom_site_label
_atom_site_fract_x
_atom_site_fract_y
_atom_site_fract_z
Si Si1 0.395191 0.056726 0.290209
Si Si2 0.917994 0.678875 0.793644
Si Si3 0.825093 0.867349 0.461750
Si Si4 0.167496 0.778800 0.548263
Si Si5 0.796411 0.417901 0.705917
Si Si6 0.699172 0.296761 0.817621
Si Si7 0.274082 0.133763 0.910941
Si Si8 0.266083 0.755291 0.904637
O O1 0.345550 0.388288 0.343362
O O2 0.586473 0.087164 0.563442
O O3 0.253062 0.877410 0.120691
O O4 0.393892 0.886621 0.157767
O O5 0.804262 0.549184 0.554158
O O6 0.814601 0.575505 0.708531
O O7 0.128572 0.549498 0.978845
O O8 0.000000 0.000000 0.000000
O O9 0.711106 0.567092 0.209627
O O10 0.045347 0.783074 0.692242
O O11 0.823101 0.047623 0.451757
O O12 0.768004 0.082945 0.534992
O O13 0.944678 0.780650 0.323531
O O14 0.312509 0.927644 0.818291
O O15 0.000000 0.500000 0.000000
O O16 0.600405 0.572201 0.833792
O O17 0.285367 0.953420 0.929143
#
# Coordination Sequence:
#
# PCOD9081786 Si02
#       8
#     2   2   2   2   2   2   2   2
#     4  11  22  37  58  83 117 150 185 232 281 338
#     4  10  19  35  57  83 110 145 188 230 272 330
#     4   9  18  32  53  81 111 142 188 228 278 333
#     4   8  16  29  51  76 106 137 180 231 267 320
#     4  11  21  36  57  87 117 144 183 235 288 327
#     4  10  22  37  57  81 113 151 192 222 280 337
#     4   9  17  32  52  79 107 138 189 229 271 322
#     4  10  19  32  55  83 109 148 187 233 276 332
#
# _framework density 25.330209
#
# number of rings (size 3 to 8) (size 9 to 14) (size 15 to 20)
#    0.000    2.250    2.500    1.500    0.000    4.500 
#    0.000    0.000    2.750    3.750    0.000    0.000 
#    0.000    0.000    0.000    0.000    0.000    0.000 
#
# Total GULP energy -89212.158081 kJ/mol
# GULP energy per Si atom -5575.759880 kJ/mol
# Density = 2.527256 g / cm^3
# Si number density = 25.330209 Si / 1000 Ang^3
#
#
#
# Elastic Constant Matrix: (Units=GPa)
#
#
# Indices 1 2 3 4 5 6 
#
# 1 64.2299 20.4858 65.8488 12.5728 -22.0356 -3.7050
# 2 20.4858 91.4820 54.7996 42.1225 -22.1329 -13.4624
# 3 65.8488 54.7996 152.4524 45.5490 -58.6385 -12.6825
# 4 12.5728 42.1225 45.5490 58.8292 -19.3026 -9.8876
# 5 -22.0356 -22.1329 -58.6385 -19.3026 52.7538 1.3048
# 6 -3.7050 -13.4624 -12.6825 -9.8876 1.3048 11.9354
#
#
#
# Elastic Compliance Matrix: (Units=1/GPa)
#
#
# Indices 1 2 3 4 5 6 
#
# 1 0.029259 -0.000836 -0.015315 0.004377 -0.003449 -0.004131
# 2 -0.000836 0.018530 -0.002111 -0.009193 0.001453 0.010625
# 3 -0.015315 -0.002111 0.022363 -0.005846 0.015185 0.010125
# 4 0.004377 -0.009193 -0.005846 0.029306 0.001978 0.008840
# 5 -0.003449 0.001453 0.015185 0.001978 0.035370 0.014475
# 6 -0.004131 0.010625 0.010125 0.008840 0.014475 0.110985
#
#
# Mechanical properties :
#
#
# Convention : Reuss Voigt Hill
#
# Bulk Modulus (GPa) = 29.73650 65.60363 47.67006
# Shear Modulus (GPa) = 17.03313 35.83900 26.43606
#
# Velocity S-wave (km/s) = 2.59596 3.76556 3.23407
# Velocity P-wave (km/s) = 4.55526 6.69787 5.72765
#
# Compressibility (1/GPa) = 0.03362871
#
# Stress axis : x y z
#
# Youngs Moduli (GPa) = 34.17790 53.96559 44.71662
#
# Poissons Ratio (x) = 0.04509 0.68486
# Poissons Ratio (y) = 0.02856 0.09438
# Poissons Ratio (z) = 0.52345 0.11390
#
# Static dielectric constant tensor:
#      x y z
#    x 2.082330 -0.194290 0.002000 
#    y -0.194290 2.176010 0.056330 
#    z 0.002000 0.056330 2.098530 
# 
# From -- ./inp_files/205668.got.cif
#   From: 2010.05.17/outbox.cif.g08.bks.cpg/sg2_103_cif.got.tgz:205668.got - 2010.06.03 11:33:40.
