data_PCOD9081995
_publ_section_title
;
Structure prediction by ZEFSAII (Michael W. Deem and Ramdas Pophale) SiO2 
 PCOD9081995
Probable space group: P -1
;
_chemical_formula_sum "Si O2"
_cell_formula_units_Z 16
_cell_length_a 12.532911
_cell_length_b 7.992817
_cell_length_c 13.550206
_cell_angle_alpha 134.983210
_cell_angle_beta 131.717590
_cell_angle_gamma 76.914640
_cell_volume 635.509215
_symmetry_space_group_name_H-M "P -1"
_symmetry_group_IT_number 2
_symmetry_cell_setting 'triclinic'
loop_
_space_group_symop_operation_xyz
x,y,z
-x,-y,-z
loop_
_atom_site_type_symbol
_atom_site_label
_atom_site_fract_x
_atom_site_fract_y
_atom_site_fract_z
Si Si1 0.449270 0.184749 0.353464
Si Si2 0.866390 0.670523 0.657615
Si Si3 0.661204 0.903209 0.548622
Si Si4 0.207267 0.512561 0.063546
Si Si5 0.836402 0.781789 0.888891
Si Si6 0.111707 0.922976 0.403756
Si Si7 0.605196 0.360573 0.965964
Si Si8 0.966940 0.664684 0.407566
O O1 0.500000 0.500000 0.500000
O O2 0.475932 0.156480 0.475713
O O3 0.262698 0.079627 0.163189
O O4 0.480296 0.966098 0.220348
O O5 0.713769 0.675811 0.515870
O O6 0.832058 0.582630 0.715812
O O7 0.950092 0.517858 0.592409
O O8 0.993414 0.978368 0.878669
O O9 0.713012 0.952167 0.485941
O O10 0.776470 0.202140 0.781336
O O11 0.230065 0.370144 0.114157
O O12 0.341249 0.558462 0.081878
O O13 0.028206 0.339107 0.840219
O O14 0.047792 0.142532 0.440925
O O15 0.088965 0.858952 0.478930
O O16 0.500000 0.500000 0.000000
O O17 0.782496 0.489429 0.182116
#
# Coordination Sequence:
#
# PCOD9081995 Si02
#       8
#     2   2   2   2   2   2   2   2
#     4  10  22  43  60  86 114 154 204 246 275 339
#     4  10  19  32  59  88 113 151 177 230 306 346
#     4  10  20  36  60  87 119 146 184 244 294 339
#     4  10  20  37  60  88 116 147 189 238 290 352
#     4  10  19  34  61  88 113 148 186 238 294 341
#     4  10  20  34  57  88 117 144 186 234 292 349
#     4  10  22  44  61  77 118 163 198 235 290 341
#     4  10  21  38  56  84 123 151 187 233 290 355
#
# _framework density 25.176659000000001
#
# number of rings (size 3 to 8) (size 9 to 14) (size 15 to 20)
#    0.000    2.000    2.500    1.125    5.250    0.500 
#   18.000    1.875    0.000    0.000    0.000    0.000 
#    0.000    0.000    0.000    0.000    0.000    0.000 
#
# Total GULP energy -89173.080853 kJ/mol
# GULP energy per Si atom -5573.317553 kJ/mol
# Density = 2.511936 g / cm^3
# Si number density = 25.176659 Si / 1000 Ang^3
#
#
#
# Elastic Constant Matrix: (Units=GPa)
#
#
# Indices 1 2 3 4 5 6 
#
# 1 133.9802 19.9767 10.1765 14.4467 -9.5811 -17.2690
# 2 19.9767 76.9557 13.4413 9.7848 -7.9294 0.6445
# 3 10.1765 13.4413 54.0933 25.5494 -2.8742 -10.8435
# 4 14.4467 9.7848 25.5494 32.8412 -10.8498 -6.5495
# 5 -9.5811 -7.9294 -2.8742 -10.8498 29.5185 10.5051
# 6 -17.2690 0.6445 -10.8435 -6.5495 10.5051 60.2326
#
#
#
# Elastic Compliance Matrix: (Units=1/GPa)
#
#
# Indices 1 2 3 4 5 6 
#
# 1 0.008330 -0.001889 0.000892 -0.003260 0.000316 0.002159
# 2 -0.001889 0.014476 -0.003444 0.000010 0.003638 -0.001950
# 3 0.000892 -0.003444 0.032083 -0.026309 -0.008874 0.004755
# 4 -0.003260 0.000010 -0.026309 0.057979 0.018624 -0.002615
# 5 0.000316 0.003638 -0.008874 0.018624 0.043466 -0.007101
# 6 0.002159 -0.001950 0.004755 -0.002615 -0.007101 0.019053
#
#
# Mechanical properties :
#
#
# Convention : Reuss Voigt Hill
#
# Bulk Modulus (GPa) = 21.73634 39.13537 30.43585
# Shear Modulus (GPa) = 25.04944 39.28077 32.16511
#
# Velocity S-wave (km/s) = 3.15770 3.95423 3.57820
# Velocity P-wave (km/s) = 4.68477 6.03539 5.40245
#
# Compressibility (1/GPa) = 0.04600591
#
# Stress axis : x y z
#
# Youngs Moduli (GPa) = 120.04488 69.07837 31.16964
#
# Poissons Ratio (x) = 0.13050 -0.02780
# Poissons Ratio (y) = 0.22678 0.10736
# Poissons Ratio (z) = -0.10706 0.23792
#
# Static dielectric constant tensor:
#      x y z
#    x 2.098130 0.028190 0.050700 
#    y 0.028190 2.094880 -0.043120 
#    z 0.050700 -0.043120 2.049880 
# 
# From -- ./inp_files/499929.got.cif
#   From: 2010.05.17/outbox.cif.g08.bks.cpg/sg2_250_cif.got.tgz:499929.got - 2010.06.03 11:33:40.
