data_PCOD9081525
_publ_section_title
;
Structure prediction by ZEFSAII (Michael W. Deem and Ramdas Pophale) SiO2 
 PCOD9081525
Probable space group: P -1
;
_chemical_formula_sum "Si O2"
_cell_formula_units_Z 16
_cell_length_a 25.463102
_cell_length_b 5.337650
_cell_length_c 12.055332
_cell_angle_alpha 119.056637
_cell_angle_beta 152.060701
_cell_angle_gamma 65.358136
_cell_volume 670.770841
_symmetry_space_group_name_H-M "P -1"
_symmetry_group_IT_number 2
_symmetry_cell_setting 'triclinic'
loop_
_space_group_symop_operation_xyz
x,y,z
-x,-y,-z
loop_
_atom_site_type_symbol
_atom_site_label
_atom_site_fract_x
_atom_site_fract_y
_atom_site_fract_z
Si Si1 0.132226 0.822108 0.888698
Si Si2 0.894580 0.327333 0.969998
Si Si3 0.881491 0.768787 0.353372
Si Si4 0.529716 0.364651 0.903047
Si Si5 0.118830 0.591088 0.503801
Si Si6 0.296476 0.303614 0.346842
Si Si7 0.606058 0.932687 0.103137
Si Si8 0.807296 0.382152 0.600598
O O1 0.164096 0.489719 0.863283
O O2 0.017105 0.811059 0.601143
O O3 0.089591 0.893345 0.949442
O O4 0.238761 0.034022 0.119493
O O5 0.751079 0.660937 0.608443
O O6 0.903353 0.285233 0.845573
O O7 0.983826 0.574118 0.226533
O O8 0.859930 0.642538 0.410996
O O9 0.839079 0.085452 0.320552
O O10 0.427190 0.334838 0.619558
O O11 0.572752 0.053756 0.947156
O O12 0.617004 0.594294 0.062790
O O13 0.500000 0.500000 0.000000
O O14 0.160542 0.542850 0.446936
O O15 0.234740 0.578486 0.240909
O O16 0.714043 0.125726 0.376562
O O17 0.500000 0.000000 0.000000
#
# Coordination Sequence:
#
# PCOD9081525 Si02
#       8
#     2   2   2   2   2   2   2   2
#     4  10  21  34  60  79 109 153 190 248 265 310
#     4   9  20  33  52  84 116 141 185 223 285 325
#     4  10  23  39  57  76 115 150 206 223 268 314
#     4  10  19  32  51  76 116 133 178 225 280 333
#     4  11  22  39  53  83 114 162 178 225 270 347
#     4  10  20  32  54  86 112 144 178 229 289 330
#     4  10  19  34  50  78 110 144 174 227 269 333
#     4  10  21  34  57  82 121 146 183 218 290 354
#
# _framework density 23.853155999999998
#
# number of rings (size 3 to 8) (size 9 to 14) (size 15 to 20)
#    0.750    1.250    3.750    0.375    7.000    3.500 
#    0.000    3.125    0.000    0.000    0.000    5.250 
#    0.000    0.000    0.000    0.000    0.000    0.000 
#
# Total GULP energy -89075.835774 kJ/mol
# GULP energy per Si atom -5567.239736 kJ/mol
# Density = 2.379887 g / cm^3
# Si number density = 23.853156 Si / 1000 Ang^3
#
#
#
# Elastic Constant Matrix: (Units=GPa)
#
#
# Indices 1 2 3 4 5 6 
#
# 1 59.9136 12.5269 21.2867 -1.1746 -15.3199 26.0606
# 2 12.5269 96.0943 24.0327 9.3724 4.0043 33.9032
# 3 21.2867 24.0327 129.4151 15.5500 0.0524 15.0459
# 4 -1.1746 9.3724 15.5500 37.7693 9.7426 -3.1048
# 5 -15.3199 4.0043 0.0524 9.7426 22.9578 -0.7215
# 6 26.0606 33.9032 15.0459 -3.1048 -0.7215 30.4462
#
#
#
# Elastic Compliance Matrix: (Units=1/GPa)
#
#
# Indices 1 2 3 4 5 6 
#
# 1 0.046562 0.013818 -0.002172 -0.014085 0.032920 -0.054825
# 2 0.013818 0.022684 -0.000926 -0.010052 0.008355 -0.037457
# 3 -0.002172 -0.000926 0.008924 -0.003722 0.000212 -0.001894
# 4 -0.014085 -0.010052 -0.003722 0.038341 -0.023014 0.028454
# 5 0.032920 0.008355 0.000212 -0.023014 0.072634 -0.038213
# 6 -0.054825 -0.037457 -0.001894 0.028454 -0.038213 0.124415
#
#
# Mechanical properties :
#
#
# Convention : Reuss Voigt Hill
#
# Bulk Modulus (GPa) = 10.03907 44.56840 27.30373
# Shear Modulus (GPa) = 15.36938 33.40645 24.38791
#
# Velocity S-wave (km/s) = 2.54113 3.74639 3.20100
# Velocity P-wave (km/s) = 3.58156 6.11874 5.01331
#
# Compressibility (1/GPa) = 0.09961082
#
# Stress axis : x y z
#
# Youngs Moduli (GPa) = 21.47676 44.08331 112.06196
#
# Poissons Ratio (x) = -0.60915 0.24336
# Poissons Ratio (y) = -0.29677 0.10379
# Poissons Ratio (z) = 0.04664 0.04083
#
# Static dielectric constant tensor:
#      x y z
#    x 2.072490 -0.124750 0.007060 
#    y -0.124750 2.192740 -0.074930 
#    z 0.007060 -0.074930 1.961700 
# 
# From -- ./inp_files/477361.got.cif
#   From: 2010.05.17/outbox.cif.g08.bks.cpg/sg2_239_cif.got.tgz:477361.got - 2010.06.03 11:33:40.
