data_PCOD9081456
_publ_section_title
;
Structure prediction by ZEFSAII (Michael W. Deem and Ramdas Pophale) SiO2 
 PCOD9081456
Probable space group: P -1
;
_chemical_formula_sum "Si O2"
_cell_formula_units_Z 16
_cell_length_a 12.376139
_cell_length_b 18.105303
_cell_length_c 17.742141
_cell_angle_alpha 151.939917
_cell_angle_beta 157.359290
_cell_angle_gamma 27.391569
_cell_volume 658.040892
_symmetry_space_group_name_H-M "P -1"
_symmetry_group_IT_number 2
_symmetry_cell_setting 'triclinic'
loop_
_space_group_symop_operation_xyz
x,y,z
-x,-y,-z
loop_
_atom_site_type_symbol
_atom_site_label
_atom_site_fract_x
_atom_site_fract_y
_atom_site_fract_z
Si Si1 0.960686 0.871343 0.968285
Si Si2 0.830567 0.243404 0.154463
Si Si3 0.558574 0.484557 0.737674
Si Si4 0.177920 0.481995 0.213067
Si Si5 0.736034 0.862015 0.971743
Si Si6 0.385009 0.831604 0.429765
Si Si7 0.215405 0.230147 0.682318
Si Si8 0.409481 0.204657 0.626949
O O1 0.292685 0.768581 0.127623
O O2 0.944952 0.057450 0.100859
O O3 0.718386 0.900010 0.905112
O O4 0.960739 0.777108 0.804452
O O5 0.724913 0.387821 0.280593
O O6 0.503577 0.269791 0.929638
O O7 0.579158 0.532910 0.708475
O O8 0.576679 0.294403 0.589915
O O9 0.869824 0.485950 0.976726
O O10 0.278976 0.319159 0.185703
O O11 0.069014 0.655384 0.347199
O O12 0.064832 0.851450 0.202047
O O13 0.500000 0.000000 0.000000
O O14 0.630083 0.748349 0.444138
O O15 0.328992 0.026905 0.585784
O O16 0.169712 0.270890 0.600382
O O17 0.500000 0.000000 0.500000
#
# Coordination Sequence:
#
# PCOD9081456 Si02
#       8
#     2   2   2   2   2   2   2   2
#     4   9  17  29  49  73  93 123 160 187 229 282
#     4   9  17  30  50  72  96 121 152 195 234 272
#     4   9  17  30  46  68  95 124 157 192 229 274
#     4   9  18  30  46  68  93 124 159 191 229 274
#     4  10  19  32  49  68  95 126 156 192 230 276
#     4   9  18  31  50  72  92 123 160 188 232 282
#     4   9  17  31  50  71  96 121 151 196 234 273
#     4   8  15  29  49  71  95 122 152 190 232 273
#
# _framework density 24.314598
#
# number of rings (size 3 to 8) (size 9 to 14) (size 15 to 20)
#    0.000    3.000    0.000    0.750    0.000    2.500 
#    0.000    5.625    0.000   16.500    0.000    0.000 
#    0.000    0.000    0.000    0.000    0.000    0.000 
#
# Total GULP energy -89374.494445 kJ/mol
# GULP energy per Si atom -5585.905903 kJ/mol
# Density = 2.425926 g / cm^3
# Si number density = 24.314598 Si / 1000 Ang^3
#
#
#
# Elastic Constant Matrix: (Units=GPa)
#
#
# Indices 1 2 3 4 5 6 
#
# 1 229.4147 61.8071 38.1055 23.1430 -6.2279 -20.5885
# 2 61.8071 57.5526 13.6228 11.8511 -3.1173 -27.1828
# 3 38.1055 13.6228 48.9154 0.2044 -9.5528 -9.0975
# 4 23.1430 11.8511 0.2044 28.9209 -2.8117 -6.1681
# 5 -6.2279 -3.1173 -9.5528 -2.8117 33.8428 -1.8180
# 6 -20.5885 -27.1828 -9.0975 -6.1681 -1.8180 42.4461
#
#
#
# Elastic Compliance Matrix: (Units=1/GPa)
#
#
# Indices 1 2 3 4 5 6 
#
# 1 0.007064 -0.007197 -0.004153 -0.003320 -0.000951 -0.002596
# 2 -0.007197 0.034786 -0.000200 -0.004373 0.002439 0.018213
# 3 -0.004153 -0.000200 0.025941 0.004865 0.007182 0.004432
# 4 -0.003320 -0.004373 0.004865 0.039916 0.003815 0.002596
# 5 -0.000951 0.002439 0.007182 0.003815 0.032188 0.004573
# 6 -0.002596 0.018213 0.004432 0.002596 0.004573 0.035487
#
#
# Mechanical properties :
#
#
# Convention : Reuss Voigt Hill
#
# Bulk Modulus (GPa) = 22.37550 62.55040 42.46295
# Shear Modulus (GPa) = 23.43262 35.86511 29.64886
#
# Velocity S-wave (km/s) = 3.10776 3.84480 3.49576
# Velocity P-wave (km/s) = 4.70107 6.74472 5.81340
#
# Compressibility (1/GPa) = 0.04469174
#
# Stress axis : x y z
#
# Youngs Moduli (GPa) = 141.56645 28.74710 38.54915
#
# Poissons Ratio (x) = 0.20689 0.16010
# Poissons Ratio (y) = 1.01883 0.00770
# Poissons Ratio (z) = 0.58793 0.00574
#
# Static dielectric constant tensor:
#      x y z
#    x 1.950050 -0.008910 0.007540 
#    y -0.008910 1.933590 -0.077590 
#    z 0.007540 -0.077590 2.016880 
# 
# From -- ./inp_files/178841.got.cif
#   From: 2010.05.17/outbox.cif.g08.bks.cpg/sg2_90_cif.got.tgz:178841.got - 2010.06.03 11:33:40.
