data_PCOD9081192
_publ_section_title
;
Structure prediction by ZEFSAII (Michael W. Deem and Ramdas Pophale) SiO2 
 PCOD9081192
Probable space group: P -1
;
_chemical_formula_sum "Si O2"
_cell_formula_units_Z 15
_cell_length_a 9.351358
_cell_length_b 17.247019
_cell_length_c 10.753956
_cell_angle_alpha 46.906163
_cell_angle_beta 151.981909
_cell_angle_gamma 131.877910
_cell_volume 584.373080
_symmetry_space_group_name_H-M "P -1"
_symmetry_group_IT_number 2
_symmetry_cell_setting 'triclinic'
loop_
_space_group_symop_operation_xyz
x,y,z
-x,-y,-z
loop_
_atom_site_type_symbol
_atom_site_label
_atom_site_fract_x
_atom_site_fract_y
_atom_site_fract_z
Si Si1 0.918811 0.399136 0.756045
Si Si2 0.920773 0.760223 0.110394
Si Si3 0.282245 0.867310 0.914234
Si Si4 0.451981 0.458799 0.822185
Si Si5 0.848284 0.336159 0.128862
Si Si6 0.306050 0.829229 0.574373
Si Si7 0.008212 0.036757 0.641178
Si Si8 0.500000 0.500000 0.500000
O O1 0.771665 0.460028 0.467161
O O2 0.693352 0.415220 0.675158
O O3 0.925301 0.277688 0.853315
O O4 0.249058 0.471624 0.962127
O O5 0.712441 0.643912 0.115949
O O6 0.159815 0.793514 0.368357
O O7 0.674442 0.839148 0.833203
O O8 0.156934 0.749746 0.890714
O O9 0.223681 0.943999 0.668108
O O10 0.099829 0.919879 0.823360
O O11 0.652485 0.884946 0.199256
O O12 0.567904 0.407348 0.838764
O O13 0.794846 0.262987 0.294931
O O14 0.164576 0.417581 0.297272
O O15 0.158906 0.928581 0.403221
#
# Coordination Sequence:
#
# PCOD9081192 Si02
#       8
#     2   2   2   2   2   2   2   1
#     4  11  22  34  47  67  92 128 166 200 237 280
#     4  11  19  31  49  70  93 123 158 202 247 290
#     4   9  17  28  48  71 102 128 156 191 242 300
#     4  10  19  32  49  67  93 122 161 205 242 280
#     4   9  19  33  49  73 100 135 164 196 239 287
#     4  10  19  31  51  73  98 122 156 201 249 289
#     4   9  16  29  47  75 100 124 151 197 251 297
#     4  10  22  36  50  68 100 136 170 200 230 282
#
# _framework density 25.668533
#
# number of rings (size 3 to 8) (size 9 to 14) (size 15 to 20)
#    0.000    2.133    0.000    6.400    0.000    4.267 
#    0.000    0.000    0.000    0.000    0.000    1.867 
#    0.000    0.000    0.000    0.800    0.000    0.000 
#
# Total GULP energy -83776.972246 kJ/mol
# GULP energy per Si atom -5585.131483 kJ/mol
# Density = 2.561011 g / cm^3
# Si number density = 25.668533 Si / 1000 Ang^3
#
#
#
# Elastic Constant Matrix: (Units=GPa)
#
#
# Indices 1 2 3 4 5 6 
#
# 1 115.9695 51.9152 14.0944 -31.5576 12.6946 -55.2517
# 2 51.9152 118.9328 44.9451 -40.0823 9.7089 -29.2675
# 3 14.0944 44.9451 151.3446 -7.1103 0.1593 -10.2248
# 4 -31.5576 -40.0823 -7.1103 43.4265 -17.2913 8.2280
# 5 12.6946 9.7089 0.1593 -17.2913 19.9797 -9.4204
# 6 -55.2517 -29.2675 -10.2248 8.2280 -9.4204 65.1882
#
#
#
# Elastic Compliance Matrix: (Units=1/GPa)
#
#
# Indices 1 2 3 4 5 6 
#
# 1 0.018853 -0.000841 0.000093 0.012673 0.006445 0.014948
# 2 -0.000841 0.016265 -0.003624 0.016594 0.009521 0.005303
# 3 0.000093 -0.003624 0.007567 -0.002113 -0.000248 -0.000131
# 4 0.012673 0.016594 -0.002113 0.062203 0.045558 0.016593
# 5 0.006445 0.009521 -0.000248 0.045558 0.088661 0.016761
# 6 0.014948 0.005303 -0.000131 0.016593 0.016761 0.030698
#
#
# Mechanical properties :
#
#
# Convention : Reuss Voigt Hill
#
# Bulk Modulus (GPa) = 29.46375 67.57293 48.51834
# Shear Modulus (GPa) = 20.46613 44.07169 32.26891
#
# Velocity S-wave (km/s) = 2.82676 4.14811 3.54946
# Velocity P-wave (km/s) = 4.70718 7.02316 5.97839
#
# Compressibility (1/GPa) = 0.03394001
#
# Stress axis : x y z
#
# Youngs Moduli (GPa) = 53.04168 61.48185 132.14882
#
# Poissons Ratio (x) = 0.05171 -0.01223
# Poissons Ratio (y) = 0.04461 0.47892
# Poissons Ratio (z) = -0.00491 0.22282
#
# Static dielectric constant tensor:
#      x y z
#    x 2.023990 0.038570 -0.037210 
#    y 0.038570 2.018500 -0.120750 
#    z -0.037210 -0.120750 2.014540 
# 
# From -- ./inp_files/96074.got.cif
#   From: 2010.05.17/outbox.cif.g08.bks.cpg/sg2_49_cif.got.tgz:96074.got - 2010.06.03 11:33:40.
