data_PCOD9081172
_publ_section_title
;
Structure prediction by ZEFSAII (Michael W. Deem and Ramdas Pophale) SiO2 
 PCOD9081172
Probable space group: P -1
;
_chemical_formula_sum "Si O2"
_cell_formula_units_Z 16
_cell_length_a 11.709929
_cell_length_b 14.214102
_cell_length_c 10.658046
_cell_angle_alpha 103.253829
_cell_angle_beta 25.745595
_cell_angle_gamma 105.429571
_cell_volume 742.577694
_symmetry_space_group_name_H-M "P -1"
_symmetry_group_IT_number 2
_symmetry_cell_setting 'triclinic'
loop_
_space_group_symop_operation_xyz
x,y,z
-x,-y,-z
loop_
_atom_site_type_symbol
_atom_site_label
_atom_site_fract_x
_atom_site_fract_y
_atom_site_fract_z
Si Si1 0.666235 0.286218 0.300116
Si Si2 0.704460 0.868700 0.251414
Si Si3 0.796590 0.061346 0.370348
Si Si4 0.407114 0.212887 0.196686
Si Si5 0.478240 0.585785 0.756931
Si Si6 0.566115 0.950083 0.049189
Si Si7 0.888787 0.146503 0.849955
Si Si8 0.050359 0.531272 0.814702
O O1 0.402814 0.232958 0.609792
O O2 0.577916 0.352853 0.294629
O O3 0.844923 0.354441 0.242171
O O4 0.825499 0.204805 0.055291
O O5 0.444702 0.901654 0.455260
O O6 0.799833 0.949812 0.287741
O O7 0.934269 0.875578 0.923194
O O8 0.697245 0.065318 0.611363
O O9 0.441417 0.329701 0.194689
O O10 0.180698 0.173651 0.511322
O O11 0.343761 0.151418 0.113737
O O12 0.688792 0.187768 0.961064
O O13 0.717642 0.526087 0.479121
O O14 0.213630 0.508876 0.012289
O O15 0.500000 0.000000 0.000000
O O16 0.781506 0.030913 0.927397
O O17 0.000000 0.500000 0.000000
#
# Coordination Sequence:
#
# PCOD9081172 Si02
#       8
#     2   2   2   2   2   2   2   2
#     4  10  19  34  55  79 108 152 179 217 280 334
#     4  10  22  37  56  77 112 153 181 222 268 328
#     4  10  22  39  53  80 112 145 189 226 263 322
#     4  10  20  32  51  74 107 143 171 216 277 314
#     4  10  20  33  48  80 112 137 177 230 273 329
#     4  10  21  38  57  82 109 147 184 233 273 323
#     4  10  20  32  48  79 107 136 181 215 257 336
#     4  10  19  31  50  76 111 140 175 226 278 326
#
# _framework density 21.546567
#
# number of rings (size 3 to 8) (size 9 to 14) (size 15 to 20)
#    0.000    2.000    1.250    4.125    0.000   10.000 
#    0.000    0.000    0.000    0.000    0.000    5.250 
#    0.000    0.000    0.000    0.000    0.000    0.000 
#
# Total GULP energy -89450.876485 kJ/mol
# GULP energy per Si atom -5590.679780 kJ/mol
# Density = 2.149753 g / cm^3
# Si number density = 21.546567 Si / 1000 Ang^3
#
#
#
# Elastic Constant Matrix: (Units=GPa)
#
#
# Indices 1 2 3 4 5 6 
#
# 1 42.2127 27.4396 29.9135 3.1658 -1.1907 11.9722
# 2 27.4396 125.7060 49.6630 6.7488 7.3287 52.8524
# 3 29.9135 49.6630 135.2920 -4.1741 1.7998 21.0183
# 4 3.1658 6.7488 -4.1741 43.5858 2.5955 5.2862
# 5 -1.1907 7.3287 1.7998 2.5955 36.0606 -0.5049
# 6 11.9722 52.8524 21.0183 5.2862 -0.5049 32.9841
#
#
#
# Elastic Compliance Matrix: (Units=1/GPa)
#
#
# Indices 1 2 3 4 5 6 
#
# 1 0.030600 -0.004715 -0.005150 -0.002141 0.002381 0.000109
# 2 -0.004715 0.027635 -0.002578 0.001191 -0.006306 -0.041214
# 3 -0.005150 -0.002578 0.009596 0.001756 -0.000257 -0.000400
# 4 -0.002141 0.001191 0.001756 0.023957 -0.002210 -0.006123
# 5 0.002381 -0.006306 -0.000257 -0.002210 0.029406 0.010208
# 6 0.000109 -0.041214 -0.000400 -0.006123 0.010208 0.097709
#
#
# Mechanical properties :
#
#
# Convention : Reuss Voigt Hill
#
# Bulk Modulus (GPa) = 23.28524 57.47143 40.37834
# Shear Modulus (GPa) = 19.37201 35.60574 27.48887
#
# Velocity S-wave (km/s) = 3.00171 4.06951 3.57569
# Velocity P-wave (km/s) = 4.77955 6.98657 5.98566
#
# Compressibility (1/GPa) = 0.04294567
#
# Stress axis : x y z
#
# Youngs Moduli (GPa) = 32.67924 36.18655 104.20786
#
# Poissons Ratio (x) = 0.17061 0.53665
# Poissons Ratio (y) = 0.15407 0.26868
# Poissons Ratio (z) = 0.16829 0.09330
#
# Static dielectric constant tensor:
#      x y z
#    x 1.839250 0.027790 -0.030160 
#    y 0.027790 1.842450 0.015480 
#    z -0.030160 0.015480 1.758720 
# 
# From -- ./inp_files/455725.got.cif
#   From: 2010.05.17/outbox.cif.g08.bks.cpg/sg2_228_cif.got.tgz:455725.got - 2010.06.03 11:33:40.
