data_PCOD9081430
_publ_section_title
;
Structure prediction by ZEFSAII (Michael W. Deem and Ramdas Pophale) SiO2 
 PCOD9081430
Probable space group: P -1
;
_chemical_formula_sum "Si O2"
_cell_formula_units_Z 16
_cell_length_a 5.664444
_cell_length_b 13.327639
_cell_length_c 15.055153
_cell_angle_alpha 104.795945
_cell_angle_beta 49.940157
_cell_angle_gamma 119.976402
_cell_volume 749.769027
_symmetry_space_group_name_H-M "P -1"
_symmetry_group_IT_number 2
_symmetry_cell_setting 'triclinic'
loop_
_space_group_symop_operation_xyz
x,y,z
-x,-y,-z
loop_
_atom_site_type_symbol
_atom_site_label
_atom_site_fract_x
_atom_site_fract_y
_atom_site_fract_z
Si Si1 0.286216 0.343010 0.768098
Si Si2 0.627129 0.235157 0.359143
Si Si3 0.095553 0.226256 0.374943
Si Si4 0.641065 0.508266 0.568886
Si Si5 0.517743 0.861676 0.351907
Si Si6 0.980672 0.909135 0.408668
Si Si7 0.206146 0.448674 0.184084
Si Si8 0.766934 0.407744 0.962453
O O1 0.350315 0.399548 0.667831
O O2 0.405073 0.243104 0.721416
O O3 0.537490 0.450050 0.792010
O O4 0.903590 0.313525 0.888666
O O5 0.389803 0.188044 0.318935
O O6 0.346567 0.209084 0.500282
O O7 0.890751 0.190545 0.324112
O O8 0.878490 0.367161 0.302452
O O9 0.274111 0.366340 0.378888
O O10 0.797142 0.178095 0.510432
O O11 0.500000 0.500000 0.500000
O O12 0.000000 0.500000 0.500000
O O13 0.848912 0.934120 0.352084
O O14 0.346187 0.904561 0.324692
O O15 0.000000 0.000000 0.500000
O O16 0.157656 0.515075 0.126896
O O17 0.382862 0.371907 0.082604
O O18 0.000000 0.500000 0.000000
#
# Coordination Sequence:
#
# PCOD9081430 Si02
#       8
#     2   2   2   2   2   2   2   2
#     4  11  22  33  52  79 116 151 185 231 269 328
#     4  10  20  33  56  77 102 146 186 219 268 323
#     4  10  19  32  42  76 106 138 179 214 252 318
#     4  12  23  29  45  71 115 152 175 212 257 312
#     4  10  22  33  56  81 107 146 186 215 280 334
#     4  10  22  41  56  79 113 144 184 234 280 339
#     4  10  20  36  53  78 114 152 193 229 268 327
#     4   9  21  36  52  74 113 155 191 226 273 316
#
# _framework density 21.339904000000001
#
# number of rings (size 3 to 8) (size 9 to 14) (size 15 to 20)
#    0.000    1.750    2.500    1.875    8.750    0.000 
#    0.000    0.625    0.000    0.000    0.000    1.750 
#    0.000    0.000    0.000    0.000    0.000    0.000 
#
# Total GULP energy -89118.330304 kJ/mol
# GULP energy per Si atom -5569.895644 kJ/mol
# Density = 2.129133 g / cm^3
# Si number density = 21.339904 Si / 1000 Ang^3
#
#
#
# Elastic Constant Matrix: (Units=GPa)
#
#
# Indices 1 2 3 4 5 6 
#
# 1 214.4222 17.6735 37.7977 10.3644 -2.7119 -0.5991
# 2 17.6735 47.5276 22.8533 9.3753 -6.6865 5.5423
# 3 37.7977 22.8533 67.2591 17.0688 -12.6189 -3.6787
# 4 10.3644 9.3753 17.0688 15.3164 -8.7472 -2.1207
# 5 -2.7119 -6.6865 -12.6189 -8.7472 38.6098 3.1239
# 6 -0.5991 5.5423 -3.6787 -2.1207 3.1239 23.3933
#
#
#
# Elastic Compliance Matrix: (Units=1/GPa)
#
#
# Indices 1 2 3 4 5 6 
#
# 1 0.005212 -0.000611 -0.002726 -0.000556 -0.000749 -0.000101
# 2 -0.000611 0.027602 -0.006939 -0.009344 0.001051 -0.008634
# 3 -0.002726 -0.006939 0.024201 -0.019349 0.001860 0.003378
# 4 -0.000556 -0.009344 -0.019349 0.102211 0.014652 0.006466
# 5 -0.000749 0.001051 0.001860 0.014652 0.030173 -0.002677
# 6 -0.000101 -0.008634 0.003378 0.006466 -0.002677 0.046265
#
#
# Mechanical properties :
#
#
# Convention : Reuss Voigt Hill
#
# Bulk Modulus (GPa) = 27.42487 53.98423 40.70455
# Shear Modulus (GPa) = 18.63090 32.18952 25.41021
#
# Velocity S-wave (km/s) = 2.95796 3.88805 3.45445
# Velocity P-wave (km/s) = 4.95433 6.74597 5.91834
#
# Compressibility (1/GPa) = 0.03646325
#
# Stress axis : x y z
#
# Youngs Moduli (GPa) = 191.87472 36.22911 41.31993
#
# Poissons Ratio (x) = 0.02214 0.11264
# Poissons Ratio (y) = 0.11725 0.28672
# Poissons Ratio (z) = 0.52306 0.25139
#
# Static dielectric constant tensor:
#      x y z
#    x 1.937240 -0.018120 -0.025270 
#    y -0.018120 1.844860 0.006690 
#    z -0.025270 0.006690 1.792950 
# 
# From -- ./inp_files/74385.got.cif
#   From: 2010.05.17/outbox.cif.g08.bks.cpg/sg2_38_cif.got.tgz:74385.got - 2010.06.03 11:33:40.
