data_PCOD9081842
_publ_section_title
;
Structure prediction by ZEFSAII (Michael W. Deem and Ramdas Pophale) SiO2 
 PCOD9081842
Probable space group: P -1
;
_chemical_formula_sum "Si O2"
_cell_formula_units_Z 16
_cell_length_a 6.954765
_cell_length_b 16.159345
_cell_length_c 12.080959
_cell_angle_alpha 43.492977
_cell_angle_beta 44.795389
_cell_angle_gamma 60.396793
_cell_volume 657.796886
_symmetry_space_group_name_H-M "P -1"
_symmetry_group_IT_number 2
_symmetry_cell_setting 'triclinic'
loop_
_space_group_symop_operation_xyz
x,y,z
-x,-y,-z
loop_
_atom_site_type_symbol
_atom_site_label
_atom_site_fract_x
_atom_site_fract_y
_atom_site_fract_z
Si Si1 0.935945 0.395457 0.319508
Si Si2 0.331585 0.187377 0.410565
Si Si3 0.364386 0.575859 0.368331
Si Si4 0.792688 0.644028 0.963572
Si Si5 0.264641 0.084827 0.299829
Si Si6 0.712838 0.367712 0.988812
Si Si7 0.915773 0.684027 0.299937
Si Si8 0.727964 0.927017 0.218631
O O1 0.071646 0.269314 0.418233
O O2 0.947926 0.390484 0.184237
O O3 0.686726 0.404876 0.499104
O O4 0.153453 0.503435 0.160392
O O5 0.372217 0.115447 0.350223
O O6 0.587510 0.285078 0.217888
O O7 0.289383 0.104932 0.613299
O O8 0.240488 0.445557 0.507790
O O9 0.166038 0.670996 0.297541
O O10 0.670280 0.590176 0.180084
O O11 0.809176 0.786035 0.841273
O O12 0.536616 0.618085 0.009292
O O13 0.482598 0.013309 0.211334
O O14 0.000000 0.000000 0.500000
O O15 0.939189 0.300254 0.892788
O O16 0.730487 0.794851 0.291992
O O17 0.000000 0.000000 0.000000
#
# Coordination Sequence:
#
# PCOD9081842 Si02
#       8
#     2   2   2   2   2   2   2   2
#     4   9  15  25  48  82 115 135 176 234 291 341
#     4  10  19  32  56  81 107 150 191 235 283 333
#     4   9  15  27  46  78 114 134 173 234 290 336
#     4   9  17  28  50  72 100 147 187 220 275 339
#     4  10  23  41  55  76 115 159 193 233 285 350
#     4   8  15  27  46  82 113 135 168 235 290 338
#     4   9  17  26  45  78 111 138 172 226 294 327
#     4  12  22  34  57  85 117 145 194 246 278 326
#
# _framework density 24.323619000000001
#
# number of rings (size 3 to 8) (size 9 to 14) (size 15 to 20)
#    0.000    2.750    1.250    4.875    1.750    0.000 
#    0.000    0.625    0.000    0.750    0.000    7.000 
#    0.000    0.000    0.000    0.000    0.000    0.000 
#
# Total GULP energy -89431.912166 kJ/mol
# GULP energy per Si atom -5589.494510 kJ/mol
# Density = 2.426826 g / cm^3
# Si number density = 24.323619 Si / 1000 Ang^3
#
#
#
# Elastic Constant Matrix: (Units=GPa)
#
#
# Indices 1 2 3 4 5 6 
#
# 1 57.6753 10.7359 11.6019 -1.9440 4.4408 1.3565
# 2 10.7359 205.7140 48.1556 25.6861 -3.0772 -11.1778
# 3 11.6019 48.1556 156.4032 24.1248 21.2319 -0.7645
# 4 -1.9440 25.6861 24.1248 41.7431 6.9322 -6.2542
# 5 4.4408 -3.0772 21.2319 6.9322 37.1043 7.9998
# 6 1.3565 -11.1778 -0.7645 -6.2542 7.9998 16.2050
#
#
#
# Elastic Compliance Matrix: (Units=1/GPa)
#
#
# Indices 1 2 3 4 5 6 
#
# 1 0.017995 -0.001024 -0.001123 0.002386 -0.001960 -0.000377
# 2 -0.001024 0.005730 -0.001468 -0.002630 0.001446 0.002240
# 3 -0.001123 -0.001468 0.007944 -0.003031 -0.004026 0.000274
# 4 0.002386 -0.002630 -0.003031 0.030654 -0.007366 0.013311
# 5 -0.001960 0.001446 -0.004026 -0.007366 0.035128 -0.019213
# 6 -0.000377 0.002240 0.000274 0.013311 -0.019213 0.077921
#
#
# Mechanical properties :
#
#
# Convention : Reuss Voigt Hill
#
# Bulk Modulus (GPa) = 40.91844 62.30882 51.61363
# Shear Modulus (GPa) = 26.21236 42.29710 34.25473
#
# Velocity S-wave (km/s) = 3.28632 4.17457 3.75679
# Velocity P-wave (km/s) = 5.59097 6.99345 6.33116
#
# Compressibility (1/GPa) = 0.02443886
#
# Stress axis : x y z
#
# Youngs Moduli (GPa) = 55.57014 174.52346 125.87447
#
# Poissons Ratio (x) = 0.17870 0.14141
# Poissons Ratio (y) = 0.05690 0.18478
# Poissons Ratio (z) = 0.06243 0.25620
#
# Static dielectric constant tensor:
#      x y z
#    x 2.010850 -0.013010 0.030740 
#    y -0.013010 1.979050 0.020040 
#    z 0.030740 0.020040 1.954300 
# 
# From -- ./inp_files/506592.got.cif
#   From: 2010.05.17/outbox.cif.g08.bks.cpg/sg2_254_cif.got.tgz:506592.got - 2010.06.03 11:33:40.
