data_PCOD9081744
_publ_section_title
;
Structure prediction by ZEFSAII (Michael W. Deem and Ramdas Pophale) SiO2 
 PCOD9081744
Probable space group: P -1
;
_chemical_formula_sum "Si O2"
_cell_formula_units_Z 16
_cell_length_a 21.604145
_cell_length_b 29.281092
_cell_length_c 16.943032
_cell_angle_alpha 16.041192
_cell_angle_beta 153.457054
_cell_angle_gamma 165.170527
_cell_volume 662.004106
_symmetry_space_group_name_H-M "P -1"
_symmetry_group_IT_number 2
_symmetry_cell_setting 'triclinic'
loop_
_space_group_symop_operation_xyz
x,y,z
-x,-y,-z
loop_
_atom_site_type_symbol
_atom_site_label
_atom_site_fract_x
_atom_site_fract_y
_atom_site_fract_z
Si Si1 0.594230 0.689878 0.173263
Si Si2 0.687009 0.496054 0.691941
Si Si3 0.478937 0.570357 0.942104
Si Si4 0.076393 0.843272 0.020538
Si Si5 0.306254 0.386359 0.731882
Si Si6 0.980153 0.491265 0.367181
Si Si7 0.001449 0.622148 0.583758
Si Si8 0.337348 0.893699 0.673353
O O1 0.803836 0.777083 0.314003
O O2 0.350067 0.515495 0.237930
O O3 0.503368 0.496923 0.312270
O O4 0.776106 0.031431 0.783644
O O5 0.756968 0.380540 0.941858
O O6 0.371785 0.200905 0.794209
O O7 0.152669 0.265346 0.085762
O O8 0.627570 0.905338 0.566710
O O9 0.500000 0.500000 0.000000
O O10 0.594479 0.578918 0.129786
O O11 0.126579 0.777094 0.113475
O O12 0.954356 0.610908 0.341247
O O13 0.262077 0.536212 0.434660
O O14 0.000000 0.000000 0.000000
O O15 0.054059 0.567998 0.232189
O O16 0.650857 0.182817 0.518641
O O17 0.144149 0.720633 0.664520
#
# Coordination Sequence:
#
# PCOD9081744 Si02
#       8
#     2   2   2   2   2   2   2   2
#     4  10  20  36  56  80 115 151 185 223 285 330
#     4  10  21  35  56  82 117 150 180 229 281 341
#     4  11  21  32  57  86 112 142 190 235 280 324
#     4   9  18  31  49  80 112 143 176 231 281 327
#     4  10  21  35  54  81 111 146 188 234 272 321
#     4   9  17  29  51  81 112 132 183 234 278 316
#     4  11  18  33  61  81 109 144 189 239 272 319
#     4  10  19  32  54  87 105 141 186 236 271 321
#
# _framework density 24.169032000000001
#
# number of rings (size 3 to 8) (size 9 to 14) (size 15 to 20)
#    0.000    2.000    5.000    1.875    1.750    0.000 
#    0.000    1.250    0.000    3.000    0.000    0.000 
#    0.000    0.000    0.000    0.000    0.000    0.000 
#
# Total GULP energy -89327.514750 kJ/mol
# GULP energy per Si atom -5582.969672 kJ/mol
# Density = 2.411402 g / cm^3
# Si number density = 24.169032 Si / 1000 Ang^3
#
#
#
# Elastic Constant Matrix: (Units=GPa)
#
#
# Indices 1 2 3 4 5 6 
#
# 1 146.0394 30.1827 19.9345 5.6605 12.3139 -43.2466
# 2 30.1827 117.5807 20.4736 23.7183 -0.5326 -18.9257
# 3 19.9345 20.4736 70.7274 20.7193 8.8162 -5.0621
# 4 5.6605 23.7183 20.7193 37.1024 0.3491 -4.9334
# 5 12.3139 -0.5326 8.8162 0.3491 32.6246 0.8439
# 6 -43.2466 -18.9257 -5.0621 -4.9334 0.8439 34.1168
#
#
#
# Elastic Compliance Matrix: (Units=1/GPa)
#
#
# Indices 1 2 3 4 5 6 
#
# 1 0.011973 -0.000704 -0.002093 0.001807 -0.004368 0.014846
# 2 -0.000704 0.010646 -0.001043 -0.005586 0.000677 0.004035
# 3 -0.002093 -0.001043 0.018135 -0.009343 -0.003981 -0.001793
# 4 0.001807 -0.005586 -0.009343 0.035846 0.001291 0.002957
# 5 -0.004368 0.000677 -0.003981 0.001291 0.033539 -0.006396
# 6 0.014846 0.004035 -0.001793 0.002957 -0.006396 0.050687
#
#
# Mechanical properties :
#
#
# Convention : Reuss Voigt Hill
#
# Bulk Modulus (GPa) = 30.23384 52.83657 41.53520
# Shear Modulus (GPa) = 27.85021 38.35253 33.10137
#
# Velocity S-wave (km/s) = 3.39825 3.98785 3.70480
# Velocity P-wave (km/s) = 5.28526 6.56602 5.96014
#
# Compressibility (1/GPa) = 0.03307552
#
# Stress axis : x y z
#
# Youngs Moduli (GPa) = 83.52000 93.92943 55.14090
#
# Poissons Ratio (x) = 0.06611 0.11543
# Poissons Ratio (y) = 0.05878 0.05749
# Poissons Ratio (z) = 0.17483 0.09793
#
# Static dielectric constant tensor:
#      x y z
#    x 2.028380 0.025190 -0.038720 
#    y 0.025190 1.898850 -0.045810 
#    z -0.038720 -0.045810 2.158270 
# 
# From -- ./inp_files/541848.got.cif
#   From: 2010.05.17/outbox.cif.g08.bks.cpg/sg2_271_cif.got.tgz:541848.got - 2010.06.03 11:33:40.
