data_PCOD9081593
_publ_section_title
;
Structure prediction by ZEFSAII (Michael W. Deem and Ramdas Pophale) SiO2 
 PCOD9081593
Probable space group: P -1
;
_chemical_formula_sum "Si O2"
_cell_formula_units_Z 14
_cell_length_a 16.547923
_cell_length_b 13.725549
_cell_length_c 14.598022
_cell_angle_alpha 132.513340
_cell_angle_beta 37.780638
_cell_angle_gamma 157.410466
_cell_volume 759.482122
_symmetry_space_group_name_H-M "P -1"
_symmetry_group_IT_number 2
_symmetry_cell_setting 'triclinic'
loop_
_space_group_symop_operation_xyz
x,y,z
-x,-y,-z
loop_
_atom_site_type_symbol
_atom_site_label
_atom_site_fract_x
_atom_site_fract_y
_atom_site_fract_z
Si Si1 0.573583 0.085298 0.855795
Si Si2 0.965174 0.190616 0.116329
Si Si3 0.867016 0.481414 0.678589
Si Si4 0.516631 0.400316 0.844736
Si Si5 0.465971 0.747268 0.833618
Si Si6 0.414641 0.319042 0.158476
Si Si7 0.898849 0.193772 0.972129
O O1 0.720814 0.269929 0.753461
O O2 0.625071 0.979410 0.771024
O O3 0.614059 0.218545 0.990722
O O4 0.269437 0.839157 0.946751
O O5 0.937165 0.258770 0.272862
O O6 0.770027 0.899779 0.112905
O O7 0.888613 0.193355 0.090910
O O8 0.274491 0.427201 0.981044
O O9 0.678702 0.419105 0.753214
O O10 0.000000 0.500000 0.500000
O O11 0.645344 0.585199 0.759857
O O12 0.500000 0.500000 0.000000
O O13 0.608464 0.751096 0.761061
O O14 0.200924 0.463290 0.847624
O O15 0.242228 0.065046 0.094632
#
# Coordination Sequence:
#
# PCOD9081593 Si02
#       7
#     2   2   2   2   2   2   2
#     4  10  17  34  47  75 110 142 183 219 271 324
#     4  11  18  34  54  78 112 145 174 227 273 318
#     4  12  25  37  52  81 117 151 182 217 268 335
#     4  12  20  35  57  80 110 143 184 229 271 324
#     4   9  18  28  54  78 105 138 176 236 272 310
#     4  10  19  30  52  85 105 129 179 226 276 318
#     4  10  15  30  50  82 107 133 176 225 277 317
#
# _framework density 18.433615
#
# number of rings (size 3 to 8) (size 9 to 14) (size 15 to 20)
#    0.000    1.429    8.571    0.857    0.000    0.571 
#    0.000    0.000    0.000    0.857    0.000    2.000 
#    0.000    0.000    0.000    0.000    0.000    0.000 
#
# Total GULP energy -77975.902820 kJ/mol
# GULP energy per Si atom -5569.707344 kJ/mol
# Density = 1.839166 g / cm^3
# Si number density = 18.433615 Si / 1000 Ang^3
#
#
#
# Elastic Constant Matrix: (Units=GPa)
#
#
# Indices 1 2 3 4 5 6 
#
# 1 131.2206 51.9744 17.5219 -5.4100 2.6039 -25.2374
# 2 51.9744 128.1782 19.5840 1.8092 1.1491 1.9590
# 3 17.5219 19.5840 40.1976 6.9443 -3.7747 -2.1143
# 4 -5.4100 1.8092 6.9443 9.2932 -1.7478 6.0355
# 5 2.6039 1.1491 -3.7747 -1.7478 11.1985 -2.9115
# 6 -25.2374 1.9590 -2.1143 6.0355 -2.9115 45.3762
#
#
#
# Elastic Compliance Matrix: (Units=1/GPa)
#
#
# Indices 1 2 3 4 5 6 
#
# 1 0.011015 -0.004052 -0.003765 0.006438 -0.001057 0.005202
# 2 -0.004052 0.010036 -0.003433 -0.000217 -0.002045 -0.002949
# 3 -0.003765 -0.003433 0.034080 -0.027780 0.009404 0.003940
# 4 0.006438 -0.000217 -0.027780 0.144203 0.007401 -0.016410
# 5 -0.001057 -0.002045 0.009404 0.007401 0.095398 0.005075
# 6 0.005202 -0.002949 0.003940 -0.016410 0.005075 0.027750
#
#
# Mechanical properties :
#
#
# Convention : Reuss Voigt Hill
#
# Bulk Modulus (GPa) = 30.64562 53.08411 41.86487
# Shear Modulus (GPa) = 14.05049 27.20800 20.62924
#
# Velocity S-wave (km/s) = 2.76383 3.84604 3.34894
# Velocity P-wave (km/s) = 5.18131 6.97013 6.14120
#
# Compressibility (1/GPa) = 0.03263109
#
# Stress axis : x y z
#
# Youngs Moduli (GPa) = 90.78191 99.64431 29.34258
#
# Poissons Ratio (x) = 0.40378 0.11048
# Poissons Ratio (y) = 0.36787 0.10072
# Poissons Ratio (z) = 0.34181 0.34205
#
# Static dielectric constant tensor:
#      x y z
#    x 1.728300 -0.023070 0.011630 
#    y -0.023070 1.668410 -0.011710 
#    z 0.011630 -0.011710 1.600130 
# 
# From -- ./inp_files/34420.got.cif
#   From: 2010.05.17/outbox.cif.g08.bks.cpg/sg2_18_cif.got.tgz:34420.got - 2010.06.03 11:33:40.
