data_PCOD9081858
_publ_section_title
;
Structure prediction by ZEFSAII (Michael W. Deem and Ramdas Pophale) SiO2 
 PCOD9081858
Probable space group: P -1
;
_chemical_formula_sum "Si O2"
_cell_formula_units_Z 14
_cell_length_a 9.632528
_cell_length_b 12.669285
_cell_length_c 12.997070
_cell_angle_alpha 55.501348
_cell_angle_beta 30.732711
_cell_angle_gamma 75.996583
_cell_volume 543.511522
_symmetry_space_group_name_H-M "P -1"
_symmetry_group_IT_number 2
_symmetry_cell_setting 'triclinic'
loop_
_space_group_symop_operation_xyz
x,y,z
-x,-y,-z
loop_
_atom_site_type_symbol
_atom_site_label
_atom_site_fract_x
_atom_site_fract_y
_atom_site_fract_z
Si Si1 0.985509 0.611729 0.643745
Si Si2 0.736923 0.044959 0.724428
Si Si3 0.856263 0.602062 0.042370
Si Si4 0.376492 0.394138 0.299288
Si Si5 0.472246 0.915465 0.374683
Si Si6 0.285290 0.235257 0.813844
Si Si7 0.806287 0.948431 0.424679
O O1 0.890185 0.586862 0.598113
O O2 0.998416 0.768694 0.563553
O O3 0.346622 0.669480 0.420897
O O4 0.695322 0.477351 0.973213
O O5 0.516396 0.006871 0.784960
O O6 0.975552 0.996944 0.637693
O O7 0.500000 0.000000 0.000000
O O8 0.112889 0.761076 0.726771
O O9 0.504355 0.491905 0.268902
O O10 0.825401 0.651236 0.149582
O O11 0.000000 0.500000 0.000000
O O12 0.269463 0.216305 0.472610
O O13 0.675449 0.837209 0.275655
O O14 0.510994 0.046683 0.354381
O O15 0.042899 0.079707 0.120084
#
# Coordination Sequence:
#
# PCOD9081858 Si02
#       7
#     2   2   2   2   2   2   2
#     4   9  18  35  60  87 129 155 189 245 309 358
#     4  10  15  30  57  87 117 158 193 225 295 368
#     4  11  24  42  65  85 116 167 210 250 296 347
#     4  10  20  38  57  94 127 151 197 256 300 347
#     4  10  20  38  57  85 122 155 204 237 288 371
#     4  10  20  40  62  91 117 166 200 236 305 377
#     4  10  20  33  61  90 124 158 191 245 310 358
#
# _framework density 25.758424999999999
#
# number of rings (size 3 to 8) (size 9 to 14) (size 15 to 20)
#    0.000    2.000    5.714    0.429    0.000    1.143 
#    2.571    2.857    0.000    1.714    0.000    0.000 
#    0.000    0.000    0.000    0.000    0.000    0.000 
#
# Total GULP energy -78031.090343 kJ/mol
# GULP energy per Si atom -5573.649310 kJ/mol
# Density = 2.569980 g / cm^3
# Si number density = 25.758425 Si / 1000 Ang^3
#
#
#
# Elastic Constant Matrix: (Units=GPa)
#
#
# Indices 1 2 3 4 5 6 
#
# 1 87.5620 10.4539 12.2952 -1.1790 -4.8980 -0.5801
# 2 10.4539 150.6019 36.7371 17.5649 -0.8294 -10.4704
# 3 12.2952 36.7371 100.5718 -16.7546 17.5283 0.2305
# 4 -1.1790 17.5649 -16.7546 35.1740 1.7596 -0.8335
# 5 -4.8980 -0.8294 17.5283 1.7596 34.1231 -7.3040
# 6 -0.5801 -10.4704 0.2305 -0.8335 -7.3040 34.0170
#
#
#
# Elastic Compliance Matrix: (Units=1/GPa)
#
#
# Indices 1 2 3 4 5 6 
#
# 1 0.011884 -0.000206 -0.001982 -0.000571 0.002912 0.000764
# 2 -0.000206 0.008990 -0.005126 -0.007052 0.003928 0.003469
# 3 -0.001982 -0.005126 0.015453 0.010252 -0.009632 -0.003533
# 4 -0.000571 -0.007052 0.010252 0.037148 -0.008094 -0.003078
# 5 0.002912 0.003928 -0.009632 -0.008094 0.037132 0.009099
# 6 0.000764 0.003469 -0.003533 -0.003078 0.009099 0.032380
#
#
# Mechanical properties :
#
#
# Convention : Reuss Voigt Hill
#
# Bulk Modulus (GPa) = 46.08612 50.85645 48.47129
# Shear Modulus (GPa) = 30.33108 39.27944 34.80526
#
# Velocity S-wave (km/s) = 3.43523 3.90925 3.67988
# Velocity P-wave (km/s) = 5.80214 6.33742 6.07568
#
# Compressibility (1/GPa) = 0.02169851
#
# Stress axis : x y z
#
# Youngs Moduli (GPa) = 84.14956 111.23277 64.71331
#
# Poissons Ratio (x) = 0.02288 0.12826
# Poissons Ratio (y) = 0.01731 0.33174
# Poissons Ratio (z) = 0.16678 0.57022
#
# Static dielectric constant tensor:
#      x y z
#    x 2.199690 0.039840 -0.101770 
#    y 0.039840 2.126520 0.033770 
#    z -0.101770 0.033770 1.999400 
# 
# From -- ./inp_files/447863.got.cif
#   From: 2010.05.17/outbox.cif.g08.bks.cpg/sg2_224_cif.got.tgz:447863.got - 2010.06.03 11:33:40.
