data_PCOD9081445
_publ_section_title
;
Structure prediction by ZEFSAII (Michael W. Deem and Ramdas Pophale) SiO2 
 PCOD9081445
Probable space group: P -1
;
_chemical_formula_sum "Si O2"
_cell_formula_units_Z 16
_cell_length_a 11.352364
_cell_length_b 11.327129
_cell_length_c 6.648441
_cell_angle_alpha 83.863966
_cell_angle_beta 135.012976
_cell_angle_gamma 110.962671
_cell_volume 550.378583
_symmetry_space_group_name_H-M "P -1"
_symmetry_group_IT_number 2
_symmetry_cell_setting 'triclinic'
loop_
_space_group_symop_operation_xyz
x,y,z
-x,-y,-z
loop_
_atom_site_type_symbol
_atom_site_label
_atom_site_fract_x
_atom_site_fract_y
_atom_site_fract_z
Si Si1 0.785432 0.290514 0.892685
Si Si2 0.539902 0.307365 0.057506
Si Si3 0.312230 0.504896 0.459937
Si Si4 0.152276 0.443120 0.696235
Si Si5 0.839026 0.094493 0.266166
Si Si6 0.116927 0.269234 0.043116
Si Si7 0.810311 0.891774 0.544416
Si Si8 0.516054 0.887494 0.671148
O O1 0.800154 0.219421 0.130580
O O2 0.931783 0.262231 0.931522
O O3 0.803204 0.431616 0.818823
O O4 0.571220 0.218913 0.588303
O O5 0.369738 0.220506 0.739691
O O6 0.527220 0.390891 0.226927
O O7 0.671705 0.425417 0.061324
O O8 0.596547 0.202315 0.260475
O O9 0.187051 0.424119 0.509804
O O10 0.301346 0.389202 0.324461
O O11 0.000000 0.500000 0.500000
O O12 0.107230 0.316656 0.797804
O O13 0.033090 0.116391 0.406867
O O14 0.810968 0.032675 0.468437
O O15 0.703784 0.970366 0.994607
O O16 0.149558 0.143235 0.175318
O O17 0.500000 0.000000 0.500000
#
# Coordination Sequence:
#
# PCOD9081445 Si02
#       8
#     2   2   2   2   2   2   2   2
#     4   9  15  26  46  72  98 123 162 204 244 284
#     4   8  17  30  43  69 104 125 163 203 229 290
#     4   9  19  31  47  74 103 127 162 201 240 288
#     4  10  19  32  48  70 103 131 162 199 243 287
#     4   8  15  26  45  73  96 122 164 211 237 283
#     4  11  19  30  50  72 104 137 156 193 244 293
#     4   9  17  29  46  71 102 126 171 198 233 296
#     4   8  12  23  43  67  96 117 156 208 242 272
#
# _framework density 29.070899000000001
#
# number of rings (size 3 to 8) (size 9 to 14) (size 15 to 20)
#    0.750    2.250    1.250    0.375    0.000    1.000 
#    0.000    0.000    0.000    0.000    0.000   29.750 
#   37.500    0.000    0.000    0.000    0.000    0.000 
#
# Total GULP energy -89147.313684 kJ/mol
# GULP energy per Si atom -5571.707105 kJ/mol
# Density = 2.900473 g / cm^3
# Si number density = 29.070899 Si / 1000 Ang^3
#
#
#
# Elastic Constant Matrix: (Units=GPa)
#
#
# Indices 1 2 3 4 5 6 
#
# 1 72.4468 45.6042 32.2218 -22.7643 -21.9432 16.2453
# 2 45.6042 228.2472 87.2930 -66.3645 -2.5986 14.3052
# 3 32.2218 87.2930 160.8852 -55.7965 -9.3178 19.4606
# 4 -22.7643 -66.3645 -55.7965 103.0409 12.6872 2.3039
# 5 -21.9432 -2.5986 -9.3178 12.6872 34.4321 -11.1338
# 6 16.2453 14.3052 19.4606 2.3039 -11.1338 34.3887
#
#
#
# Elastic Compliance Matrix: (Units=1/GPa)
#
#
# Indices 1 2 3 4 5 6 
#
# 1 0.020811 -0.003143 -0.001026 0.000757 0.011039 -0.004420
# 2 -0.003143 0.006706 -0.001976 0.003041 -0.003661 -0.001576
# 3 -0.001026 -0.001976 0.009290 0.003776 -0.001161 -0.004579
# 4 0.000757 0.003041 0.003776 0.014744 -0.005846 -0.006640
# 5 0.011039 -0.003661 -0.001161 -0.005846 0.041088 0.010660
# 6 -0.004420 -0.001576 -0.004579 -0.006640 0.010660 0.038310
#
#
# Mechanical properties :
#
#
# Convention : Reuss Voigt Hill
#
# Bulk Modulus (GPa) = 40.78856 87.97967 64.38412
# Shear Modulus (GPa) = 33.02290 54.13636 43.57963
#
# Velocity S-wave (km/s) = 3.37403 4.32002 3.87600
# Velocity P-wave (km/s) = 5.40740 7.43055 6.49819
#
# Compressibility (1/GPa) = 0.02451668
#
# Stress axis : x y z
#
# Youngs Moduli (GPa) = 48.05255 149.11814 107.64772
#
# Poissons Ratio (x) = 0.46862 0.11046
# Poissons Ratio (y) = 0.15101 0.21271
# Poissons Ratio (z) = 0.04931 0.29466
#
# Static dielectric constant tensor:
#      x y z
#    x 2.306500 -0.013650 0.050540 
#    y -0.013650 2.264320 0.035740 
#    z 0.050540 0.035740 2.254970 
# 
# From -- ./inp_files/348003.got.cif
#   From: 2010.05.17/outbox.cif.g08.bks.cpg/sg2_175_cif.got.tgz:348003.got - 2010.06.03 11:33:40.
