data_PCOD9081473
_publ_section_title
;
Structure prediction by ZEFSAII (Michael W. Deem and Ramdas Pophale) SiO2 
 PCOD9081473
Probable space group: P -1
;
_chemical_formula_sum "Si O2"
_cell_formula_units_Z 12
_cell_length_a 10.661501
_cell_length_b 13.250472
_cell_length_c 13.423979
_cell_angle_alpha 158.125389
_cell_angle_beta 120.087820
_cell_angle_gamma 54.834638
_cell_volume 574.174477
_symmetry_space_group_name_H-M "P -1"
_symmetry_group_IT_number 2
_symmetry_cell_setting 'triclinic'
loop_
_space_group_symop_operation_xyz
x,y,z
-x,-y,-z
loop_
_atom_site_type_symbol
_atom_site_label
_atom_site_fract_x
_atom_site_fract_y
_atom_site_fract_z
Si Si1 0.933666 0.757413 0.787155
Si Si2 0.667023 0.165902 0.162820
Si Si3 0.906899 0.344272 0.543957
Si Si4 0.798087 0.843970 0.280895
Si Si5 0.903804 0.220486 0.798144
Si Si6 0.344554 0.277416 0.076107
O O1 0.974646 0.581291 0.746527
O O2 0.000000 0.500000 0.500000
O O3 0.754231 0.945545 0.908413
O O4 0.000000 0.000000 0.000000
O O5 0.780389 0.325167 0.394726
O O6 0.497577 0.351188 0.227707
O O7 0.650810 0.976435 0.077393
O O8 0.809216 0.462811 0.713990
O O9 0.028795 0.028753 0.321471
O O10 0.947545 0.809516 0.239593
O O11 0.781968 0.120403 0.594325
O O12 0.835341 0.558619 0.102643
O O13 0.670297 0.832159 0.140243
#
# Coordination Sequence:
#
# PCOD9081473 Si02
#       6
#     2   2   2   2   2   2
#     4  11  23  40  58  80 107 143 193 238 277 319
#     4  10  21  35  55  84 116 150 176 226 278 341
#     4  11  20  35  58  82 119 143 184 227 282 329
#     4  10  19  32  49  77 116 152 183 211 254 336
#     4  10  20  31  51  77 112 153 182 217 264 314
#     4  10  20  33  52  86 121 152 175 211 279 343
#
# _framework density 20.899570000000001
#
# number of rings (size 3 to 8) (size 9 to 14) (size 15 to 20)
#    0.000    1.667    3.333    3.500    2.333    0.000 
#    0.000    0.000    0.000    0.000    0.000    7.000 
#    0.000    0.000    0.000    0.000    0.000    0.000 
#
# Total GULP energy -66903.374268 kJ/mol
# GULP energy per Si atom -5575.281189 kJ/mol
# Density = 2.085200 g / cm^3
# Si number density = 20.899570 Si / 1000 Ang^3
#
#
#
# Elastic Constant Matrix: (Units=GPa)
#
#
# Indices 1 2 3 4 5 6 
#
# 1 48.4213 34.2399 19.1408 8.1570 3.6582 11.1854
# 2 34.2399 90.3369 28.6573 -1.8833 20.0667 1.9197
# 3 19.1408 28.6573 121.0462 4.0194 12.5804 5.6765
# 4 8.1570 -1.8833 4.0194 43.3821 5.6459 12.4820
# 5 3.6582 20.0667 12.5804 5.6459 29.3815 5.8642
# 6 11.1854 1.9197 5.6765 12.4820 5.8642 10.9027
#
#
#
# Elastic Compliance Matrix: (Units=1/GPa)
#
#
# Indices 1 2 3 4 5 6 
#
# 1 0.047627 -0.020444 -0.002093 0.005302 0.020095 -0.061051
# 2 -0.020444 0.022638 -0.001585 -0.000877 -0.017728 0.028352
# 3 -0.002093 -0.001585 0.009272 0.000145 -0.002400 -0.001277
# 4 0.005302 -0.000877 0.000145 0.035202 0.002493 -0.047002
# 5 0.020095 -0.017728 -0.002400 0.002493 0.053774 -0.048023
# 6 -0.061051 0.028352 -0.001277 -0.047002 -0.048023 0.229667
#
#
# Mechanical properties :
#
#
# Convention : Reuss Voigt Hill
#
# Bulk Modulus (GPa) = 31.95430 47.09781 39.52605
# Shear Modulus (GPa) = 10.94440 28.58437 19.76438
#
# Velocity S-wave (km/s) = 2.29086 3.70226 3.07853
# Velocity P-wave (km/s) = 4.72441 6.39217 5.62049
#
# Compressibility (1/GPa) = 0.03129470
#
# Stress axis : x y z
#
# Youngs Moduli (GPa) = 20.99628 44.17301 107.85252
#
# Poissons Ratio (x) = 0.90307 0.22570
# Poissons Ratio (y) = 0.42925 0.17092
# Poissons Ratio (z) = 0.04394 0.07000
#
# Static dielectric constant tensor:
#      x y z
#    x 1.768910 0.012970 0.003510 
#    y 0.012970 1.832810 -0.022460 
#    z 0.003510 -0.022460 1.840190 
# 
# From -- ./inp_files/360842.got.cif
#   From: 2010.05.17/outbox.cif.g08.bks.cpg/sg2_181_cif.got.tgz:360842.got - 2010.06.03 11:33:40.
