data_PCOD9081920
_publ_section_title
;
Structure prediction by ZEFSAII (Michael W. Deem and Ramdas Pophale) SiO2 
 PCOD9081920
Probable space group: P -1
;
_chemical_formula_sum "Si O2"
_cell_formula_units_Z 12
_cell_length_a 8.083629
_cell_length_b 11.450222
_cell_length_c 9.006381
_cell_angle_alpha 125.191237
_cell_angle_beta 113.572859
_cell_angle_gamma 45.740604
_cell_volume 487.910223
_symmetry_space_group_name_H-M "P -1"
_symmetry_group_IT_number 2
_symmetry_cell_setting 'triclinic'
loop_
_space_group_symop_operation_xyz
x,y,z
-x,-y,-z
loop_
_atom_site_type_symbol
_atom_site_label
_atom_site_fract_x
_atom_site_fract_y
_atom_site_fract_z
Si Si1 0.627738 0.021938 0.696647
Si Si2 0.920551 0.040444 0.285493
Si Si3 0.107580 0.726737 0.303022
Si Si4 0.164014 0.395318 0.841603
Si Si5 0.879753 0.650910 0.697439
Si Si6 0.519858 0.621860 0.713176
O O1 0.830310 0.023293 0.712109
O O2 0.751783 0.850471 0.728031
O O3 0.500000 0.000000 0.500000
O O4 0.424727 0.221699 0.836374
O O5 0.837210 0.162943 0.495645
O O6 0.726784 0.184378 0.205361
O O7 0.954125 0.859914 0.210478
O O8 0.342594 0.524013 0.210743
O O9 0.952590 0.697214 0.325368
O O10 0.096432 0.551845 0.816632
O O11 0.000000 0.500000 0.000000
O O12 0.680414 0.661672 0.721513
O O13 0.000000 0.500000 0.500000
O O14 0.500000 0.500000 0.500000
#
# Coordination Sequence:
#
# PCOD9081920 Si02
#       6
#     2   2   2   2   2   2
#     4  12  22  36  61  90 120 152 204 250 291 350
#     4  10  19  32  57  88 112 149 197 253 288 343
#     4   9  18  34  56  82 116 153 193 238 300 345
#     4  11  24  41  60  88 125 160 196 245 307 359
#     4  11  21  37  63  90 118 155 205 252 289 350
#     4   9  18  29  51  84 117 144 188 245 298 336
#
# _framework density 24.594688999999999
#
# number of rings (size 3 to 8) (size 9 to 14) (size 15 to 20)
#    0.000    1.667    3.333    3.000    4.667    2.000 
#    0.000    0.833    0.000    5.000    0.000    0.000 
#    0.000    0.000    0.000    0.000    0.000    0.000 
#
# Total GULP energy -66935.542233 kJ/mol
# GULP energy per Si atom -5577.961853 kJ/mol
# Density = 2.453871 g / cm^3
# Si number density = 24.594689 Si / 1000 Ang^3
#
#
#
# Elastic Constant Matrix: (Units=GPa)
#
#
# Indices 1 2 3 4 5 6 
#
# 1 65.5771 46.3242 -12.1097 7.9965 -12.2236 -8.8362
# 2 46.3242 312.7804 45.5619 8.8491 -26.2693 -11.8054
# 3 -12.1097 45.5619 68.3468 19.5558 -13.7670 -4.9309
# 4 7.9965 8.8491 19.5558 36.3460 -3.4282 -7.7138
# 5 -12.2236 -26.2693 -13.7670 -3.4282 26.1083 5.3770
# 6 -8.8362 -11.8054 -4.9309 -7.7138 5.3770 45.9750
#
#
#
# Elastic Compliance Matrix: (Units=1/GPa)
#
#
# Indices 1 2 3 4 5 6 
#
# 1 0.023886 -0.003957 0.012061 -0.009247 0.011953 0.001919
# 2 -0.003957 0.004379 -0.004079 0.002102 0.000637 0.000205
# 3 0.012061 -0.004079 0.026385 -0.014565 0.013528 0.000075
# 4 -0.009247 0.002102 -0.014565 0.037196 -0.005860 0.004127
# 5 0.011953 0.000637 0.013528 -0.005860 0.051541 -0.003100
# 6 0.001919 0.000205 0.000075 0.004127 -0.003100 0.023235
#
#
# Mechanical properties :
#
#
# Convention : Reuss Voigt Hill
#
# Bulk Modulus (GPa) = 15.94854 67.36189 41.65521
# Shear Modulus (GPa) = 27.85981 46.14772 37.00377
#
# Velocity S-wave (km/s) = 3.36930 4.33636 3.88305
# Velocity P-wave (km/s) = 4.65133 7.24709 6.08913
#
# Compressibility (1/GPa) = 0.06270168
#
# Stress axis : x y z
#
# Youngs Moduli (GPa) = 41.86625 228.36338 37.90027
#
# Poissons Ratio (x) = 0.90355 -0.45713
# Poissons Ratio (y) = 0.16565 0.15458
# Poissons Ratio (z) = -0.50496 0.93143
#
# Static dielectric constant tensor:
#      x y z
#    x 1.978460 0.003740 0.117040 
#    y 0.003740 2.097890 -0.062520 
#    z 0.117040 -0.062520 2.092720 
# 
# From -- ./inp_files/158874.got.cif
#   From: 2010.05.17/outbox.cif.g08.bks.cpg/sg2_80_cif.got.tgz:158874.got - 2010.06.03 11:33:40.
