data_PCOD9081341
_publ_section_title
;
Structure prediction by ZEFSAII (Michael W. Deem and Ramdas Pophale) SiO2 
 PCOD9081341
Probable space group: P -1
;
_chemical_formula_sum "Si O2"
_cell_formula_units_Z 14
_cell_length_a 13.664252
_cell_length_b 9.149039
_cell_length_c 11.891156
_cell_angle_alpha 125.208211
_cell_angle_beta 52.463067
_cell_angle_gamma 148.832944
_cell_volume 604.518579
_symmetry_space_group_name_H-M "P -1"
_symmetry_group_IT_number 2
_symmetry_cell_setting 'triclinic'
loop_
_space_group_symop_operation_xyz
x,y,z
-x,-y,-z
loop_
_atom_site_type_symbol
_atom_site_label
_atom_site_fract_x
_atom_site_fract_y
_atom_site_fract_z
Si Si1 0.598199 0.911975 0.609929
Si Si2 0.332850 0.750573 0.090977
Si Si3 0.924655 0.178743 0.148882
Si Si4 0.182408 0.658291 0.526732
Si Si5 0.745245 0.673627 0.914380
Si Si6 0.756793 0.717315 0.427571
Si Si7 0.798851 0.740503 0.656055
O O1 0.708052 0.854016 0.469241
O O2 0.381678 0.599850 0.653137
O O3 0.690016 0.119250 0.742712
O O4 0.622399 0.072551 0.560312
O O5 0.384344 0.623990 0.065238
O O6 0.113743 0.460392 0.069416
O O7 0.500000 0.000000 0.000000
O O8 0.834029 0.239224 0.306705
O O9 0.037692 0.176534 0.159175
O O10 0.773659 0.888545 0.057112
O O11 0.173881 0.440583 0.460608
O O12 0.000000 0.500000 0.500000
O O13 0.699721 0.653182 0.807154
O O14 0.703940 0.695849 0.586757
O O15 0.983691 0.929958 0.348286
#
# Coordination Sequence:
#
# PCOD9081341 Si02
#       7
#     2   2   2   2   2   2   2
#     4  11  21  38  58  87 113 151 193 241 281 341
#     4  10  19  31  55  84 111 144 192 237 273 331
#     4   9  18  31  55  88 106 152 188 230 272 349
#     4  12  17  35  63  83 112 148 198 227 283 340
#     4   9  18  33  53  81 109 152 187 226 276 338
#     4  10  24  34  58  88 115 149 188 245 288 327
#     4  11  20  39  59  83 120 150 190 238 285 340
#
# _framework density 23.158923999999999
#
# number of rings (size 3 to 8) (size 9 to 14) (size 15 to 20)
#    0.857    0.857    5.714    0.000    2.000    2.857 
#    0.000    0.000    3.143    4.286    0.000    0.000 
#    0.000    0.000    0.000    0.000    0.000    0.000 
#
# Total GULP energy -78168.542680 kJ/mol
# GULP energy per Si atom -5583.467334 kJ/mol
# Density = 2.310621 g / cm^3
# Si number density = 23.158924 Si / 1000 Ang^3
#
#
#
# Elastic Constant Matrix: (Units=GPa)
#
#
# Indices 1 2 3 4 5 6 
#
# 1 32.3720 13.5397 1.7607 -0.2788 2.1353 -0.0188
# 2 13.5397 143.8447 39.1624 6.9342 -0.2701 -18.6742
# 3 1.7607 39.1624 87.0338 4.2889 -3.9551 -10.1476
# 4 -0.2788 6.9342 4.2889 39.2606 -11.3216 3.9882
# 5 2.1353 -0.2701 -3.9551 -11.3216 22.5997 -6.5553
# 6 -0.0188 -18.6742 -10.1476 3.9882 -6.5553 20.4880
#
#
#
# Elastic Compliance Matrix: (Units=1/GPa)
#
#
# Indices 1 2 3 4 5 6 
#
# 1 0.032747 -0.003783 0.000287 0.000074 -0.004416 -0.004703
# 2 -0.003783 0.009211 -0.003034 -0.001727 0.001287 0.007637
# 3 0.000287 -0.003034 0.013646 -0.000440 0.003624 0.005239
# 4 0.000074 -0.001727 -0.000440 0.030216 0.014117 -0.003157
# 5 -0.004416 0.001287 0.003624 0.014117 0.057815 0.018714
# 6 -0.004703 0.007637 0.005239 -0.003157 0.018714 0.064963
#
#
# Mechanical properties :
#
#
# Convention : Reuss Voigt Hill
#
# Bulk Modulus (GPa) = 23.50490 41.35287 32.42888
# Shear Modulus (GPa) = 21.20078 30.38884 25.79481
#
# Velocity S-wave (km/s) = 3.02892 3.62634 3.34101
# Velocity P-wave (km/s) = 4.73328 5.95220 5.37739
#
# Compressibility (1/GPa) = 0.04254432
#
# Stress axis : x y z
#
# Youngs Moduli (GPa) = 30.53739 108.56275 73.27906
#
# Poissons Ratio (x) = 0.41068 -0.02103
# Poissons Ratio (y) = 0.11552 0.22234
# Poissons Ratio (z) = -0.00877 0.32940
#
# Static dielectric constant tensor:
#      x y z
#    x 1.918260 0.055050 -0.005190 
#    y 0.055050 1.900070 -0.036620 
#    z -0.005190 -0.036620 1.844360 
# 
# From -- ./inp_files/446310.got.cif
#   From: 2010.05.17/outbox.cif.g08.bks.cpg/sg2_224_cif.got.tgz:446310.got - 2010.06.03 11:33:40.
