data_PCOD9081794
_publ_section_title
;
Structure prediction by ZEFSAII (Michael W. Deem and Ramdas Pophale) SiO2 
 PCOD9081794
Probable space group: P -1
;
_chemical_formula_sum "Si O2"
_cell_formula_units_Z 12
_cell_length_a 19.397961
_cell_length_b 7.238211
_cell_length_c 5.885450
_cell_angle_alpha 63.660143
_cell_angle_beta 51.316961
_cell_angle_gamma 41.355798
_cell_volume 425.697110
_symmetry_space_group_name_H-M "P -1"
_symmetry_group_IT_number 2
_symmetry_cell_setting 'triclinic'
loop_
_space_group_symop_operation_xyz
x,y,z
-x,-y,-z
loop_
_atom_site_type_symbol
_atom_site_label
_atom_site_fract_x
_atom_site_fract_y
_atom_site_fract_z
Si Si1 0.660098 0.969047 0.293593
Si Si2 0.358388 0.707417 0.220210
Si Si3 0.177507 0.759040 0.200972
Si Si4 0.160304 0.186902 0.686473
Si Si5 0.400384 0.306707 0.737860
Si Si6 0.016488 0.159558 0.704062
O O1 0.786498 0.728621 0.291548
O O2 0.537540 0.150560 0.594890
O O3 0.620983 0.884106 0.215102
O O4 0.677179 0.162408 0.032804
O O5 0.273996 0.985920 0.396086
O O6 0.356818 0.510584 0.498624
O O7 0.500000 0.500000 0.000000
O O8 0.094381 0.696413 0.320282
O O9 0.132939 0.905484 0.457259
O O10 0.149979 0.993440 0.962347
O O11 0.312675 0.470802 0.041086
O O12 0.043662 0.329249 0.691869
O O13 0.000000 0.000000 0.000000
#
# Coordination Sequence:
#
# PCOD9081794 Si02
#       6
#     2   2   2   2   2   2
#     4  10  20  37  57  86 124 151 188 241 284 342
#     4   9  19  35  55  81 115 156 195 231 285 345
#     4   9  18  35  58  80 114 155 194 239 287 346
#     4  10  19  32  55  84 114 149 190 240 292 339
#     4   9  20  38  59  86 117 157 196 230 287 348
#     4   9  18  33  56  85 111 149 198 242 291 343
#
# _framework density 28.189055
#
# number of rings (size 3 to 8) (size 9 to 14) (size 15 to 20)
#    0.000    2.667    0.000    1.000    0.000    7.333 
#    0.000   16.667    0.000   14.000    0.000   14.000 
#    0.000    0.000    0.000    0.000    0.000    0.000 
#
# Total GULP energy -66909.552524 kJ/mol
# GULP energy per Si atom -5575.796044 kJ/mol
# Density = 2.812490 g / cm^3
# Si number density = 28.189055 Si / 1000 Ang^3
#
#
#
# Elastic Constant Matrix: (Units=GPa)
#
#
# Indices 1 2 3 4 5 6 
#
# 1 177.4910 -0.5846 28.0998 -12.3899 -8.3929 -22.3115
# 2 -0.5846 33.2046 24.1405 3.0324 -5.5120 -14.6491
# 3 28.0998 24.1405 165.2162 24.5346 -31.6927 -6.4458
# 4 -12.3899 3.0324 24.5346 50.0281 -7.1149 8.8563
# 5 -8.3929 -5.5120 -31.6927 -7.1149 28.0253 -9.8710
# 6 -22.3115 -14.6491 -6.4458 8.8563 -9.8710 40.0399
#
#
#
# Elastic Compliance Matrix: (Units=1/GPa)
#
#
# Indices 1 2 3 4 5 6 
#
# 1 0.006820 0.003901 -0.000922 0.001475 0.004179 0.005783
# 2 0.003901 0.044628 -0.003551 -0.001964 0.013031 0.021577
# 3 -0.000922 -0.003551 0.009207 -0.003677 0.009498 0.002824
# 4 0.001475 -0.001964 -0.003677 0.023254 -0.000200 -0.005681
# 5 0.004179 0.013031 0.009498 -0.000200 0.058302 0.023043
# 6 0.005783 0.021577 0.002824 -0.005681 0.023043 0.043484
#
#
# Mechanical properties :
#
#
# Convention : Reuss Voigt Hill
#
# Bulk Modulus (GPa) = 16.80377 53.24702 35.02539
# Shear Modulus (GPa) = 24.19236 45.23574 34.71405
#
# Velocity S-wave (km/s) = 2.93271 4.01025 3.51304
# Velocity P-wave (km/s) = 4.17634 6.35398 5.37656
#
# Compressibility (1/GPa) = 0.05951047
#
# Stress axis : x y z
#
# Youngs Moduli (GPa) = 146.61863 22.40725 108.61853
#
# Poissons Ratio (x) = -0.08740 0.10013
# Poissons Ratio (y) = -0.57190 0.38573
# Poissons Ratio (z) = 0.13516 0.07957
#
# Static dielectric constant tensor:
#      x y z
#    x 2.427000 -0.022890 -0.032270 
#    y -0.022890 2.194930 -0.014910 
#    z -0.032270 -0.014910 2.137260 
# 
# From -- ./inp_files/33714.got.cif
#   From: 2010.05.17/outbox.cif.g08.bks.cpg/sg2_17_cif.got.tgz:33714.got - 2010.06.03 11:33:40.
