data_PCOD9081279
_publ_section_title
;
Structure prediction by ZEFSAII (Michael W. Deem and Ramdas Pophale) SiO2 
 PCOD9081279
Probable space group: P -1
;
_chemical_formula_sum "Si O2"
_cell_formula_units_Z 16
_cell_length_a 21.988312
_cell_length_b 15.237230
_cell_length_c 7.672543
_cell_angle_alpha 143.579845
_cell_angle_beta 59.571625
_cell_angle_gamma 145.221510
_cell_volume 774.693818
_symmetry_space_group_name_H-M "P -1"
_symmetry_group_IT_number 2
_symmetry_cell_setting 'triclinic'
loop_
_space_group_symop_operation_xyz
x,y,z
-x,-y,-z
loop_
_atom_site_type_symbol
_atom_site_label
_atom_site_fract_x
_atom_site_fract_y
_atom_site_fract_z
Si Si1 0.044354 0.874264 0.297131
Si Si2 0.119665 0.287300 0.423546
Si Si3 0.238895 0.218595 0.313701
Si Si4 0.506715 0.221351 0.183436
Si Si5 0.117483 0.725387 0.802118
Si Si6 0.383170 0.902015 0.535344
Si Si7 0.647411 0.145683 0.881249
Si Si8 0.860986 0.572120 0.751345
O O1 0.950056 0.727505 0.036531
O O2 0.076452 0.754180 0.073530
O O3 0.986286 0.849078 0.507811
O O4 0.169713 0.153087 0.488126
O O5 0.176689 0.222175 0.270695
O O6 0.091742 0.264325 0.225119
O O7 0.226432 0.583625 0.794890
O O8 0.380130 0.479537 0.516788
O O9 0.200722 0.982631 0.988197
O O10 0.421996 0.081883 0.252670
O O11 0.424532 0.087389 0.917748
O O12 0.568981 0.163996 0.010797
O O13 0.161051 0.634086 0.611410
O O14 0.000000 0.500000 0.500000
O O15 0.273610 0.613753 0.297504
O O16 0.500000 0.000000 0.500000
O O17 0.343599 0.897181 0.397684
#
# Coordination Sequence:
#
# PCOD9081279 Si02
#       8
#     2   2   2   2   2   2   2   2
#     4   9  20  38  55  81 117 146 181 233 280 319
#     4  11  19  32  60  89 109 138 192 236 269 326
#     4   9  20  36  57  81 117 147 177 237 282 319
#     4   9  17  32  52  79 108 140 184 221 276 327
#     4   8  19  39  57  75 113 158 181 217 284 335
#     4  10  19  31  53  84 109 143 184 228 275 326
#     4   9  17  30  51  80 111 142 172 229 278 320
#     4  11  20  35  60  84 108 149 191 223 276 338
#
# _framework density 20.653321999999999
#
# number of rings (size 3 to 8) (size 9 to 14) (size 15 to 20)
#    0.750    1.750    2.500    0.375    1.750    1.000 
#    0.000    1.875    0.000    0.750    0.000    0.000 
#    0.000    0.000    0.000    0.000    0.000    0.000 
#
# Total GULP energy -89085.895557 kJ/mol
# GULP energy per Si atom -5567.868472 kJ/mol
# Density = 2.060631 g / cm^3
# Si number density = 20.653322 Si / 1000 Ang^3
#
#
#
# Elastic Constant Matrix: (Units=GPa)
#
#
# Indices 1 2 3 4 5 6 
#
# 1 38.2600 24.4868 28.3219 -2.3732 -0.3338 -4.7806
# 2 24.4868 119.0051 46.7353 10.3784 5.3868 -24.1685
# 3 28.3219 46.7353 103.7045 10.4261 1.3844 -18.8762
# 4 -2.3732 10.3784 10.4261 34.7071 -2.8210 4.8094
# 5 -0.3338 5.3868 1.3844 -2.8210 31.0182 -1.1060
# 6 -4.7806 -24.1685 -18.8762 4.8094 -1.1060 26.6133
#
#
#
# Elastic Compliance Matrix: (Units=1/GPa)
#
#
# Indices 1 2 3 4 5 6 
#
# 1 0.036677 -0.006117 -0.009413 0.008335 0.002384 -0.007050
# 2 -0.006117 0.013034 -0.001735 -0.005427 -0.002375 0.010389
# 3 -0.009413 -0.001735 0.015150 -0.005914 -0.000710 0.008518
# 4 0.008335 -0.005427 -0.005914 0.035017 0.003989 -0.013788
# 5 0.002384 -0.002375 -0.000710 0.003989 0.033015 -0.001581
# 6 -0.007050 0.010389 0.008518 -0.013788 -0.001581 0.054211
#
#
# Mechanical properties :
#
#
# Convention : Reuss Voigt Hill
#
# Bulk Modulus (GPa) = 32.96958 51.11753 42.04355
# Shear Modulus (GPa) = 21.57563 29.22941 25.40252
#
# Velocity S-wave (km/s) = 3.23562 3.76605 3.51087
# Velocity P-wave (km/s) = 5.47330 6.61172 6.06926
#
# Compressibility (1/GPa) = 0.03033099
#
# Stress axis : x y z
#
# Youngs Moduli (GPa) = 27.26541 76.72484 66.00702
#
# Poissons Ratio (x) = 0.46930 0.62132
# Poissons Ratio (y) = 0.16677 0.11452
# Poissons Ratio (z) = 0.25665 0.13311
#
# Static dielectric constant tensor:
#      x y z
#    x 1.766200 0.016390 -0.021020 
#    y 0.016390 1.805620 -0.000920 
#    z -0.021020 -0.000920 1.794340 
# 
# From -- ./inp_files/354221.got.cif
#   From: 2010.05.17/outbox.cif.g08.bks.cpg/sg2_178_cif.got.tgz:354221.got - 2010.06.03 11:33:40.
