data_PCOD9081949
_publ_section_title
;
Structure prediction by ZEFSAII (Michael W. Deem and Ramdas Pophale) SiO2 
 PCOD9081949
Probable space group: P -1
;
_chemical_formula_sum "Si O2"
_cell_formula_units_Z 14
_cell_length_a 16.207229
_cell_length_b 7.623439
_cell_length_c 21.822108
_cell_angle_alpha 51.004969
_cell_angle_beta 155.488727
_cell_angle_gamma 139.487575
_cell_volume 706.842696
_symmetry_space_group_name_H-M "P -1"
_symmetry_group_IT_number 2
_symmetry_cell_setting 'triclinic'
loop_
_space_group_symop_operation_xyz
x,y,z
-x,-y,-z
loop_
_atom_site_type_symbol
_atom_site_label
_atom_site_fract_x
_atom_site_fract_y
_atom_site_fract_z
Si Si1 0.855709 0.900397 0.083916
Si Si2 0.970834 0.454093 0.063799
Si Si3 0.723782 0.725035 0.812606
Si Si4 0.960515 0.297602 0.643388
Si Si5 0.208743 0.321476 0.568914
Si Si6 0.468973 0.939616 0.329623
Si Si7 0.365416 0.597525 0.746908
O O1 0.826935 0.126644 0.047803
O O2 0.086142 0.086699 0.153306
O O3 0.918830 0.754095 0.208131
O O4 0.615174 0.688189 0.928671
O O5 0.243047 0.624551 0.237628
O O6 0.000000 0.500000 0.000000
O O7 0.844340 0.608433 0.961643
O O8 0.463328 0.445396 0.678396
O O9 0.650603 0.910943 0.754865
O O10 0.145561 0.428885 0.682660
O O11 0.896948 0.515951 0.565343
O O12 0.699646 0.018164 0.508506
O O13 0.290046 0.418741 0.673210
O O14 0.000000 0.000000 0.500000
O O15 0.580248 0.110377 0.303680
#
# Coordination Sequence:
#
# PCOD9081949 Si02
#       7
#     2   2   2   2   2   2   2
#     4  11  22  36  57  88 115 153 183 231 292 326
#     4  10  19  32  58  86 107 147 192 232 265 344
#     4   9  20  36  61  81 118 141 195 234 272 338
#     4  10  23  38  56  83 122 148 185 233 286 333
#     4  10  23  39  64  85 104 154 191 236 280 332
#     4  10  19  36  60  84 106 154 190 236 282 314
#     4  10  20  38  59  80 116 152 188 228 278 340
#
# _framework density 19.806387000000001
#
# number of rings (size 3 to 8) (size 9 to 14) (size 15 to 20)
#    0.000    2.286    2.857    2.571    4.000    5.143 
#    0.000    2.143    0.000    0.000    0.000    0.000 
#    0.000    0.000    0.000    0.000    0.000    0.000 
#
# Total GULP energy -78028.994066 kJ/mol
# GULP energy per Si atom -5573.499576 kJ/mol
# Density = 1.976131 g / cm^3
# Si number density = 19.806387 Si / 1000 Ang^3
#
#
#
# Elastic Constant Matrix: (Units=GPa)
#
#
# Indices 1 2 3 4 5 6 
#
# 1 28.3106 10.8359 12.0320 -3.0485 11.8740 2.2087
# 2 10.8359 32.3065 15.2835 0.5548 -12.2860 -8.1591
# 3 12.0320 15.2835 96.2755 -5.2452 -14.5313 -4.3772
# 4 -3.0485 0.5548 -5.2452 33.9797 9.3201 -9.7356
# 5 11.8740 -12.2860 -14.5313 9.3201 34.6705 7.5061
# 6 2.2087 -8.1591 -4.3772 -9.7356 7.5061 13.3714
#
#
#
# Elastic Compliance Matrix: (Units=1/GPa)
#
#
# Indices 1 2 3 4 5 6 
#
# 1 0.079747 -0.041555 -0.009992 0.021939 -0.052969 0.003908
# 2 -0.041555 0.062860 0.000915 -0.008553 0.034928 0.019685
# 3 -0.009992 0.000915 0.012844 -0.001595 0.009586 -0.000129
# 4 0.021939 -0.008553 -0.001595 0.057152 -0.038201 0.053691
# 5 -0.052969 0.034928 0.009586 -0.038201 0.082509 -0.040930
# 6 0.003908 0.019685 -0.000129 0.053691 -0.040930 0.148180
#
#
# Mechanical properties :
#
#
# Convention : Reuss Voigt Hill
#
# Bulk Modulus (GPa) = 18.45375 25.91058 22.18217
# Shear Modulus (GPa) = 8.88702 24.32040 16.60371
#
# Velocity S-wave (km/s) = 2.12054 3.50795 2.89848
# Velocity P-wave (km/s) = 3.91572 5.43304 4.73555
#
# Compressibility (1/GPa) = 0.05418952
#
# Stress axis : x y z
#
# Youngs Moduli (GPa) = 12.53958 15.90840 77.85490
#
# Poissons Ratio (x) = 0.66107 0.77789
# Poissons Ratio (y) = 0.52108 -0.07127
# Poissons Ratio (z) = 0.12529 -0.01456
#
# Static dielectric constant tensor:
#      x y z
#    x 1.752120 -0.048000 0.041450 
#    y -0.048000 1.717290 0.020960 
#    z 0.041450 0.020960 1.739520 
# 
# From -- ./inp_files/243634.got.cif
#   From: 2010.05.17/outbox.cif.g08.bks.cpg/sg2_122_cif.got.tgz:243634.got - 2010.06.03 11:33:40.
