data_PCOD9081011
_publ_section_title
;
Structure prediction by ZEFSAII (Michael W. Deem and Ramdas Pophale) SiO2 
 PCOD9081011
Probable space group: P -1
;
_chemical_formula_sum "Si O2"
_cell_formula_units_Z 14
_cell_length_a 15.353943
_cell_length_b 12.935908
_cell_length_c 10.775608
_cell_angle_alpha 63.161438
_cell_angle_beta 156.239268
_cell_angle_gamma 129.747344
_cell_volume 598.069749
_symmetry_space_group_name_H-M "P -1"
_symmetry_group_IT_number 2
_symmetry_cell_setting 'triclinic'
loop_
_space_group_symop_operation_xyz
x,y,z
-x,-y,-z
loop_
_atom_site_type_symbol
_atom_site_label
_atom_site_fract_x
_atom_site_fract_y
_atom_site_fract_z
Si Si1 0.888646 0.057091 0.726960
Si Si2 0.392323 0.199504 0.159086
Si Si3 0.328895 0.823409 0.232065
Si Si4 0.898301 0.326268 0.603963
Si Si5 0.256658 0.565832 0.149969
Si Si6 0.407657 0.469782 0.036737
Si Si7 0.750636 0.680434 0.583214
O O1 0.953588 0.210142 0.773540
O O2 0.556739 0.940972 0.367279
O O3 0.058023 0.088605 0.803575
O O4 0.000000 0.000000 0.000000
O O5 0.526280 0.158709 0.458120
O O6 0.455949 0.352602 0.202479
O O7 0.568548 0.237342 0.242243
O O8 0.194679 0.659329 0.094574
O O9 0.071162 0.821245 0.916439
O O10 0.044992 0.460370 0.821710
O O11 0.086205 0.397090 0.685680
O O12 0.557052 0.691278 0.412198
O O13 0.274074 0.455191 0.312690
O O14 0.602784 0.617779 0.292261
O O15 0.500000 0.500000 0.000000
#
# Coordination Sequence:
#
# PCOD9081011 Si02
#       7
#     2   2   2   2   2   2   2
#     4   9  22  32  47  80 118 143 171 207 265 330
#     4  10  19  34  53  74 110 144 174 214 266 312
#     4  11  19  32  53  81 113 140 169 212 267 326
#     4  10  20  36  54  79 109 144 174 217 268 316
#     4  10  19  30  52  80 109 134 170 216 269 316
#     4  10  21  36  53  79 109 139 181 224 262 312
#     4  10  19  30  52  78 108 135 168 218 271 309
#
# _framework density 23.408639999999998
#
# number of rings (size 3 to 8) (size 9 to 14) (size 15 to 20)
#    0.000    2.000    2.857    1.286    6.000    4.000 
#    0.000    0.000    0.000    3.429    0.000   18.000 
#    0.000    0.000    0.000    0.000    0.000    0.000 
#
# Total GULP energy -78114.982542 kJ/mol
# GULP energy per Si atom -5579.641610 kJ/mol
# Density = 2.335536 g / cm^3
# Si number density = 23.408640 Si / 1000 Ang^3
#
#
#
# Elastic Constant Matrix: (Units=GPa)
#
#
# Indices 1 2 3 4 5 6 
#
# 1 120.3083 3.0340 53.7358 11.1098 47.3778 14.8574
# 2 3.0340 39.9884 16.1734 4.2690 1.4045 -14.4590
# 3 53.7358 16.1734 116.3810 21.8879 68.9771 19.4738
# 4 11.1098 4.2690 21.8879 24.4083 5.6463 10.8988
# 5 47.3778 1.4045 68.9771 5.6463 55.6522 8.6547
# 6 14.8574 -14.4590 19.4738 10.8988 8.6547 33.3745
#
#
#
# Elastic Compliance Matrix: (Units=1/GPa)
#
#
# Indices 1 2 3 4 5 6 
#
# 1 0.014456 -0.006420 0.010334 -0.006128 -0.023207 -0.007227
# 2 -0.006420 0.049916 -0.033938 0.000129 0.041030 0.033604
# 3 0.010334 -0.033938 0.072494 -0.030244 -0.090322 -0.028304
# 4 -0.006128 0.000129 -0.030244 0.067182 0.037635 -0.011268
# 5 -0.023207 0.041030 -0.090322 0.037635 0.139801 0.032265
# 6 -0.007227 0.033604 -0.028304 -0.011268 0.032265 0.059566
#
#
# Mechanical properties :
#
#
# Convention : Reuss Voigt Hill
#
# Bulk Modulus (GPa) = 13.01792 46.95157 29.98475
# Shear Modulus (GPa) = 10.22350 36.26930 23.24640
#
# Velocity S-wave (km/s) = 2.09210 3.94051 3.15472
# Velocity P-wave (km/s) = 3.37773 6.38783 5.10948
#
# Compressibility (1/GPa) = 0.07681721
#
# Stress axis : x y z
#
# Youngs Moduli (GPa) = 69.17758 20.03362 13.79428
#
# Poissons Ratio (x) = 0.12862 -0.14255
# Poissons Ratio (y) = 0.44414 0.46814
# Poissons Ratio (z) = -0.71486 0.67989
#
# Static dielectric constant tensor:
#      x y z
#    x 1.875510 0.033760 0.053520 
#    y 0.033760 1.921590 0.046060 
#    z 0.053520 0.046060 1.947570 
# 
# From -- ./inp_files/423658.got.cif
#   From: 2010.05.17/outbox.cif.g08.bks.cpg/sg2_212_cif.got.tgz:423658.got - 2010.06.03 11:33:40.
