data_PCOD9081033
_publ_section_title
;
Structure prediction by ZEFSAII (Michael W. Deem and Ramdas Pophale) SiO2 
 PCOD9081033
Probable space group: P -1
;
_chemical_formula_sum "Si O2"
_cell_formula_units_Z 14
_cell_length_a 11.374116
_cell_length_b 15.285039
_cell_length_c 8.679639
_cell_angle_alpha 149.695132
_cell_angle_beta 134.277035
_cell_angle_gamma 45.829114
_cell_volume 526.363301
_symmetry_space_group_name_H-M "P -1"
_symmetry_group_IT_number 2
_symmetry_cell_setting 'triclinic'
loop_
_space_group_symop_operation_xyz
x,y,z
-x,-y,-z
loop_
_atom_site_type_symbol
_atom_site_label
_atom_site_fract_x
_atom_site_fract_y
_atom_site_fract_z
Si Si1 0.156576 0.558011 0.396692
Si Si2 0.094395 0.322697 0.413163
Si Si3 0.440312 0.633161 0.006348
Si Si4 0.151008 0.867818 0.241408
Si Si5 0.109435 0.803143 0.428153
Si Si6 0.417130 0.333713 0.118640
Si Si7 0.381266 0.018569 0.072070
O O1 0.290503 0.581752 0.688610
O O2 0.149980 0.678468 0.422432
O O3 0.247745 0.366561 0.115848
O O4 0.966815 0.605099 0.361855
O O5 0.000000 0.500000 0.500000
O O6 0.983352 0.176069 0.067857
O O7 0.279492 0.213577 0.348846
O O8 0.583719 0.643369 0.030927
O O9 0.500000 0.500000 0.000000
O O10 0.338380 0.820678 0.273106
O O11 0.143334 0.740296 0.187772
O O12 0.077947 0.069701 0.532221
O O13 0.232013 0.934296 0.750355
O O14 0.500000 0.500000 0.500000
O O15 0.526982 0.133434 0.951882
O O16 0.500000 0.000000 0.000000
#
# Coordination Sequence:
#
# PCOD9081033 Si02
#       7
#     2   2   2   2   2   2   2
#     4  10  20  35  62  86 119 159 207 253 302 365
#     4  10  22  40  59  89 126 164 208 248 317 376
#     4  10  19  30  53  89 124 151 198 257 302 352
#     4   9  21  34  60  89 120 159 202 260 304 354
#     4  10  19  38  60  93 118 156 214 253 304 374
#     4  10  19  34  55  91 118 155 210 246 307 366
#     4  11  22  36  64  90 128 164 203 259 312 370
#
# _framework density 26.597597
#
# number of rings (size 3 to 8) (size 9 to 14) (size 15 to 20)
#    0.000    2.000    2.857    1.714    4.000    1.714 
#    0.000    0.714    0.000    9.429    0.000    0.000 
#    0.000    0.000    0.000    0.000    0.000    0.000 
#
# Total GULP energy -78112.306538 kJ/mol
# GULP energy per Si atom -5579.450467 kJ/mol
# Density = 2.653706 g / cm^3
# Si number density = 26.597597 Si / 1000 Ang^3
#
#
#
# Elastic Constant Matrix: (Units=GPa)
#
#
# Indices 1 2 3 4 5 6 
#
# 1 192.3746 52.3840 63.5959 19.0111 -54.5016 -29.1100
# 2 52.3840 156.7068 38.0272 10.1717 -23.7628 -4.1402
# 3 63.5959 38.0272 78.6231 2.8700 -8.7893 -1.5856
# 4 19.0111 10.1717 2.8700 38.2401 -0.7984 -16.8368
# 5 -54.5016 -23.7628 -8.7893 -0.7984 57.7981 11.8420
# 6 -29.1100 -4.1402 -1.5856 -16.8368 11.8420 43.3153
#
#
#
# Elastic Compliance Matrix: (Units=1/GPa)
#
#
# Indices 1 2 3 4 5 6 
#
# 1 0.011015 -0.000265 -0.007666 -0.003057 0.008326 0.003632
# 2 -0.000265 0.007753 -0.003184 -0.002122 0.002650 -0.001103
# 3 -0.007666 -0.003184 0.019782 0.001911 -0.004964 -0.002632
# 4 -0.003057 -0.002122 0.001911 0.033393 -0.005524 0.012303
# 5 0.008326 0.002650 -0.004964 -0.005524 0.026155 -0.003631
# 6 0.003632 -0.001103 -0.002632 0.012303 -0.003631 0.031100
#
#
# Mechanical properties :
#
#
# Convention : Reuss Voigt Hill
#
# Bulk Modulus (GPa) = 61.27452 81.74652 71.51052
# Shear Modulus (GPa) = 31.87382 46.11721 38.99551
#
# Velocity S-wave (km/s) = 3.46551 4.16851 3.83316
# Velocity P-wave (km/s) = 6.25305 7.34642 6.82168
#
# Compressibility (1/GPa) = 0.01632000
#
# Stress axis : x y z
#
# Youngs Moduli (GPa) = 90.78407 128.98188 50.55088
#
# Poissons Ratio (x) = 0.03417 0.38753
# Poissons Ratio (y) = 0.02405 0.16096
# Poissons Ratio (z) = 0.69596 0.41069
#
# Static dielectric constant tensor:
#      x y z
#    x 2.175710 -0.062090 -0.017140 
#    y -0.062090 2.157240 -0.061070 
#    z -0.017140 -0.061070 2.209770 
# 
# From -- ./inp_files/269313.got.cif
#   From: 2010.05.17/outbox.cif.g08.bks.cpg/sg2_135_cif.got.tgz:269313.got - 2010.06.03 11:33:40.
