data_PCOD9081964
_publ_section_title
;
Structure prediction by ZEFSAII (Michael W. Deem and Ramdas Pophale) SiO2 
 PCOD9081964
Probable space group: P -1
;
_chemical_formula_sum "Si O2"
_cell_formula_units_Z 16
_cell_length_a 8.444318
_cell_length_b 11.187308
_cell_length_c 13.437700
_cell_angle_alpha 134.351659
_cell_angle_beta 127.171768
_cell_angle_gamma 69.212513
_cell_volume 718.219165
_symmetry_space_group_name_H-M "P -1"
_symmetry_group_IT_number 2
_symmetry_cell_setting 'triclinic'
loop_
_space_group_symop_operation_xyz
x,y,z
-x,-y,-z
loop_
_atom_site_type_symbol
_atom_site_label
_atom_site_fract_x
_atom_site_fract_y
_atom_site_fract_z
Si Si1 0.207222 0.177733 0.788787
Si Si2 0.102174 0.160566 0.338752
Si Si3 0.185986 0.612966 0.687711
Si Si4 0.614311 0.368642 0.410210
Si Si5 0.261102 0.126249 0.168418
Si Si6 0.312435 0.744773 0.013697
Si Si7 0.004789 0.781822 0.065783
Si Si8 0.014011 0.783043 0.472512
O O1 0.445291 0.223260 0.882974
O O2 0.131196 0.256833 0.909476
O O3 0.087452 0.238089 0.684415
O O4 0.132082 0.973948 0.640560
O O5 0.207882 0.209287 0.302343
O O6 0.875446 0.201683 0.256675
O O7 0.147017 0.237238 0.509394
O O8 0.116337 0.965507 0.241978
O O9 0.369505 0.583581 0.671334
O O10 0.000000 0.500000 0.500000
O O11 0.231909 0.615950 0.821667
O O12 0.500000 0.500000 0.500000
O O13 0.488019 0.188355 0.266980
O O14 0.828011 0.349111 0.527369
O O15 0.240627 0.926715 0.061952
O O16 0.137345 0.190589 0.067097
O O17 0.188718 0.691515 0.037089
#
# Coordination Sequence:
#
# PCOD9081964 Si02
#       8
#     2   2   2   2   2   2   2   2
#     4  10  20  37  58  88 123 162 198 240 293 360
#     4   9  17  33  54  80 116 152 182 247 301 335
#     4  11  21  35  55  83 120 153 189 250 307 352
#     4  11  23  35  58  88 116 158 196 248 303 346
#     4  11  18  34  57  92 118 146 199 254 303 352
#     4  11  20  35  60  89 121 155 198 245 309 357
#     4  10  19  32  58  88 121 150 189 250 303 351
#     4   9  20  38  55  84 127 157 197 245 289 352
#
# _framework density 22.277324
#
# number of rings (size 3 to 8) (size 9 to 14) (size 15 to 20)
#    0.000    1.750    3.750    2.250    0.000    1.000 
#    2.250    2.500    0.000    6.000    0.000    0.000 
#    0.000    0.000    0.000    0.000    0.000    0.000 
#
# Total GULP energy -89088.816072 kJ/mol
# GULP energy per Si atom -5568.051005 kJ/mol
# Density = 2.222662 g / cm^3
# Si number density = 22.277324 Si / 1000 Ang^3
#
#
#
# Elastic Constant Matrix: (Units=GPa)
#
#
# Indices 1 2 3 4 5 6 
#
# 1 187.4971 27.7239 80.7632 -27.6461 -31.6819 0.8003
# 2 27.7239 39.5865 30.1706 -14.4102 -10.5742 2.6804
# 3 80.7632 30.1706 108.4935 -15.2836 -15.5388 0.4558
# 4 -27.6461 -14.4102 -15.2836 32.2191 2.9737 -6.6731
# 5 -31.6819 -10.5742 -15.5388 2.9737 39.6620 0.9357
# 6 0.8003 2.6804 0.4558 -6.6731 0.9357 20.1026
#
#
#
# Elastic Compliance Matrix: (Units=1/GPa)
#
#
# Indices 1 2 3 4 5 6 
#
# 1 0.009305 0.001152 -0.005747 0.005560 0.005043 0.001217
# 2 0.001152 0.037469 -0.008504 0.012921 0.006630 -0.000869
# 3 -0.005747 -0.008504 0.015600 -0.001134 -0.000676 0.000664
# 4 0.005560 0.012921 -0.001134 0.043225 0.003912 0.012248
# 5 0.005043 0.006630 -0.000676 0.003912 0.030479 -0.001190
# 6 0.001217 -0.000869 0.000664 0.012248 -0.001190 0.053918
#
#
# Mechanical properties :
#
#
# Convention : Reuss Voigt Hill
#
# Bulk Modulus (GPa) = 27.64185 68.09916 47.87050
# Shear Modulus (GPa) = 21.90559 31.52471 26.71515
#
# Velocity S-wave (km/s) = 3.13918 3.76587 3.46672
# Velocity P-wave (km/s) = 5.05711 7.03876 6.12856
#
# Compressibility (1/GPa) = 0.03617703
#
# Stress axis : x y z
#
# Youngs Moduli (GPa) = 107.46590 26.68908 64.10114
#
# Poissons Ratio (x) = -0.03074 0.36837
# Poissons Ratio (y) = -0.12377 0.54509
# Poissons Ratio (z) = 0.61758 0.22695
#
# Static dielectric constant tensor:
#      x y z
#    x 1.935120 0.023740 -0.004430 
#    y 0.023740 1.881770 0.062560 
#    z -0.004430 0.062560 1.888910 
# 
# From -- ./inp_files/213302.got.cif
#   From: 2010.05.17/outbox.cif.g08.bks.cpg/sg2_107_cif.got.tgz:213302.got - 2010.06.03 11:33:40.
