data_PCOD9081143
_publ_section_title
;
Structure prediction by ZEFSAII (Michael W. Deem and Ramdas Pophale) SiO2 
 PCOD9081143
Probable space group: P -1
;
_chemical_formula_sum "Si O2"
_cell_formula_units_Z 14
_cell_length_a 13.223920
_cell_length_b 8.862178
_cell_length_c 16.157485
_cell_angle_alpha 23.897470
_cell_angle_beta 47.851376
_cell_angle_gamma 55.658836
_cell_volume 560.966653
_symmetry_space_group_name_H-M "P -1"
_symmetry_group_IT_number 2
_symmetry_cell_setting 'triclinic'
loop_
_space_group_symop_operation_xyz
x,y,z
-x,-y,-z
loop_
_atom_site_type_symbol
_atom_site_label
_atom_site_fract_x
_atom_site_fract_y
_atom_site_fract_z
Si Si1 0.952085 0.413541 0.824501
Si Si2 0.629583 0.406888 0.671513
Si Si3 0.966332 0.708985 0.995291
Si Si4 0.353864 0.934898 0.808790
Si Si5 0.919681 0.479845 0.468091
Si Si6 0.341304 0.282511 0.820217
Si Si7 0.423230 0.122028 0.397789
O O1 0.998915 0.604025 0.616751
O O2 0.028687 0.558012 0.794075
O O3 0.789227 0.345597 0.962185
O O4 0.000000 0.000000 0.000000
O O5 0.644707 0.722629 0.430228
O O6 0.767831 0.228102 0.673380
O O7 0.469378 0.219078 0.840422
O O8 0.654398 0.580391 0.663834
O O9 0.819464 0.858959 0.000520
O O10 0.086947 0.069446 0.759332
O O11 0.000000 0.500000 0.000000
O O12 0.376973 0.133722 0.785517
O O13 0.469971 0.722868 0.810467
O O14 0.000000 0.500000 0.500000
O O15 0.342655 0.735524 0.598920
O O16 0.500000 0.000000 0.500000
#
# Coordination Sequence:
#
# PCOD9081143 Si02
#       7
#     2   2   2   2   2   2   2
#     4  10  18  33  55  78 111 144 186 225 273 319
#     4  10  18  31  49  78 110 141 176 226 276 321
#     4  11  21  34  60  89 109 138 189 235 270 323
#     4  10  15  29  50  79 109 133 181 226 272 320
#     4  11  22  39  57  78 114 155 182 218 282 339
#     4  10  17  27  49  83 106 135 179 230 269 315
#     4   8  17  25  45  75 112 131 166 225 280 303
#
# _framework density 24.95692
#
# number of rings (size 3 to 8) (size 9 to 14) (size 15 to 20)
#    0.000    2.286    5.714    2.571    4.000    0.000 
#    0.000    1.429    0.000    0.857    0.000    0.000 
#    0.000    0.000    0.000    0.000    0.000    0.000 
#
# Total GULP energy -78023.410922 kJ/mol
# GULP energy per Si atom -5573.100780 kJ/mol
# Density = 2.490012 g / cm^3
# Si number density = 24.956920 Si / 1000 Ang^3
#
#
#
# Elastic Constant Matrix: (Units=GPa)
#
#
# Indices 1 2 3 4 5 6 
#
# 1 118.7180 40.5910 47.3157 22.4270 -14.5002 29.8453
# 2 40.5910 132.1810 50.5413 47.4744 10.5992 35.0697
# 3 47.3157 50.5413 70.1160 21.3198 -19.5801 -1.1703
# 4 22.4270 47.4744 21.3198 42.5507 1.6064 12.3382
# 5 -14.5002 10.5992 -19.5801 1.6064 47.3801 9.6919
# 6 29.8453 35.0697 -1.1703 12.3382 9.6919 30.8410
#
#
#
# Elastic Compliance Matrix: (Units=1/GPa)
#
#
# Indices 1 2 3 4 5 6 
#
# 1 0.025416 0.014761 -0.026432 -0.004771 0.002131 -0.041145
# 2 0.014761 0.033189 -0.031603 -0.015695 -0.006233 -0.044985
# 3 -0.026432 -0.031603 0.058138 0.002444 0.010782 0.059355
# 4 -0.004771 -0.015695 0.002444 0.040480 0.000414 0.006233
# 5 0.002131 -0.006233 0.010782 0.000414 0.028338 -0.003636
# 6 -0.041145 -0.044985 0.059355 0.006233 -0.003636 0.124295
#
#
# Mechanical properties :
#
#
# Convention : Reuss Voigt Hill
#
# Bulk Modulus (GPa) = 33.11980 66.43458 49.77719
# Shear Modulus (GPa) = 12.30104 36.32548 24.31326
#
# Velocity S-wave (km/s) = 2.22252 3.81928 3.12462
# Velocity P-wave (km/s) = 4.45934 6.79166 5.74510
#
# Compressibility (1/GPa) = 0.03019342
#
# Stress axis : x y z
#
# Youngs Moduli (GPa) = 39.34464 30.13092 17.20046
#
# Poissons Ratio (x) = -0.44475 0.45465
# Poissons Ratio (y) = -0.58076 0.54359
# Poissons Ratio (z) = 1.03997 0.95223
#
# Static dielectric constant tensor:
#      x y z
#    x 1.652400 -0.608390 1.347600 
#    y -0.608390 1.244310 1.693620 
#    z 1.347600 1.693620 -1.773720 
# 
# From -- ./inp_files/526137.got.cif
#   From: 2010.05.17/outbox.cif.g08.bks.cpg/sg2_264_cif.got.tgz:526137.got - 2010.06.03 11:33:40.
