data_PCOD9081006
_publ_section_title
;
Structure prediction by ZEFSAII (Michael W. Deem and Ramdas Pophale) SiO2 
 PCOD9081006
Probable space group: P -1
;
_chemical_formula_sum "Si O2"
_cell_formula_units_Z 16
_cell_length_a 9.129421
_cell_length_b 20.210963
_cell_length_c 9.826351
_cell_angle_alpha 134.054354
_cell_angle_beta 76.129676
_cell_angle_gamma 130.568170
_cell_volume 911.777523
_symmetry_space_group_name_H-M "P -1"
_symmetry_group_IT_number 2
_symmetry_cell_setting 'triclinic'
loop_
_space_group_symop_operation_xyz
x,y,z
-x,-y,-z
loop_
_atom_site_type_symbol
_atom_site_label
_atom_site_fract_x
_atom_site_fract_y
_atom_site_fract_z
Si Si1 0.244905 0.112252 0.946627
Si Si2 0.341072 0.318924 0.023404
Si Si3 0.230674 0.161671 0.313657
Si Si4 0.322256 0.003255 0.551609
Si Si5 0.911450 0.363148 0.794082
Si Si6 0.936653 0.717384 0.176185
Si Si7 0.559314 0.794087 0.384865
Si Si8 0.265218 0.389457 0.664209
O O1 0.276208 0.223030 0.021660
O O2 0.357782 0.082636 0.788146
O O3 0.316520 0.151884 0.142752
O O4 0.002100 0.977716 0.811896
O O5 0.147385 0.294854 0.970373
O O6 0.411184 0.280032 0.829194
O O7 0.531163 0.469152 0.226206
O O8 0.360216 0.195178 0.468499
O O9 0.233288 0.273400 0.449807
O O10 0.091609 0.861551 0.403132
O O11 0.500000 0.000000 0.500000
O O12 0.321962 0.070328 0.517595
O O13 0.680538 0.276174 0.665935
O O14 0.929454 0.316755 0.868048
O O15 0.059759 0.367236 0.665890
O O16 0.000000 0.500000 0.000000
O O17 0.739278 0.624526 0.189621
#
# Coordination Sequence:
#
# PCOD9081006 Si02
#       8
#     2   2   2   2   2   2   2   2
#     4  10  23  39  57  81 113 148 186 230 274 329
#     4  11  20  34  59  85 106 140 195 234 271 311
#     4  11  22  39  59  79 113 151 187 223 278 331
#     4  11  19  35  58  85 111 140 182 232 279 320
#     4  10  19  30  51  86 113 143 175 230 281 324
#     4  10  19  32  54  86 110 137 181 238 273 323
#     4  11  19  33  59  85 109 145 185 232 272 330
#     4  10  20  33  56  82 112 143 183 229 273 326
#
# _framework density 17.54814
#
# number of rings (size 3 to 8) (size 9 to 14) (size 15 to 20)
#    0.750    0.750    5.000    1.125    1.750    2.500 
#    0.000    0.625    2.750    0.750    0.000    0.000 
#    0.000    0.000    0.000    0.000    0.000    0.000 
#
# Total GULP energy -89089.679138 kJ/mol
# GULP energy per Si atom -5568.104946 kJ/mol
# Density = 1.750820 g / cm^3
# Si number density = 17.548140 Si / 1000 Ang^3
#
#
#
# Elastic Constant Matrix: (Units=GPa)
#
#
# Indices 1 2 3 4 5 6 
#
# 1 86.1700 28.0357 40.0514 -1.4228 -1.3811 -10.2364
# 2 28.0357 92.1180 59.4213 17.2376 -6.2052 -12.6279
# 3 40.0514 59.4213 66.8600 3.6091 -3.7114 -6.4584
# 4 -1.4228 17.2376 3.6091 40.3277 -1.1621 -3.3237
# 5 -1.3811 -6.2052 -3.7114 -1.1621 18.4780 6.2579
# 6 -10.2364 -12.6279 -6.4584 -3.3237 6.2579 17.6829
#
#
#
# Elastic Compliance Matrix: (Units=1/GPa)
#
#
# Indices 1 2 3 4 5 6 
#
# 1 0.017720 0.004660 -0.014028 0.000597 -0.003175 0.009698
# 2 0.004660 0.032134 -0.029558 -0.009854 0.000206 0.012925
# 3 -0.014028 -0.029558 0.048325 0.006967 0.003008 -0.011334
# 4 0.000597 -0.009854 0.006967 0.028507 -0.000548 0.001405
# 5 -0.003175 0.000206 0.003008 -0.000548 0.062212 -0.022712
# 6 0.009698 0.012925 -0.011334 0.001405 -0.022712 0.075558
#
#
# Mechanical properties :
#
#
# Convention : Reuss Voigt Hill
#
# Bulk Modulus (GPa) = 49.19658 55.57388 52.38523
# Shear Modulus (GPa) = 14.32321 23.14033 18.73177
#
# Velocity S-wave (km/s) = 2.86006 3.63530 3.27073
# Velocity P-wave (km/s) = 6.24521 7.02557 6.64685
#
# Compressibility (1/GPa) = 0.02032661
#
# Stress axis : x y z
#
# Youngs Moduli (GPa) = 56.43344 31.11983 20.69302
#
# Poissons Ratio (x) = -0.14501 0.29028
# Poissons Ratio (y) = -0.26296 0.61165
# Poissons Ratio (z) = 0.79164 0.91985
#
# Static dielectric constant tensor:
#      x y z
#    x 1.626410 0.063430 -0.001530 
#    y 0.063430 1.909810 0.092070 
#    z -0.001530 0.092070 1.604440 
# 
# From -- ./inp_files/218630.got.cif
#   From: 2010.05.17/outbox.cif.g08.bks.cpg/sg2_110_cif.got.tgz:218630.got - 2010.06.03 11:33:40.
