data_PCOD9081401
_publ_section_title
;
Structure prediction by ZEFSAII (Michael W. Deem and Ramdas Pophale) SiO2 
 PCOD9081401
Probable space group: P -1
;
_chemical_formula_sum "Si O2"
_cell_formula_units_Z 16
_cell_length_a 20.488955
_cell_length_b 8.883631
_cell_length_c 11.793832
_cell_angle_alpha 52.392949
_cell_angle_beta 129.286512
_cell_angle_gamma 149.102259
_cell_volume 841.017253
_symmetry_space_group_name_H-M "P -1"
_symmetry_group_IT_number 2
_symmetry_cell_setting 'triclinic'
loop_
_space_group_symop_operation_xyz
x,y,z
-x,-y,-z
loop_
_atom_site_type_symbol
_atom_site_label
_atom_site_fract_x
_atom_site_fract_y
_atom_site_fract_z
Si Si1 0.481461 0.435555 0.874283
Si Si2 0.788528 0.124550 0.105290
Si Si3 0.258303 0.312718 0.030559
Si Si4 0.831688 0.755010 0.289197
Si Si5 0.135654 0.718032 0.121632
Si Si6 0.879033 0.680617 0.958892
Si Si7 0.382356 0.658741 0.572293
Si Si8 0.873815 0.719483 0.664711
O O1 0.597026 0.514542 0.912085
O O2 0.457511 0.596336 0.716044
O O3 0.343588 0.087539 0.872175
O O4 0.500000 0.500000 0.000000
O O5 0.832513 0.980897 0.223786
O O6 0.759908 0.109970 0.946402
O O7 0.880909 0.458718 0.087271
O O8 0.243997 0.434337 0.060874
O O9 0.170654 0.969198 0.110451
O O10 0.206270 0.309245 0.855819
O O11 0.713087 0.457347 0.369571
O O12 0.985043 0.954940 0.373111
O O13 0.135515 0.518269 0.276030
O O14 0.000000 0.500000 0.000000
O O15 0.880155 0.716314 0.809303
O O16 0.000000 0.000000 0.000000
O O17 0.263331 0.424873 0.457956
O O18 0.500000 0.000000 0.500000
#
# Coordination Sequence:
#
# PCOD9081401 Si02
#       8
#     2   2   2   2   2   2   2   2
#     4  11  20  39  63  85 119 158 209 247 300 367
#     4   9  19  32  56  87 116 153 197 248 296 352
#     4  11  19  34  60  92 118 155 206 251 297 360
#     4  10  19  37  62  86 119 157 206 256 306 351
#     4  10  15  29  56  84 113 150 193 247 298 341
#     4  11  22  34  58  95 127 152 202 253 305 357
#     4  11  24  38  60  94 125 158 201 262 310 354
#     4  11  21  36  60  91 127 155 201 257 308 360
#
# _framework density 19.02458
#
# number of rings (size 3 to 8) (size 9 to 14) (size 15 to 20)
#    0.000    1.500    7.500    1.875    1.750    0.500 
#    0.000    0.625    0.000    7.500    0.000    0.000 
#    0.000    0.000    0.000    0.000    0.000    0.000 
#
# Total GULP energy -89074.983497 kJ/mol
# GULP energy per Si atom -5567.186469 kJ/mol
# Density = 1.898128 g / cm^3
# Si number density = 19.024580 Si / 1000 Ang^3
#
#
#
# Elastic Constant Matrix: (Units=GPa)
#
#
# Indices 1 2 3 4 5 6 
#
# 1 90.6164 31.2274 12.4651 -4.1389 -7.5352 21.7895
# 2 31.2274 94.0117 25.1476 -12.4028 -3.2281 27.1716
# 3 12.4651 25.1476 78.5123 2.4541 1.0692 12.1688
# 4 -4.1389 -12.4028 2.4541 28.7507 7.2965 -0.3225
# 5 -7.5352 -3.2281 1.0692 7.2965 23.7642 1.2597
# 6 21.7895 27.1716 12.1688 -0.3225 1.2597 44.4412
#
#
#
# Elastic Compliance Matrix: (Units=1/GPa)
#
#
# Indices 1 2 3 4 5 6 
#
# 1 0.013618 -0.002866 -0.000531 -0.000385 0.004331 -0.004905
# 2 -0.002866 0.015425 -0.003604 0.006544 -0.000291 -0.006983
# 3 -0.000531 -0.003604 0.014293 -0.002773 -0.000372 -0.001460
# 4 -0.000385 0.006544 -0.002773 0.040669 -0.011466 -0.002433
# 5 0.004331 -0.000291 -0.000372 -0.011466 0.047124 -0.003263
# 6 -0.004905 -0.006983 -0.001460 -0.002433 -0.003263 0.029650
#
#
# Mechanical properties :
#
#
# Convention : Reuss Voigt Hill
#
# Bulk Modulus (GPa) = 34.08891 44.53562 39.31227
# Shear Modulus (GPa) = 27.09160 32.34458 29.71809
#
# Velocity S-wave (km/s) = 3.77773 4.12776 3.95662
# Velocity P-wave (km/s) = 6.08157 6.79545 6.44840
#
# Compressibility (1/GPa) = 0.02933505
#
# Stress axis : x y z
#
# Youngs Moduli (GPa) = 73.43141 64.83159 69.96222
#
# Poissons Ratio (x) = 0.18580 0.03714
# Poissons Ratio (y) = 0.21044 0.25213
# Poissons Ratio (z) = 0.03898 0.23364
#
# Static dielectric constant tensor:
#      x y z
#    x 1.730520 0.074010 -0.002490 
#    y 0.074010 1.763500 -0.019070 
#    z -0.002490 -0.019070 1.685320 
# 
# From -- ./inp_files/468862.got.cif
#   From: 2010.05.17/outbox.cif.g08.bks.cpg/sg2_235_cif.got.tgz:468862.got - 2010.06.03 11:33:40.
