data_PCOD9081195
_publ_section_title
;
Structure prediction by ZEFSAII (Michael W. Deem and Ramdas Pophale) SiO2 
 PCOD9081195
Probable space group: P -1
;
_chemical_formula_sum "Si O2"
_cell_formula_units_Z 12
_cell_length_a 6.791337
_cell_length_b 14.504869
_cell_length_c 14.909263
_cell_angle_alpha 158.849639
_cell_angle_beta 116.696066
_cell_angle_gamma 66.656084
_cell_volume 472.253483
_symmetry_space_group_name_H-M "P -1"
_symmetry_group_IT_number 2
_symmetry_cell_setting 'triclinic'
loop_
_space_group_symop_operation_xyz
x,y,z
-x,-y,-z
loop_
_atom_site_type_symbol
_atom_site_label
_atom_site_fract_x
_atom_site_fract_y
_atom_site_fract_z
Si Si1 0.742076 0.254793 0.185769
Si Si2 0.242310 0.294358 0.283978
Si Si3 0.921217 0.655140 0.905344
Si Si4 0.492204 0.534873 0.834513
Si Si5 0.633605 0.988674 0.395336
Si Si6 0.933385 0.892424 0.533691
O O1 0.656624 0.442311 0.413772
O O2 0.691884 0.374860 0.188827
O O3 0.005427 0.250870 0.248619
O O4 0.640024 0.964010 0.905647
O O5 0.175640 0.312474 0.183694
O O6 0.716033 0.593272 0.874452
O O7 0.065051 0.407997 0.716322
O O8 0.041731 0.918244 0.204791
O O9 0.488965 0.233424 0.579538
O O10 0.519060 0.720777 0.094241
O O11 0.842300 0.048261 0.425301
O O12 0.740402 0.964183 0.492449
#
# Coordination Sequence:
#
# PCOD9081195 Si02
#       6
#     2   2   2   2   2   2
#     4  10  21  36  52  70  96 131 164 196 242 294
#     4  10  21  36  52  70  96 131 164 196 242 294
#     4  10  19  31  51  76  98 125 162 202 239 277
#     4  10  19  31  51  76  98 125 162 202 239 277
#     4   9  17  30  49  74 102 129 158 194 239 289
#     4   9  17  30  49  74 102 129 158 194 239 289
#
# _framework density 25.410083
#
# number of rings (size 3 to 8) (size 9 to 14) (size 15 to 20)
#    0.000    2.333    0.000    3.000    0.000    5.333 
#    0.000    0.000    0.000    6.000    0.000    0.000 
#    0.000    0.000    0.000    0.000    0.000    0.000 
#
# Total GULP energy -67249.919040 kJ/mol
# GULP energy per Si atom -5604.159920 kJ/mol
# Density = 2.535225 g / cm^3
# Si number density = 25.410083 Si / 1000 Ang^3
#
#
#
# Elastic Constant Matrix: (Units=GPa)
#
#
# Indices 1 2 3 4 5 6 
#
# 1 67.1085 0.8775 20.3982 10.1380 -3.2557 -7.2337
# 2 0.8775 153.8969 99.0970 6.5722 -7.0701 -3.1887
# 3 20.3982 99.0970 241.9278 6.1178 -6.3299 0.0693
# 4 10.1380 6.5722 6.1178 54.4143 -1.3702 -4.9065
# 5 -3.2557 -7.0701 -6.3299 -1.3702 26.3869 6.8966
# 6 -7.2337 -3.1887 0.0693 -4.9065 6.8966 40.3646
#
#
#
# Elastic Compliance Matrix: (Units=1/GPa)
#
#
# Indices 1 2 3 4 5 6 
#
# 1 0.016160 0.001278 -0.001789 -0.002712 0.001118 0.002479
# 2 0.001278 0.009015 -0.003741 -0.000815 0.001478 0.000596
# 3 -0.001789 -0.003741 0.005824 0.000078 0.000355 -0.000677
# 4 -0.002712 -0.000815 0.000078 0.019133 -0.000005 0.001776
# 5 0.001118 0.001478 0.000355 -0.000005 0.040230 -0.006558
# 6 0.002479 0.000596 -0.000677 0.001776 -0.006558 0.026603
#
#
# Mechanical properties :
#
#
# Convention : Reuss Voigt Hill
#
# Bulk Modulus (GPa) = 44.45463 78.18653 61.32058
# Shear Modulus (GPa) = 37.60349 47.07051 42.33700
#
# Velocity S-wave (km/s) = 3.85107 4.30866 4.08628
# Velocity P-wave (km/s) = 6.10796 7.45583 6.81530
#
# Compressibility (1/GPa) = 0.02249485
#
# Stress axis : x y z
#
# Youngs Moduli (GPa) = 61.88289 110.93052 171.69553
#
# Poissons Ratio (x) = -0.14181 0.30717
# Poissons Ratio (y) = -0.07911 0.64235
# Poissons Ratio (z) = 0.11071 0.41501
#
# Static dielectric constant tensor:
#      x y z
#    x 2.151680 -0.000050 0.003760 
#    y -0.000050 1.861050 0.021860 
#    z 0.003760 0.021860 1.965200 
# 
# From -- ./inp_files/20207.got.cif
#   From: 2010.05.17/outbox.cif.g08.bks.cpg/sg2_11_cif.got.tgz:20207.got - 2010.06.03 11:33:40.
