data_PCOD9081038
_publ_section_title
;
Structure prediction by ZEFSAII (Michael W. Deem and Ramdas Pophale) SiO2 
 PCOD9081038
Probable space group: P -1
;
_chemical_formula_sum "Si O2"
_cell_formula_units_Z 16
_cell_length_a 10.333377
_cell_length_b 12.218603
_cell_length_c 17.547901
_cell_angle_alpha 40.942141
_cell_angle_beta 30.648410
_cell_angle_gamma 53.479644
_cell_volume 730.109003
_symmetry_space_group_name_H-M "P -1"
_symmetry_group_IT_number 2
_symmetry_cell_setting 'triclinic'
loop_
_space_group_symop_operation_xyz
x,y,z
-x,-y,-z
loop_
_atom_site_type_symbol
_atom_site_label
_atom_site_fract_x
_atom_site_fract_y
_atom_site_fract_z
Si Si1 0.877777 0.840794 0.696726
Si Si2 0.516289 0.976365 0.915097
Si Si3 0.979763 0.598570 0.570748
Si Si4 0.003785 0.757331 0.320459
Si Si5 0.284047 0.205274 0.804687
Si Si6 0.063080 0.530539 0.735811
Si Si7 0.269106 0.017543 0.754934
Si Si8 0.506096 0.301358 0.166302
O O1 0.059408 0.702243 0.694141
O O2 0.643258 0.747161 0.812003
O O3 0.762051 0.907388 0.795869
O O4 0.000000 0.000000 0.500000
O O5 0.472136 0.139644 0.804074
O O6 0.500000 0.000000 0.000000
O O7 0.262195 0.836660 0.102894
O O8 0.056616 0.431800 0.581603
O O9 0.090395 0.598462 0.599717
O O10 0.677174 0.603637 0.738569
O O11 0.048312 0.742626 0.396062
O O12 0.792383 0.870680 0.344110
O O13 0.344965 0.142450 0.722558
O O14 0.259463 0.401788 0.719375
O O15 0.001632 0.099814 0.023031
O O16 0.781237 0.415089 0.951140
O O17 0.455878 0.880002 0.722596
#
# Coordination Sequence:
#
# PCOD9081038 Si02
#       8
#     2   2   2   2   2   2   2   2
#     4  11  23  37  58  86 116 153 193 233 278 344
#     4  11  23  38  59  79 116 156 189 224 286 353
#     4  10  19  30  54  86 116 139 178 242 292 324
#     4  10  20  34  54  85 118 141 183 240 293 328
#     4   9  17  34  58  85 104 144 193 238 277 331
#     4  10  19  36  64  83 110 145 199 240 279 332
#     4   9  16  31  57  84 109 138 188 245 281 324
#     4  10  19  34  61  84 110 147 198 235 282 333
#
# _framework density 21.914535999999998
#
# number of rings (size 3 to 8) (size 9 to 14) (size 15 to 20)
#    0.000    2.000    2.500    3.000    3.500    0.500 
#    0.000    1.250    5.500    0.000    0.000    0.000 
#    0.000    0.000    0.000    0.000    0.000    0.000 
#
# Total GULP energy -89324.555526 kJ/mol
# GULP energy per Si atom -5582.784720 kJ/mol
# Density = 2.186466 g / cm^3
# Si number density = 21.914536 Si / 1000 Ang^3
#
#
#
# Elastic Constant Matrix: (Units=GPa)
#
#
# Indices 1 2 3 4 5 6 
#
# 1 69.0338 51.2670 14.7407 -8.6740 31.7587 -19.5853
# 2 51.2670 158.3203 30.6659 -23.6737 28.9794 -28.1233
# 3 14.7407 30.6659 95.4229 -5.4392 17.9647 -7.6793
# 4 -8.6740 -23.6737 -5.4392 25.5916 -5.6450 16.0059
# 5 31.7587 28.9794 17.9647 -5.6450 34.7754 -8.4498
# 6 -19.5853 -28.1233 -7.6793 16.0059 -8.4498 32.3206
#
#
#
# Elastic Compliance Matrix: (Units=1/GPa)
#
#
# Indices 1 2 3 4 5 6 
#
# 1 0.031137 -0.004973 0.001785 -0.006313 -0.023325 0.011994
# 2 -0.004973 0.009631 -0.001618 0.005345 -0.001296 0.001997
# 3 0.001785 -0.001618 0.011968 -0.000406 -0.006268 0.001080
# 4 -0.006313 0.005345 -0.000406 0.060260 0.004516 -0.027933
# 5 -0.023325 -0.001296 -0.006268 0.004516 0.053920 -0.004891
# 6 0.011994 0.001997 0.001080 -0.027933 -0.004891 0.052757
#
#
# Mechanical properties :
#
#
# Convention : Reuss Voigt Hill
#
# Bulk Modulus (GPa) = 23.18841 57.34713 40.26777
# Shear Modulus (GPa) = 20.52049 33.61106 27.06578
#
# Velocity S-wave (km/s) = 3.06336 3.92054 3.51816
# Velocity P-wave (km/s) = 4.80796 6.83517 5.90915
#
# Compressibility (1/GPa) = 0.04312500
#
# Stress axis : x y z
#
# Youngs Moduli (GPa) = 32.11570 103.83061 83.55929
#
# Poissons Ratio (x) = 0.51630 -0.14912
# Poissons Ratio (y) = 0.15970 0.13516
# Poissons Ratio (z) = -0.05731 0.16795
#
# Static dielectric constant tensor:
#      x y z
#    x 1.828940 -0.002060 -0.063310 
#    y -0.002060 1.820670 -0.034130 
#    z -0.063310 -0.034130 1.845280 
# 
# From -- ./inp_files/568551.got.cif
#   From: 2010.05.17/outbox.cif.g08.bks.cpg/sg2_285_cif.got.tgz:568551.got - 2010.06.03 11:33:40.
