data_PCOD9081052
_publ_section_title
;
Structure prediction by ZEFSAII (Michael W. Deem and Ramdas Pophale) SiO2 
 PCOD9081052
Probable space group: P -1
;
_chemical_formula_sum "Si O2"
_cell_formula_units_Z 14
_cell_length_a 17.581210
_cell_length_b 8.797483
_cell_length_c 12.639905
_cell_angle_alpha 141.644686
_cell_angle_beta 32.842569
_cell_angle_gamma 150.032949
_cell_volume 518.029618
_symmetry_space_group_name_H-M "P -1"
_symmetry_group_IT_number 2
_symmetry_cell_setting 'triclinic'
loop_
_space_group_symop_operation_xyz
x,y,z
-x,-y,-z
loop_
_atom_site_type_symbol
_atom_site_label
_atom_site_fract_x
_atom_site_fract_y
_atom_site_fract_z
Si Si1 0.678667 0.614694 0.919095
Si Si2 0.212365 0.758462 0.331782
Si Si3 0.070457 0.347538 0.071804
Si Si4 0.419408 0.247096 0.194778
Si Si5 0.556876 0.222519 0.457029
Si Si6 0.197045 0.804260 0.013672
Si Si7 0.306213 0.239355 0.631147
O O1 0.608121 0.528540 0.075887
O O2 0.824463 0.966252 0.902989
O O3 0.500000 0.500000 0.000000
O O4 0.748883 0.413792 0.723305
O O5 0.389395 0.027093 0.205995
O O6 0.174189 0.965760 0.553983
O O7 0.088796 0.524312 0.254007
O O8 0.029600 0.489167 0.096857
O O9 0.245990 0.425030 0.853792
O O10 0.000000 0.000000 0.000000
O O11 0.347632 0.429592 0.421482
O O12 0.306788 0.016087 0.103949
O O13 0.677874 0.219199 0.225641
O O14 0.364236 0.099738 0.571146
O O15 0.500000 0.000000 0.500000
O O16 0.500000 0.500000 0.500000
#
# Coordination Sequence:
#
# PCOD9081052 Si02
#       7
#     2   2   2   2   2   2   2
#     4  10  19  30  55  90 129 162 187 251 326 372
#     4  11  23  38  62  92 129 168 210 260 315 378
#     4  11  26  46  66  88 124 177 222 257 310 377
#     4  10  19  32  53  86 126 165 191 246 318 374
#     4  12  22  33  57  95 132 156 194 254 318 377
#     4  10  21  37  57  88 125 161 206 255 309 372
#     4  12  23  38  65  99 126 159 211 267 319 377
#
# _framework density 27.025480000000002
#
# number of rings (size 3 to 8) (size 9 to 14) (size 15 to 20)
#    0.000    1.143    4.286    3.000    4.000    0.571 
#    0.000    0.714    0.000    0.857    0.000    0.000 
#    0.000    0.000    0.000    0.000    0.000    0.000 
#
# Total GULP energy -78015.417705 kJ/mol
# GULP energy per Si atom -5572.529836 kJ/mol
# Density = 2.696397 g / cm^3
# Si number density = 27.025480 Si / 1000 Ang^3
#
#
#
# Elastic Constant Matrix: (Units=GPa)
#
#
# Indices 1 2 3 4 5 6 
#
# 1 81.0355 54.5476 26.9018 12.7168 14.4581 -27.0412
# 2 54.5476 185.6132 33.3987 7.1395 28.5511 -54.0292
# 3 26.9018 33.3987 151.3703 39.3403 35.0705 17.9389
# 4 12.7168 7.1395 39.3403 56.3361 5.0124 13.6412
# 5 14.4581 28.5511 35.0705 5.0124 36.1774 8.5931
# 6 -27.0412 -54.0292 17.9389 13.6412 8.5931 62.6720
#
#
#
# Elastic Compliance Matrix: (Units=1/GPa)
#
#
# Indices 1 2 3 4 5 6 
#
# 1 0.018715 -0.001372 -0.001346 -0.004754 -0.006623 0.009220
# 2 -0.001372 0.010397 -0.000520 -0.002312 -0.009279 0.010296
# 3 -0.001346 -0.000520 0.010557 -0.005881 -0.008076 -0.001663
# 4 -0.004754 -0.002312 -0.005881 0.024642 0.008111 -0.008837
# 5 -0.006623 -0.009279 -0.008076 0.008111 0.048339 -0.016938
# 6 0.009220 0.010296 -0.001663 -0.008837 -0.016938 0.033532
#
#
# Mechanical properties :
#
#
# Convention : Reuss Voigt Hill
#
# Bulk Modulus (GPa) = 30.12626 71.96837 51.04731
# Shear Modulus (GPa) = 30.53926 51.24848 40.89387
#
# Velocity S-wave (km/s) = 3.36522 4.35938 3.89416
# Velocity P-wave (km/s) = 5.12554 7.21294 6.25690
#
# Compressibility (1/GPa) = 0.03319363
#
# Stress axis : x y z
#
# Youngs Moduli (GPa) = 53.43210 96.17712 94.72550
#
# Poissons Ratio (x) = 0.13199 0.12750
# Poissons Ratio (y) = 0.07333 0.04923
# Poissons Ratio (z) = 0.07192 0.04998
#
# Static dielectric constant tensor:
#      x y z
#    x 2.487580 -0.126730 -0.030860 
#    y -0.126730 2.324810 -0.004480 
#    z -0.030860 -0.004480 2.175890 
# 
# From -- ./inp_files/195197.got.cif
#   From: 2010.05.17/outbox.cif.g08.bks.cpg/sg2_98_cif.got.tgz:195197.got - 2010.06.03 11:33:40.
