data_PCOD9081724
_publ_section_title
;
Structure prediction by ZEFSAII (Michael W. Deem and Ramdas Pophale) SiO2 
 PCOD9081724
Probable space group: P -1
;
_chemical_formula_sum "Si O2"
_cell_formula_units_Z 16
_cell_length_a 12.430516
_cell_length_b 11.173962
_cell_length_c 9.234829
_cell_angle_alpha 50.644643
_cell_angle_beta 127.403935
_cell_angle_gamma 130.366474
_cell_volume 712.310512
_symmetry_space_group_name_H-M "P -1"
_symmetry_group_IT_number 2
_symmetry_cell_setting 'triclinic'
loop_
_space_group_symop_operation_xyz
x,y,z
-x,-y,-z
loop_
_atom_site_type_symbol
_atom_site_label
_atom_site_fract_x
_atom_site_fract_y
_atom_site_fract_z
Si Si1 0.934820 0.238879 0.254755
Si Si2 0.739919 0.994827 0.519467
Si Si3 0.464006 0.009995 0.185517
Si Si4 0.165808 0.749116 0.153061
Si Si5 0.270527 0.320131 0.383199
Si Si6 0.913941 0.548759 0.518751
Si Si7 0.996902 0.825083 0.184099
Si Si8 0.529174 0.286820 0.795875
O O1 0.096331 0.243771 0.344958
O O2 0.976723 0.375554 0.312685
O O3 0.813144 0.069512 0.362962
O O4 0.868541 0.276866 0.024716
O O5 0.588207 0.016470 0.394094
O O6 0.716813 0.799173 0.644648
O O7 0.857344 0.110580 0.643071
O O8 0.291808 0.938662 0.141318
O O9 0.455360 0.852767 0.193557
O O10 0.514821 0.190075 0.009306
O O11 0.211593 0.616893 0.380425
O O12 0.018057 0.736280 0.124523
O O13 0.379644 0.305101 0.609284
O O14 0.337991 0.522161 0.247165
O O15 0.000000 0.500000 0.500000
O O16 0.875259 0.691023 0.297627
O O17 0.000000 0.000000 0.000000
#
# Coordination Sequence:
#
# PCOD9081724 Si02
#       8
#     2   2   2   2   2   2   2   2
#     4  11  20  33  61  91 113 144 195 239 282 338
#     4  10  22  38  56  82 117 152 188 237 289 338
#     4  10  20  36  55  79 114 150 191 234 287 337
#     4  11  21  36  61  86 111 151 196 236 278 340
#     4  10  19  32  54  83 115 149 191 232 281 339
#     4   9  21  38  56  84 118 147 182 233 287 336
#     4  10  22  40  58  81 118 151 182 236 297 339
#     4   9  19  34  52  82 119 149 179 237 291 331
#
# _framework density 22.462115000000001
#
# number of rings (size 3 to 8) (size 9 to 14) (size 15 to 20)
#    0.000    2.000    0.000    4.500    0.000    5.500 
#    0.000    1.250    0.000    1.500    0.000    0.000 
#    0.000    0.000    0.000    0.000    0.000    0.000 
#
# Total GULP energy -89179.003261 kJ/mol
# GULP energy per Si atom -5573.687704 kJ/mol
# Density = 2.241099 g / cm^3
# Si number density = 22.462115 Si / 1000 Ang^3
#
#
#
# Elastic Constant Matrix: (Units=GPa)
#
#
# Indices 1 2 3 4 5 6 
#
# 1 52.4457 6.7541 36.8943 -1.3884 -4.2823 3.9816
# 2 6.7541 56.1428 21.7487 -19.4917 -4.8527 -7.0225
# 3 36.8943 21.7487 117.2578 -22.3947 -14.2996 -5.8209
# 4 -1.3884 -19.4917 -22.3947 45.6518 1.9351 2.2568
# 5 -4.2823 -4.8527 -14.2996 1.9351 31.3886 3.7255
# 6 3.9816 -7.0225 -5.8209 2.2568 3.7255 31.1374
#
#
#
# Elastic Compliance Matrix: (Units=1/GPa)
#
#
# Indices 1 2 3 4 5 6 
#
# 1 0.025757 -0.001709 -0.008793 -0.004014 0.000090 -0.005043
# 2 -0.001709 0.022186 -0.001594 0.008372 0.001463 0.004142
# 3 -0.008793 -0.001594 0.013192 0.005238 0.003958 0.002378
# 4 -0.004014 0.008372 0.005238 0.027813 0.001274 0.001212
# 5 0.000090 0.001463 0.003958 0.001274 0.034193 -0.003125
# 6 -0.005043 0.004142 0.002378 0.001212 -0.003125 0.034425
#
#
# Mechanical properties :
#
#
# Convention : Reuss Voigt Hill
#
# Bulk Modulus (GPa) = 27.06978 39.62672 33.34825
# Shear Modulus (GPa) = 25.76344 32.33219 29.04782
#
# Velocity S-wave (km/s) = 3.39037 3.79807 3.60000
# Velocity P-wave (km/s) = 5.23485 6.07566 5.67086
#
# Compressibility (1/GPa) = 0.03694156
#
# Stress axis : x y z
#
# Youngs Moduli (GPa) = 38.82400 45.07340 75.80438
#
# Poissons Ratio (x) = 0.07703 0.66658
# Poissons Ratio (y) = 0.06635 0.12086
# Poissons Ratio (z) = 0.34140 0.07186
#
# Static dielectric constant tensor:
#      x y z
#    x 1.918220 0.022460 0.009590 
#    y 0.022460 1.932760 -0.101510 
#    z 0.009590 -0.101510 1.893370 
# 
# From -- ./inp_files/261767.got.cif
#   From: 2010.05.17/outbox.cif.g08.bks.cpg/sg2_131_cif.got.tgz:261767.got - 2010.06.03 11:33:40.
