data_PCOD9081312
_publ_section_title
;
Structure prediction by ZEFSAII (Michael W. Deem and Ramdas Pophale) SiO2 
 PCOD9081312
Probable space group: P -1
;
_chemical_formula_sum "Si O2"
_cell_formula_units_Z 14
_cell_length_a 11.761276
_cell_length_b 6.927477
_cell_length_c 15.864006
_cell_angle_alpha 52.848489
_cell_angle_beta 39.530882
_cell_angle_gamma 56.126015
_cell_volume 644.947958
_symmetry_space_group_name_H-M "P -1"
_symmetry_group_IT_number 2
_symmetry_cell_setting 'triclinic'
loop_
_space_group_symop_operation_xyz
x,y,z
-x,-y,-z
loop_
_atom_site_type_symbol
_atom_site_label
_atom_site_fract_x
_atom_site_fract_y
_atom_site_fract_z
Si Si1 0.804679 0.658432 0.888036
Si Si2 0.539564 0.898513 0.340534
Si Si3 0.117344 0.303146 0.729714
Si Si4 0.449637 0.110900 0.164509
Si Si5 0.470253 0.574645 0.207023
Si Si6 0.788647 0.186275 0.843463
Si Si7 0.476415 0.395423 0.427396
O O1 0.995765 0.482042 0.817324
O O2 0.721296 0.719407 0.826084
O O3 0.816209 0.916845 0.856578
O O4 0.653443 0.548304 0.055153
O O5 0.553524 0.629712 0.356651
O O6 0.443610 0.842689 0.498098
O O7 0.746447 0.911450 0.243221
O O8 0.452762 0.087284 0.269557
O O9 0.975242 0.221178 0.768988
O O10 0.262104 0.435455 0.562610
O O11 0.451878 0.839947 0.195147
O O12 0.631886 0.189151 0.003176
O O13 0.300182 0.621229 0.228233
O O14 0.489528 0.381752 0.323198
#
# Coordination Sequence:
#
# PCOD9081312 Si02
#       7
#     2   2   2   2   2   2   2
#     4   9  18  33  55  80  97 127 177 214 242 292
#     4   8  16  32  53  70 101 144 169 190 259 316
#     4  10  19  31  54  82  98 130 172 213 249 290
#     4   8  15  31  50  71 103 138 162 201 256 303
#     4   8  15  31  50  71 103 138 162 201 256 303
#     4   9  18  31  51  78 109 127 163 214 262 290
#     4   8  16  32  53  70 101 144 169 190 259 316
#
# _framework density 21.707179
#
# number of rings (size 3 to 8) (size 9 to 14) (size 15 to 20)
#    0.857    2.571    0.000    1.714    0.000    3.429 
#    0.000   12.857    0.000   13.714    0.000    0.000 
#    0.000    0.000    0.000    0.000    0.000    0.000 
#
# Total GULP energy -78065.637600 kJ/mol
# GULP energy per Si atom -5576.116971 kJ/mol
# Density = 2.165777 g / cm^3
# Si number density = 21.707179 Si / 1000 Ang^3
#
#
#
# Elastic Constant Matrix: (Units=GPa)
#
#
# Indices 1 2 3 4 5 6 
#
# 1 -178.2568 -172.7450 -263.2902 -78.3158 -50.9285 185.7866
# 2 -172.7450 -57.4529 -188.0632 -40.8656 -34.9433 112.5285
# 3 -263.2902 -188.0632 -259.5692 -63.1681 -42.4680 171.2509
# 4 -78.3158 -40.8656 -63.1681 13.1832 -18.2020 41.0200
# 5 -50.9285 -34.9433 -42.4680 -18.2020 43.3431 29.9135
# 6 185.7866 112.5285 171.2509 41.0200 29.9135 -70.1832
#
#
#
# Elastic Compliance Matrix: (Units=1/GPa)
#
#
# Indices 1 2 3 4 5 6 
#
# 1 0.014645 -0.004503 -0.017879 0.008921 0.003510 -0.005367
# 2 -0.004503 0.014755 -0.001463 -0.004775 -0.000421 0.005197
# 3 -0.017879 -0.001463 0.035047 -0.019472 -0.009974 0.020210
# 4 0.008921 -0.004775 -0.019472 0.042344 0.007752 -0.003501
# 5 0.003510 -0.000421 -0.009974 0.007752 0.021683 -0.001946
# 6 -0.005367 0.005197 0.020210 -0.003501 -0.001946 0.026314
#
#
# Mechanical properties :
#
#
# Convention : Reuss Voigt Hill
#
# Bulk Modulus (GPa) = 59.67580 -193.71951 -67.02185
# Shear Modulus (GPa) = 24.03103 5.85657 14.94380
#
# Velocity S-wave (km/s) = 3.33085 1.64434 2.62664
# Velocity P-wave (km/s) = 6.50721 9.26449 4.66299
#
# Compressibility (1/GPa) = 0.01675721
#
# Stress axis : x y z
#
# Youngs Moduli (GPa) = 68.28314 67.77137 28.53328
#
# Poissons Ratio (x) = 0.30518 0.51014
# Poissons Ratio (y) = 0.30749 0.04175
# Poissons Ratio (z) = 1.22082 0.09916
#
# Static dielectric constant tensor:
#      x y z
#    x 1.802420 0.042960 0.061190 
#    y 0.042960 1.860030 -0.038670 
#    z 0.061190 -0.038670 1.759970 
# 
# From -- ./inp_files/250686.got.cif
#   From: 2010.05.17/outbox.cif.g08.bks.cpg/sg2_126_cif.got.tgz:250686.got - 2010.06.03 11:33:40.
