data_PCOD9081353
_publ_section_title
;
Structure prediction by ZEFSAII (Michael W. Deem and Ramdas Pophale) SiO2 
 PCOD9081353
Probable space group: P -1
;
_chemical_formula_sum "Si O2"
_cell_formula_units_Z 14
_cell_length_a 12.769365
_cell_length_b 15.320867
_cell_length_c 14.885370
_cell_angle_alpha 29.163469
_cell_angle_beta 61.354626
_cell_angle_gamma 37.842431
_cell_volume 619.050722
_symmetry_space_group_name_H-M "P -1"
_symmetry_group_IT_number 2
_symmetry_cell_setting 'triclinic'
loop_
_space_group_symop_operation_xyz
x,y,z
-x,-y,-z
loop_
_atom_site_type_symbol
_atom_site_label
_atom_site_fract_x
_atom_site_fract_y
_atom_site_fract_z
Si Si1 0.884459 0.566748 0.077258
Si Si2 0.377766 0.750216 0.653991
Si Si3 0.155779 0.691550 0.786138
Si Si4 0.064935 0.620605 0.342390
Si Si5 0.701988 0.337235 0.728067
Si Si6 0.836044 0.974019 0.829570
Si Si7 0.688550 0.638100 0.697633
O O1 0.732581 0.609853 0.051610
O O2 0.115752 0.184523 0.378953
O O3 0.760738 0.875382 0.913453
O O4 0.000000 0.500000 0.000000
O O5 0.350116 0.578413 0.842810
O O6 0.462795 0.664366 0.592444
O O7 0.580123 0.581966 0.780980
O O8 0.967007 0.889409 0.764426
O O9 0.000000 0.000000 0.500000
O O10 0.159799 0.650897 0.345195
O O11 0.279937 0.329659 0.444123
O O12 0.000000 0.500000 0.500000
O O13 0.858196 0.997806 0.032415
O O14 0.667637 0.299620 0.677149
O O15 0.067252 0.659077 0.082754
O O16 0.500000 0.000000 0.500000
#
# Coordination Sequence:
#
# PCOD9081353 Si02
#       7
#     2   2   2   2   2   2   2
#     4   9  18  36  57  74 106 155 189 228 284 330
#     4  10  19  36  56  81 120 141 186 243 280 343
#     4   9  20  36  55  78 106 150 193 232 280 330
#     4   9  19  36  54  77 125 160 178 222 289 353
#     4   9  20  36  54  86 115 150 189 233 287 340
#     4  10  19  36  58  81 116 145 186 237 287 342
#     4  10  19  31  55  89 111 141 186 228 284 340
#
# _framework density 22.615271
#
# number of rings (size 3 to 8) (size 9 to 14) (size 15 to 20)
#    0.000    2.571    1.429    0.857    0.000    2.857 
#    5.143    7.143    0.000    0.000    0.000    0.000 
#    0.000    0.000    0.000    0.000    0.000    0.000 
#
# Total GULP energy -77956.395309 kJ/mol
# GULP energy per Si atom -5568.313951 kJ/mol
# Density = 2.256380 g / cm^3
# Si number density = 22.615271 Si / 1000 Ang^3
#
#
#
# Elastic Constant Matrix: (Units=GPa)
#
#
# Indices 1 2 3 4 5 6 
#
# 1 138.3754 24.3626 21.5773 16.2919 -42.8273 18.1494
# 2 24.3626 64.7933 1.1016 -7.5971 -21.2936 25.4843
# 3 21.5773 1.1016 45.5311 -0.2587 -14.6550 9.2564
# 4 16.2919 -7.5971 -0.2587 26.2925 1.2520 -8.8406
# 5 -42.8273 -21.2936 -14.6550 1.2520 38.0682 4.3172
# 6 18.1494 25.4843 9.2564 -8.8406 4.3172 45.7024
#
#
#
# Elastic Compliance Matrix: (Units=1/GPa)
#
#
# Indices 1 2 3 4 5 6 
#
# 1 0.019222 0.008524 0.004528 -0.017468 0.030934 -0.019605
# 2 0.008524 0.036544 0.014134 -0.007119 0.039303 -0.031715
# 3 0.004528 0.014134 0.032568 -0.006524 0.028041 -0.020186
# 4 -0.017468 -0.007119 -0.006524 0.057016 -0.030990 0.026185
# 5 0.030934 0.039303 0.028041 -0.030990 0.101155 -0.055430
# 6 -0.019605 -0.031715 -0.020186 0.026185 -0.055430 0.061741
#
#
# Mechanical properties :
#
#
# Convention : Reuss Voigt Hill
#
# Bulk Modulus (GPa) = 7.00742 38.08698 22.54720
# Shear Modulus (GPa) = 16.58687 35.45651 26.02169
#
# Velocity S-wave (km/s) = 2.71114 3.96386 3.39577
# Velocity P-wave (km/s) = 3.59244 6.15040 5.03652
#
# Compressibility (1/GPa) = 0.14270588
#
# Stress axis : x y z
#
# Youngs Moduli (GPa) = 52.02336 27.36408 30.70531
#
# Poissons Ratio (x) = -0.23326 -0.13902
# Poissons Ratio (y) = -0.44347 -0.43398
# Poissons Ratio (z) = -0.23554 -0.38676
#
# Static dielectric constant tensor:
#      x y z
#    x 1.969800 -0.012370 -0.049440 
#    y -0.012370 1.804110 0.014740 
#    z -0.049440 0.014740 1.849010 
# 
# From -- ./inp_files/276236.got.cif
#   From: 2010.05.17/outbox.cif.g08.bks.cpg/sg2_139_cif.got.tgz:276236.got - 2010.06.03 11:33:40.
