data_PCOD9081574
_publ_section_title
;
Structure prediction by ZEFSAII (Michael W. Deem and Ramdas Pophale) SiO2 
 PCOD9081574
Probable space group: P -1
;
_chemical_formula_sum "Si O2"
_cell_formula_units_Z 12
_cell_length_a 10.268956
_cell_length_b 7.940026
_cell_length_c 12.039148
_cell_angle_alpha 36.224004
_cell_angle_beta 93.603465
_cell_angle_gamma 78.040185
_cell_volume 520.636985
_symmetry_space_group_name_H-M "P -1"
_symmetry_group_IT_number 2
_symmetry_cell_setting 'triclinic'
loop_
_space_group_symop_operation_xyz
x,y,z
-x,-y,-z
loop_
_atom_site_type_symbol
_atom_site_label
_atom_site_fract_x
_atom_site_fract_y
_atom_site_fract_z
Si Si1 0.095080 0.864812 0.687291
Si Si2 0.548225 0.222484 0.554936
Si Si3 0.820699 0.305933 0.540510
Si Si4 0.682034 0.967552 0.296938
Si Si5 0.718367 0.718289 0.092789
Si Si6 0.584746 0.320541 0.885046
O O1 0.171405 0.484276 0.888230
O O2 0.230104 0.952355 0.647462
O O3 0.000000 0.000000 0.500000
O O4 0.987432 0.051782 0.681768
O O5 0.500000 0.500000 0.500000
O O6 0.718599 0.125510 0.618600
O O7 0.479323 0.986905 0.707975
O O8 0.480079 0.356423 0.359277
O O9 0.769739 0.589514 0.476839
O O10 0.784381 0.522566 0.312674
O O11 0.669984 0.200675 0.068836
O O12 0.559005 0.731459 0.070693
O O13 0.687382 0.073775 0.928777
#
# Coordination Sequence:
#
# PCOD9081574 Si02
#       6
#     2   2   2   2   2   2
#     4  10  19  32  52  78 107 143 177 208 263 317
#     4   9  17  32  58  83 101 132 176 220 256 305
#     4   8  16  31  51  77 106 135 170 211 261 314
#     4  10  19  32  58  80 101 140 176 216 259 304
#     4   8  15  29  51  74 103 138 168 212 259 308
#     4   9  17  33  54  79 104 132 178 217 257 307
#
# _framework density 23.048687999999999
#
# number of rings (size 3 to 8) (size 9 to 14) (size 15 to 20)
#    0.000    3.000    0.000    3.500    0.000    0.667 
#    0.000    7.500    0.000   47.000    0.000    0.000 
#    0.000    0.000    0.000    0.000    0.000    0.000 
#
# Total GULP energy -66801.758399 kJ/mol
# GULP energy per Si atom -5566.813200 kJ/mol
# Density = 2.299623 g / cm^3
# Si number density = 23.048688 Si / 1000 Ang^3
#
#
#
# Elastic Constant Matrix: (Units=GPa)
#
#
# Indices 1 2 3 4 5 6 
#
# 1 53.4716 12.9654 24.7682 -14.2969 0.1940 3.2145
# 2 12.9654 59.9588 35.3412 -6.1758 6.5623 6.7520
# 3 24.7682 35.3412 83.6987 14.3656 0.8148 2.0720
# 4 -14.2969 -6.1758 14.3656 26.6023 -15.0730 9.4555
# 5 0.1940 6.5623 0.8148 -15.0730 26.7269 -8.0334
# 6 3.2145 6.7520 2.0720 9.4555 -8.0334 30.1080
#
#
#
# Elastic Compliance Matrix: (Units=1/GPa)
#
#
# Indices 1 2 3 4 5 6 
#
# 1 0.055914 0.017830 -0.038278 0.084137 0.036624 -0.023985
# 2 0.017830 0.034527 -0.027463 0.046337 0.012674 -0.018927
# 3 -0.038278 -0.027463 0.048277 -0.079634 -0.032359 0.023299
# 4 0.084137 0.046337 -0.079634 0.207654 0.091076 -0.054808
# 5 0.036624 0.012674 -0.032359 0.091076 0.083095 -0.010957
# 6 -0.023985 -0.018927 0.023299 -0.054808 -0.010957 0.052705
#
#
# Mechanical properties :
#
#
# Convention : Reuss Voigt Hill
#
# Bulk Modulus (GPa) = 23.31224 38.14208 30.72716
# Shear Modulus (GPa) = 8.44177 24.95772 16.69975
#
# Velocity S-wave (km/s) = 1.91586 3.29420 2.69465
# Velocity P-wave (km/s) = 3.87690 5.57256 4.80020
#
# Compressibility (1/GPa) = 0.04289592
#
# Stress axis : x y z
#
# Youngs Moduli (GPa) = 17.88462 28.96286 20.71370
#
# Poissons Ratio (x) = -0.51642 0.79289
# Poissons Ratio (y) = -0.31889 0.56886
# Poissons Ratio (z) = 0.68459 0.79541
#
# Static dielectric constant tensor:
#      x y z
#    x 1.870990 -0.067170 -0.006730 
#    y -0.067170 2.004870 -0.045720 
#    z -0.006730 -0.045720 1.906400 
# 
# From -- ./inp_files/151246.got.cif
#   From: 2010.05.17/outbox.cif.g08.bks.cpg/sg2_76_cif.got.tgz:151246.got - 2010.06.03 11:33:40.
