data_PCOD9081489
_publ_section_title
;
Structure prediction by ZEFSAII (Michael W. Deem and Ramdas Pophale) SiO2 
 PCOD9081489
Probable space group: P -1
;
_chemical_formula_sum "Si O2"
_cell_formula_units_Z 16
_cell_length_a 13.279726
_cell_length_b 8.636207
_cell_length_c 7.537911
_cell_angle_alpha 102.928772
_cell_angle_beta 85.523398
_cell_angle_gamma 131.657158
_cell_volume 626.550866
_symmetry_space_group_name_H-M "P -1"
_symmetry_group_IT_number 2
_symmetry_cell_setting 'triclinic'
loop_
_space_group_symop_operation_xyz
x,y,z
-x,-y,-z
loop_
_atom_site_type_symbol
_atom_site_label
_atom_site_fract_x
_atom_site_fract_y
_atom_site_fract_z
Si Si1 0.759018 0.502106 0.970114
Si Si2 0.109591 0.470766 0.692081
Si Si3 0.380979 0.290960 0.361574
Si Si4 0.093219 0.169676 0.378608
Si Si5 0.042140 0.840841 0.069657
Si Si6 0.671970 0.769693 0.024871
Si Si7 0.600867 0.041067 0.775377
Si Si8 0.336956 0.927994 0.798688
O O1 0.703602 0.620608 0.011628
O O2 0.679861 0.290472 0.812928
O O3 0.779498 0.483665 0.170874
O O4 0.914382 0.660921 0.922886
O O5 0.099888 0.359353 0.486382
O O6 0.183705 0.715971 0.716543
O O7 0.977115 0.300659 0.793361
O O8 0.500000 0.500000 0.500000
O O9 0.243587 0.250388 0.383736
O O10 0.424084 0.333369 0.158991
O O11 0.356106 0.078491 0.351910
O O12 0.023143 0.000895 0.183850
O O13 0.000000 0.000000 0.500000
O O14 0.187435 0.999541 0.003148
O O15 0.630223 0.854111 0.198045
O O16 0.448018 0.922170 0.708118
O O17 0.625329 0.040185 0.985592
#
# Coordination Sequence:
#
# PCOD9081489 Si02
#       8
#     2   2   2   2   2   2   2   2
#     4   9  18  32  51  73 103 135 156 209 251 298
#     4   8  16  29  51  74  97 130 160 209 253 282
#     4  10  20  34  55  74  98 134 168 208 249 301
#     4   9  16  32  51  78  97 126 173 206 238 295
#     4   8  17  30  51  73 101 132 163 203 247 297
#     4  10  19  32  50  77 100 130 171 200 251 299
#     4   9  18  33  48  72 101 129 167 202 252 292
#     4   9  17  30  48  72  99 129 165 210 242 294
#
# _framework density 25.536633999999999
#
# number of rings (size 3 to 8) (size 9 to 14) (size 15 to 20)
#    0.750    2.250    0.000    1.125    0.000    2.000 
#    4.500    0.625    0.000    3.750    0.000    0.000 
#    0.000    0.000    0.000    0.000    0.000    0.000 
#
# Total GULP energy -89098.498155 kJ/mol
# GULP energy per Si atom -5568.656135 kJ/mol
# Density = 2.547851 g / cm^3
# Si number density = 25.536634 Si / 1000 Ang^3
#
#
#
# Elastic Constant Matrix: (Units=GPa)
#
#
# Indices 1 2 3 4 5 6 
#
# 1 42.1919 25.3741 4.3234 11.8601 -3.0374 6.5756
# 2 25.3741 70.2121 26.6023 32.5258 6.8482 13.5336
# 3 4.3234 26.6023 107.1663 27.5275 9.9107 -6.6602
# 4 11.8601 32.5258 27.5275 47.6175 3.8819 -3.2865
# 5 -3.0374 6.8482 9.9107 3.8819 24.8205 14.7912
# 6 6.5756 13.5336 -6.6602 -3.2865 14.7912 31.9908
#
#
#
# Elastic Compliance Matrix: (Units=1/GPa)
#
#
# Indices 1 2 3 4 5 6 
#
# 1 0.032778 -0.010201 0.000340 -0.002943 0.012052 -0.008226
# 2 -0.010201 0.029610 -0.003856 -0.016734 0.003392 -0.014520
# 3 0.000340 -0.003856 0.012319 -0.003447 -0.007622 0.007296
# 4 -0.002943 -0.016734 -0.003447 0.036926 -0.009047 0.014943
# 5 0.012052 0.003392 -0.007622 -0.009047 0.067798 -0.037776
# 6 -0.008226 -0.014520 0.007296 0.014943 -0.037776 0.059612
#
#
# Mechanical properties :
#
#
# Convention : Reuss Voigt Hill
#
# Bulk Modulus (GPa) = 21.15422 36.90780 29.03101
# Shear Modulus (GPa) = 17.71564 31.77046 24.74305
#
# Velocity S-wave (km/s) = 2.63674 3.53103 3.11613
# Velocity P-wave (km/s) = 4.19186 5.57749 4.93357
#
# Compressibility (1/GPa) = 0.04727190
#
# Stress axis : x y z
#
# Youngs Moduli (GPa) = 30.50795 33.77182 81.17830
#
# Poissons Ratio (x) = 0.34452 -0.02760
# Poissons Ratio (y) = 0.31123 0.31305
# Poissons Ratio (z) = -0.01037 0.13024
#
# Static dielectric constant tensor:
#      x y z
#    x 2.029360 -0.064290 0.008540 
#    y -0.064290 2.252610 -0.084300 
#    z 0.008540 -0.084300 2.052420 
# 
# From -- ./inp_files/446407.got.cif
#   From: 2010.05.17/outbox.cif.g08.bks.cpg/sg2_224_cif.got.tgz:446407.got - 2010.06.03 11:33:40.
