data_PCOD9081129
_publ_section_title
;
Structure prediction by ZEFSAII (Michael W. Deem and Ramdas Pophale) SiO2 
 PCOD9081129
Probable space group: P -1
;
_chemical_formula_sum "Si O2"
_cell_formula_units_Z 16
_cell_length_a 10.309977
_cell_length_b 18.931667
_cell_length_c 13.388281
_cell_angle_alpha 31.167388
_cell_angle_beta 136.062562
_cell_angle_gamma 152.378356
_cell_volume 619.099032
_symmetry_space_group_name_H-M "P -1"
_symmetry_group_IT_number 2
_symmetry_cell_setting 'triclinic'
loop_
_space_group_symop_operation_xyz
x,y,z
-x,-y,-z
loop_
_atom_site_type_symbol
_atom_site_label
_atom_site_fract_x
_atom_site_fract_y
_atom_site_fract_z
Si Si1 0.917981 0.405696 0.456812
Si Si2 0.395369 0.691917 0.993276
Si Si3 0.482446 0.394109 0.213612
Si Si4 0.883907 0.212324 0.318147
Si Si5 0.700427 0.753460 0.417745
Si Si6 0.807846 0.037378 0.284130
Si Si7 0.630242 0.227776 0.893714
Si Si8 0.224525 0.325023 0.765362
O O1 0.645039 0.341084 0.351105
O O2 0.000000 0.500000 0.500000
O O3 0.151609 0.585547 0.289311
O O4 0.940287 0.252694 0.667176
O O5 0.318442 0.700536 0.051159
O O6 0.705142 0.796014 0.041498
O O7 0.161961 0.444689 0.146141
O O8 0.327307 0.782416 0.774853
O O9 0.143922 0.200218 0.270121
O O10 0.657851 0.558766 0.202643
O O11 0.500000 0.500000 0.000000
O O12 0.014317 0.178135 0.510588
O O13 0.757275 0.058346 0.342897
O O14 0.660883 0.852958 0.196736
O O15 0.446154 0.504634 0.586575
O O16 0.684634 0.831736 0.417962
O O17 0.678255 0.091914 0.082316
#
# Coordination Sequence:
#
# PCOD9081129 Si02
#       8
#     2   2   2   2   2   2   2   2
#     4   9  19  32  47  71 108 128 167 204 245 298
#     4   9  17  32  51  75 104 127 164 212 259 293
#     4  11  19  31  50  74 104 134 169 205 244 296
#     4   9  18  29  49  75 103 129 160 202 258 302
#     4  10  19  31  48  75 111 132 157 208 260 307
#     4  11  19  32  49  76 111 130 164 203 257 312
#     4  10  20  32  50  78 107 130 165 206 255 305
#     4   9  19  34  51  78 103 128 166 208 259 299
#
# _framework density 25.844007000000001
#
# number of rings (size 3 to 8) (size 9 to 14) (size 15 to 20)
#    0.000    2.250    3.750    0.750    0.000    4.500 
#    0.000    0.000    0.000    0.000    0.000   15.750 
#    0.000    0.000    0.000    0.000    0.000    0.000 
#
# Total GULP energy -89298.406429 kJ/mol
# GULP energy per Si atom -5581.150402 kJ/mol
# Density = 2.578519 g / cm^3
# Si number density = 25.844007 Si / 1000 Ang^3
#
#
#
# Elastic Constant Matrix: (Units=GPa)
#
#
# Indices 1 2 3 4 5 6 
#
# 1 72.7167 19.4708 47.2447 13.1417 34.1807 21.4456
# 2 19.4708 66.3348 50.6460 32.7489 15.4225 20.6797
# 3 47.2447 50.6460 170.5443 61.5112 62.0777 32.2072
# 4 13.1417 32.7489 61.5112 53.6685 18.5027 19.6548
# 5 34.1807 15.4225 62.0777 18.5027 62.0686 24.0202
# 6 21.4456 20.6797 32.2072 19.6548 24.0202 33.4118
#
#
#
# Elastic Compliance Matrix: (Units=1/GPa)
#
#
# Indices 1 2 3 4 5 6 
#
# 1 0.020571 -0.002357 -0.003016 0.004611 -0.006416 -0.006937
# 2 -0.002357 0.024288 -0.003495 -0.008786 0.004581 -0.008275
# 3 -0.003016 -0.003495 0.015419 -0.012714 -0.010849 0.004515
# 4 0.004611 -0.008786 -0.012714 0.040290 0.005292 -0.012771
# 5 -0.006416 0.004581 -0.010849 0.005292 0.033861 -0.015715
# 6 -0.006937 -0.008275 0.004515 -0.012771 -0.015715 0.053962
#
#
# Mechanical properties :
#
#
# Convention : Reuss Voigt Hill
#
# Bulk Modulus (GPa) = 23.50685 60.47986 41.99335
# Shear Modulus (GPa) = 22.69536 42.64541 32.67038
#
# Velocity S-wave (km/s) = 2.96660 4.06656 3.55933
# Velocity P-wave (km/s) = 4.56615 6.74551 5.75984
#
# Compressibility (1/GPa) = 0.04254080
#
# Stress axis : x y z
#
# Youngs Moduli (GPa) = 48.61151 41.17270 64.85407
#
# Poissons Ratio (x) = 0.09705 0.19561
# Poissons Ratio (y) = 0.11459 0.22669
# Poissons Ratio (z) = 0.14662 0.14391
#
# Static dielectric constant tensor:
#      x y z
#    x 2.119270 0.145940 0.079670 
#    y 0.145940 2.395780 0.117170 
#    z 0.079670 0.117170 2.124760 
# 
# From -- ./inp_files/337159.got.cif
#   From: 2010.05.17/outbox.cif.g08.bks.cpg/sg2_169_cif.got.tgz:337159.got - 2010.06.03 11:33:40.
