data_PCOD9081538
_publ_section_title
;
Structure prediction by ZEFSAII (Michael W. Deem and Ramdas Pophale) SiO2 
 PCOD9081538
Probable space group: P -1
;
_chemical_formula_sum "Si O2"
_cell_formula_units_Z 16
_cell_length_a 17.856206
_cell_length_b 15.204686
_cell_length_c 14.515805
_cell_angle_alpha 19.444142
_cell_angle_beta 50.919864
_cell_angle_gamma 41.028729
_cell_volume 799.921100
_symmetry_space_group_name_H-M "P -1"
_symmetry_group_IT_number 2
_symmetry_cell_setting 'triclinic'
loop_
_space_group_symop_operation_xyz
x,y,z
-x,-y,-z
loop_
_atom_site_type_symbol
_atom_site_label
_atom_site_fract_x
_atom_site_fract_y
_atom_site_fract_z
Si Si1 0.696416 0.193732 0.212139
Si Si2 0.125347 0.861495 0.315402
Si Si3 0.843476 0.851708 0.683945
Si Si4 0.138276 0.352733 0.929775
Si Si5 0.861059 0.821514 0.302580
Si Si6 0.830883 0.359926 0.069952
Si Si7 0.471018 0.264220 0.340989
Si Si8 0.241007 0.509154 0.380517
O O1 0.743422 0.377426 0.044056
O O2 0.596207 0.192431 0.345091
O O3 0.816633 0.855063 0.409550
O O4 0.618286 0.385706 0.990624
O O5 0.192767 0.663649 0.365745
O O6 0.159536 0.097146 0.087841
O O7 0.164305 0.596310 0.628885
O O8 0.975829 0.095417 0.190983
O O9 0.802940 0.831908 0.836443
O O10 0.810991 0.198360 0.332501
O O11 0.806434 0.697193 0.789320
O O12 0.991616 0.596423 0.819720
O O13 0.787233 0.744079 0.372280
O O14 0.000000 0.500000 0.500000
O O15 0.835321 0.164918 0.950787
O O16 0.385109 0.306567 0.447479
O O17 0.500000 0.000000 0.500000
#
# Coordination Sequence:
#
# PCOD9081538 Si02
#       8
#     2   2   2   2   2   2   2   2
#     4  10  22  36  55  78 105 145 183 229 270 306
#     4  10  19  32  51  80 110 138 170 217 262 323
#     4   9  18  31  50  78 108 143 168 206 261 327
#     4   9  17  32  51  74 112 143 168 201 264 328
#     4  11  22  35  53  77 111 143 171 216 278 328
#     4  10  20  31  51  81 110 133 175 219 263 318
#     4  10  21  40  56  72 104 146 191 232 261 309
#     4  11  22  36  54  78 105 141 187 221 261 316
#
# _framework density 20.001973
#
# number of rings (size 3 to 8) (size 9 to 14) (size 15 to 20)
#    0.000    2.000    1.250    2.625    1.750    6.000 
#    0.000    0.000    0.000    0.000    0.000    5.250 
#    0.000    0.000    0.000    0.000    0.000    0.000 
#
# Total GULP energy -89261.349539 kJ/mol
# GULP energy per Si atom -5578.834346 kJ/mol
# Density = 1.995645 g / cm^3
# Si number density = 20.001973 Si / 1000 Ang^3
#
#
#
# Elastic Constant Matrix: (Units=GPa)
#
#
# Indices 1 2 3 4 5 6 
#
# 1 29.4345 23.0943 -8.5517 -0.4617 7.4941 -6.7137
# 2 23.0943 79.5700 -5.3888 1.6147 10.3692 -12.0046
# 3 -8.5517 -5.3888 41.1135 -3.9144 -3.2667 -8.3531
# 4 -0.4617 1.6147 -3.9144 14.5847 4.0541 0.5398
# 5 7.4941 10.3692 -3.2667 4.0541 23.2655 3.1186
# 6 -6.7137 -12.0046 -8.3531 0.5398 3.1186 23.8657
#
#
#
# Elastic Compliance Matrix: (Units=1/GPa)
#
#
# Indices 1 2 3 4 5 6 
#
# 1 0.053419 -0.010555 0.012719 0.009727 -0.014536 0.015850
# 2 -0.010555 0.017388 0.000986 -0.000864 -0.004971 0.006791
# 3 0.012719 0.000986 0.030728 0.009044 -0.003825 0.015124
# 4 0.009727 -0.000864 0.009044 0.075463 -0.015402 0.005773
# 5 -0.014536 -0.004971 -0.003825 -0.015402 0.053988 -0.014635
# 6 0.015850 0.006791 0.015124 0.005773 -0.014635 0.056851
#
#
# Mechanical properties :
#
#
# Convention : Reuss Voigt Hill
#
# Bulk Modulus (GPa) = 9.27337 18.71395 13.99366
# Shear Modulus (GPa) = 15.74897 21.74082 18.74489
#
# Velocity S-wave (km/s) = 2.80906 3.30044 3.06462
# Velocity P-wave (km/s) = 3.89453 4.88879 4.41971
#
# Compressibility (1/GPa) = 0.10783562
#
# Stress axis : x y z
#
# Youngs Moduli (GPa) = 18.71995 57.51221 32.54386
#
# Poissons Ratio (x) = 0.60702 -0.41393
# Poissons Ratio (y) = 0.19758 -0.03209
# Poissons Ratio (z) = -0.23810 -0.05672
#
# Static dielectric constant tensor:
#      x y z
#    x 1.714580 -0.013260 0.034270 
#    y -0.013260 1.770850 0.025210 
#    z 0.034270 0.025210 1.771340 
# 
# From -- ./inp_files/66205.got.cif
#   From: 2010.05.17/outbox.cif.g08.bks.cpg/sg2_34_cif.got.tgz:66205.got - 2010.06.03 11:33:40.
