data_PCOD9081098
_publ_section_title
;
Structure prediction by ZEFSAII (Michael W. Deem and Ramdas Pophale) SiO2 
 PCOD9081098
Probable space group: P -1
;
_chemical_formula_sum "Si O2"
_cell_formula_units_Z 16
_cell_length_a 12.277096
_cell_length_b 7.976966
_cell_length_c 10.833158
_cell_angle_alpha 62.660333
_cell_angle_beta 87.685655
_cell_angle_gamma 47.456793
_cell_volume 632.437384
_symmetry_space_group_name_H-M "P -1"
_symmetry_group_IT_number 2
_symmetry_cell_setting 'triclinic'
loop_
_space_group_symop_operation_xyz
x,y,z
-x,-y,-z
loop_
_atom_site_type_symbol
_atom_site_label
_atom_site_fract_x
_atom_site_fract_y
_atom_site_fract_z
Si Si1 0.240891 0.026710 0.424215
Si Si2 0.868057 0.551748 0.911007
Si Si3 0.844546 0.206762 0.650403
Si Si4 0.618282 0.968187 0.087389
Si Si5 0.882772 0.517250 0.391892
Si Si6 0.822274 0.053252 0.965764
Si Si7 0.343123 0.883357 0.723023
Si Si8 0.784871 0.320890 0.131617
O O1 0.237331 0.185328 0.262662
O O2 0.365106 0.906699 0.570867
O O3 0.833045 0.794522 0.340703
O O4 0.249368 0.811131 0.433048
O O5 0.767657 0.555967 0.008796
O O6 0.000000 0.500000 0.000000
O O7 0.991713 0.257184 0.931143
O O8 0.834539 0.434837 0.529992
O O9 0.797292 0.205609 0.791310
O O10 0.037985 0.915801 0.733243
O O11 0.754214 0.652269 0.242369
O O12 0.556902 0.153705 0.155562
O O13 0.706202 0.020314 0.988426
O O14 0.500000 0.000000 0.000000
O O15 0.059841 0.268750 0.410847
O O16 0.791359 0.204347 0.039917
O O17 0.335079 0.666547 0.796389
#
# Coordination Sequence:
#
# PCOD9081098 Si02
#       8
#     2   2   2   2   2   2   2   2
#     4  12  19  31  49  83 117 132 166 200 262 334
#     4  11  19  29  46  80 113 142 158 194 263 322
#     4  11  21  29  48  82 115 137 156 207 269 320
#     4   9  20  38  58  72  93 136 191 226 247 289
#     4  10  21  32  52  77 104 143 168 205 265 304
#     4  10  20  33  50  75 104 140 175 212 250 307
#     4   9  21  33  53  77 104 137 176 214 256 307
#     4  10  19  31  46  72 113 140 167 200 250 315
#
# _framework density 25.298946999999998
#
# number of rings (size 3 to 8) (size 9 to 14) (size 15 to 20)
#    0.750    1.000    5.000    2.250    3.500    0.000 
#    0.000    0.625    0.000    1.500    0.000    0.000 
#    0.000    0.000    0.000    0.000    0.000    0.000 
#
# Total GULP energy -89406.664946 kJ/mol
# GULP energy per Si atom -5587.916559 kJ/mol
# Density = 2.524137 g / cm^3
# Si number density = 25.298947 Si / 1000 Ang^3
#
#
#
# Elastic Constant Matrix: (Units=GPa)
#
#
# Indices 1 2 3 4 5 6 
#
# 1 112.6364 11.5395 77.0874 -8.0857 -4.1927 39.3062
# 2 11.5395 50.5085 11.2867 -0.1844 -2.5270 4.6863
# 3 77.0874 11.2867 171.4416 13.5908 -22.2445 21.8289
# 4 -8.0857 -0.1844 13.5908 28.4646 22.2130 3.0528
# 5 -4.1927 -2.5270 -22.2445 22.2130 45.5442 -5.8595
# 6 39.3062 4.6863 21.8289 3.0528 -5.8595 29.5142
#
#
#
# Elastic Compliance Matrix: (Units=1/GPa)
#
#
# Indices 1 2 3 4 5 6 
#
# 1 0.088545 -0.003111 -0.048307 0.136033 -0.096754 -0.114980
# 2 -0.003111 0.020391 0.000539 -0.003518 0.003013 0.001469
# 3 -0.048307 0.000539 0.034593 -0.084512 0.061363 0.059587
# 4 0.136033 -0.003518 -0.084512 0.282779 -0.190696 -0.185209
# 5 -0.096754 0.003013 0.061363 -0.190696 0.153326 0.133157
# 6 -0.114980 0.001469 0.059587 -0.185209 0.133157 0.188298
#
#
# Mechanical properties :
#
#
# Convention : Reuss Voigt Hill
#
# Bulk Modulus (GPa) = 23.93962 59.37929 41.65945
# Shear Modulus (GPa) = 5.65859 36.34944 21.00402
#
# Velocity S-wave (km/s) = 1.49718 3.79462 2.88450
# Velocity P-wave (km/s) = 3.53157 6.53612 5.25323
#
# Compressibility (1/GPa) = 0.04177176
#
# Stress axis : x y z
#
# Youngs Moduli (GPa) = 11.29368 49.04234 28.90798
#
# Poissons Ratio (x) = 0.15256 1.39644
# Poissons Ratio (y) = 0.03513 -0.01559
# Poissons Ratio (z) = 0.54556 -0.02644
#
# Static dielectric constant tensor:
#      x y z
#    x 2.009570 0.015310 0.028470 
#    y 0.015310 2.161620 -0.028310 
#    z 0.028470 -0.028310 2.065870 
# 
# From -- ./inp_files/416570.got.cif
#   From: 2010.05.17/outbox.cif.g08.bks.cpg/sg2_209_cif.got.tgz:416570.got - 2010.06.03 11:33:40.
