data_PCOD9081389
_publ_section_title
;
Structure prediction by ZEFSAII (Michael W. Deem and Ramdas Pophale) SiO2 
 PCOD9081389
Probable space group: P -1
;
_chemical_formula_sum "Si O2"
_cell_formula_units_Z 14
_cell_length_a 13.905612
_cell_length_b 11.470100
_cell_length_c 13.974873
_cell_angle_alpha 59.917374
_cell_angle_beta 147.220849
_cell_angle_gamma 144.684602
_cell_volume 563.011877
_symmetry_space_group_name_H-M "P -1"
_symmetry_group_IT_number 2
_symmetry_cell_setting 'triclinic'
loop_
_space_group_symop_operation_xyz
x,y,z
-x,-y,-z
loop_
_atom_site_type_symbol
_atom_site_label
_atom_site_fract_x
_atom_site_fract_y
_atom_site_fract_z
Si Si1 0.217259 0.298882 0.483908
Si Si2 0.105196 0.263357 0.761585
Si Si3 0.762415 0.524417 0.402418
Si Si4 0.108955 0.013998 0.983248
Si Si5 0.510143 0.798761 0.202291
Si Si6 0.164515 0.852485 0.945614
Si Si7 0.788558 0.414656 0.160682
O O1 0.405975 0.492197 0.649839
O O2 0.386044 0.263212 0.622951
O O3 0.856239 0.054946 0.333351
O O4 0.131017 0.323451 0.305708
O O5 0.035062 0.258514 0.595588
O O6 0.052473 0.353021 0.752883
O O7 0.500000 0.500000 0.000000
O O8 0.974236 0.039238 0.784370
O O9 0.504941 0.280197 0.221945
O O10 0.977228 0.558359 0.627648
O O11 0.058086 0.836205 0.967158
O O12 0.000000 0.000000 0.000000
O O13 0.337081 0.817375 0.097844
O O14 0.273938 0.608330 0.994160
O O15 0.436376 0.139427 0.022240
#
# Coordination Sequence:
#
# PCOD9081389 Si02
#       7
#     2   2   2   2   2   2   2
#     4  10  20  32  60  95 126 155 189 250 314 361
#     4  10  20  34  60  87 116 154 204 246 299 355
#     4  11  20  37  64  92 119 156 200 253 306 354
#     4  11  26  43  58  82 124 168 206 249 299 359
#     4  10  19  31  56  95 134 148 188 252 317 354
#     4  11  20  37  58  92 129 152 198 252 307 356
#     4  11  18  34  59  98 122 149 195 258 305 361
#
# _framework density 24.86626
#
# number of rings (size 3 to 8) (size 9 to 14) (size 15 to 20)
#    0.000    1.429    5.714    3.000    4.000    0.000 
#    0.000    1.429    0.000    1.714    0.000    0.000 
#    0.000    0.000    0.000    0.000    0.000    0.000 
#
# Total GULP energy -78224.304979 kJ/mol
# GULP energy per Si atom -5587.450356 kJ/mol
# Density = 2.480966 g / cm^3
# Si number density = 24.866260 Si / 1000 Ang^3
#
#
#
# Elastic Constant Matrix: (Units=GPa)
#
#
# Indices 1 2 3 4 5 6 
#
# 1 185.3451 53.6514 67.6855 -24.8857 -2.2154 -38.5699
# 2 53.6514 53.9553 38.3821 -15.9888 10.9851 -17.7983
# 3 67.6855 38.3821 129.3732 -37.7037 -8.5734 -21.6694
# 4 -24.8857 -15.9888 -37.7037 38.8737 -19.5199 7.7165
# 5 -2.2154 10.9851 -8.5734 -19.5199 34.3001 -1.9018
# 6 -38.5699 -17.7983 -21.6694 7.7165 -1.9018 42.8424
#
#
#
# Elastic Compliance Matrix: (Units=1/GPa)
#
#
# Indices 1 2 3 4 5 6 
#
# 1 0.009251 -0.007432 -0.000004 0.004998 0.006077 0.004608
# 2 -0.007432 0.035849 -0.011179 -0.012488 -0.021649 0.003836
# 3 -0.000004 -0.011179 0.021296 0.028223 0.025084 0.002154
# 4 0.004998 -0.012488 0.028223 0.079191 0.056545 0.001834
# 5 0.006077 -0.021649 0.025084 0.056545 0.075058 0.002312
# 6 0.004608 0.003836 0.002154 0.001834 0.002312 0.029946
#
#
# Mechanical properties :
#
#
# Convention : Reuss Voigt Hill
#
# Bulk Modulus (GPa) = 34.28527 76.45684 55.37106
# Shear Modulus (GPa) = 16.80441 37.13354 26.96897
#
# Velocity S-wave (km/s) = 2.60242 3.86856 3.29684
# Velocity P-wave (km/s) = 4.77995 7.12519 6.06697
#
# Compressibility (1/GPa) = 0.02916705
#
# Stress axis : x y z
#
# Youngs Moduli (GPa) = 108.10002 27.89497 46.95671
#
# Poissons Ratio (x) = 0.20731 0.00017
# Poissons Ratio (y) = 0.80339 0.52492
# Poissons Ratio (z) = 0.00040 0.31183
#
# Static dielectric constant tensor:
#      x y z
#    x 2.305600 -0.086630 -0.046850 
#    y -0.086630 2.127320 0.099370 
#    z -0.046850 0.099370 1.956690 
# 
# From -- ./inp_files/213818.got.cif
#   From: 2010.05.17/outbox.cif.g08.bks.cpg/sg2_107_cif.got.tgz:213818.got - 2010.06.03 11:33:40.
