data_PCOD9081706
_publ_section_title
;
Structure prediction by ZEFSAII (Michael W. Deem and Ramdas Pophale) SiO2 
 PCOD9081706
Probable space group: P -1
;
_chemical_formula_sum "Si O2"
_cell_formula_units_Z 16
_cell_length_a 11.386270
_cell_length_b 11.790478
_cell_length_c 16.988344
_cell_angle_alpha 135.352734
_cell_angle_beta 147.291922
_cell_angle_gamma 55.730356
_cell_volume 862.243236
_symmetry_space_group_name_H-M "P -1"
_symmetry_group_IT_number 2
_symmetry_cell_setting 'triclinic'
loop_
_space_group_symop_operation_xyz
x,y,z
-x,-y,-z
loop_
_atom_site_type_symbol
_atom_site_label
_atom_site_fract_x
_atom_site_fract_y
_atom_site_fract_z
Si Si1 0.664424 0.277886 0.489414
Si Si2 0.735794 0.174907 0.145884
Si Si3 0.048345 0.979373 0.425304
Si Si4 0.340350 0.312781 0.726401
Si Si5 0.232363 0.378011 0.357180
Si Si6 0.385599 0.891121 0.791622
Si Si7 0.163751 0.374579 0.496774
Si Si8 0.750568 0.362676 0.090772
O O1 0.425892 0.271707 0.390746
O O2 0.742559 0.464252 0.606727
O O3 0.642191 0.197271 0.350634
O O4 0.829174 0.183468 0.588555
O O5 0.648402 0.220253 0.205158
O O6 0.667273 0.277616 0.083184
O O7 0.997764 0.209963 0.313750
O O8 0.616853 0.996600 0.977773
O O9 0.210893 0.136487 0.572733
O O10 0.815314 0.993144 0.259193
O O11 0.000000 0.000000 0.500000
O O12 0.336524 0.358682 0.655175
O O13 0.219566 0.446319 0.774617
O O14 0.575507 0.325246 0.905676
O O15 0.250245 0.418799 0.480691
O O16 0.983216 0.304138 0.171515
O O17 0.000000 0.500000 0.500000
#
# Coordination Sequence:
#
# PCOD9081706 Si02
#       8
#     2   2   2   2   2   2   2   2
#     4  10  21  37  57  80 113 147 187 220 282 329
#     4  10  19  32  55  87 109 141 184 225 275 325
#     4  10  19  32  54  80 111 143 176 228 274 315
#     4  11  20  33  56  86 110 139 185 230 280 316
#     4  10  21  37  60  81 106 151 188 224 270 339
#     4  10  19  33  56  84 114 142 182 232 273 322
#     4  11  19  36  59  83 111 143 187 230 273 319
#     4  10  20  33  55  86 108 139 185 233 271 321
#
# _framework density 18.556249999999999
#
# number of rings (size 3 to 8) (size 9 to 14) (size 15 to 20)
#    0.000    1.750    3.750    3.750    0.000    1.000 
#    0.000    6.250    5.500    1.500    0.000    0.000 
#    0.000    0.000    0.000    0.000    0.000    0.000 
#
# Total GULP energy -89125.857389 kJ/mol
# GULP energy per Si atom -5570.366087 kJ/mol
# Density = 1.851401 g / cm^3
# Si number density = 18.556250 Si / 1000 Ang^3
#
#
#
# Elastic Constant Matrix: (Units=GPa)
#
#
# Indices 1 2 3 4 5 6 
#
# 1 70.8279 37.1989 9.9259 -19.3904 6.6298 5.8534
# 2 37.1989 78.9973 20.2652 -21.4586 3.9305 5.0523
# 3 9.9259 20.2652 73.6124 -25.2124 -4.1152 9.4330
# 4 -19.3904 -21.4586 -25.2124 32.9596 9.5833 -0.1213
# 5 6.6298 3.9305 -4.1152 9.5833 24.2266 -6.2203
# 6 5.8534 5.0523 9.4330 -0.1213 -6.2203 30.1110
#
#
#
# Elastic Compliance Matrix: (Units=1/GPa)
#
#
# Indices 1 2 3 4 5 6 
#
# 1 0.023338 -0.006457 0.004645 0.016880 -0.013168 -0.007561
# 2 -0.006457 0.019031 -0.001099 0.009477 -0.005972 -0.002789
# 3 0.004645 -0.001099 0.020878 0.020224 -0.007803 -0.008789
# 4 0.016880 0.009477 0.020224 0.072324 -0.036045 -0.018362
# 5 -0.013168 -0.005972 -0.007803 -0.036045 0.063664 0.019013
# 6 -0.007561 -0.002789 -0.008789 -0.018362 0.019013 0.041755
#
#
# Mechanical properties :
#
#
# Convention : Reuss Voigt Hill
#
# Bulk Modulus (GPa) = 17.41439 39.80195 28.60817
# Shear Modulus (GPa) = 18.80031 27.86262 23.33146
#
# Velocity S-wave (km/s) = 3.18646 3.87915 3.54974
# Velocity P-wave (km/s) = 4.78989 6.44668 5.67903
#
# Compressibility (1/GPa) = 0.05742376
#
# Stress axis : x y z
#
# Youngs Moduli (GPa) = 42.84918 52.54588 47.89798
#
# Poissons Ratio (x) = 0.33929 -0.22248
# Poissons Ratio (y) = 0.27668 0.05264
# Poissons Ratio (z) = -0.19903 0.05775
#
# Static dielectric constant tensor:
#      x y z
#    x 1.644190 0.014690 0.011150 
#    y 0.014690 1.698850 0.010060 
#    z 0.011150 0.010060 1.666950 
# 
# From -- ./inp_files/435303.got.cif
#   From: 2010.05.17/outbox.cif.g08.bks.cpg/sg2_218_cif.got.tgz:435303.got - 2010.06.03 11:33:40.
