data_PCOD9081246
_publ_section_title
;
Structure prediction by ZEFSAII (Michael W. Deem and Ramdas Pophale) SiO2 
 PCOD9081246
Probable space group: P -1
;
_chemical_formula_sum "Si O2"
_cell_formula_units_Z 14
_cell_length_a 9.219496
_cell_length_b 9.170506
_cell_length_c 9.197337
_cell_angle_alpha 85.460682
_cell_angle_beta 89.604257
_cell_angle_gamma 63.469867
_cell_volume 693.193423
_symmetry_space_group_name_H-M "P -1"
_symmetry_group_IT_number 2
_symmetry_cell_setting 'triclinic'
loop_
_space_group_symop_operation_xyz
x,y,z
-x,-y,-z
loop_
_atom_site_type_symbol
_atom_site_label
_atom_site_fract_x
_atom_site_fract_y
_atom_site_fract_z
Si Si1 0.109961 0.050740 0.223377
Si Si2 0.590142 0.459611 0.158594
Si Si3 0.313433 0.094666 0.467839
Si Si4 0.957425 0.386695 0.112353
Si Si5 0.718596 0.305343 0.684666
Si Si6 0.768952 0.153503 0.371622
Si Si7 0.132055 0.446390 0.379875
O O1 0.253069 0.060289 0.315861
O O2 0.043488 0.191896 0.090398
O O3 0.951103 0.109136 0.323408
O O4 0.180590 0.858350 0.207560
O O5 0.765343 0.455936 0.132968
O O6 0.463127 0.593095 0.259865
O O7 0.643932 0.280019 0.245865
O O8 0.500000 0.500000 0.000000
O O9 0.273751 0.282562 0.455417
O O10 0.500000 0.000000 0.500000
O O11 0.235713 0.018920 0.591602
O O12 0.045779 0.397019 0.256941
O O13 0.000000 0.500000 0.000000
O O14 0.728620 0.244049 0.522067
O O15 0.805077 0.424043 0.677291
O O16 0.000000 0.500000 0.500000
#
# Coordination Sequence:
#
# PCOD9081246 Si02
#       7
#     2   2   2   2   2   2   2
#     4   9  20  38  59  83 114 152 191 230 283 347
#     4  11  23  38  58  86 117 153 193 238 288 339
#     4  10  19  31  52  83 115 143 179 231 281 322
#     4  10  22  42  60  78 114 157 191 234 288 343
#     4  11  20  37  62  89 114 147 193 241 283 339
#     4  10  20  39  60  82 116 156 189 228 283 349
#     4  11  21  35  58  89 115 144 188 236 282 335
#
# _framework density 20.196384999999999
#
# number of rings (size 3 to 8) (size 9 to 14) (size 15 to 20)
#    0.000    1.714    0.000    7.286    0.000    4.571 
#    0.000    8.571    0.000    0.000    0.000    0.000 
#    0.000    0.000    0.000    0.000    0.000    0.000 
#
# Total GULP energy -78047.271599 kJ/mol
# GULP energy per Si atom -5574.805114 kJ/mol
# Density = 2.015042 g / cm^3
# Si number density = 20.196385 Si / 1000 Ang^3
#
#
#
# Elastic Constant Matrix: (Units=GPa)
#
#
# Indices 1 2 3 4 5 6 
#
# 1 115.0886 61.9656 13.6883 -23.9712 -1.4962 -5.1207
# 2 61.9656 158.2636 22.4646 -37.5463 -1.0324 -2.6208
# 3 13.6883 22.4646 44.8013 -24.0569 10.6015 -3.4345
# 4 -23.9712 -37.5463 -24.0569 26.6999 -1.7622 -3.4689
# 5 -1.4962 -1.0324 10.6015 -1.7622 24.0482 -10.5445
# 6 -5.1207 -2.6208 -3.4345 -3.4689 -10.5445 43.6856
#
#
#
# Elastic Compliance Matrix: (Units=1/GPa)
#
#
# Indices 1 2 3 4 5 6 
#
# 1 0.012018 -0.002666 0.003083 0.010231 0.001157 0.002583
# 2 -0.002666 0.010898 0.004918 0.017680 0.000407 0.002230
# 3 0.003083 0.004918 0.054939 0.058773 -0.017091 0.005517
# 4 0.010231 0.017680 0.058773 0.125787 -0.008835 0.014736
# 5 0.001157 0.000407 -0.017091 -0.008835 0.053383 0.011000
# 6 0.002583 0.002230 0.005517 0.014736 0.011000 0.027586
#
#
# Mechanical properties :
#
#
# Convention : Reuss Voigt Hill
#
# Bulk Modulus (GPa) = 11.29619 57.15452 34.22535
# Shear Modulus (GPa) = 16.47714 33.55576 25.01645
#
# Velocity S-wave (km/s) = 2.85940 4.08054 3.52328
# Velocity P-wave (km/s) = 4.06287 7.11069 5.79089
#
# Compressibility (1/GPa) = 0.08852546
#
# Stress axis : x y z
#
# Youngs Moduli (GPa) = 83.20515 91.75877 18.20189
#
# Poissons Ratio (x) = 0.24460 -0.05611
# Poissons Ratio (y) = 0.22180 -0.08951
# Poissons Ratio (z) = -0.25649 -0.45125
#
# Static dielectric constant tensor:
#      x y z
#    x 1.767580 0.057500 -0.028280 
#    y 0.057500 1.797590 -0.046010 
#    z -0.028280 -0.046010 1.726650 
# 
# From -- ./inp_files/158266.got.cif
#   From: 2010.05.17/outbox.cif.g08.bks.cpg/sg2_80_cif.got.tgz:158266.got - 2010.06.03 11:33:40.
