data_PCOD9081785
_publ_section_title
;
Structure prediction by ZEFSAII (Michael W. Deem and Ramdas Pophale) SiO2 
 PCOD9081785
Probable space group: P -1
;
_chemical_formula_sum "Si O2"
_cell_formula_units_Z 16
_cell_length_a 19.493441
_cell_length_b 7.593573
_cell_length_c 15.714866
_cell_angle_alpha 106.040279
_cell_angle_beta 19.450711
_cell_angle_gamma 102.328303
_cell_volume 736.371973
_symmetry_space_group_name_H-M "P -1"
_symmetry_group_IT_number 2
_symmetry_cell_setting 'triclinic'
loop_
_space_group_symop_operation_xyz
x,y,z
-x,-y,-z
loop_
_atom_site_type_symbol
_atom_site_label
_atom_site_fract_x
_atom_site_fract_y
_atom_site_fract_z
Si Si1 0.033495 0.585469 0.340031
Si Si2 0.843313 0.957882 0.103173
Si Si3 0.569877 0.699307 0.879508
Si Si4 0.455268 0.005777 0.907495
Si Si5 0.896015 0.024874 0.361376
Si Si6 0.887624 0.283321 0.567042
Si Si7 0.497562 0.722391 0.532457
Si Si8 0.249995 0.782589 0.992294
O O1 0.800595 0.595351 0.576584
O O2 0.052003 0.401837 0.349528
O O3 0.046423 0.747554 0.416541
O O4 0.212530 0.604605 0.066429
O O5 0.707311 0.799566 0.269220
O O6 0.683807 0.146856 0.291818
O O7 0.976431 0.897716 0.853578
O O8 0.000000 0.000000 0.000000
O O9 0.515410 0.843159 0.884767
O O10 0.354386 0.613938 0.129483
O O11 0.593459 0.813486 0.953611
O O12 0.280567 0.947450 0.043074
O O13 0.659713 0.016086 0.613160
O O14 0.873155 0.128039 0.493281
O O15 0.038430 0.833317 0.193044
O O16 0.500000 0.500000 0.500000
O O17 0.439282 0.766987 0.704631
#
# Coordination Sequence:
#
# PCOD9081785 Si02
#       8
#     2   2   2   2   2   2   2   2
#     4  11  21  34  53  79 117 154 187 233 287 346
#     4  10  22  44  69  92 128 163 206 265 321 376
#     4  10  19  33  51  76 114 149 188 232 276 334
#     4  10  19  32  55  83 109 145 192 236 278 343
#     4  10  21  37  60  84 110 152 197 237 295 361
#     4  10  22  35  51  81 116 152 189 232 285 349
#     4  10  24  43  66  96 126 161 209 266 320 376
#     4  11  21  36  60  84 111 150 196 242 295 359
#
# _framework density 21.728149999999999
#
# number of rings (size 3 to 8) (size 9 to 14) (size 15 to 20)
#    0.000    1.750    2.500    1.875    1.750    1.500 
#    0.000    1.250    0.000    0.000    0.000    0.000 
#    0.000    0.000    0.000    0.000    0.000    0.000 
#
# Total GULP energy -89119.369303 kJ/mol
# GULP energy per Si atom -5569.960581 kJ/mol
# Density = 2.167870 g / cm^3
# Si number density = 21.728150 Si / 1000 Ang^3
#
#
#
# Elastic Constant Matrix: (Units=GPa)
#
#
# Indices 1 2 3 4 5 6 
#
# 1 66.3142 13.1851 37.7523 -11.5901 -2.2325 -3.7312
# 2 13.1851 72.5208 23.9923 -23.5232 4.9322 -8.6042
# 3 37.7523 23.9923 130.4019 -36.2656 1.8735 -15.0473
# 4 -11.5901 -23.5232 -36.2656 35.1847 -7.5678 7.0997
# 5 -2.2325 4.9322 1.8735 -7.5678 42.4860 -9.7720
# 6 -3.7312 -8.6042 -15.0473 7.0997 -9.7720 22.3732
#
#
#
# Elastic Compliance Matrix: (Units=1/GPa)
#
#
# Indices 1 2 3 4 5 6 
#
# 1 0.018329 -0.001806 -0.005047 0.000000 0.001287 -0.000470
# 2 -0.001806 0.018047 0.000917 0.011804 0.000755 0.003841
# 3 -0.005047 0.000917 0.012759 0.011508 0.002376 0.005478
# 4 0.000000 0.011804 0.011508 0.049754 0.006867 -0.000510
# 5 0.001287 0.000755 0.002376 0.006867 0.027367 0.011877
# 6 -0.000470 0.003841 0.005478 -0.000510 0.011877 0.055129
#
#
# Mechanical properties :
#
#
# Convention : Reuss Voigt Hill
#
# Bulk Modulus (GPa) = 26.83515 46.56623 36.70069
# Shear Modulus (GPa) = 24.30990 32.96261 28.63626
#
# Velocity S-wave (km/s) = 3.34851 3.89915 3.63427
# Velocity P-wave (km/s) = 5.22754 6.46135 5.87691
#
# Compressibility (1/GPa) = 0.03726456
#
# Stress axis : x y z
#
# Youngs Moduli (GPa) = 54.55896 55.41086 78.37452
#
# Poissons Ratio (x) = 0.10007 0.39553
# Poissons Ratio (y) = 0.09853 -0.07191
# Poissons Ratio (z) = 0.27534 -0.05084
#
# Static dielectric constant tensor:
#      x y z
#    x 1.815260 -0.006050 -0.006420 
#    y -0.006050 1.871500 0.014870 
#    z -0.006420 0.014870 1.826690 
# 
# From -- ./inp_files/345821.got.cif
#   From: 2010.05.17/outbox.cif.g08.bks.cpg/sg2_173_cif.got.tgz:345821.got - 2010.06.03 11:33:40.
