data_PCOD9081422
_publ_section_title
;
Structure prediction by ZEFSAII (Michael W. Deem and Ramdas Pophale) SiO2 
 PCOD9081422
Probable space group: P -1
;
_chemical_formula_sum "Si O2"
_cell_formula_units_Z 16
_cell_length_a 12.071844
_cell_length_b 15.596593
_cell_length_c 13.759762
_cell_angle_alpha 144.684192
_cell_angle_beta 127.881922
_cell_angle_gamma 27.559689
_cell_volume 632.352243
_symmetry_space_group_name_H-M "P -1"
_symmetry_group_IT_number 2
_symmetry_cell_setting 'triclinic'
loop_
_space_group_symop_operation_xyz
x,y,z
-x,-y,-z
loop_
_atom_site_type_symbol
_atom_site_label
_atom_site_fract_x
_atom_site_fract_y
_atom_site_fract_z
Si Si1 0.602441 0.037546 0.878335
Si Si2 0.620831 0.966701 0.394008
Si Si3 0.651754 0.278808 0.460853
Si Si4 0.509365 0.412960 0.724808
Si Si5 0.637582 0.035230 0.099729
Si Si6 0.941546 0.603139 0.410723
Si Si7 0.100429 0.826348 0.154919
Si Si8 0.953848 0.897076 0.794598
O O1 0.387744 0.124608 0.792349
O O2 0.843678 0.711806 0.737481
O O3 0.711695 0.056661 0.877067
O O4 0.524401 0.187827 0.075266
O O5 0.605543 0.157071 0.552094
O O6 0.338198 0.184604 0.493570
O O7 0.861059 0.702076 0.347038
O O8 0.500000 0.500000 0.500000
O O9 0.597336 0.374621 0.627988
O O10 0.574579 0.178724 0.297742
O O11 0.949625 0.027995 0.354616
O O12 0.195546 0.704410 0.819486
O O13 0.609650 0.418970 0.875427
O O14 0.948131 0.805715 0.043121
O O15 0.500000 0.000000 0.000000
O O16 0.027515 0.682681 0.575256
O O17 0.060991 0.963659 0.167075
#
# Coordination Sequence:
#
# PCOD9081422 Si02
#       8
#     2   2   2   2   2   2   2   2
#     4  11  21  38  62  91 133 170 199 250 327 374
#     4  10  19  31  60  92 126 162 205 254 302 370
#     4  10  22  41  66  91 119 163 217 256 300 375
#     4  12  18  37  64  91 125 157 209 268 311 352
#     4  10  24  44  63  87 128 171 208 256 315 378
#     4  10  19  33  55  98 126 159 208 250 305 370
#     4  10  24  38  60  96 120 159 212 263 308 369
#     4  11  20  35  64  97 124 160 207 259 313 375
#
# _framework density 25.302354000000001
#
# number of rings (size 3 to 8) (size 9 to 14) (size 15 to 20)
#    0.750    0.750    5.000    1.875    0.000    0.500 
#    0.000    3.125    0.000    4.500    0.000    0.000 
#    0.000    0.000    0.000    0.000    0.000    0.000 
#
# Total GULP energy -89366.893764 kJ/mol
# GULP energy per Si atom -5585.430860 kJ/mol
# Density = 2.524476 g / cm^3
# Si number density = 25.302354 Si / 1000 Ang^3
#
#
#
# Elastic Constant Matrix: (Units=GPa)
#
#
# Indices 1 2 3 4 5 6 
#
# 1 136.4402 37.2380 54.2230 -10.2285 27.8395 11.3567
# 2 37.2380 130.5005 47.0164 -33.1539 43.2710 18.6901
# 3 54.2230 47.0164 72.9991 -23.9596 19.5865 6.7327
# 4 -10.2285 -33.1539 -23.9596 50.4795 2.3959 7.6033
# 5 27.8395 43.2710 19.5865 2.3959 52.3945 -8.0296
# 6 11.3567 18.6901 6.7327 7.6033 -8.0296 35.8577
#
#
#
# Elastic Compliance Matrix: (Units=1/GPa)
#
#
# Indices 1 2 3 4 5 6 
#
# 1 0.011471 0.002884 -0.007488 0.001822 -0.006619 -0.005599
# 2 0.002884 0.024727 -0.002311 0.020474 -0.025618 -0.023446
# 3 -0.007488 -0.002311 0.025810 0.010129 -0.004917 -0.004519
# 4 0.001822 0.020474 0.010129 0.044104 -0.028093 -0.028793
# 5 -0.006619 -0.025618 -0.004917 -0.028093 0.052092 0.033994
# 6 -0.005599 -0.023446 -0.004519 -0.028793 0.033994 0.056448
#
#
# Mechanical properties :
#
#
# Convention : Reuss Voigt Hill
#
# Bulk Modulus (GPa) = 20.75698 68.54385 44.65042
# Shear Modulus (GPa) = 20.44647 41.17718 30.81183
#
# Velocity S-wave (km/s) = 2.84577 4.03849 3.49341
# Velocity P-wave (km/s) = 4.36111 6.99246 5.82726
#
# Compressibility (1/GPa) = 0.04817656
#
# Stress axis : x y z
#
# Youngs Moduli (GPa) = 87.17690 40.44242 38.74510
#
# Poissons Ratio (x) = -0.11662 0.29011
# Poissons Ratio (y) = -0.25139 0.08956
# Poissons Ratio (z) = 0.65275 0.09348
#
# Static dielectric constant tensor:
#      x y z
#    x 2.103610 -0.168290 -0.011290 
#    y -0.168290 2.208010 0.037040 
#    z -0.011290 0.037040 2.141100 
# 
# From -- ./inp_files/522526.got.cif
#   From: 2010.05.17/outbox.cif.g08.bks.cpg/sg2_262_cif.got.tgz:522526.got - 2010.06.03 11:33:40.
