data_PCOD9081481
_publ_section_title
;
Structure prediction by ZEFSAII (Michael W. Deem and Ramdas Pophale) SiO2 
 PCOD9081481
Probable space group: P -1
;
_chemical_formula_sum "Si O2"
_cell_formula_units_Z 16
_cell_length_a 10.594760
_cell_length_b 12.520694
_cell_length_c 11.531294
_cell_angle_alpha 126.423142
_cell_angle_beta 125.560722
_cell_angle_gamma 94.327528
_cell_volume 767.041250
_symmetry_space_group_name_H-M "P -1"
_symmetry_group_IT_number 2
_symmetry_cell_setting 'triclinic'
loop_
_space_group_symop_operation_xyz
x,y,z
-x,-y,-z
loop_
_atom_site_type_symbol
_atom_site_label
_atom_site_fract_x
_atom_site_fract_y
_atom_site_fract_z
Si Si1 0.707741 0.892724 0.288955
Si Si2 0.047639 0.454735 0.338489
Si Si3 0.310035 0.229638 0.282062
Si Si4 0.321535 0.613638 0.790521
Si Si5 0.085446 0.245930 0.778773
Si Si6 0.242133 0.454223 0.231564
Si Si7 0.762637 0.683739 0.334442
Si Si8 0.040286 0.874445 0.808185
O O1 0.829911 0.860224 0.246121
O O2 0.675363 0.778343 0.310034
O O3 0.497605 0.802275 0.054522
O O4 0.847306 0.091534 0.528683
O O5 0.885551 0.470990 0.305625
O O6 0.960706 0.268344 0.222361
O O7 0.259524 0.591191 0.609221
O O8 0.094059 0.465135 0.235535
O O9 0.274079 0.338591 0.251827
O O10 0.536507 0.358240 0.534151
O O11 0.148713 0.151554 0.250255
O O12 0.242566 0.066014 0.065516
O O13 0.371537 0.487868 0.768946
O O14 0.188757 0.357207 0.789213
O O15 0.147906 0.358095 0.997982
O O16 0.969907 0.818808 0.603127
#
# Coordination Sequence:
#
# PCOD9081481 Si02
#       8
#     2   2   2   2   2   2   2   2
#     4   9  19  32  53  78 100 132 162 216 248 291
#     4   9  21  35  51  74 104 138 163 210 240 311
#     4   9  19  28  52  76 100 135 159 215 252 292
#     4  10  19  35  54  74 100 133 178 198 253 294
#     4   9  20  32  49  81 102 126 164 214 254 294
#     4  10  19  32  50  74 107 130 166 202 260 296
#     4   9  18  30  53  75 100 127 166 216 240 291
#     4   9  17  33  49  79 103 125 171 205 255 294
#
# _framework density 20.859373999999999
#
# number of rings (size 3 to 8) (size 9 to 14) (size 15 to 20)
#    0.750    2.000    0.000    1.125    7.000    0.000 
#    0.000    2.500    0.000    4.500    0.000    0.000 
#    0.000    0.000    0.000    0.000    0.000    0.000 
#
# Total GULP energy -89163.299577 kJ/mol
# GULP energy per Si atom -5572.706224 kJ/mol
# Density = 2.081190 g / cm^3
# Si number density = 20.859374 Si / 1000 Ang^3
#
#
#
# Elastic Constant Matrix: (Units=GPa)
#
#
# Indices 1 2 3 4 5 6 
#
# 1 40.4725 1.8041 31.6471 -10.4916 -17.8795 10.7773
# 2 1.8041 16.6504 13.0750 -5.5861 -1.3827 7.4568
# 3 31.6471 13.0750 188.0116 -6.4500 -10.0788 16.3129
# 4 -10.4916 -5.5861 -6.4500 24.4194 12.1359 -9.4963
# 5 -17.8795 -1.3827 -10.0788 12.1359 29.5027 -6.3569
# 6 10.7773 7.4568 16.3129 -9.4963 -6.3569 17.9832
#
#
#
# Elastic Compliance Matrix: (Units=1/GPa)
#
#
# Indices 1 2 3 4 5 6 
#
# 1 0.041910 0.009206 -0.005180 0.002929 0.019448 -0.015814
# 2 0.009206 0.079149 -0.004258 0.010860 -0.003059 -0.029821
# 3 -0.005180 -0.004258 0.006588 -0.002023 -0.000784 -0.002452
# 4 0.002929 0.010860 -0.002023 0.062150 -0.019326 0.021564
# 5 0.019448 -0.003059 -0.000784 -0.019326 0.052971 -0.001157
# 6 -0.015814 -0.029821 -0.002452 0.021564 -0.001157 0.090653
#
#
# Mechanical properties :
#
#
# Convention : Reuss Voigt Hill
#
# Bulk Modulus (GPa) = 7.86261 37.57633 22.71947
# Shear Modulus (GPa) = 13.28805 27.62161 20.45483
#
# Velocity S-wave (km/s) = 2.52668 3.64288 3.13486
# Velocity P-wave (km/s) = 3.50567 5.97891 4.90087
#
# Compressibility (1/GPa) = 0.12718420
#
# Stress axis : x y z
#
# Youngs Moduli (GPa) = 23.86071 12.63441 151.78869
#
# Poissons Ratio (x) = -0.11631 0.78620
# Poissons Ratio (y) = -0.21967 0.64631
# Poissons Ratio (z) = 0.12359 0.05380
#
# Static dielectric constant tensor:
#      x y z
#    x 1.790150 -0.001050 0.010890 
#    y -0.001050 1.768880 0.011800 
#    z 0.010890 0.011800 1.788120 
# 
# From -- ./inp_files/431869.got.cif
#   From: 2010.05.17/outbox.cif.g08.bks.cpg/sg2_216_cif.got.tgz:431869.got - 2010.06.03 11:33:40.
