data_PCOD9081272
_publ_section_title
;
Structure prediction by ZEFSAII (Michael W. Deem and Ramdas Pophale) SiO2 
 PCOD9081272
Probable space group: P -1
;
_chemical_formula_sum "Si O2"
_cell_formula_units_Z 16
_cell_length_a 16.754306
_cell_length_b 11.901011
_cell_length_c 25.917959
_cell_angle_alpha 146.951339
_cell_angle_beta 159.839469
_cell_angle_gamma 33.409407
_cell_volume 939.251473
_symmetry_space_group_name_H-M "P -1"
_symmetry_group_IT_number 2
_symmetry_cell_setting 'triclinic'
loop_
_space_group_symop_operation_xyz
x,y,z
-x,-y,-z
loop_
_atom_site_type_symbol
_atom_site_label
_atom_site_fract_x
_atom_site_fract_y
_atom_site_fract_z
Si Si1 0.725153 0.744664 0.084792
Si Si2 0.305866 0.437521 0.113127
Si Si3 0.075110 0.151066 0.935699
Si Si4 0.165154 0.306299 0.651702
Si Si5 0.642328 0.170032 0.940251
Si Si6 0.807679 0.570988 0.175308
Si Si7 0.828625 0.254351 0.231527
Si Si8 0.166734 0.797808 0.672759
O O1 0.866404 0.635806 0.179218
O O2 0.754480 0.982333 0.190280
O O3 0.791555 0.624005 0.024675
O O4 0.447164 0.748679 0.926498
O O5 0.591616 0.385016 0.262269
O O6 0.173790 0.678937 0.139145
O O7 0.235701 0.282121 0.053201
O O8 0.056023 0.952192 0.812188
O O9 0.207055 0.047876 0.028251
O O10 0.441115 0.172597 0.775977
O O11 0.067244 0.360039 0.671680
O O12 0.163750 0.530234 0.710051
O O13 0.013708 0.192835 0.480123
O O14 0.469083 0.297423 0.929943
O O15 0.806027 0.324620 0.082467
O O16 0.937923 0.243246 0.351036
#
# Coordination Sequence:
#
# PCOD9081272 Si02
#       8
#     2   2   2   2   2   2   2   2
#     4  11  17  34  52  78 101 128 172 218 245 279
#     4  10  22  31  52  78 103 128 173 212 245 302
#     4  11  17  35  56  73  94 140 176 200 249 300
#     4  10  19  31  53  82 102 128 170 208 250 301
#     4   9  15  31  54  75  91 137 171 203 234 305
#     4   9  15  29  55  73  98 129 170 205 240 296
#     4  11  16  34  57  72 101 136 172 206 243 299
#     4  11  21  31  50  85 104 127 162 220 256 282
#
# _framework density 17.034842999999999
#
# number of rings (size 3 to 8) (size 9 to 14) (size 15 to 20)
#    0.750    1.000    6.250    1.125    0.000    0.500 
#    0.000    1.250    0.000    2.250    0.000    0.000 
#    0.000    0.000    0.000    0.000    0.000    0.000 
#
# Total GULP energy -89080.076199 kJ/mol
# GULP energy per Si atom -5567.504762 kJ/mol
# Density = 1.699607 g / cm^3
# Si number density = 17.034843 Si / 1000 Ang^3
#
#
#
# Elastic Constant Matrix: (Units=GPa)
#
#
# Indices 1 2 3 4 5 6 
#
# 1 57.2075 28.5143 9.8589 -8.8796 -18.1798 12.8801
# 2 28.5143 75.8558 -6.0326 -1.3776 0.3287 5.3138
# 3 9.8589 -6.0326 38.5294 -5.5393 -23.4207 -4.0865
# 4 -8.8796 -1.3776 -5.5393 14.8175 9.0358 -5.5854
# 5 -18.1798 0.3287 -23.4207 9.0358 22.6705 -4.5517
# 6 12.8801 5.3138 -4.0865 -5.5854 -4.5517 31.3567
#
#
#
# Elastic Compliance Matrix: (Units=1/GPa)
#
#
# Indices 1 2 3 4 5 6 
#
# 1 0.035774 -0.012148 0.015452 -0.003211 0.045176 -0.004637
# 2 -0.012148 0.017741 -0.000435 0.000946 -0.010717 0.000540
# 3 0.015452 -0.000435 0.098345 -0.024095 0.127776 0.020799
# 4 -0.003211 0.000946 -0.024095 0.099029 -0.065723 0.006118
# 5 0.045176 -0.010717 0.127776 -0.065723 0.243420 0.023540
# 6 -0.004637 0.000540 0.020799 0.006118 0.023540 0.040922
#
#
# Mechanical properties :
#
#
# Convention : Reuss Voigt Hill
#
# Bulk Modulus (GPa) = 6.34534 26.25264 16.29899
# Shear Modulus (GPa) = 8.59069 23.05241 15.82155
#
# Velocity S-wave (km/s) = 2.24810 3.68265 3.05089
# Velocity P-wave (km/s) = 3.23599 5.79026 4.69035
#
# Compressibility (1/GPa) = 0.15759601
#
# Stress axis : x y z
#
# Youngs Moduli (GPa) = 27.95308 56.36805 10.16828
#
# Poissons Ratio (x) = 0.68476 -0.15712
# Poissons Ratio (y) = 0.33957 0.00443
# Poissons Ratio (z) = -0.43192 0.02455
#
# Static dielectric constant tensor:
#      x y z
#    x 1.609840 0.030290 -0.026390 
#    y 0.030290 1.573700 -0.010810 
#    z -0.026390 -0.010810 1.587910 
# 
# From -- ./inp_files/415710.got.cif
#   From: 2010.05.17/outbox.cif.g08.bks.cpg/sg2_208_cif.got.tgz:415710.got - 2010.06.03 11:33:40.
