data_PCOD9081009
_publ_section_title
;
Structure prediction by ZEFSAII (Michael W. Deem and Ramdas Pophale) SiO2 
 PCOD9081009
Probable space group: P -1
;
_chemical_formula_sum "Si O2"
_cell_formula_units_Z 14
_cell_length_a 5.393246
_cell_length_b 11.330876
_cell_length_c 15.102245
_cell_angle_alpha 66.458263
_cell_angle_beta 114.050219
_cell_angle_gamma 99.915397
_cell_volume 772.588662
_symmetry_space_group_name_H-M "P -1"
_symmetry_group_IT_number 2
_symmetry_cell_setting 'triclinic'
loop_
_space_group_symop_operation_xyz
x,y,z
-x,-y,-z
loop_
_atom_site_type_symbol
_atom_site_label
_atom_site_fract_x
_atom_site_fract_y
_atom_site_fract_z
Si Si1 0.703991 0.064792 0.438674
Si Si2 0.314686 0.987081 0.252350
Si Si3 0.116587 0.928208 0.952363
Si Si4 0.165999 0.645253 0.574093
Si Si5 0.533317 0.844088 0.154890
Si Si6 0.957417 0.270754 0.666780
Si Si7 0.655091 0.498410 0.616421
O O1 0.745091 0.214380 0.421934
O O2 0.500000 0.000000 0.500000
O O3 0.553574 0.043014 0.329799
O O4 0.000000 0.000000 0.500000
O O5 0.421567 0.904254 0.210586
O O6 0.148120 0.876584 0.315272
O O7 0.121289 0.093604 0.147176
O O8 0.299038 0.036837 0.899105
O O9 0.299477 0.817470 0.055802
O O10 0.000000 0.000000 0.000000
O O11 0.949963 0.335400 0.549286
O O12 0.432340 0.555723 0.633028
O O13 0.924098 0.586995 0.615914
O O14 0.747623 0.736767 0.244148
O O15 0.767495 0.353649 0.679566
O O16 0.500000 0.500000 0.500000
#
# Coordination Sequence:
#
# PCOD9081009 Si02
#       7
#     2   2   2   2   2   2   2
#     4  12  24  37  54  78 113 149 189 217 254 325
#     4  10  20  31  52  79 108 144 174 219 274 322
#     4   8  16  32  47  75 109 131 167 218 278 332
#     4  11  22  37  50  75 110 149 184 218 260 312
#     4   9  17  29  52  77 107 131 172 222 274 331
#     4  10  19  30  52  76 103 139 179 223 272 310
#     4  10  22  35  53  72 105 145 186 227 263 308
#
# _framework density 18.120896999999999
#
# number of rings (size 3 to 8) (size 9 to 14) (size 15 to 20)
#    0.000    2.000    1.429    3.429   10.000    0.000 
#    0.000    0.000    0.000    0.000    0.000    2.000 
#    0.000    0.000    0.000    0.000    0.000    0.000 
#
# Total GULP energy -77984.720092 kJ/mol
# GULP energy per Si atom -5570.337149 kJ/mol
# Density = 1.807965 g / cm^3
# Si number density = 18.120897 Si / 1000 Ang^3
#
#
#
# Elastic Constant Matrix: (Units=GPa)
#
#
# Indices 1 2 3 4 5 6 
#
# 1 83.4458 19.7300 30.4150 -2.3183 14.2502 3.2133
# 2 19.7300 86.5230 40.8503 -1.7642 21.6708 0.1884
# 3 30.4150 40.8503 147.1507 -8.0743 35.1111 -11.6444
# 4 -2.3183 -1.7642 -8.0743 18.8654 -4.6088 12.5919
# 5 14.2502 21.6708 35.1111 -4.6088 36.3233 -9.1508
# 6 3.2133 0.1884 -11.6444 12.5919 -9.1508 27.4506
#
#
#
# Elastic Compliance Matrix: (Units=1/GPa)
#
#
# Indices 1 2 3 4 5 6 
#
# 1 0.013897 -0.001268 -0.001841 0.003343 -0.003801 -0.005200
# 2 -0.001268 0.014716 -0.002460 0.000989 -0.006707 -0.003686
# 3 -0.001841 -0.002460 0.009608 0.000919 -0.006551 0.001703
# 4 0.003343 0.000989 0.000919 0.077633 -0.002088 -0.036316
# 5 -0.003801 -0.006707 -0.006551 -0.002088 0.042309 0.012774
# 6 -0.005200 -0.003686 0.001703 -0.036316 0.012774 0.058702
#
#
# Mechanical properties :
#
#
# Convention : Reuss Voigt Hill
#
# Bulk Modulus (GPa) = 36.92509 55.45666 46.19088
# Shear Modulus (GPa) = 21.09418 31.60281 26.34850
#
# Velocity S-wave (km/s) = 3.41556 4.18065 3.81732
# Velocity P-wave (km/s) = 5.99801 7.34670 6.70634
#
# Compressibility (1/GPa) = 0.02708186
#
# Stress axis : x y z
#
# Youngs Moduli (GPa) = 71.95738 67.95094 104.08321
#
# Poissons Ratio (x) = 0.08616 0.19166
# Poissons Ratio (y) = 0.09124 0.25608
# Poissons Ratio (z) = 0.13251 0.16718
#
# Static dielectric constant tensor:
#      x y z
#    x 1.752310 0.029310 0.009050 
#    y 0.029310 1.643910 -0.056340 
#    z 0.009050 -0.056340 1.681650 
# 
# From -- ./inp_files/548129.got.cif
#   From: 2010.05.17/outbox.cif.g08.bks.cpg/sg2_275_cif.got.tgz:548129.got - 2010.06.03 11:33:40.
