data_PCOD9081301
_publ_section_title
;
Structure prediction by ZEFSAII (Michael W. Deem and Ramdas Pophale) SiO2 
 PCOD9081301
Probable space group: P -1
;
_chemical_formula_sum "Si O2"
_cell_formula_units_Z 14
_cell_length_a 6.889336
_cell_length_b 15.772431
_cell_length_c 7.807429
_cell_angle_alpha 131.139467
_cell_angle_beta 54.700166
_cell_angle_gamma 115.124147
_cell_volume 520.080042
_symmetry_space_group_name_H-M "P -1"
_symmetry_group_IT_number 2
_symmetry_cell_setting 'triclinic'
loop_
_space_group_symop_operation_xyz
x,y,z
-x,-y,-z
loop_
_atom_site_type_symbol
_atom_site_label
_atom_site_fract_x
_atom_site_fract_y
_atom_site_fract_z
Si Si1 0.322049 0.970163 0.805990
Si Si2 0.466554 0.671687 0.610160
Si Si3 0.953103 0.249327 0.888624
Si Si4 0.761376 0.895472 0.641985
Si Si5 0.291672 0.469661 0.926807
Si Si6 0.947950 0.397126 0.524797
Si Si7 0.891028 0.819670 0.909683
O O1 0.251316 0.005424 0.083853
O O2 0.300630 0.087037 0.872946
O O3 0.582032 0.926217 0.622755
O O4 0.107893 0.875875 0.755782
O O5 0.630507 0.785899 0.653463
O O6 0.594191 0.556782 0.350314
O O7 0.282777 0.666872 0.532824
O O8 0.295978 0.694196 0.887000
O O9 0.990230 0.146276 0.605314
O O10 0.149992 0.351216 0.887656
O O11 0.024265 0.198941 0.966553
O O12 0.500000 0.500000 0.000000
O O13 0.111615 0.562589 0.199917
O O14 0.000000 0.500000 0.500000
O O15 0.153563 0.310108 0.302410
#
# Coordination Sequence:
#
# PCOD9081301 Si02
#       7
#     2   2   2   2   2   2   2
#     4  10  21  38  54  83 116 146 183 231 279 319
#     4   9  17  31  51  84 106 136 187 225 263 329
#     4  10  18  33  56  85 107 143 188 224 272 330
#     4  10  20  36  59  79 109 153 184 224 275 335
#     4   9  17  26  51  84 110 137 180 233 268 318
#     4  10  15  29  53  84 105 141 181 224 267 324
#     4  10  20  35  58  84 115 142 183 237 270 322
#
# _framework density 26.918935999999999
#
# number of rings (size 3 to 8) (size 9 to 14) (size 15 to 20)
#    0.000    2.286    5.714    0.000    0.000    1.143 
#    0.000    0.000    0.000    4.286    0.000    0.000 
#    0.000    0.000    0.000    0.000    0.000    0.000 
#
# Total GULP energy -78170.522866 kJ/mol
# GULP energy per Si atom -5583.608776 kJ/mol
# Density = 2.685767 g / cm^3
# Si number density = 26.918936 Si / 1000 Ang^3
#
#
#
# Elastic Constant Matrix: (Units=GPa)
#
#
# Indices 1 2 3 4 5 6 
#
# 1 66.2485 23.8636 15.7401 -1.2246 -20.5532 -19.3654
# 2 23.8636 102.4944 31.0090 13.8064 -10.4386 -13.2543
# 3 15.7401 31.0090 200.7456 1.1842 -15.3398 3.4236
# 4 -1.2246 13.8064 1.1842 32.7184 -2.9970 -4.6180
# 5 -20.5532 -10.4386 -15.3398 -2.9970 38.8943 3.6014
# 6 -19.3654 -13.2543 3.4236 -4.6180 3.6014 35.3423
#
#
#
# Elastic Compliance Matrix: (Units=1/GPa)
#
#
# Indices 1 2 3 4 5 6 
#
# 1 0.022950 -0.003299 -0.000717 0.004771 0.010310 0.010980
# 2 -0.003299 0.011955 -0.001576 -0.004779 0.000274 0.002176
# 3 -0.000717 -0.001576 0.005422 0.000352 0.001513 -0.001618
# 4 0.004771 -0.004779 0.000352 0.033753 0.003530 0.004839
# 5 0.010310 0.000274 0.001513 0.003530 0.031840 0.002822
# 6 0.010980 0.002176 -0.001618 0.004839 0.002822 0.035629
#
#
# Mechanical properties :
#
#
# Convention : Reuss Voigt Hill
#
# Bulk Modulus (GPa) = 34.31471 56.74598 45.53034
# Shear Modulus (GPa) = 30.77927 41.31607 36.04767
#
# Velocity S-wave (km/s) = 3.38510 3.92194 3.66337
# Velocity P-wave (km/s) = 5.29657 6.45251 5.90290
#
# Compressibility (1/GPa) = 0.02914202
#
# Stress axis : x y z
#
# Youngs Moduli (GPa) = 43.57277 83.65033 184.42485
#
# Poissons Ratio (x) = 0.27597 0.13231
# Poissons Ratio (y) = 0.14375 0.29064
# Poissons Ratio (z) = 0.03126 0.13183
#
# Static dielectric constant tensor:
#      x y z
#    x 2.226300 0.010820 -0.005060 
#    y 0.010820 2.049790 0.023320 
#    z -0.005060 0.023320 2.241860 
# 
# From -- ./inp_files/215707.got.cif
#   From: 2010.05.17/outbox.cif.g08.bks.cpg/sg2_108_cif.got.tgz:215707.got - 2010.06.03 11:33:40.
