data_PCOD9081979
_publ_section_title
;
Structure prediction by ZEFSAII (Michael W. Deem and Ramdas Pophale) SiO2 
 PCOD9081979
Probable space group: P -1
;
_chemical_formula_sum "Si O2"
_cell_formula_units_Z 16
_cell_length_a 9.136528
_cell_length_b 15.449574
_cell_length_c 13.971699
_cell_angle_alpha 56.049413
_cell_angle_beta 151.355299
_cell_angle_gamma 126.763409
_cell_volume 754.548707
_symmetry_space_group_name_H-M "P -1"
_symmetry_group_IT_number 2
_symmetry_cell_setting 'triclinic'
loop_
_space_group_symop_operation_xyz
x,y,z
-x,-y,-z
loop_
_atom_site_type_symbol
_atom_site_label
_atom_site_fract_x
_atom_site_fract_y
_atom_site_fract_z
Si Si1 0.116082 0.474696 0.804689
Si Si2 0.232558 0.368321 0.599907
Si Si3 0.806527 0.407373 0.044203
Si Si4 0.639913 0.815825 0.021414
Si Si5 0.118199 0.248655 0.228704
Si Si6 0.487296 0.182072 0.825992
Si Si7 0.848741 0.280541 0.627829
Si Si8 0.756602 0.043472 0.274279
O O1 0.072821 0.489086 0.884167
O O2 0.941877 0.558301 0.604411
O O3 0.955133 0.364637 0.724067
O O4 0.500000 0.500000 0.000000
O O5 0.297002 0.269597 0.634284
O O6 0.012886 0.328512 0.592070
O O7 0.573585 0.421052 0.815710
O O8 0.074781 0.353764 0.194472
O O9 0.581434 0.307860 0.040462
O O10 0.617343 0.833588 0.112280
O O11 0.994639 0.817021 0.198699
O O12 0.478290 0.903483 0.833288
O O13 0.477755 0.254698 0.413800
O O14 0.966656 0.141339 0.270515
O O15 0.865088 0.235590 0.005620
O O16 0.424004 0.064127 0.819090
O O17 0.000000 0.000000 0.500000
#
# Coordination Sequence:
#
# PCOD9081979 Si02
#       8
#     2   2   2   2   2   2   2   2
#     4  12  20  32  61  80 109 150 188 218 265 325
#     4   9  20  35  57  80 107 142 198 209 264 333
#     4   8  18  35  53  78 105 149 181 227 254 319
#     4   8  16  33  50  76 106 135 184 211 263 324
#     4   9  19  37  54  77 114 135 181 228 274 316
#     4   8  17  35  56  75  97 145 179 219 262 326
#     4  10  20  35  54  80 110 145 175 234 273 306
#     4  10  19  32  59  80 102 140 184 218 268 337
#
# _framework density 21.204729
#
# number of rings (size 3 to 8) (size 9 to 14) (size 15 to 20)
#    0.000    3.500    2.500    1.875    3.500    0.500 
#    0.000   10.000    0.000    0.000    0.000    0.000 
#    0.000    0.000    0.000    0.000    0.000    0.000 
#
# Total GULP energy -89080.542360 kJ/mol
# GULP energy per Si atom -5567.533897 kJ/mol
# Density = 2.115647 g / cm^3
# Si number density = 21.204729 Si / 1000 Ang^3
#
#
#
# Elastic Constant Matrix: (Units=GPa)
#
#
# Indices 1 2 3 4 5 6 
#
# 1 36.6560 34.5744 41.5075 -0.5877 20.8525 -6.5798
# 2 34.5744 109.9362 61.4390 -8.1159 16.6677 -11.0879
# 3 41.5075 61.4390 170.7260 -34.3292 34.6866 -7.8715
# 4 -0.5877 -8.1159 -34.3292 37.3957 -6.5263 -3.4873
# 5 20.8525 16.6677 34.6866 -6.5263 32.3996 -8.7703
# 6 -6.5798 -11.0879 -7.8715 -3.4873 -8.7703 9.3160
#
#
#
# Elastic Compliance Matrix: (Units=1/GPa)
#
#
# Indices 1 2 3 4 5 6 
#
# 1 0.065990 -0.013737 -0.008279 -0.016891 -0.034030 -0.015096
# 2 -0.013737 0.015378 -0.002426 0.003927 0.008709 0.016219
# 3 -0.008279 -0.002426 0.011352 0.009275 -0.003404 0.001124
# 4 -0.016891 0.003927 0.009275 0.041434 0.015598 0.030775
# 5 -0.034030 0.008709 -0.003404 0.015598 0.070017 0.055208
# 6 -0.015096 0.016219 0.001124 0.030775 0.055208 0.180428
#
#
# Mechanical properties :
#
#
# Convention : Reuss Voigt Hill
#
# Bulk Modulus (GPa) = 22.81259 65.81779 44.31519
# Shear Modulus (GPa) = 11.15839 27.80875 19.48357
#
# Velocity S-wave (km/s) = 2.29644 3.62531 3.03451
# Velocity P-wave (km/s) = 4.22056 6.97355 5.76383
#
# Compressibility (1/GPa) = 0.04383544
#
# Stress axis : x y z
#
# Youngs Moduli (GPa) = 15.15381 65.02967 88.09372
#
# Poissons Ratio (x) = 0.89332 0.72929
# Poissons Ratio (y) = 0.20817 0.21373
# Poissons Ratio (z) = 0.12545 0.15777
#
# Static dielectric constant tensor:
#      x y z
#    x 1.822070 -0.045910 -0.027550 
#    y -0.045910 2.047410 -0.013760 
#    z -0.027550 -0.013760 1.852560 
# 
# From -- ./inp_files/569755.got.cif
#   From: 2010.05.17/outbox.cif.g08.bks.cpg/sg2_285_cif.got.tgz:569755.got - 2010.06.03 11:33:40.
