data_PCOD9081708
_publ_section_title
;
Structure prediction by ZEFSAII (Michael W. Deem and Ramdas Pophale) SiO2 
 PCOD9081708
Probable space group: P -1
;
_chemical_formula_sum "Si O2"
_cell_formula_units_Z 16
_cell_length_a 15.157770
_cell_length_b 14.232398
_cell_length_c 12.065764
_cell_angle_alpha 48.918924
_cell_angle_beta 35.339303
_cell_angle_gamma 28.070321
_cell_volume 689.437445
_symmetry_space_group_name_H-M "P -1"
_symmetry_group_IT_number 2
_symmetry_cell_setting 'triclinic'
loop_
_space_group_symop_operation_xyz
x,y,z
-x,-y,-z
loop_
_atom_site_type_symbol
_atom_site_label
_atom_site_fract_x
_atom_site_fract_y
_atom_site_fract_z
Si Si1 0.354908 0.066403 0.428879
Si Si2 0.713320 0.690505 0.507238
Si Si3 0.221228 0.493967 0.077308
Si Si4 0.311820 0.988507 0.990801
Si Si5 0.390820 0.616766 0.666044
Si Si6 0.122780 0.792846 0.578278
Si Si7 0.805393 0.374538 0.751189
Si Si8 0.058362 0.974775 0.088841
O O1 0.476286 0.899329 0.524863
O O2 0.284877 0.241490 0.427934
O O3 0.561573 0.963955 0.206402
O O4 0.093672 0.188610 0.558609
O O5 0.966839 0.574795 0.275531
O O6 0.684087 0.563565 0.658967
O O7 0.463467 0.248245 0.019517
O O8 0.200059 0.582733 0.146844
O O9 0.273225 0.562700 0.875263
O O10 0.102601 0.132501 0.188019
O O11 0.191549 0.006049 0.988163
O O12 0.315949 0.696649 0.554410
O O13 0.690799 0.405994 0.538282
O O14 0.227557 0.829267 0.726608
O O15 0.000000 0.000000 0.500000
O O16 0.756532 0.259552 0.884993
O O17 0.000000 0.000000 0.000000
#
# Coordination Sequence:
#
# PCOD9081708 Si02
#       8
#     2   2   2   2   2   2   2   2
#     4  10  20  35  58  78 112 153 197 236 276 332
#     4  10  19  32  54  80 111 152 191 234 276 332
#     4  11  18  35  57  83 117 147 192 239 280 336
#     4  11  21  37  59  88 113 153 194 239 287 336
#     4  10  21  38  55  83 118 149 189 241 285 335
#     4  10  20  35  60  84 108 146 197 247 285 320
#     4  11  21  36  52  84 121 157 186 224 286 349
#     4  11  24  37  54  84 127 158 183 226 292 355
#
# _framework density 23.207325999999998
#
# number of rings (size 3 to 8) (size 9 to 14) (size 15 to 20)
#    0.000    1.500    5.000    2.250    3.500    0.500 
#    2.250    0.000    0.000    0.750    0.000   22.750 
#    0.000    0.000    0.000    0.000    0.000    0.000 
#
# Total GULP energy -89295.490944 kJ/mol
# GULP energy per Si atom -5580.968184 kJ/mol
# Density = 2.315451 g / cm^3
# Si number density = 23.207326 Si / 1000 Ang^3
#
#
#
# Elastic Constant Matrix: (Units=GPa)
#
#
# Indices 1 2 3 4 5 6 
#
# 1 25.3897 12.2335 8.5426 -3.7557 -0.6134 -4.8398
# 2 12.2335 152.4186 23.9594 0.7058 9.5091 -14.5750
# 3 8.5426 23.9594 109.6756 6.6391 -2.7202 -3.1768
# 4 -3.7557 0.7058 6.6391 46.7040 -3.9675 6.8551
# 5 -0.6134 9.5091 -2.7202 -3.9675 25.8974 1.5881
# 6 -4.8398 -14.5750 -3.1768 6.8551 1.5881 24.9252
#
#
#
# Elastic Compliance Matrix: (Units=1/GPa)
#
#
# Indices 1 2 3 4 5 6 
#
# 1 0.043161 -0.002636 -0.002779 0.003261 0.001862 0.005470
# 2 -0.002636 0.007613 -0.001355 -0.001053 -0.003423 0.004275
# 3 -0.002779 -0.001355 0.009760 -0.001525 0.001208 0.000254
# 4 0.003261 -0.001053 -0.001525 0.023276 0.004290 -0.006852
# 5 0.001862 -0.003423 0.001208 0.004290 0.041023 -0.005280
# 6 0.005470 0.004275 0.000254 -0.006852 -0.005280 0.045935
#
#
# Mechanical properties :
#
#
# Convention : Reuss Voigt Hill
#
# Bulk Modulus (GPa) = 21.27913 41.88389 31.58151
# Shear Modulus (GPa) = 25.00356 35.68855 30.34606
#
# Velocity S-wave (km/s) = 3.28594 3.92575 3.62001
# Velocity P-wave (km/s) = 4.85650 6.21575 5.57769
#
# Compressibility (1/GPa) = 0.04699440
#
# Stress axis : x y z
#
# Youngs Moduli (GPa) = 23.16910 131.36028 102.45990
#
# Poissons Ratio (x) = 0.34622 0.28471
# Poissons Ratio (y) = 0.06107 0.13885
# Poissons Ratio (z) = 0.06438 0.17801
#
# Static dielectric constant tensor:
#      x y z
#    x 1.939830 0.013680 0.007000 
#    y 0.013680 1.901020 0.018850 
#    z 0.007000 0.018850 2.001180 
# 
# From -- ./inp_files/541506.got.cif
#   From: 2010.05.17/outbox.cif.g08.bks.cpg/sg2_271_cif.got.tgz:541506.got - 2010.06.03 11:33:40.
