data_PCOD9081371
_publ_section_title
;
Structure prediction by ZEFSAII (Michael W. Deem and Ramdas Pophale) SiO2 
 PCOD9081371
Probable space group: P -1
;
_chemical_formula_sum "Si O2"
_cell_formula_units_Z 16
_cell_length_a 8.518456
_cell_length_b 11.335022
_cell_length_c 20.783878
_cell_angle_alpha 49.950778
_cell_angle_beta 151.193192
_cell_angle_gamma 122.860820
_cell_volume 739.008776
_symmetry_space_group_name_H-M "P -1"
_symmetry_group_IT_number 2
_symmetry_cell_setting 'triclinic'
loop_
_space_group_symop_operation_xyz
x,y,z
-x,-y,-z
loop_
_atom_site_type_symbol
_atom_site_label
_atom_site_fract_x
_atom_site_fract_y
_atom_site_fract_z
Si Si1 0.500745 0.225464 0.705831
Si Si2 0.157065 0.638659 0.546483
Si Si3 0.743341 0.567089 0.697698
Si Si4 0.409416 0.898992 0.090533
Si Si5 0.569541 0.226512 0.582568
Si Si6 0.257997 0.386502 0.767440
Si Si7 0.885199 0.400301 0.055460
Si Si8 0.985111 0.945985 0.800010
O O1 0.625938 0.398921 0.695968
O O2 0.684138 0.122357 0.861955
O O3 0.511116 0.183874 0.650143
O O4 0.122891 0.231002 0.590600
O O5 0.463896 0.664263 0.604212
O O6 0.247008 0.557182 0.674478
O O7 0.000000 0.500000 0.500000
O O8 0.731726 0.670835 0.592713
O O9 0.024087 0.543907 0.860287
O O10 0.547430 0.731590 0.170841
O O11 0.711763 0.005383 0.151527
O O12 0.125803 0.957401 0.919611
O O13 0.895381 0.327718 0.664139
O O14 0.682581 0.068705 0.642008
O O15 0.495661 0.383572 0.914791
O O16 0.059963 0.231174 0.167354
O O17 0.000000 0.500000 0.000000
#
# Coordination Sequence:
#
# PCOD9081371 Si02
#       8
#     2   2   2   2   2   2   2   2
#     4  11  20  33  59  87 110 149 187 227 272 325
#     4  10  15  29  55  83 105 139 189 230 263 305
#     4  11  20  34  57  87 114 143 186 235 273 321
#     4   9  16  34  57  80 110 139 193 232 265 320
#     4  11  22  35  56  83 120 146 184 227 274 332
#     4  10  17  33  56  84 109 140 183 233 274 310
#     4  11  21  36  61  86 109 139 188 236 278 331
#     4   9  20  35  56  84 109 144 180 235 282 318
#
# _framework density 21.650621999999998
#
# number of rings (size 3 to 8) (size 9 to 14) (size 15 to 20)
#    0.000    1.750    6.250    2.625    0.000    1.000 
#    0.000    0.625    0.000    4.500    0.000    0.000 
#    0.000    0.000    0.000    0.000    0.000    0.000 
#
# Total GULP energy -89223.885187 kJ/mol
# GULP energy per Si atom -5576.492824 kJ/mol
# Density = 2.160134 g / cm^3
# Si number density = 21.650622 Si / 1000 Ang^3
#
#
#
# Elastic Constant Matrix: (Units=GPa)
#
#
# Indices 1 2 3 4 5 6 
#
# 1 49.4392 -3.0460 9.5703 -1.0972 -25.2158 -0.3736
# 2 -3.0460 57.4830 11.8465 -9.3917 -8.5396 0.0732
# 3 9.5703 11.8465 86.8003 -1.0651 -26.3604 -1.2086
# 4 -1.0972 -9.3917 -1.0651 32.7403 4.8297 -9.9781
# 5 -25.2158 -8.5396 -26.3604 4.8297 32.4334 -5.9808
# 6 -0.3736 0.0732 -1.2086 -9.9781 -5.9808 12.9607
#
#
#
# Elastic Compliance Matrix: (Units=1/GPa)
#
#
# Indices 1 2 3 4 5 6 
#
# 1 0.043983 0.008556 0.009134 0.005911 0.048325 0.028922
# 2 0.008556 0.021112 0.000689 0.008268 0.013935 0.012987
# 3 0.009134 0.000689 0.018050 0.001980 0.024371 0.014713
# 4 0.005911 0.008268 0.001980 0.043391 0.008894 0.037818
# 5 0.048325 0.013935 0.024371 0.008894 0.101082 0.057079
# 6 0.028922 0.012987 0.014713 0.037818 0.057079 0.134744
#
#
# Mechanical properties :
#
#
# Convention : Reuss Voigt Hill
#
# Bulk Modulus (GPa) = 8.33993 25.60712 16.97352
# Shear Modulus (GPa) = 13.67723 27.31699 20.49711
#
# Velocity S-wave (km/s) = 2.51614 3.55592 3.08022
# Velocity P-wave (km/s) = 3.50738 5.35841 4.52848
#
# Compressibility (1/GPa) = 0.11990512
#
# Stress axis : x y z
#
# Youngs Moduli (GPa) = 22.73592 47.36591 55.40149
#
# Poissons Ratio (x) = -0.40528 -0.50603
# Poissons Ratio (y) = -0.19454 -0.03820
# Poissons Ratio (z) = -0.20767 -0.03266
#
# Static dielectric constant tensor:
#      x y z
#    x 1.834850 0.007260 -0.039400 
#    y 0.007260 1.787780 0.029060 
#    z -0.039400 0.029060 1.892020 
# 
# From -- ./inp_files/248398.got.cif
#   From: 2010.05.17/outbox.cif.g08.bks.cpg/sg2_125_cif.got.tgz:248398.got - 2010.06.03 11:33:40.
