data_PCOD9081196
_publ_section_title
;
Structure prediction by ZEFSAII (Michael W. Deem and Ramdas Pophale) SiO2 
 PCOD9081196
Probable space group: P -1
;
_chemical_formula_sum "Si O2"
_cell_formula_units_Z 16
_cell_length_a 10.075171
_cell_length_b 13.123281
_cell_length_c 10.377402
_cell_angle_alpha 127.211513
_cell_angle_beta 112.629792
_cell_angle_gamma 38.539181
_cell_volume 669.979312
_symmetry_space_group_name_H-M "P -1"
_symmetry_group_IT_number 2
_symmetry_cell_setting 'triclinic'
loop_
_space_group_symop_operation_xyz
x,y,z
-x,-y,-z
loop_
_atom_site_type_symbol
_atom_site_label
_atom_site_fract_x
_atom_site_fract_y
_atom_site_fract_z
Si Si1 0.202251 0.196897 0.399203
Si Si2 0.299610 0.425444 0.554948
Si Si3 0.419830 0.675514 0.184746
Si Si4 0.664831 0.656376 0.058316
Si Si5 0.716534 0.884020 0.912310
Si Si6 0.291967 0.388945 0.248430
Si Si7 0.851988 0.800045 0.337392
Si Si8 0.005711 0.807821 0.162031
O O1 0.267165 0.303769 0.505157
O O2 0.314513 0.071838 0.215849
O O3 0.944801 0.359821 0.394450
O O4 0.746736 0.890838 0.507004
O O5 0.441781 0.405733 0.695669
O O6 0.406638 0.348312 0.393474
O O7 0.485371 0.743050 0.163041
O O8 0.168754 0.817767 0.228668
O O9 0.500000 0.500000 0.000000
O O10 0.773511 0.719117 0.182678
O O11 0.593124 0.699231 0.914038
O O12 0.846163 0.421276 0.955932
O O13 0.821908 0.671259 0.803585
O O14 0.862443 0.888928 0.043156
O O15 0.500000 0.000000 0.000000
O O16 0.102774 0.615121 0.326104
O O17 0.851110 0.903500 0.302549
#
# Coordination Sequence:
#
# PCOD9081196 Si02
#       8
#     2   2   2   2   2   2   2   2
#     4   9  17  28  49  73  95 123 169 197 232 284
#     4   9  16  28  47  74  99 125 153 204 242 284
#     4  10  19  27  45  75 108 126 149 192 258 296
#     4  10  15  29  51  77  96 127 157 196 242 293
#     4  11  20  32  49  71 100 130 161 201 241 280
#     4   9  17  29  51  74  96 124 168 198 232 285
#     4  10  15  29  54  74  96 122 160 205 240 279
#     4  10  19  31  46  74 104 125 155 199 245 289
#
# _framework density 23.881335
#
# number of rings (size 3 to 8) (size 9 to 14) (size 15 to 20)
#    0.000    2.250    3.750    3.000    0.000    0.000 
#    0.000   11.875    0.000    3.750    0.000    0.000 
#    0.000    0.000    0.000    0.000    0.000    0.000 
#
# Total GULP energy -89383.529927 kJ/mol
# GULP energy per Si atom -5586.470620 kJ/mol
# Density = 2.382698 g / cm^3
# Si number density = 23.881335 Si / 1000 Ang^3
#
#
#
# Elastic Constant Matrix: (Units=GPa)
#
#
# Indices 1 2 3 4 5 6 
#
# 1 82.2968 21.5287 49.1486 -18.8108 -30.1855 -16.9103
# 2 21.5287 73.8264 45.2136 -20.2906 -0.9662 -8.7179
# 3 49.1486 45.2136 180.0248 -39.7653 -40.1855 -12.3357
# 4 -18.8108 -20.2906 -39.7653 42.6703 -2.9027 6.3229
# 5 -30.1855 -0.9662 -40.1855 -2.9027 38.7343 -8.6841
# 6 -16.9103 -8.7179 -12.3357 6.3229 -8.6841 30.0383
#
#
#
# Elastic Compliance Matrix: (Units=1/GPa)
#
#
# Indices 1 2 3 4 5 6 
#
# 1 0.035578 -0.005837 0.007683 0.018564 0.043718 0.030221
# 2 -0.005837 0.018222 -0.005290 0.000959 -0.010259 -0.003338
# 3 0.007683 -0.005290 0.014188 0.013866 0.024478 0.012775
# 4 0.018564 0.000959 0.013866 0.044874 0.036146 0.017428
# 5 0.043718 -0.010259 0.024478 0.036146 0.099587 0.052869
# 6 0.030221 -0.003338 0.012775 0.017428 0.052869 0.066198
#
#
# Mechanical properties :
#
#
# Convention : Reuss Voigt Hill
#
# Bulk Modulus (GPa) = 16.36647 63.10330 39.73488
# Shear Modulus (GPa) = 16.34514 36.97240 26.65877
#
# Velocity S-wave (km/s) = 2.61900 3.93895 3.34473
# Velocity P-wave (km/s) = 4.00171 6.86791 5.62058
#
# Compressibility (1/GPa) = 0.06110055
#
# Stress axis : x y z
#
# Youngs Moduli (GPa) = 28.10715 54.87785 70.48227
#
# Poissons Ratio (x) = 0.32033 -0.54153
# Poissons Ratio (y) = 0.16407 0.37284
# Poissons Ratio (z) = -0.21595 0.29030
#
# Static dielectric constant tensor:
#      x y z
#    x 1.915430 0.010810 -0.034690 
#    y 0.010810 1.987640 0.085410 
#    z -0.034690 0.085410 1.982740 
# 
# From -- ./inp_files/280910.got.cif
#   From: 2010.05.17/outbox.cif.g08.bks.cpg/sg2_141_cif.got.tgz:280910.got - 2010.06.03 11:33:40.
