data_PCOD9081308
_publ_section_title
;
Structure prediction by ZEFSAII (Michael W. Deem and Ramdas Pophale) SiO2 
 PCOD9081308
Probable space group: P -1
;
_chemical_formula_sum "Si O2"
_cell_formula_units_Z 16
_cell_length_a 9.050151
_cell_length_b 22.406477
_cell_length_c 19.007453
_cell_angle_alpha 26.401283
_cell_angle_beta 32.697253
_cell_angle_gamma 26.217075
_cell_volume 742.854395
_symmetry_space_group_name_H-M "P -1"
_symmetry_group_IT_number 2
_symmetry_cell_setting 'triclinic'
loop_
_space_group_symop_operation_xyz
x,y,z
-x,-y,-z
loop_
_atom_site_type_symbol
_atom_site_label
_atom_site_fract_x
_atom_site_fract_y
_atom_site_fract_z
Si Si1 0.385160 0.743134 0.079862
Si Si2 0.135045 0.569401 0.974806
Si Si3 0.825582 0.743926 0.688104
Si Si4 0.550956 0.834176 0.443655
Si Si5 0.889668 0.104702 0.829623
Si Si6 0.927849 0.951144 0.329990
Si Si7 0.037988 0.889844 0.710782
Si Si8 0.493526 0.561271 0.705917
O O1 0.315631 0.606354 0.239533
O O2 0.389422 0.781026 0.120512
O O3 0.766470 0.661566 0.986738
O O4 0.105000 0.915674 0.972235
O O5 0.111690 0.711046 0.879833
O O6 0.418242 0.514609 0.860425
O O7 0.188037 0.410738 0.156956
O O8 0.911755 0.805038 0.520193
O O9 0.125055 0.688499 0.681786
O O10 0.455601 0.898840 0.699465
O O11 0.866866 0.836296 0.329713
O O12 0.334351 0.863522 0.569650
O O13 0.641989 0.664409 0.551327
O O14 0.302718 0.986687 0.328702
O O15 0.812615 0.104312 0.779269
O O16 0.991303 0.024614 0.294799
#
# Coordination Sequence:
#
# PCOD9081308 Si02
#       8
#     2   2   2   2   2   2   2   2
#     4  10  21  37  58  81 106 146 188 221 267 327
#     4  10  19  35  58  82 109 141 183 229 267 317
#     4  10  19  31  54  81 112 140 177 223 275 319
#     4  10  19  34  57  85 108 142 181 226 269 319
#     4  11  22  37  57  79 113 146 182 222 270 327
#     4  11  21  34  52  83 115 144 175 224 277 323
#     4  10  20  33  57  84 112 140 180 225 274 319
#     4  10  19  34  59  85 107 138 185 232 267 312
#
# _framework density 21.538540999999999
#
# number of rings (size 3 to 8) (size 9 to 14) (size 15 to 20)
#    0.000    1.750    2.500    4.500    1.750    1.000 
#    0.000    4.375    0.000    0.000    0.000    0.000 
#    0.000    0.000    0.000    0.000    0.000    0.000 
#
# Total GULP energy -89402.503712 kJ/mol
# GULP energy per Si atom -5587.656482 kJ/mol
# Density = 2.148952 g / cm^3
# Si number density = 21.538541 Si / 1000 Ang^3
#
#
#
# Elastic Constant Matrix: (Units=GPa)
#
#
# Indices 1 2 3 4 5 6 
#
# 1 71.9136 10.9466 30.2905 -7.1166 -3.1233 26.9969
# 2 10.9466 48.8923 33.3198 -8.7095 3.9311 27.7791
# 3 30.2905 33.3198 112.9842 -32.1373 -2.6986 23.0573
# 4 -7.1166 -8.7095 -32.1373 33.5530 9.7141 -4.9872
# 5 -3.1233 3.9311 -2.6986 9.7141 25.0743 7.3053
# 6 26.9969 27.7791 23.0573 -4.9872 7.3053 32.7484
#
#
#
# Elastic Compliance Matrix: (Units=1/GPa)
#
#
# Indices 1 2 3 4 5 6 
#
# 1 0.027439 0.016451 -0.005847 -0.004431 0.012384 -0.035895
# 2 0.016451 0.052757 -0.009443 -0.002700 0.009604 -0.054218
# 3 -0.005847 -0.009443 0.016028 0.013509 -0.004071 0.004510
# 4 -0.004431 -0.002700 0.013509 0.047994 -0.019634 0.008120
# 5 0.012384 0.009604 -0.004071 -0.019634 0.056118 -0.030998
# 6 -0.035895 -0.054218 0.004510 0.008120 -0.030998 0.111094
#
#
# Mechanical properties :
#
#
# Convention : Reuss Voigt Hill
#
# Bulk Modulus (GPa) = 10.14756 42.54489 26.34623
# Shear Modulus (GPa) = 14.62179 28.89068 21.75624
#
# Velocity S-wave (km/s) = 2.60833 3.66642 3.18167
# Velocity P-wave (km/s) = 3.71386 6.14160 5.07504
#
# Compressibility (1/GPa) = 0.09854582
#
# Stress axis : x y z
#
# Youngs Moduli (GPa) = 36.44487 18.95476 62.39088
#
# Poissons Ratio (x) = -0.31182 0.36479
# Poissons Ratio (y) = -0.59954 0.58914
# Poissons Ratio (z) = 0.21309 0.17898
#
# Static dielectric constant tensor:
#      x y z
#    x 1.810660 0.023130 -0.005660 
#    y 0.023130 1.797160 -0.000780 
#    z -0.005660 -0.000780 1.792140 
# 
# From -- ./inp_files/256971.got.cif
#   From: 2010.05.17/outbox.cif.g08.bks.cpg/sg2_129_cif.got.tgz:256971.got - 2010.06.03 11:33:40.
