data_PCOD9081089
_publ_section_title
;
Structure prediction by ZEFSAII (Michael W. Deem and Ramdas Pophale) SiO2 
 PCOD9081089
Probable space group: P -1
;
_chemical_formula_sum "Si O2"
_cell_formula_units_Z 16
_cell_length_a 26.548814
_cell_length_b 23.921382
_cell_length_c 12.461158
_cell_angle_alpha 24.547079
_cell_angle_beta 163.631741
_cell_angle_gamma 164.290282
_cell_volume 593.594889
_symmetry_space_group_name_H-M "P -1"
_symmetry_group_IT_number 2
_symmetry_cell_setting 'triclinic'
loop_
_space_group_symop_operation_xyz
x,y,z
-x,-y,-z
loop_
_atom_site_type_symbol
_atom_site_label
_atom_site_fract_x
_atom_site_fract_y
_atom_site_fract_z
Si Si1 0.889167 0.652034 0.987373
Si Si2 0.943516 0.413293 0.909985
Si Si3 0.767851 0.700685 0.876288
Si Si4 0.769195 0.085450 0.956682
Si Si5 0.414371 0.771157 0.933648
Si Si6 0.693355 0.167588 0.191840
Si Si7 0.922135 0.876046 0.169760
Si Si8 0.603332 0.454733 0.167522
O O1 0.019097 0.823279 0.864764
O O2 0.144526 0.704029 0.459608
O O3 0.740346 0.623115 0.837774
O O4 0.696800 0.439262 0.898835
O O5 0.889261 0.244141 0.026264
O O6 0.676742 0.353281 0.445347
O O7 0.188834 0.625251 0.974379
O O8 0.000000 0.500000 0.000000
O O9 0.562404 0.532392 0.846726
O O10 0.059945 0.792365 0.347428
O O11 0.854784 0.907898 0.684554
O O12 0.500000 0.000000 0.500000
O O13 0.624794 0.877982 0.080305
O O14 0.496083 0.910058 0.958143
O O15 0.500000 0.000000 0.000000
O O16 0.633341 0.716012 0.929625
O O17 0.868453 0.687313 0.360027
O O18 0.000000 0.000000 0.000000
#
# Coordination Sequence:
#
# PCOD9081089 Si02
#       8
#     2   2   2   2   2   2   2   2
#     4   9  17  29  43  70  98 133 169 210 254 316
#     4  11  22  34  51  81 116 147 181 213 268 334
#     4   9  19  30  52  74 102 137 176 219 268 310
#     4  10  20  30  48  73 107 149 176 213 260 317
#     4   9  17  28  42  60  98 133 171 206 247 298
#     4  10  19  31  45  71 107 146 176 208 256 321
#     4   9  18  35  52  73 103 136 180 231 274 307
#     4   9  20  33  51  76 106 137 179 225 269 316
#
# _framework density 26.954409999999999
#
# number of rings (size 3 to 8) (size 9 to 14) (size 15 to 20)
#    0.000    2.500    1.250    0.750   12.250    0.000 
#    0.000    0.000    0.000    0.000    0.000    0.875 
#    3.750   18.250    0.000    1.125    0.000    0.000 
#
# Total GULP energy -89088.105064 kJ/mol
# GULP energy per Si atom -5568.006567 kJ/mol
# Density = 2.689306 g / cm^3
# Si number density = 26.954410 Si / 1000 Ang^3
#
#
#
# Elastic Constant Matrix: (Units=GPa)
#
#
# Indices 1 2 3 4 5 6 
#
# 1 166.9612 46.5355 25.5585 12.7055 -2.3838 8.9322
# 2 46.5355 80.9223 12.0243 9.9868 6.3700 11.9533
# 3 25.5585 12.0243 57.0896 4.0316 -16.3225 -2.8504
# 4 12.7055 9.9868 4.0316 34.0357 -11.9733 -5.9841
# 5 -2.3838 6.3700 -16.3225 -11.9733 36.6985 7.6347
# 6 8.9322 11.9533 -2.8504 -5.9841 7.6347 56.1847
#
#
#
# Elastic Compliance Matrix: (Units=1/GPa)
#
#
# Indices 1 2 3 4 5 6 
#
# 1 0.007565 -0.003593 -0.002686 -0.001752 -0.000507 -0.000692
# 2 -0.003593 0.016495 -0.003267 -0.005662 -0.005789 -0.002920
# 3 -0.002686 -0.003267 0.022441 0.003462 0.011275 0.001097
# 4 -0.001752 -0.005662 0.003462 0.036731 0.013619 0.003720
# 5 -0.000507 -0.005789 0.011275 0.013619 0.038061 -0.001837
# 6 -0.000692 -0.002920 0.001097 0.003720 -0.001837 0.019231
#
#
# Mechanical properties :
#
#
# Convention : Reuss Voigt Hill
#
# Bulk Modulus (GPa) = 36.48380 52.57886 44.53133
# Shear Modulus (GPa) = 29.62920 40.10742 34.86831
#
# Velocity S-wave (km/s) = 3.31907 3.86161 3.60057
# Velocity P-wave (km/s) = 5.31536 6.27946 5.81742
#
# Compressibility (1/GPa) = 0.02740943
#
# Stress axis : x y z
#
# Youngs Moduli (GPa) = 132.18587 60.62464 44.56174
#
# Poissons Ratio (x) = 0.21782 0.11969
# Poissons Ratio (y) = 0.47494 0.14557
# Poissons Ratio (z) = 0.35504 0.19805
#
# Static dielectric constant tensor:
#      x y z
#    x 2.093390 -0.024980 -0.082420 
#    y -0.024980 2.075200 0.025010 
#    z -0.082420 0.025010 2.351860 
# 
# From -- ./inp_files/475540.got.cif
#   From: 2010.05.17/outbox.cif.g08.bks.cpg/sg2_238_cif.got.tgz:475540.got - 2010.06.03 11:33:40.
