data_PCOD9081436
_publ_section_title
;
Structure prediction by ZEFSAII (Michael W. Deem and Ramdas Pophale) SiO2 
 PCOD9081436
Probable space group: P -1
;
_chemical_formula_sum "Si O2"
_cell_formula_units_Z 16
_cell_length_a 9.405527
_cell_length_b 13.961834
_cell_length_c 12.337985
_cell_angle_alpha 149.441272
_cell_angle_beta 134.191015
_cell_angle_gamma 52.219064
_cell_volume 590.300484
_symmetry_space_group_name_H-M "P -1"
_symmetry_group_IT_number 2
_symmetry_cell_setting 'triclinic'
loop_
_space_group_symop_operation_xyz
x,y,z
-x,-y,-z
loop_
_atom_site_type_symbol
_atom_site_label
_atom_site_fract_x
_atom_site_fract_y
_atom_site_fract_z
Si Si1 0.116860 0.690891 0.737302
Si Si2 0.505347 0.282776 0.925253
Si Si3 0.480025 0.117542 0.380361
Si Si4 0.328208 0.262603 0.110692
Si Si5 0.887757 0.958526 0.033494
Si Si6 0.285729 0.715287 0.534890
Si Si7 0.678221 0.347086 0.850379
Si Si8 0.012363 0.275187 0.789060
O O1 0.000000 0.500000 0.500000
O O2 0.049110 0.821444 0.929989
O O3 0.353657 0.658096 0.841949
O O4 0.062909 0.819911 0.727920
O O5 0.643735 0.308425 0.918563
O O6 0.445789 0.068701 0.697704
O O7 0.324041 0.430962 0.956695
O O8 0.282180 0.053869 0.158974
O O9 0.585303 0.217161 0.432958
O O10 0.472757 0.277901 0.622138
O O11 0.200746 0.134832 0.998669
O O12 0.283325 0.487209 0.323816
O O13 0.561133 0.225451 0.228718
O O14 0.228551 0.217003 0.896840
O O15 0.073219 0.783910 0.432367
O O16 0.851082 0.240930 0.768579
O O17 0.000000 0.500000 0.000000
#
# Coordination Sequence:
#
# PCOD9081436 Si02
#       8
#     2   2   2   2   2   2   2   2
#     4  10  19  32  47  70 103 134 169 213 257 307
#     4  10  20  31  49  75 103 137 172 213 261 310
#     4   9  17  32  50  72 101 136 174 210 258 312
#     4   9  15  29  50  73 100 127 168 215 249 301
#     4   9  18  30  50  73  96 135 174 207 259 310
#     4   8  16  28  49  75  97 131 169 206 258 304
#     4  10  19  32  49  73 101 134 173 213 261 312
#     4   9  17  30  51  75  99 134 174 212 258 305
#
# _framework density 27.104841
#
# number of rings (size 3 to 8) (size 9 to 14) (size 15 to 20)
#    0.000    2.750    0.000    1.875    0.000    0.000 
#    0.000    5.000    0.000   11.250    0.000   32.375 
#    0.000    0.000    0.000    0.000    0.000    0.000 
#
# Total GULP energy -89207.599489 kJ/mol
# GULP energy per Si atom -5575.474968 kJ/mol
# Density = 2.704315 g / cm^3
# Si number density = 27.104841 Si / 1000 Ang^3
#
#
#
# Elastic Constant Matrix: (Units=GPa)
#
#
# Indices 1 2 3 4 5 6 
#
# 1 84.5151 56.4250 22.1205 5.2926 12.5211 19.4624
# 2 56.4250 176.8282 76.9926 -2.6371 0.2492 27.0671
# 3 22.1205 76.9926 110.6816 8.8291 26.7520 11.3352
# 4 5.2926 -2.6371 8.8291 78.1841 15.5378 8.5997
# 5 12.5211 0.2492 26.7520 15.5378 29.6861 5.0841
# 6 19.4624 27.0671 11.3352 8.5997 5.0841 37.4401
#
#
#
# Elastic Compliance Matrix: (Units=1/GPa)
#
#
# Indices 1 2 3 4 5 6 
#
# 1 0.017866 -0.006856 0.004221 0.000726 -0.010927 -0.004292
# 2 -0.006856 0.013002 -0.010323 0.000006 0.012845 -0.004456
# 3 0.004221 -0.010323 0.020099 0.001004 -0.020632 0.001755
# 4 0.000726 0.000006 0.001004 0.014609 -0.008360 -0.002906
# 5 -0.010927 0.012845 -0.020632 -0.008360 0.061812 -0.003833
# 6 -0.004292 -0.004456 0.001755 -0.002906 -0.003833 0.032819
#
#
# Mechanical properties :
#
#
# Convention : Reuss Voigt Hill
#
# Bulk Modulus (GPa) = 39.91701 75.90012 57.90856
# Shear Modulus (GPa) = 25.71067 43.49452 34.60259
#
# Velocity S-wave (km/s) = 3.08322 4.01019 3.57686
# Velocity P-wave (km/s) = 5.23773 7.03600 6.20239
#
# Compressibility (1/GPa) = 0.02505198
#
# Stress axis : x y z
#
# Youngs Moduli (GPa) = 55.97135 76.91406 49.75323
#
# Poissons Ratio (x) = 0.52730 -0.21001
# Poissons Ratio (y) = 0.38372 0.51359
# Poissons Ratio (z) = -0.23625 0.79397
#
# Static dielectric constant tensor:
#      x y z
#    x 2.197950 0.003890 0.062490 
#    y 0.003890 2.531050 0.027600 
#    z 0.062490 0.027600 2.144090 
# 
# From -- ./inp_files/397527.got.cif
#   From: 2010.05.17/outbox.cif.g08.bks.cpg/sg2_199_cif.got.tgz:397527.got - 2010.06.03 11:33:40.
