data_PCOD9081170
_publ_section_title
;
Structure prediction by ZEFSAII (Michael W. Deem and Ramdas Pophale) SiO2 
 PCOD9081170
Probable space group: P -1
;
_chemical_formula_sum "Si O2"
_cell_formula_units_Z 16
_cell_length_a 10.605061
_cell_length_b 7.544784
_cell_length_c 9.730389
_cell_angle_alpha 102.106175
_cell_angle_beta 76.699573
_cell_angle_gamma 133.219069
_cell_volume 550.650810
_symmetry_space_group_name_H-M "P -1"
_symmetry_group_IT_number 2
_symmetry_cell_setting 'triclinic'
loop_
_space_group_symop_operation_xyz
x,y,z
-x,-y,-z
loop_
_atom_site_type_symbol
_atom_site_label
_atom_site_fract_x
_atom_site_fract_y
_atom_site_fract_z
Si Si1 0.193061 0.562605 0.229682
Si Si2 0.470962 0.958176 0.665686
Si Si3 0.034820 0.315971 0.674536
Si Si4 0.321060 0.745473 0.939908
Si Si5 0.897221 0.108359 0.960421
Si Si6 0.769110 0.782473 0.505874
Si Si7 0.269802 0.145766 0.784452
Si Si8 0.377177 0.370384 0.220306
O O1 0.335330 0.840750 0.290589
O O2 0.021159 0.524681 0.295348
O O3 0.248539 0.426124 0.261967
O O4 0.235989 0.557462 0.058663
O O5 0.368266 0.046886 0.738523
O O6 0.500000 0.000000 0.500000
O O7 0.375684 0.741578 0.770595
O O8 0.194746 0.399120 0.555096
O O9 0.035806 0.263327 0.827587
O O10 0.900335 0.040434 0.597680
O O11 0.500000 0.000000 0.000000
O O12 0.172504 0.757984 0.966846
O O13 0.729249 0.866425 0.884225
O O14 0.894751 0.014959 0.097809
O O15 0.773148 0.856538 0.362279
O O16 0.604928 0.650769 0.624668
O O17 0.426542 0.418393 0.845098
#
# Coordination Sequence:
#
# PCOD9081170 Si02
#       8
#     2   2   2   2   2   2   2   2
#     4   9  17  31  49  70  95 126 166 201 237 287
#     4   9  16  27  46  73 100 124 156 201 248 287
#     4   9  19  35  54  72  94 132 171 202 238 287
#     4   8  15  28  46  69  95 126 162 196 234 286
#     4   9  18  33  52  73  98 129 167 202 240 293
#     4  10  20  34  51  73 101 131 165 201 243 293
#     4  10  19  31  50  76 102 127 159 203 249 292
#     4  10  20  33  50  75 102 131 162 199 250 295
#
# _framework density 29.056526000000002
#
# number of rings (size 3 to 8) (size 9 to 14) (size 15 to 20)
#    0.000    2.750    0.000    2.250    0.000    2.000 
#    0.000    2.500    0.000    0.750    0.000    0.000 
#    0.000    0.000    0.000    0.000    0.000    0.000 
#
# Total GULP energy -89322.813745 kJ/mol
# GULP energy per Si atom -5582.675859 kJ/mol
# Density = 2.899039 g / cm^3
# Si number density = 29.056526 Si / 1000 Ang^3
#
#
#
# Elastic Constant Matrix: (Units=GPa)
#
#
# Indices 1 2 3 4 5 6 
#
# 1 86.4356 13.6707 47.4558 7.2165 -30.7928 -28.7630
# 2 13.6707 74.5163 49.6670 8.9514 -8.5291 7.5197
# 3 47.4558 49.6670 251.0414 -9.2805 1.8581 1.1285
# 4 7.2165 8.9514 -9.2805 48.7150 3.4157 -1.5214
# 5 -30.7928 -8.5291 1.8581 3.4157 60.5642 7.1776
# 6 -28.7630 7.5197 1.1285 -1.5214 7.1776 38.2542
#
#
#
# Elastic Compliance Matrix: (Units=1/GPa)
#
#
# Indices 1 2 3 4 5 6 
#
# 1 0.023631 -0.001224 -0.004535 -0.004363 0.010327 0.016031
# 2 -0.001224 0.017111 -0.003297 -0.003930 0.002684 -0.004847
# 3 -0.004535 -0.003297 0.005615 0.002472 -0.002809 -0.002302
# 4 -0.004363 -0.003930 0.002472 0.022619 -0.004013 -0.000928
# 5 0.010327 0.002684 -0.002809 -0.004013 0.022095 0.003015
# 6 0.016031 -0.004847 -0.002302 -0.000928 0.003015 0.038612
#
#
# Mechanical properties :
#
#
# Convention : Reuss Voigt Hill
#
# Bulk Modulus (GPa) = 35.40526 70.39782 52.90154
# Shear Modulus (GPa) = 31.80436 49.58667 40.69552
#
# Velocity S-wave (km/s) = 3.31202 4.13553 3.74647
# Velocity P-wave (km/s) = 5.18048 6.86178 6.07953
#
# Compressibility (1/GPa) = 0.02824439
#
# Stress axis : x y z
#
# Youngs Moduli (GPa) = 42.31809 58.44312 178.07964
#
# Poissons Ratio (x) = 0.07156 0.80752
# Poissons Ratio (y) = 0.05181 0.58716
# Poissons Ratio (z) = 0.19189 0.19270
#
# Static dielectric constant tensor:
#      x y z
#    x 2.172810 0.041720 0.041740 
#    y 0.041720 2.384930 -0.057650 
#    z 0.041740 -0.057650 2.184910 
# 
# From -- ./inp_files/175130.got.cif
#   From: 2010.05.17/outbox.cif.g08.bks.cpg/sg2_88_cif.got.tgz:175130.got - 2010.06.03 11:33:40.
