data_PCOD9081242
_publ_section_title
;
Structure prediction by ZEFSAII (Michael W. Deem and Ramdas Pophale) SiO2 
 PCOD9081242
Probable space group: P -1
;
_chemical_formula_sum "Si O2"
_cell_formula_units_Z 14
_cell_length_a 11.580572
_cell_length_b 9.234676
_cell_length_c 14.170897
_cell_angle_alpha 36.793263
_cell_angle_beta 40.408487
_cell_angle_gamma 38.802098
_cell_volume 529.305307
_symmetry_space_group_name_H-M "P -1"
_symmetry_group_IT_number 2
_symmetry_cell_setting 'triclinic'
loop_
_space_group_symop_operation_xyz
x,y,z
-x,-y,-z
loop_
_atom_site_type_symbol
_atom_site_label
_atom_site_fract_x
_atom_site_fract_y
_atom_site_fract_z
Si Si1 0.610530 0.336384 0.106199
Si Si2 0.407154 0.296729 0.692513
Si Si3 0.294230 0.585592 0.796051
Si Si4 0.337254 0.390806 0.401120
Si Si5 0.800006 0.799430 0.709889
Si Si6 0.894788 0.740165 0.241752
Si Si7 0.056987 0.989962 0.311338
O O1 0.665702 0.482996 0.083001
O O2 0.436977 0.282411 0.296021
O O3 0.801001 0.055716 0.117188
O O4 0.500000 0.500000 0.000000
O O5 0.500000 0.500000 0.500000
O O6 0.337056 0.354128 0.814546
O O7 0.223234 0.359581 0.706521
O O8 0.569905 0.993618 0.740931
O O9 0.465101 0.687526 0.617567
O O10 0.077852 0.812692 0.788652
O O11 0.186130 0.286291 0.590699
O O12 0.223190 0.714768 0.309019
O O13 0.884126 0.486127 0.792428
O O14 0.856971 0.863926 0.745535
O O15 0.915414 0.907958 0.507934
#
# Coordination Sequence:
#
# PCOD9081242 Si02
#       7
#     2   2   2   2   2   2   2
#     4  10  23  43  56  72 113 157 191 228 271 324
#     4  12  16  31  57  90 117 139 172 229 283 331
#     4  10  19  32  57  79 114 146 181 218 277 326
#     4   9  19  33  58  80 110 141 184 220 278 325
#     4  10  17  26  52  88 122 133 172 223 289 328
#     4  11  20  34  58  87 113 141 182 232 280 326
#     4  10  15  29  52  87 110 144 170 224 276 336
#
# _framework density 26.449764999999999
#
# number of rings (size 3 to 8) (size 9 to 14) (size 15 to 20)
#    0.857    0.857    5.714    1.286    0.000    0.000 
#    2.571    2.857    0.000    1.714    0.000    0.000 
#    0.000    0.000    0.000    0.000    0.000    0.000 
#
# Total GULP energy -78371.798365 kJ/mol
# GULP energy per Si atom -5597.985598 kJ/mol
# Density = 2.638956 g / cm^3
# Si number density = 26.449765 Si / 1000 Ang^3
#
#
#
# Elastic Constant Matrix: (Units=GPa)
#
#
# Indices 1 2 3 4 5 6 
#
# 1 97.3204 45.0613 36.3143 -6.4209 27.9126 -2.6830
# 2 45.0613 226.3217 53.6397 -30.8556 16.9553 -8.3584
# 3 36.3143 53.6397 85.5132 -9.8507 22.3448 8.9800
# 4 -6.4209 -30.8556 -9.8507 42.0615 7.5292 3.4662
# 5 27.9126 16.9553 22.3448 7.5292 48.4337 -6.9276
# 6 -2.6830 -8.3584 8.9800 3.4662 -6.9276 45.6722
#
#
#
# Elastic Compliance Matrix: (Units=1/GPa)
#
#
# Indices 1 2 3 4 5 6 
#
# 1 0.014043 -0.001323 -0.003330 0.001508 -0.006304 0.000167
# 2 -0.001323 0.005877 -0.002758 0.003431 -0.000381 0.001222
# 3 -0.003330 -0.002758 0.017436 0.003139 -0.006411 -0.005339
# 4 0.001508 0.003431 0.003139 0.029063 -0.008523 -0.003399
# 5 -0.006304 -0.000381 -0.006411 -0.008523 0.029547 0.005949
# 6 0.000167 0.001222 -0.005339 -0.003399 0.005949 0.024339
#
#
# Mechanical properties :
#
#
# Convention : Reuss Voigt Hill
#
# Bulk Modulus (GPa) = 44.37888 75.46510 59.92199
# Shear Modulus (GPa) = 35.05399 45.50949 40.28174
#
# Velocity S-wave (km/s) = 3.64442 4.15251 3.90674
# Velocity P-wave (km/s) = 5.87572 7.18224 6.56158
#
# Compressibility (1/GPa) = 0.02253324
#
# Stress axis : x y z
#
# Youngs Moduli (GPa) = 71.21216 170.15513 57.35238
#
# Poissons Ratio (x) = 0.22504 0.19100
# Poissons Ratio (y) = 0.09418 0.15819
# Poissons Ratio (z) = 0.23716 0.46934
#
# Static dielectric constant tensor:
#      x y z
#    x 2.050320 0.034180 -0.075090 
#    y 0.034180 1.998280 0.019620 
#    z -0.075090 0.019620 2.184580 
# 
# From -- ./inp_files/258997.got.cif
#   From: 2010.05.17/outbox.cif.g08.bks.cpg/sg2_130_cif.got.tgz:258997.got - 2010.06.03 11:33:40.
