data_PCOD9081441
_publ_section_title
;
Structure prediction by ZEFSAII (Michael W. Deem and Ramdas Pophale) SiO2 
 PCOD9081441
Probable space group: P -1
;
_chemical_formula_sum "Si O2"
_cell_formula_units_Z 12
_cell_length_a 5.252362
_cell_length_b 8.998181
_cell_length_c 11.961751
_cell_angle_alpha 74.635131
_cell_angle_beta 83.771380
_cell_angle_gamma 120.103091
_cell_volume 451.426320
_symmetry_space_group_name_H-M "P -1"
_symmetry_group_IT_number 2
_symmetry_cell_setting 'triclinic'
loop_
_space_group_symop_operation_xyz
x,y,z
-x,-y,-z
loop_
_atom_site_type_symbol
_atom_site_label
_atom_site_fract_x
_atom_site_fract_y
_atom_site_fract_z
Si Si1 0.699233 0.962885 0.581540
Si Si2 0.260306 0.592463 0.601615
Si Si3 0.913347 0.656824 0.909171
Si Si4 0.638472 0.884225 0.826266
Si Si5 0.406240 0.259136 0.927200
Si Si6 0.448970 0.637291 0.338837
O O1 0.469244 0.743588 0.651473
O O2 0.766811 0.035800 0.691437
O O3 0.500000 0.000000 0.500000
O O4 0.000000 0.000000 0.500000
O O5 0.397585 0.687225 0.454770
O O6 0.330857 0.436139 0.641488
O O7 0.907203 0.523966 0.639798
O O8 0.790584 0.765871 0.826533
O O9 0.728719 0.445732 0.916940
O O10 0.272985 0.768960 0.859365
O O11 0.815718 0.673799 0.036960
O O12 0.689911 0.913935 0.952656
O O13 0.426701 0.230859 0.801215
#
# Coordination Sequence:
#
# PCOD9081441 Si02
#       6
#     2   2   2   2   2   2
#     4  12  24  38  58  76 107 150 189 230 256 307
#     4  10  22  37  54  84 112 145 180 214 272 328
#     4   9  18  27  48  79 107 132 159 217 272 327
#     4  10  19  32  47  75 102 131 176 221 261 308
#     4   9  19  27  52  77 107 133 167 211 278 319
#     4  10  20  35  59  83 116 140 167 221 280 342
#
# _framework density 26.582409999999999
#
# number of rings (size 3 to 8) (size 9 to 14) (size 15 to 20)
#    1.000    1.000    0.000    4.500    2.333    0.000 
#    0.000    0.000    0.000    2.000    0.000    0.000 
#    0.000    0.000    0.000    0.000    0.000    0.000 
#
# Total GULP energy -66987.082192 kJ/mol
# GULP energy per Si atom -5582.256849 kJ/mol
# Density = 2.652191 g / cm^3
# Si number density = 26.582410 Si / 1000 Ang^3
#
#
#
# Elastic Constant Matrix: (Units=GPa)
#
#
# Indices 1 2 3 4 5 6 
#
# 1 171.7139 20.4743 56.6627 -9.8118 9.9140 11.7825
# 2 20.4743 61.6336 -3.4730 5.2580 -1.9952 10.0081
# 3 56.6627 -3.4730 261.3602 9.3866 12.1975 -8.3612
# 4 -9.8118 5.2580 9.3866 19.1815 -3.8867 1.2243
# 5 9.9140 -1.9952 12.1975 -3.8867 39.3175 -10.0728
# 6 11.7825 10.0081 -8.3612 1.2243 -10.0728 23.1605
#
#
#
# Elastic Compliance Matrix: (Units=1/GPa)
#
#
# Indices 1 2 3 4 5 6 
#
# 1 0.007468 -0.002348 -0.001891 0.005263 -0.002088 -0.004653
# 2 -0.002348 0.018659 0.000827 -0.006512 -0.001076 -0.006693
# 3 -0.001891 0.000827 0.004478 -0.003660 -0.000691 0.002114
# 4 0.005263 -0.006512 -0.003660 0.059515 0.004785 -0.002250
# 5 -0.002088 -0.001076 -0.000691 0.004785 0.030223 0.014169
# 6 -0.004653 -0.006693 0.002114 -0.002250 0.014169 0.055481
#
#
# Mechanical properties :
#
#
# Convention : Reuss Voigt Hill
#
# Bulk Modulus (GPa) = 42.04958 71.33732 56.69345
# Shear Modulus (GPa) = 26.23617 44.40146 35.31881
#
# Velocity S-wave (km/s) = 3.14502 4.09140 3.64902
# Velocity P-wave (km/s) = 5.38898 7.01527 6.25520
#
# Compressibility (1/GPa) = 0.02378145
#
# Stress axis : x y z
#
# Youngs Moduli (GPa) = 133.90247 53.59282 223.29524
#
# Poissons Ratio (x) = 0.12586 0.42220
# Poissons Ratio (y) = 0.31446 -0.18467
# Poissons Ratio (z) = 0.25318 -0.04432
#
# Static dielectric constant tensor:
#      x y z
#    x 1.994740 0.024380 0.079490 
#    y 0.024380 2.040730 -0.003170 
#    z 0.079490 -0.003170 2.213910 
# 
# From -- ./inp_files/108828.got.cif
#   From: 2010.05.17/outbox.cif.g08.bks.cpg/sg2_55_cif.got.tgz:108828.got - 2010.06.03 11:33:40.
