data_PCOD9081293
_publ_section_title
;
Structure prediction by ZEFSAII (Michael W. Deem and Ramdas Pophale) SiO2 
 PCOD9081293
Probable space group: P -1
;
_chemical_formula_sum "Si O2"
_cell_formula_units_Z 16
_cell_length_a 26.266699
_cell_length_b 19.422233
_cell_length_c 12.665394
_cell_angle_alpha 29.224195
_cell_angle_beta 158.960300
_cell_angle_gamma 163.702255
_cell_volume 633.621706
_symmetry_space_group_name_H-M "P -1"
_symmetry_group_IT_number 2
_symmetry_cell_setting 'triclinic'
loop_
_space_group_symop_operation_xyz
x,y,z
-x,-y,-z
loop_
_atom_site_type_symbol
_atom_site_label
_atom_site_fract_x
_atom_site_fract_y
_atom_site_fract_z
Si Si1 0.193319 0.532645 0.915482
Si Si2 0.508184 0.633571 0.641594
Si Si3 0.638399 0.699219 0.591540
Si Si4 0.742968 0.200689 0.886116
Si Si5 0.076706 0.808154 0.956236
Si Si6 0.139114 0.806416 0.459475
Si Si7 0.033733 0.795346 0.506366
Si Si8 0.492744 0.283715 0.244535
O O1 0.233060 0.729703 0.711217
O O2 0.989977 0.343413 0.868590
O O3 0.096282 0.371158 0.839343
O O4 0.447549 0.675036 0.259810
O O5 0.622867 0.630560 0.773373
O O6 0.545533 0.650947 0.815176
O O7 0.657116 0.904075 0.549653
O O8 0.202687 0.383791 0.370883
O O9 0.500000 0.500000 0.500000
O O10 0.899263 0.984320 0.678186
O O11 0.768126 0.141897 0.901946
O O12 0.537394 0.156252 0.540360
O O13 0.769514 0.108339 0.155331
O O14 0.000000 0.500000 0.000000
O O15 0.248088 0.076335 0.973405
O O16 0.064931 0.746921 0.518075
O O17 0.752663 0.535931 0.351398
#
# Coordination Sequence:
#
# PCOD9081293 Si02
#       8
#     2   2   2   2   2   2   2   2
#     4  10  21  35  64  88 127 157 210 252 302 373
#     4  10  21  39  61  83 125 156 201 256 303 364
#     4  10  24  42  63  87 119 170 213 251 303 356
#     4  10  19  31  53  87 129 160 187 242 315 366
#     4  11  20  34  56  87 123 164 195 243 303 376
#     4  10  21  36  59  99 122 159 198 254 319 365
#     4  10  22  37  59  87 129 155 198 255 308 367
#     4  11  21  35  58  90 125 159 200 244 317 374
#
# _framework density 25.251662
#
# number of rings (size 3 to 8) (size 9 to 14) (size 15 to 20)
#    0.000    1.750    3.750    1.875    3.500    3.500 
#    0.000    3.125    0.000    3.000    0.000    0.000 
#    0.000    0.000    0.000    0.000    0.000    0.000 
#
# Total GULP energy -89471.905106 kJ/mol
# GULP energy per Si atom -5591.994069 kJ/mol
# Density = 2.519419 g / cm^3
# Si number density = 25.251662 Si / 1000 Ang^3
#
#
#
# Elastic Constant Matrix: (Units=GPa)
#
#
# Indices 1 2 3 4 5 6 
#
# 1 213.0258 69.1795 24.2226 7.9695 -36.2427 -0.5680
# 2 69.1795 111.4506 31.5656 23.1692 -8.7388 -3.0781
# 3 24.2226 31.5656 87.0969 12.2806 -7.8934 1.6747
# 4 7.9695 23.1692 12.2806 33.7004 -1.5095 -11.1617
# 5 -36.2427 -8.7388 -7.8934 -1.5095 29.8485 8.3654
# 6 -0.5680 -3.0781 1.6747 -11.1617 8.3654 47.4930
#
#
#
# Elastic Compliance Matrix: (Units=1/GPa)
#
#
# Indices 1 2 3 4 5 6 
#
# 1 0.007419 -0.004241 0.000102 0.001030 0.008238 -0.001399
# 2 -0.004241 0.013861 -0.002940 -0.007712 -0.002122 -0.000487
# 3 0.000102 -0.002940 0.013322 -0.003382 0.003180 -0.002014
# 4 0.001030 -0.007712 -0.003382 0.038905 -0.002518 0.009219
# 5 0.008238 -0.002122 0.003180 -0.002518 0.046081 -0.008860
# 6 -0.001399 -0.000487 -0.002014 0.009219 -0.008860 0.024806
#
#
# Mechanical properties :
#
#
# Convention : Reuss Voigt Hill
#
# Bulk Modulus (GPa) = 48.91107 73.50097 61.20602
# Shear Modulus (GPa) = 30.23608 41.31540 35.77574
#
# Velocity S-wave (km/s) = 3.46409 4.04932 3.76808
# Velocity P-wave (km/s) = 5.95074 7.14375 6.57437
#
# Compressibility (1/GPa) = 0.02044527
#
# Stress axis : x y z
#
# Youngs Moduli (GPa) = 134.78583 72.14554 75.06204
#
# Poissons Ratio (x) = 0.30596 -0.00765
# Poissons Ratio (y) = 0.57161 0.22065
# Poissons Ratio (z) = -0.01374 0.21208
#
# Static dielectric constant tensor:
#      x y z
#    x 2.197520 -0.033590 0.086420 
#    y -0.033590 2.005330 -0.116570 
#    z 0.086420 -0.116570 2.193950 
# 
# From -- ./inp_files/433826.got.cif
#   From: 2010.05.17/outbox.cif.g08.bks.cpg/sg2_217_cif.got.tgz:433826.got - 2010.06.03 11:33:40.
