data_PCOD9081705
_publ_section_title
;
Structure prediction by ZEFSAII (Michael W. Deem and Ramdas Pophale) SiO2 
 PCOD9081705
Probable space group: P -1
;
_chemical_formula_sum "Si O2"
_cell_formula_units_Z 16
_cell_length_a 15.909092
_cell_length_b 12.489538
_cell_length_c 15.599678
_cell_angle_alpha 60.937154
_cell_angle_beta 42.066440
_cell_angle_gamma 27.036534
_cell_volume 771.553441
_symmetry_space_group_name_H-M "P -1"
_symmetry_group_IT_number 2
_symmetry_cell_setting 'triclinic'
loop_
_space_group_symop_operation_xyz
x,y,z
-x,-y,-z
loop_
_atom_site_type_symbol
_atom_site_label
_atom_site_fract_x
_atom_site_fract_y
_atom_site_fract_z
Si Si1 0.132663 0.311330 0.735005
Si Si2 0.695545 0.288105 0.351898
Si Si3 0.373215 0.919465 0.578185
Si Si4 0.876360 0.176904 0.658149
Si Si5 0.581025 0.269000 0.712736
Si Si6 0.311034 0.214746 0.261047
Si Si7 0.661284 0.778750 0.038679
Si Si8 0.884269 0.422404 0.609760
O O1 0.358753 0.225569 0.590886
O O2 0.876108 0.559933 0.761891
O O3 0.277303 0.056624 0.690826
O O4 0.975493 0.461820 0.886627
O O5 0.500000 0.500000 0.500000
O O6 0.572171 0.274004 0.403307
O O7 0.680544 0.418430 0.251384
O O8 0.004729 0.981422 0.280689
O O9 0.115933 0.176795 0.603896
O O10 0.684198 0.249116 0.726454
O O11 0.734365 0.433920 0.682713
O O12 0.154920 0.958418 0.468867
O O13 0.507122 0.197437 0.821346
O O14 0.331991 0.289430 0.294928
O O15 0.090831 0.304734 0.428809
O O16 0.613166 0.900057 0.113914
O O17 0.500000 0.000000 0.000000
#
# Coordination Sequence:
#
# PCOD9081705 Si02
#       8
#     2   2   2   2   2   2   2   2
#     4   9  19  33  55  75 105 142 176 224 269 324
#     4   9  19  32  54  80 109 135 178 236 266 313
#     4   9  18  34  53  80 101 135 184 223 273 314
#     4   9  18  32  55  80 109 137 182 231 262 318
#     4  10  19  32  54  80 104 147 184 217 275 327
#     4   9  17  29  52  76 104 139 171 218 267 321
#     4  10  20  34  54  77 111 142 178 223 274 328
#     4   9  16  30  52  79 106 132 174 227 267 309
#
# _framework density 20.737383000000001
#
# number of rings (size 3 to 8) (size 9 to 14) (size 15 to 20)
#    0.000    2.750    1.250    0.000    1.750    3.000 
#    0.000    1.250    5.500   13.500    0.000    0.000 
#    0.000    0.000    0.000    0.000    0.000    0.000 
#
# Total GULP energy -89153.775114 kJ/mol
# GULP energy per Si atom -5572.110945 kJ/mol
# Density = 2.069018 g / cm^3
# Si number density = 20.737383 Si / 1000 Ang^3
#
#
#
# Elastic Constant Matrix: (Units=GPa)
#
#
# Indices 1 2 3 4 5 6 
#
# 1 110.4853 47.5285 27.2537 3.9222 17.1170 23.7914
# 2 47.5285 69.2290 26.0706 -20.5311 3.4055 19.1501
# 3 27.2537 26.0706 49.8063 5.3907 24.4265 10.7208
# 4 3.9222 -20.5311 5.3907 27.0198 11.9412 6.8039
# 5 17.1170 3.4055 24.4265 11.9412 23.8975 7.3536
# 6 23.7914 19.1501 10.7208 6.8039 7.3536 40.6520
#
#
#
# Elastic Compliance Matrix: (Units=1/GPa)
#
#
# Indices 1 2 3 4 5 6 
#
# 1 0.016722 -0.016864 0.005282 -0.012490 -0.008874 0.000461
# 2 -0.016864 0.056159 -0.028312 0.049406 0.014485 -0.020008
# 3 0.005282 -0.028312 0.060281 -0.010206 -0.058295 0.006602
# 4 -0.012490 0.049406 -0.010206 0.097242 -0.028762 -0.024346
# 5 -0.008874 0.014485 -0.058295 -0.028762 0.121126 -0.003353
# 6 0.000461 -0.020008 0.006602 -0.024346 -0.003353 0.036695
#
#
# Mechanical properties :
#
#
# Convention : Reuss Voigt Hill
#
# Bulk Modulus (GPa) = 18.73630 47.91403 33.32517
# Shear Modulus (GPa) = 10.29222 26.89173 18.59197
#
# Velocity S-wave (km/s) = 2.23022 3.60498 2.99748
# Velocity P-wave (km/s) = 3.96062 6.36264 5.29951
#
# Compressibility (1/GPa) = 0.05337233
#
# Stress axis : x y z
#
# Youngs Moduli (GPa) = 59.80291 17.80658 16.58911
#
# Poissons Ratio (x) = 0.30029 -0.08762
# Poissons Ratio (y) = 1.00852 0.46968
# Poissons Ratio (z) = -0.31587 0.50414
#
# Static dielectric constant tensor:
#      x y z
#    x 1.776070 0.013010 0.034970 
#    y 0.013010 1.894460 0.011500 
#    z 0.034970 0.011500 1.717400 
# 
# From -- ./inp_files/282348.got.cif
#   From: 2010.05.17/outbox.cif.g08.bks.cpg/sg2_142_cif.got.tgz:282348.got - 2010.06.03 11:33:40.
