data_PCOD9081407
_publ_section_title
;
Structure prediction by ZEFSAII (Michael W. Deem and Ramdas Pophale) SiO2 
 PCOD9081407
Probable space group: P -1
;
_chemical_formula_sum "Si O2"
_cell_formula_units_Z 10
_cell_length_a 9.490279
_cell_length_b 11.819280
_cell_length_c 13.827655
_cell_angle_alpha 148.219708
_cell_angle_beta 46.042100
_cell_angle_gamma 129.909195
_cell_volume 582.569194
_symmetry_space_group_name_H-M "P -1"
_symmetry_group_IT_number 2
_symmetry_cell_setting 'triclinic'
loop_
_space_group_symop_operation_xyz
x,y,z
-x,-y,-z
loop_
_atom_site_type_symbol
_atom_site_label
_atom_site_fract_x
_atom_site_fract_y
_atom_site_fract_z
Si Si1 0.169583 0.908215 0.911272
Si Si2 0.507600 0.185927 0.049908
Si Si3 0.122119 0.215362 0.644238
Si Si4 0.546676 0.401929 0.510753
Si Si5 0.941807 0.300097 0.979969
O O1 0.091513 0.827767 0.996554
O O2 0.363436 0.085617 0.962569
O O3 0.260039 0.712870 0.674700
O O4 0.000000 0.000000 0.000000
O O5 0.427912 0.396367 0.282781
O O6 0.741446 0.251586 0.974881
O O7 0.500000 0.000000 0.000000
O O8 0.349310 0.245027 0.522512
O O9 0.104408 0.224091 0.776086
O O10 0.041987 0.442841 0.818548
O O11 0.000000 0.000000 0.500000
O O12 0.500000 0.500000 0.500000
#
# Coordination Sequence:
#
# PCOD9081407 Si02
#       5
#     2   2   2   2   2
#     4  11  22  35  55  84 116 147 181 229 279 323
#     4   9  17  32  57  77 109 140 182 228 269 313
#     4  10  19  31  58  84 107 137 187 232 271 312
#     4  11  19  35  57  84 106 145 191 224 266 334
#     4   9  19  34  53  84 108 139 186 228 268 330
#
# _framework density 17.165343
#
# number of rings (size 3 to 8) (size 9 to 14) (size 15 to 20)
#    0.000    2.000    6.000    1.200    2.800    0.800 
#    0.000    1.000    0.000   16.800    0.000    0.000 
#    0.000    0.000    0.000    0.000    0.000    0.000 
#
# Total GULP energy -55680.872728 kJ/mol
# GULP energy per Si atom -5568.087273 kJ/mol
# Density = 1.712627 g / cm^3
# Si number density = 17.165343 Si / 1000 Ang^3
#
#
#
# Elastic Constant Matrix: (Units=GPa)
#
#
# Indices 1 2 3 4 5 6 
#
# 1 74.3982 28.9138 37.0372 5.0853 -16.8785 1.9667
# 2 28.9138 96.3199 40.9364 -7.6409 -0.1258 0.7621
# 3 37.0372 40.9364 91.6692 -6.9521 -11.9345 -1.8938
# 4 5.0853 -7.6409 -6.9521 36.3420 6.2278 12.4760
# 5 -16.8785 -0.1258 -11.9345 6.2278 27.4558 3.6359
# 6 1.9667 0.7621 -1.8938 12.4760 3.6359 20.6952
#
#
#
# Elastic Compliance Matrix: (Units=1/GPa)
#
#
# Indices 1 2 3 4 5 6 
#
# 1 0.021207 -0.004580 -0.005462 -0.006975 0.012263 -0.000296
# 2 -0.004580 0.014215 -0.004939 0.004404 -0.005603 -0.002211
# 3 -0.005462 -0.004939 0.015880 0.002133 0.002993 0.000342
# 4 -0.006975 0.004404 0.002133 0.038614 -0.009326 -0.020944
# 5 0.012263 -0.005603 0.002993 -0.009326 0.047810 -0.003463
# 6 -0.000296 -0.002211 0.000342 -0.020944 -0.003463 0.061696
#
#
# Mechanical properties :
#
#
# Convention : Reuss Voigt Hill
#
# Bulk Modulus (GPa) = 46.85777 52.90689 49.88233
# Shear Modulus (GPa) = 21.14199 27.26527 24.20363
#
# Velocity S-wave (km/s) = 3.51332 3.98979 3.75911
# Velocity P-wave (km/s) = 6.61929 7.21896 6.92562
#
# Compressibility (1/GPa) = 0.02134118
#
# Stress axis : x y z
#
# Youngs Moduli (GPa) = 47.15514 70.34602 62.97413
#
# Poissons Ratio (x) = 0.32216 0.34393
# Poissons Ratio (y) = 0.21596 0.31103
# Poissons Ratio (z) = 0.25754 0.34744
#
# Static dielectric constant tensor:
#      x y z
#    x 1.553660 0.019900 0.010180 
#    y 0.019900 1.640060 -0.013610 
#    z 0.010180 -0.013610 1.584280 
# 
# From -- ./inp_files/146809.got.cif
#   From: 2010.05.17/outbox.cif.g08.bks.cpg/sg2_74_cif.got.tgz:146809.got - 2010.06.03 11:33:40.
