data_PCOD9081532
_publ_section_title
;
Structure prediction by ZEFSAII (Michael W. Deem and Ramdas Pophale) SiO2 
 PCOD9081532
Probable space group: P -1
;
_chemical_formula_sum "Si O2"
_cell_formula_units_Z 12
_cell_length_a 6.773772
_cell_length_b 8.546987
_cell_length_c 9.738651
_cell_angle_alpha 113.012432
_cell_angle_beta 86.033958
_cell_angle_gamma 127.263969
_cell_volume 402.063909
_symmetry_space_group_name_H-M "P -1"
_symmetry_group_IT_number 2
_symmetry_cell_setting 'triclinic'
loop_
_space_group_symop_operation_xyz
x,y,z
-x,-y,-z
loop_
_atom_site_type_symbol
_atom_site_label
_atom_site_fract_x
_atom_site_fract_y
_atom_site_fract_z
Si Si1 0.579882 0.300289 0.558419
Si Si2 0.378173 0.695542 0.041741
Si Si3 0.109481 0.225333 0.869917
Si Si4 0.071631 0.816488 0.440617
Si Si5 0.875465 0.763609 0.727812
Si Si6 0.610179 0.166568 0.218970
O O1 0.817661 0.313125 0.600392
O O2 0.634206 0.516512 0.686659
O O3 0.592785 0.284765 0.387744
O O4 0.323216 0.068513 0.534630
O O5 0.154070 0.439494 0.998941
O O6 0.394303 0.740994 0.893749
O O7 0.629462 0.733643 0.095733
O O8 0.401761 0.902400 0.165571
O O9 0.058998 0.222503 0.710548
O O10 0.901512 0.973023 0.843321
O O11 0.899415 0.767072 0.562447
O O12 0.126380 0.798019 0.776976
#
# Coordination Sequence:
#
# PCOD9081532 Si02
#       6
#     2   2   2   2   2   2
#     4  10  20  34  55  80 103 133 172 213 258 305
#     4   9  18  32  54  75 101 141 176 208 249 302
#     4  10  19  32  51  78 106 136 171 209 258 306
#     4  10  20  34  53  80 106 132 170 214 259 305
#     4  10  19  33  56  80 104 134 166 212 265 305
#     4   9  17  33  54  76 101 136 177 210 249 304
#
# _framework density 29.846001000000001
#
# number of rings (size 3 to 8) (size 9 to 14) (size 15 to 20)
#    0.000    2.333    0.000    4.500    0.000    0.667 
#    0.000    1.667    0.000   14.000    0.000    0.000 
#    0.000    0.000    0.000    0.000    0.000    0.000 
#
# Total GULP energy -67422.083055 kJ/mol
# GULP energy per Si atom -5618.506921 kJ/mol
# Density = 2.977807 g / cm^3
# Si number density = 29.846001 Si / 1000 Ang^3
#
#
#
# Elastic Constant Matrix: (Units=GPa)
#
#
# Indices 1 2 3 4 5 6 
#
# 1 136.3679 57.8197 39.3499 10.4918 -2.9694 -41.4584
# 2 57.8197 199.9241 92.4649 64.5658 -14.0792 -20.5251
# 3 39.3499 92.4649 161.6217 -5.3046 11.9529 -29.3818
# 4 10.4918 64.5658 -5.3046 109.2526 -19.7697 -5.7787
# 5 -2.9694 -14.0792 11.9529 -19.7697 38.4276 -1.8351
# 6 -41.4584 -20.5251 -29.3818 -5.7787 -1.8351 57.5819
#
#
#
# Elastic Compliance Matrix: (Units=1/GPa)
#
#
# Indices 1 2 3 4 5 6 
#
# 1 0.010414 -0.002752 0.000264 0.001108 0.000608 0.006782
# 2 -0.002752 0.010455 -0.006014 -0.005873 0.002379 -0.001837
# 3 0.000264 -0.006014 0.010613 0.003617 -0.003446 0.003714
# 4 0.001108 -0.005873 0.003617 0.013497 0.003849 0.002027
# 5 0.000608 0.002379 -0.003446 0.003849 0.030035 0.000871
# 6 0.006782 -0.001837 0.003714 0.002027 0.000871 0.023721
#
#
# Mechanical properties :
#
#
# Convention : Reuss Voigt Hill
#
# Bulk Modulus (GPa) = 69.08139 97.46474 83.27307
# Shear Modulus (GPa) = 41.47110 61.60437 51.53774
#
# Velocity S-wave (km/s) = 3.73165 4.54814 4.15997
# Velocity P-wave (km/s) = 6.46244 7.76579 7.14390
#
# Compressibility (1/GPa) = 0.01447568
#
# Stress axis : x y z
#
# Youngs Moduli (GPa) = 96.02555 95.64796 94.22783
#
# Poissons Ratio (x) = 0.26326 -0.02483
# Poissons Ratio (y) = 0.26430 0.56668
# Poissons Ratio (z) = -0.02530 0.57522
#
# Static dielectric constant tensor:
#      x y z
#    x 2.321730 0.000370 0.062160 
#    y 0.000370 2.255580 0.042010 
#    z 0.062160 0.042010 2.263260 
# 
# From -- ./inp_files/144863.got.cif
#   From: 2010.05.17/outbox.cif.g08.bks.cpg/sg2_73_cif.got.tgz:144863.got - 2010.06.03 11:33:40.
