data_PCOD9081671
_publ_section_title
;
Structure prediction by ZEFSAII (Michael W. Deem and Ramdas Pophale) SiO2 
 PCOD9081671
Probable space group: P -1
;
_chemical_formula_sum "Si O2"
_cell_formula_units_Z 16
_cell_length_a 14.425614
_cell_length_b 13.657561
_cell_length_c 11.200083
_cell_angle_alpha 46.953690
_cell_angle_beta 150.977448
_cell_angle_gamma 125.286134
_cell_volume 781.212646
_symmetry_space_group_name_H-M "P -1"
_symmetry_group_IT_number 2
_symmetry_cell_setting 'triclinic'
loop_
_space_group_symop_operation_xyz
x,y,z
-x,-y,-z
loop_
_atom_site_type_symbol
_atom_site_label
_atom_site_fract_x
_atom_site_fract_y
_atom_site_fract_z
Si Si1 0.064605 0.052447 0.790219
Si Si2 0.446945 0.610703 0.694059
Si Si3 0.793119 0.439647 0.305054
Si Si4 0.731366 0.223282 0.852964
Si Si5 0.317414 0.829332 0.709171
Si Si6 0.473530 0.159570 0.825887
Si Si7 0.052925 0.158521 0.439216
Si Si8 0.408408 0.130660 0.227412
O O1 0.069472 0.161400 0.597560
O O2 0.838940 0.045353 0.564290
O O3 0.183798 0.113005 0.980389
O O4 0.177385 0.911284 0.999350
O O5 0.306579 0.551477 0.683902
O O6 0.328255 0.659745 0.403680
O O7 0.528650 0.743213 0.734061
O O8 0.637816 0.514511 0.979107
O O9 0.791074 0.287105 0.383511
O O10 0.000000 0.500000 0.500000
O O11 0.546406 0.195318 0.747660
O O12 0.890774 0.245617 0.114855
O O13 0.499841 0.860085 0.808892
O O14 0.394535 0.789470 0.960392
O O15 0.252590 0.190614 0.578927
O O16 0.500000 0.000000 0.000000
O O17 0.000000 0.000000 0.500000
O O18 0.500000 0.000000 0.500000
#
# Coordination Sequence:
#
# PCOD9081671 Si02
#       8
#     2   2   2   2   2   2   2   2
#     4  11  19  35  56  88 131 158 194 243 305 376
#     4  10  23  42  64  89 122 161 205 266 308 360
#     4  10  23  47  67  84 116 169 221 255 304 358
#     4  11  21  36  57  94 129 157 201 247 311 374
#     4  11  23  37  64  91 119 166 211 247 307 374
#     4  12  19  35  60  90 128 171 195 241 315 375
#     4  10  19  32  53  83 125 169 194 231 294 373
#     4  11  21  37  57  93 127 154 198 258 317 367
#
# _framework density 20.480979000000001
#
# number of rings (size 3 to 8) (size 9 to 14) (size 15 to 20)
#    0.000    1.250    6.250    1.500    0.000    1.500 
#    2.250    0.625    0.000    1.500    0.000    0.000 
#    0.000    0.000    0.000    0.000    0.000    0.000 
#
# Total GULP energy -89241.625082 kJ/mol
# GULP energy per Si atom -5577.601568 kJ/mol
# Density = 2.043436 g / cm^3
# Si number density = 20.480979 Si / 1000 Ang^3
#
#
#
# Elastic Constant Matrix: (Units=GPa)
#
#
# Indices 1 2 3 4 5 6 
#
# 1 38.5185 -2.3871 21.0369 -2.4202 2.4744 4.4203
# 2 -2.3871 39.2599 10.7830 14.3991 5.2065 6.8497
# 3 21.0369 10.7830 141.9594 10.8645 -10.5313 12.0977
# 4 -2.4202 14.3991 10.8645 30.6041 5.2829 2.1785
# 5 2.4744 5.2065 -10.5313 5.2829 35.9507 4.4520
# 6 4.4203 6.8497 12.0977 2.1785 4.4520 18.8175
#
#
#
# Elastic Compliance Matrix: (Units=1/GPa)
#
#
# Indices 1 2 3 4 5 6 
#
# 1 0.029787 0.003125 -0.004829 0.003592 -0.003885 -0.004527
# 2 0.003125 0.033067 -0.001233 -0.013805 -0.002113 -0.009880
# 3 -0.004829 -0.001233 0.008815 -0.003316 0.004161 -0.004685
# 4 0.003592 -0.013805 -0.003316 0.041405 -0.005658 0.002858
# 5 -0.003885 -0.002113 0.004161 -0.005658 0.031401 -0.007767
# 6 -0.004527 -0.009880 -0.004685 0.002858 -0.007767 0.062320
#
#
# Mechanical properties :
#
#
# Convention : Reuss Voigt Hill
#
# Bulk Modulus (GPa) = 15.19864 30.95593 23.07728
# Shear Modulus (GPa) = 21.31269 29.76147 25.53708
#
# Velocity S-wave (km/s) = 3.22935 3.81613 3.53493
# Velocity P-wave (km/s) = 4.61973 5.87915 5.28707
#
# Compressibility (1/GPa) = 0.06579537
#
# Stress axis : x y z
#
# Youngs Moduli (GPa) = 33.57139 30.24150 113.44118
#
# Poissons Ratio (x) = -0.09450 0.54779
# Poissons Ratio (y) = -0.10490 0.13988
# Poissons Ratio (z) = 0.16211 0.03729
#
# Static dielectric constant tensor:
#      x y z
#    x 1.982030 -0.052470 0.127920 
#    y -0.052470 1.813130 -0.038470 
#    z 0.127920 -0.038470 1.851520 
# 
# From -- ./inp_files/454560.got.cif
#   From: 2010.05.17/outbox.cif.g08.bks.cpg/sg2_228_cif.got.tgz:454560.got - 2010.06.03 11:33:40.
