data_PCOD9081479
_publ_section_title
;
Structure prediction by ZEFSAII (Michael W. Deem and Ramdas Pophale) SiO2 
 PCOD9081479
Probable space group: P -1
;
_chemical_formula_sum "Si O2"
_cell_formula_units_Z 14
_cell_length_a 14.419188
_cell_length_b 10.810669
_cell_length_c 10.007862
_cell_angle_alpha 101.604009
_cell_angle_beta 75.173090
_cell_angle_gamma 152.851136
_cell_volume 686.899924
_symmetry_space_group_name_H-M "P -1"
_symmetry_group_IT_number 2
_symmetry_cell_setting 'triclinic'
loop_
_space_group_symop_operation_xyz
x,y,z
-x,-y,-z
loop_
_atom_site_type_symbol
_atom_site_label
_atom_site_fract_x
_atom_site_fract_y
_atom_site_fract_z
Si Si1 0.107450 0.258822 0.637295
Si Si2 0.480677 0.201607 0.116351
Si Si3 0.444104 0.484218 0.664784
Si Si4 0.899616 0.758162 0.921903
Si Si5 0.132571 0.793233 0.928659
Si Si6 0.258033 0.344202 0.327202
Si Si7 0.241616 0.659585 0.837080
O O1 0.215195 0.271419 0.685231
O O2 0.212714 0.379616 0.478949
O O3 0.148637 0.439515 0.732226
O O4 0.876376 0.938144 0.648539
O O5 0.694787 0.487275 0.025131
O O6 0.297212 0.998385 0.033591
O O7 0.450152 0.266961 0.259908
O O8 0.535850 0.130795 0.148834
O O9 0.500000 0.500000 0.500000
O O10 0.511713 0.444498 0.721086
O O11 0.815972 0.682782 0.787962
O O12 0.073521 0.852064 0.886838
O O13 0.000000 0.000000 0.000000
O O14 0.221037 0.776206 0.810767
O O15 0.909563 0.505809 0.015695
#
# Coordination Sequence:
#
# PCOD9081479 Si02
#       7
#     2   2   2   2   2   2   2
#     4   9  18  33  53  73  95 126 165 208 246 286
#     4  10  19  32  52  74  99 132 163 203 253 292
#     4   9  17  29  47  71  95 122 159 198 239 286
#     4  11  22  33  47  74 106 131 161 201 249 304
#     4  10  20  33  51  74 100 131 164 203 248 294
#     4  10  19  32  50  74 101 128 161 201 248 297
#     4   9  18  34  53  74  97 125 170 211 240 287
#
# _framework density 20.381425
#
# number of rings (size 3 to 8) (size 9 to 14) (size 15 to 20)
#    0.000    2.286    0.000    4.714    0.000    3.429 
#    0.000    0.714    0.000    0.857    0.000    0.000 
#    0.000    0.000    0.000    0.000    0.000    0.000 
#
# Total GULP energy -77943.084122 kJ/mol
# GULP energy per Si atom -5567.363152 kJ/mol
# Density = 2.033504 g / cm^3
# Si number density = 20.381425 Si / 1000 Ang^3
#
#
#
# Elastic Constant Matrix: (Units=GPa)
#
#
# Indices 1 2 3 4 5 6 
#
# 1 197.0997 23.5259 65.2392 13.0368 -9.3359 19.4383
# 2 23.5259 39.8523 5.0681 9.0372 -3.3551 12.5848
# 3 65.2392 5.0681 93.4685 20.3921 -8.4109 0.3121
# 4 13.0368 9.0372 20.3921 24.5346 1.6324 -0.6758
# 5 -9.3359 -3.3551 -8.4109 1.6324 33.6578 6.3260
# 6 19.4383 12.5848 0.3121 -0.6758 6.3260 27.0312
#
#
#
# Elastic Compliance Matrix: (Units=1/GPa)
#
#
# Indices 1 2 3 4 5 6 
#
# 1 0.007534 -0.002492 -0.005215 0.001037 0.001330 -0.004483
# 2 -0.002492 0.035839 0.004126 -0.016308 0.007937 -0.017206
# 3 -0.005215 0.004126 0.017401 -0.013460 0.003894 0.000380
# 4 0.001037 -0.016308 -0.013460 0.058331 -0.009540 0.010693
# 5 0.001330 0.007937 0.003894 -0.009540 0.034764 -0.013071
# 6 -0.004483 -0.017206 0.000380 0.010693 -0.013071 0.051550
#
#
# Mechanical properties :
#
#
# Convention : Reuss Voigt Hill
#
# Bulk Modulus (GPa) = 18.65286 57.56521 38.10903
# Shear Modulus (GPa) = 21.69666 32.81722 27.25694
#
# Velocity S-wave (km/s) = 3.26625 4.01702 3.66094
# Velocity P-wave (km/s) = 4.83697 7.05837 6.05049
#
# Compressibility (1/GPa) = 0.05361108
#
# Stress axis : x y z
#
# Youngs Moduli (GPa) = 132.73975 27.90270 57.46920
#
# Poissons Ratio (x) = 0.06953 0.29969
# Poissons Ratio (y) = 0.33075 -0.23709
# Poissons Ratio (z) = 0.69220 -0.11511
#
# Static dielectric constant tensor:
#      x y z
#    x 1.830800 0.001870 0.010420 
#    y 0.001870 1.777150 -0.001950 
#    z 0.010420 -0.001950 1.729460 
# 
# From -- ./inp_files/284093.got.cif
#   From: 2010.05.17/outbox.cif.g08.bks.cpg/sg2_143_cif.got.tgz:284093.got - 2010.06.03 11:33:40.
