data_PCOD9081564
_publ_section_title
;
Structure prediction by ZEFSAII (Michael W. Deem and Ramdas Pophale) SiO2 
 PCOD9081564
Probable space group: P -1
;
_chemical_formula_sum "Si O2"
_cell_formula_units_Z 16
_cell_length_a 30.982843
_cell_length_b 28.820374
_cell_length_c 20.835627
_cell_angle_alpha 14.470349
_cell_angle_beta 166.315605
_cell_angle_gamma 170.592152
_cell_volume 696.306484
_symmetry_space_group_name_H-M "P -1"
_symmetry_group_IT_number 2
_symmetry_cell_setting 'triclinic'
loop_
_space_group_symop_operation_xyz
x,y,z
-x,-y,-z
loop_
_atom_site_type_symbol
_atom_site_label
_atom_site_fract_x
_atom_site_fract_y
_atom_site_fract_z
Si Si1 0.566149 0.252848 0.887130
Si Si2 0.931783 0.666805 0.309620
Si Si3 0.812743 0.758776 0.137236
Si Si4 0.245282 0.385996 0.200917
Si Si5 0.850560 0.267981 0.652016
Si Si6 0.317975 0.261011 0.899423
Si Si7 0.010126 0.401705 0.077982
Si Si8 0.673573 0.722709 0.255902
O O1 0.400546 0.312161 0.545320
O O2 0.706446 0.427620 0.922587
O O3 0.793944 0.372166 0.001151
O O4 0.317953 0.904080 0.005556
O O5 0.988914 0.771018 0.325844
O O6 0.964758 0.476095 0.598709
O O7 0.609056 0.443813 0.114018
O O8 0.106400 0.960258 0.129644
O O9 0.829520 0.718341 0.290077
O O10 0.500000 0.500000 0.000000
O O11 0.413760 0.564597 0.139512
O O12 0.909231 0.071900 0.129782
O O13 0.000000 0.500000 0.500000
O O14 0.500000 0.000000 0.500000
O O15 0.889992 0.080201 0.952655
O O16 0.400599 0.379547 0.788240
O O17 0.165357 0.329875 0.414389
O O18 0.000000 0.500000 0.000000
#
# Coordination Sequence:
#
# PCOD9081564 Si02
#       8
#     2   2   2   2   2   2   2   2
#     4   9  17  32  56  76 103 135 178 221 254 308
#     4   9  18  32  52  76 101 136 182 221 261 322
#     4   9  17  31  52  75  99 136 182 214 260 319
#     4   9  18  33  52  79 101 136 174 218 268 312
#     4  10  19  32  52  77 100 132 177 219 262 310
#     4  10  20  32  53  77 107 141 173 230 278 314
#     4  10  19  33  54  82 106 142 182 216 256 316
#     4  10  21  32  53  80 109 134 176 223 271 323
#
# _framework density 22.978389
#
# number of rings (size 3 to 8) (size 9 to 14) (size 15 to 20)
#    0.000    2.500    1.250    1.125    1.750    3.000 
#    0.000    0.000    5.500    1.500    0.000    0.000 
#    0.000    0.000    0.000    0.000    0.000    0.000 
#
# Total GULP energy -89181.992398 kJ/mol
# GULP energy per Si atom -5573.874525 kJ/mol
# Density = 2.292609 g / cm^3
# Si number density = 22.978389 Si / 1000 Ang^3
#
#
#
# Elastic Constant Matrix: (Units=GPa)
#
#
# Indices 1 2 3 4 5 6 
#
# 1 168.9719 52.8122 2.1953 10.0701 5.6074 3.3164
# 2 52.8122 136.7236 19.3373 -11.5136 13.6532 7.1890
# 3 2.1953 19.3373 32.5056 -2.6950 4.1486 5.0916
# 4 10.0701 -11.5136 -2.6950 21.9310 -2.8093 1.5654
# 5 5.6074 13.6532 4.1486 -2.8093 21.4804 -3.1781
# 6 3.3164 7.1890 5.0916 1.5654 -3.1781 43.5463
#
#
#
# Elastic Compliance Matrix: (Units=1/GPa)
#
#
# Indices 1 2 3 4 5 6 
#
# 1 0.007264 -0.003326 0.001157 -0.005024 -0.000664 -0.000007
# 2 -0.003326 0.010242 -0.004623 0.005901 -0.004186 -0.001415
# 3 0.001157 -0.004623 0.034677 0.000996 -0.004484 -0.003743
# 4 -0.005024 0.005901 0.000996 0.051775 0.003801 -0.002292
# 5 -0.000664 -0.004186 -0.004484 0.003801 0.051474 0.004886
# 6 -0.000007 -0.001415 -0.003743 -0.002292 0.004886 0.024075
#
#
# Mechanical properties :
#
#
# Convention : Reuss Voigt Hill
#
# Bulk Modulus (GPa) = 25.90688 54.09898 40.00293
# Shear Modulus (GPa) = 24.27681 34.98194 29.62938
#
# Velocity S-wave (km/s) = 3.25392 3.90601 3.59478
# Velocity P-wave (km/s) = 5.04145 6.62850 5.88869
#
# Compressibility (1/GPa) = 0.03859978
#
# Stress axis : x y z
#
# Youngs Moduli (GPa) = 137.66040 97.63720 28.83740
#
# Poissons Ratio (x) = 0.32475 -0.03338
# Poissons Ratio (y) = 0.45787 0.13332
# Poissons Ratio (z) = -0.15932 0.45139
#
# Static dielectric constant tensor:
#      x y z
#    x 1.937080 0.016600 -0.007610 
#    y 0.016600 1.833140 0.020710 
#    z -0.007610 0.020710 1.914800 
# 
# From -- ./inp_files/602588.got.cif
#   From: 2010.05.17/outbox.cif.g08.bks.cpg/sg2_302_cif.got.tgz:602588.got - 2010.06.03 11:33:40.
