data_PCOD9081268
_publ_section_title
;
Structure prediction by ZEFSAII (Michael W. Deem and Ramdas Pophale) SiO2 
 PCOD9081268
Probable space group: P -1
;
_chemical_formula_sum "Si O2"
_cell_formula_units_Z 16
_cell_length_a 14.981221
_cell_length_b 14.560451
_cell_length_c 7.756552
_cell_angle_alpha 127.541589
_cell_angle_beta 109.253630
_cell_angle_gamma 28.743975
_cell_volume 544.524806
_symmetry_space_group_name_H-M "P -1"
_symmetry_group_IT_number 2
_symmetry_cell_setting 'triclinic'
loop_
_space_group_symop_operation_xyz
x,y,z
-x,-y,-z
loop_
_atom_site_type_symbol
_atom_site_label
_atom_site_fract_x
_atom_site_fract_y
_atom_site_fract_z
Si Si1 0.181562 0.454198 0.568431
Si Si2 0.657362 0.167833 0.337653
Si Si3 0.740552 0.619699 0.074578
Si Si4 0.722936 0.946537 0.652456
Si Si5 0.329535 0.090308 0.815814
Si Si6 0.749534 0.145003 0.753720
Si Si7 0.080521 0.820312 0.200703
Si Si8 0.164428 0.717375 0.709645
O O1 0.203651 0.392939 0.712077
O O2 0.193137 0.582774 0.713487
O O3 0.954874 0.670843 0.579788
O O4 0.410143 0.171947 0.296839
O O5 0.675963 0.185043 0.567951
O O6 0.400773 0.475796 0.495725
O O7 0.716776 0.964381 0.145010
O O8 0.846930 0.032866 0.213261
O O9 0.799469 0.645800 0.992393
O O10 0.480663 0.889879 0.201309
O O11 0.832818 0.389734 0.891791
O O12 0.704136 0.928408 0.419449
O O13 0.663311 0.150857 0.848602
O O14 0.737368 0.298606 0.916250
O O15 0.007992 0.836604 0.600797
O O16 0.000000 0.000000 0.500000
O O17 0.000000 0.000000 0.000000
#
# Coordination Sequence:
#
# PCOD9081268 Si02
#       8
#     2   2   2   2   2   2   2   2
#     4   9  18  32  52  82 110 133 168 215 270 320
#     4   9  20  38  53  71 106 142 172 220 261 297
#     4  11  21  33  53  81 107 139 181 216 258 320
#     4   9  18  33  56  82 111 136 162 219 277 312
#     4   9  19  34  54  80 107 136 175 219 265 316
#     4   9  19  34  53  76 103 137 172 210 262 315
#     4  10  22  38  54  74 105 145 185 218 256 310
#     4  10  19  31  53  81 104 133 173 214 265 320
#
# _framework density 29.383417999999999
#
# number of rings (size 3 to 8) (size 9 to 14) (size 15 to 20)
#    0.000    2.500    0.000    3.000    0.000    8.000 
#    0.000    2.500    0.000    0.000    0.000   16.625 
#    0.000    0.000    0.000    0.000    0.000    0.000 
#
# Total GULP energy -89401.950647 kJ/mol
# GULP energy per Si atom -5587.621915 kJ/mol
# Density = 2.931654 g / cm^3
# Si number density = 29.383418 Si / 1000 Ang^3
#
#
#
# Elastic Constant Matrix: (Units=GPa)
#
#
# Indices 1 2 3 4 5 6 
#
# 1 152.8691 32.1882 62.5567 38.2619 19.6250 8.4183
# 2 32.1882 150.3087 20.1138 21.2576 4.5525 -21.5352
# 3 62.5567 20.1138 111.3812 30.0694 13.6283 7.2906
# 4 38.2619 21.2576 30.0694 44.7390 9.5912 -3.0578
# 5 19.6250 4.5525 13.6283 9.5912 63.3278 24.9221
# 6 8.4183 -21.5352 7.2906 -3.0578 24.9221 56.3332
#
#
#
# Elastic Compliance Matrix: (Units=1/GPa)
#
#
# Indices 1 2 3 4 5 6 
#
# 1 0.009769 -0.001006 -0.003685 -0.005304 -0.000856 -0.001276
# 2 -0.001006 0.007766 -0.000360 -0.002066 -0.001281 0.003620
# 3 -0.003685 -0.000360 0.012642 -0.005227 -0.000203 -0.001417
# 4 -0.005304 -0.002066 -0.005227 0.032424 -0.003576 0.004022
# 5 -0.000856 -0.001281 -0.000203 -0.003576 0.020514 -0.009605
# 6 -0.001276 0.003620 -0.001417 0.004022 -0.009605 0.023977
#
#
# Mechanical properties :
#
#
# Convention : Reuss Voigt Hill
#
# Bulk Modulus (GPa) = 49.81238 71.58628 60.69933
# Shear Modulus (GPa) = 40.35999 52.86002 46.61001
#
# Velocity S-wave (km/s) = 3.71018 4.24603 3.98712
# Velocity P-wave (km/s) = 5.94502 6.96090 6.47292
#
# Compressibility (1/GPa) = 0.02007533
#
# Stress axis : x y z
#
# Youngs Moduli (GPa) = 102.36495 128.76303 79.10388
#
# Poissons Ratio (x) = 0.12950 0.29149
# Poissons Ratio (y) = 0.10295 0.02849
# Poissons Ratio (z) = 0.37720 0.04637
#
# Static dielectric constant tensor:
#      x y z
#    x 2.347600 -0.036320 0.045840 
#    y -0.036320 2.329240 -0.048180 
#    z 0.045840 -0.048180 2.437220 
# 
# From -- ./inp_files/454978.got.cif
#   From: 2010.05.17/outbox.cif.g08.bks.cpg/sg2_228_cif.got.tgz:454978.got - 2010.06.03 11:33:40.
