data_PCOD9081358
_publ_section_title
;
Structure prediction by ZEFSAII (Michael W. Deem and Ramdas Pophale) SiO2 
 PCOD9081358
Probable space group: P -1
;
_chemical_formula_sum "Si O2"
_cell_formula_units_Z 16
_cell_length_a 22.280803
_cell_length_b 8.609772
_cell_length_c 7.394730
_cell_angle_alpha 126.302946
_cell_angle_beta 135.246945
_cell_angle_gamma 40.773022
_cell_volume 647.680235
_symmetry_space_group_name_H-M "P -1"
_symmetry_group_IT_number 2
_symmetry_cell_setting 'triclinic'
loop_
_space_group_symop_operation_xyz
x,y,z
-x,-y,-z
loop_
_atom_site_type_symbol
_atom_site_label
_atom_site_fract_x
_atom_site_fract_y
_atom_site_fract_z
Si Si1 0.280311 0.304568 0.666627
Si Si2 0.214356 0.478152 0.020904
Si Si3 0.541564 0.157868 0.259778
Si Si4 0.027414 0.239830 0.323958
Si Si5 0.557293 0.357104 0.816820
Si Si6 0.595700 0.727515 0.447520
Si Si7 0.208071 0.037877 0.835756
Si Si8 0.893329 0.725138 0.848864
O O1 0.347586 0.283935 0.624548
O O2 0.168220 0.384456 0.415552
O O3 0.336624 0.030900 0.666363
O O4 0.500000 0.000000 0.000000
O O5 0.262220 0.453817 0.907526
O O6 0.304803 0.434767 0.317629
O O7 0.214004 0.250090 0.918832
O O8 0.089261 0.700178 0.903004
O O9 0.549204 0.225495 0.528109
O O10 0.475544 0.399482 0.175529
O O11 0.118090 0.053770 0.532487
O O12 0.082524 0.177501 0.204454
O O13 0.000000 0.500000 0.500000
O O14 0.468891 0.381886 0.772493
O O15 0.672276 0.193842 0.042013
O O16 0.500000 0.000000 0.500000
O O17 0.167027 0.095058 0.992862
O O18 0.000000 0.500000 0.000000
#
# Coordination Sequence:
#
# PCOD9081358 Si02
#       8
#     2   2   2   2   2   2   2   2
#     4  12  22  35  63  92 134 178 228 282 346 422
#     4  11  20  34  58  95 140 187 233 286 347 418
#     4  11  24  45  70 102 138 187 242 294 357 433
#     4  10  19  31  55  93 140 181 242 291 347 421
#     4  11  24  43  69 101 146 191 230 295 363 419
#     4  12  21  38  60  94 140 184 226 283 348 422
#     4  11  19  36  57  93 142 182 237 293 349 424
#     4  12  17  31  58  96 134 180 239 286 347 416
#
# _framework density 24.703548999999999
#
# number of rings (size 3 to 8) (size 9 to 14) (size 15 to 20)
#    0.000    0.750   10.000    0.750    0.000    0.000 
#    0.000    2.500    0.000    1.500    3.250    5.250 
#    3.750    1.125    0.000    0.000    0.000    0.000 
#
# Total GULP energy -89372.390494 kJ/mol
# GULP energy per Si atom -5585.774406 kJ/mol
# Density = 2.464732 g / cm^3
# Si number density = 24.703549 Si / 1000 Ang^3
#
#
#
# Elastic Constant Matrix: (Units=GPa)
#
#
# Indices 1 2 3 4 5 6 
#
# 1 195.2800 38.4598 57.8275 -12.4739 -11.3314 -19.9780
# 2 38.4598 92.4315 58.8669 -10.5614 17.1606 5.6784
# 3 57.8275 58.8669 195.6179 -43.6574 -2.0499 -1.4744
# 4 -12.4739 -10.5614 -43.6574 43.7159 -1.6248 5.8694
# 5 -11.3314 17.1606 -2.0499 -1.6248 45.9761 -3.8982
# 6 -19.9780 5.6784 -1.4744 5.8694 -3.8982 22.1763
#
#
#
# Elastic Compliance Matrix: (Units=1/GPa)
#
#
# Indices 1 2 3 4 5 6 
#
# 1 0.007148 -0.003528 -0.001158 -0.000928 0.003686 0.008159
# 2 -0.003528 0.017103 -0.004316 -0.000252 -0.008237 -0.009226
# 3 -0.001158 -0.004316 0.008368 0.007182 0.001871 -0.000954
# 4 -0.000928 -0.000252 0.007182 0.030865 0.000567 -0.008363
# 5 0.003686 -0.008237 0.001871 0.000567 0.026693 0.010096
# 6 0.008159 -0.009226 -0.000954 -0.008363 0.010096 0.058731
#
#
# Mechanical properties :
#
#
# Convention : Reuss Voigt Hill
#
# Bulk Modulus (GPa) = 68.42594 88.18197 78.30396
# Shear Modulus (GPa) = 29.10628 44.25200 36.67914
#
# Velocity S-wave (km/s) = 3.43625 4.23699 3.85745
# Velocity P-wave (km/s) = 6.59566 7.72721 7.18375
#
# Compressibility (1/GPa) = 0.01461434
#
# Stress axis : x y z
#
# Youngs Moduli (GPa) = 139.89755 58.47049 119.49727
#
# Poissons Ratio (x) = 0.20629 0.13842
# Poissons Ratio (y) = 0.49358 0.51573
# Poissons Ratio (z) = 0.16205 0.25235
#
# Static dielectric constant tensor:
#      x y z
#    x 2.088350 -0.109410 0.062070 
#    y -0.109410 2.110120 -0.055140 
#    z 0.062070 -0.055140 2.106710 
# 
# From -- ./inp_files/343706.got.cif
#   From: 2010.05.17/outbox.cif.g08.bks.cpg/sg2_172_cif.got.tgz:343706.got - 2010.06.03 11:33:40.
