data_PCOD9081336
_publ_section_title
;
Structure prediction by ZEFSAII (Michael W. Deem and Ramdas Pophale) SiO2 
 PCOD9081336
Probable space group: P -1
;
_chemical_formula_sum "Si O2"
_cell_formula_units_Z 16
_cell_length_a 11.577842
_cell_length_b 10.682767
_cell_length_c 25.806113
_cell_angle_alpha 31.183952
_cell_angle_beta 32.321779
_cell_angle_gamma 45.916217
_cell_volume 879.347938
_symmetry_space_group_name_H-M "P -1"
_symmetry_group_IT_number 2
_symmetry_cell_setting 'triclinic'
loop_
_space_group_symop_operation_xyz
x,y,z
-x,-y,-z
loop_
_atom_site_type_symbol
_atom_site_label
_atom_site_fract_x
_atom_site_fract_y
_atom_site_fract_z
Si Si1 0.830666 0.764190 0.136750
Si Si2 0.885841 0.678615 0.837631
Si Si3 0.736997 0.773459 0.284189
Si Si4 0.816651 0.641065 0.991960
Si Si5 0.097056 0.074344 0.360447
Si Si6 0.268196 0.771237 0.484288
Si Si7 0.549818 0.490411 0.893157
Si Si8 0.777886 0.995367 0.971619
O O1 0.700674 0.731695 0.251055
O O2 0.960698 0.530275 0.160819
O O3 0.712436 0.833171 0.104671
O O4 0.000000 0.000000 0.000000
O O5 0.915076 0.750997 0.861239
O O6 0.913958 0.887596 0.710122
O O7 0.636836 0.557233 0.975516
O O8 0.520996 0.865521 0.356265
O O9 0.759365 0.514470 0.393404
O O10 0.960727 0.939655 0.147899
O O11 0.738912 0.840979 0.989205
O O12 0.602610 0.476089 0.111032
O O13 0.000000 0.500000 0.000000
O O14 0.271236 0.292970 0.237679
O O15 0.870567 0.110079 0.461377
O O16 0.176234 0.835190 0.440392
O O17 0.665614 0.243944 0.929063
#
# Coordination Sequence:
#
# PCOD9081336 Si02
#       8
#     2   2   2   2   2   2   2   2
#     4  10  19  31  55  81 111 140 172 225 283 326
#     4  10  21  35  54  82 116 135 181 225 279 330
#     4  10  21  35  54  83 112 141 183 224 275 319
#     4  10  22  35  54  84 111 147 176 214 286 331
#     4  11  20  37  55  83 111 140 184 227 275 315
#     4  10  22  34  53  82 107 149 180 224 271 320
#     4  10  22  33  58  83 112 141 175 231 276 329
#     4  11  19  37  55  84 112 142 179 224 276 329
#
# _framework density 18.1953
#
# number of rings (size 3 to 8) (size 9 to 14) (size 15 to 20)
#    0.750    1.000    3.750    1.500    7.000    0.000 
#    0.000    0.000    0.000    1.500   13.000    0.000 
#    0.000    0.000    0.000    0.000    0.000    0.000 
#
# Total GULP energy -89132.845892 kJ/mol
# GULP energy per Si atom -5570.802868 kJ/mol
# Density = 1.815389 g / cm^3
# Si number density = 18.195300 Si / 1000 Ang^3
#
#
#
# Elastic Constant Matrix: (Units=GPa)
#
#
# Indices 1 2 3 4 5 6 
#
# 1 101.0695 17.1106 34.9626 -0.0699 33.2031 -4.4447
# 2 17.1106 36.5621 28.3984 5.2209 8.7156 -12.8106
# 3 34.9626 28.3984 72.4371 8.4295 25.8220 -8.5278
# 4 -0.0699 5.2209 8.4295 27.9402 -11.3077 -1.8723
# 5 33.2031 8.7156 25.8220 -11.3077 33.8129 1.3139
# 6 -4.4447 -12.8106 -8.5278 -1.8723 1.3139 28.0480
#
#
#
# Elastic Compliance Matrix: (Units=1/GPa)
#
#
# Indices 1 2 3 4 5 6 
#
# 1 0.016070 -0.001791 0.000460 -0.006928 -0.018075 0.002253
# 2 -0.001791 0.045732 -0.014561 -0.003349 -0.000650 0.015984
# 3 0.000460 -0.014561 0.030909 -0.016967 -0.026090 0.002909
# 4 -0.006928 -0.003349 -0.016967 0.057324 0.040021 -0.005835
# 5 -0.018075 -0.000650 -0.026090 0.040021 0.081274 -0.012230
# 6 0.002253 0.015984 0.002909 -0.005835 -0.012230 0.044379
#
#
# Mechanical properties :
#
#
# Convention : Reuss Voigt Hill
#
# Bulk Modulus (GPa) = 16.41288 41.22355 28.81821
# Shear Modulus (GPa) = 15.25400 26.60003 20.92701
#
# Velocity S-wave (km/s) = 2.89857 3.82765 3.39504
# Velocity P-wave (km/s) = 4.49914 6.49922 5.58937
#
# Compressibility (1/GPa) = 0.06092776
#
# Stress axis : x y z
#
# Youngs Moduli (GPa) = 62.22641 21.86629 32.35278
#
# Poissons Ratio (x) = 0.03916 -0.01489
# Poissons Ratio (y) = 0.11144 0.47110
# Poissons Ratio (z) = -0.02864 0.31841
#
# Static dielectric constant tensor:
#      x y z
#    x 1.659770 -0.025010 0.026490 
#    y -0.025010 1.634180 0.012150 
#    z 0.026490 0.012150 1.627590 
# 
# From -- ./inp_files/336885.got.cif
#   From: 2010.05.17/outbox.cif.g08.bks.cpg/sg2_169_cif.got.tgz:336885.got - 2010.06.03 11:33:40.
