data_PCOD9081338
_publ_section_title
;
Structure prediction by ZEFSAII (Michael W. Deem and Ramdas Pophale) SiO2 
 PCOD9081338
Probable space group: P -1
;
_chemical_formula_sum "Si O2"
_cell_formula_units_Z 16
_cell_length_a 9.808371
_cell_length_b 15.366312
_cell_length_c 8.430829
_cell_angle_alpha 147.672602
_cell_angle_beta 107.933518
_cell_angle_gamma 63.124779
_cell_volume 598.761707
_symmetry_space_group_name_H-M "P -1"
_symmetry_group_IT_number 2
_symmetry_cell_setting 'triclinic'
loop_
_space_group_symop_operation_xyz
x,y,z
-x,-y,-z
loop_
_atom_site_type_symbol
_atom_site_label
_atom_site_fract_x
_atom_site_fract_y
_atom_site_fract_z
Si Si1 0.947450 0.266748 0.665373
Si Si2 0.565573 0.994774 0.192252
Si Si3 0.311424 0.555273 0.391119
Si Si4 0.620664 0.557532 0.223837
Si Si5 0.776440 0.634298 0.666889
Si Si6 0.895050 0.617539 0.348661
Si Si7 0.394480 0.805675 0.035988
Si Si8 0.231549 0.837601 0.340052
O O1 0.779236 0.367742 0.681549
O O2 0.056873 0.242446 0.513682
O O3 0.981635 0.418072 0.008365
O O4 0.919631 0.117326 0.530285
O O5 0.623132 0.151992 0.489761
O O6 0.729128 0.829988 0.014293
O O7 0.459510 0.944839 0.202025
O O8 0.500000 0.000000 0.000000
O O9 0.206490 0.495581 0.383147
O O10 0.330382 0.718042 0.738940
O O11 0.460825 0.375095 0.136333
O O12 0.618657 0.633301 0.517594
O O13 0.710964 0.660220 0.319643
O O14 0.749252 0.361239 0.001034
O O15 0.892184 0.616513 0.536610
O O16 0.272132 0.894464 0.269357
O O17 0.500000 0.500000 0.000000
#
# Coordination Sequence:
#
# PCOD9081338 Si02
#       8
#     2   2   2   2   2   2   2   2
#     4  10  19  33  55  83 108 145 187 225 268 325
#     4  11  22  34  51  80 114 143 182 225 281 334
#     4  10  19  31  55  82 111 141 182 231 281 319
#     4   9  17  31  58  78 106 140 176 219 274 316
#     4   9  19  37  51  82 114 139 178 231 269 327
#     4   8  19  34  52  81 112 141 186 224 266 328
#     4  10  21  34  50  81 115 142 180 232 280 328
#     4  11  21  33  53  77 113 148 177 224 272 326
#
# _framework density 26.721814999999999
#
# number of rings (size 3 to 8) (size 9 to 14) (size 15 to 20)
#    0.750    1.500    1.250    1.875    3.500    0.500 
#    0.000    0.625    0.000    0.000    0.000   33.250 
#    0.000    0.000    0.000    0.000    0.000    0.000 
#
# Total GULP energy -89130.177395 kJ/mol
# GULP energy per Si atom -5570.636087 kJ/mol
# Density = 2.666100 g / cm^3
# Si number density = 26.721815 Si / 1000 Ang^3
#
#
#
# Elastic Constant Matrix: (Units=GPa)
#
#
# Indices 1 2 3 4 5 6 
#
# 1 171.5884 55.5000 27.4027 -12.6632 8.6928 70.5724
# 2 55.5000 137.0945 31.9116 -9.7411 9.4719 45.5126
# 3 27.4027 31.9116 77.5714 -4.0297 21.2641 14.9592
# 4 -12.6632 -9.7411 -4.0297 38.6128 11.7163 2.3333
# 5 8.6928 9.4719 21.2641 11.7163 36.6744 -9.6202
# 6 70.5724 45.5126 14.9592 2.3333 -9.6202 65.2709
#
#
#
# Elastic Compliance Matrix: (Units=1/GPa)
#
#
# Indices 1 2 3 4 5 6 
#
# 1 0.014733 0.002039 0.002406 0.011183 -0.014342 -0.020417
# 2 0.002039 0.011487 -0.000607 0.006708 -0.008266 -0.011533
# 3 0.002406 -0.000607 0.019021 0.008183 -0.016485 -0.009260
# 4 0.011183 0.006708 0.008183 0.042417 -0.029091 -0.024448
# 5 -0.014342 -0.008266 -0.016485 -0.029091 0.060849 0.035058
# 6 -0.020417 -0.011533 -0.009260 -0.024448 0.035058 0.053601
#
#
# Mechanical properties :
#
#
# Convention : Reuss Voigt Hill
#
# Bulk Modulus (GPa) = 18.89768 68.43144 43.66456
# Shear Modulus (GPa) = 23.57708 46.20761 34.89235
#
# Velocity S-wave (km/s) = 2.97360 4.16289 3.61745
# Velocity P-wave (km/s) = 4.34478 6.98360 5.81583
#
# Compressibility (1/GPa) = 0.05291654
#
# Stress axis : x y z
#
# Youngs Moduli (GPa) = 67.87416 87.05754 52.57401
#
# Poissons Ratio (x) = -0.17750 -0.12651
# Poissons Ratio (y) = -0.13838 0.03192
# Poissons Ratio (z) = -0.16332 0.05286
#
# Static dielectric constant tensor:
#      x y z
#    x 2.353370 -0.147030 -0.134240 
#    y -0.147030 2.228740 0.024810 
#    z -0.134240 0.024810 2.037310 
# 
# From -- ./inp_files/271240.got.cif
#   From: 2010.05.17/outbox.cif.g08.bks.cpg/sg2_136_cif.got.tgz:271240.got - 2010.06.03 11:33:40.
