data_PCOD9081792
_publ_section_title
;
Structure prediction by ZEFSAII (Michael W. Deem and Ramdas Pophale) SiO2 
 PCOD9081792
Probable space group: P -1
;
_chemical_formula_sum "Si O2"
_cell_formula_units_Z 16
_cell_length_a 13.021818
_cell_length_b 8.563588
_cell_length_c 13.673332
_cell_angle_alpha 115.400894
_cell_angle_beta 147.748385
_cell_angle_gamma 79.552332
_cell_volume 680.965705
_symmetry_space_group_name_H-M "P -1"
_symmetry_group_IT_number 2
_symmetry_cell_setting 'triclinic'
loop_
_space_group_symop_operation_xyz
x,y,z
-x,-y,-z
loop_
_atom_site_type_symbol
_atom_site_label
_atom_site_fract_x
_atom_site_fract_y
_atom_site_fract_z
Si Si1 0.003851 0.903901 0.200345
Si Si2 0.852605 0.595847 0.853050
Si Si3 0.040632 0.376747 0.639658
Si Si4 0.446660 0.835797 0.992743
Si Si5 0.587367 0.481318 0.428652
Si Si6 0.316260 0.881742 0.592572
Si Si7 0.639943 0.607397 0.960183
Si Si8 0.958590 0.702465 0.591845
O O1 0.806889 0.773643 0.073636
O O2 0.208685 0.881112 0.402759
O O3 0.045285 0.119939 0.306454
O O4 0.949921 0.809111 0.025898
O O5 0.797246 0.579631 0.688277
O O6 0.617090 0.504924 0.680939
O O7 0.000000 0.500000 0.000000
O O8 0.218473 0.476308 0.888299
O O9 0.909665 0.505855 0.551732
O O10 0.877903 0.191244 0.507811
O O11 0.128607 0.326917 0.596735
O O12 0.542352 0.697439 0.986959
O O13 0.536810 0.923548 0.192964
O O14 0.201998 0.749499 0.779370
O O15 0.500000 0.000000 0.000000
O O16 0.573193 0.266729 0.358124
O O17 0.537215 0.525807 0.289187
#
# Coordination Sequence:
#
# PCOD9081792 Si02
#       8
#     2   2   2   2   2   2   2   2
#     4  10  19  33  56  79 109 145 191 233 283 330
#     4  10  19  33  54  90 116 138 182 247 293 322
#     4  10  22  35  54  79 117 155 191 221 282 345
#     4  12  18  30  54  82 113 144 187 234 275 329
#     4  10  19  32  55  84 114 142 183 235 282 338
#     4  11  19  34  56  82 109 151 186 228 279 342
#     4  10  19  33  52  81 110 153 187 227 279 342
#     4  11  21  36  52  82 116 152 186 238 279 327
#
# _framework density 23.496043
#
# number of rings (size 3 to 8) (size 9 to 14) (size 15 to 20)
#    0.000    1.500    5.000    1.500    0.000    2.500 
#    0.000    1.250    0.000    1.500    0.000    0.000 
#    0.000    0.000    0.000    0.000    0.000    0.000 
#
# Total GULP energy -89309.880605 kJ/mol
# GULP energy per Si atom -5581.867538 kJ/mol
# Density = 2.344257 g / cm^3
# Si number density = 23.496043 Si / 1000 Ang^3
#
#
#
# Elastic Constant Matrix: (Units=GPa)
#
#
# Indices 1 2 3 4 5 6 
#
# 1 36.5249 10.5858 32.4092 -3.0198 -18.9350 -15.5646
# 2 10.5858 65.8538 36.8606 -4.9520 -14.6973 -14.2706
# 3 32.4092 36.8606 190.8527 -18.6786 -46.2551 -6.0308
# 4 -3.0198 -4.9520 -18.6786 44.5766 -8.6069 3.5061
# 5 -18.9350 -14.6973 -46.2551 -8.6069 49.3644 2.4561
# 6 -15.5646 -14.2706 -6.0308 3.5061 2.4561 24.6665
#
#
#
# Elastic Compliance Matrix: (Units=1/GPa)
#
#
# Indices 1 2 3 4 5 6 
#
# 1 0.052831 0.005159 -0.004735 0.002683 0.016181 0.033171
# 2 0.005159 0.020138 -0.003125 0.001094 0.004565 0.013532
# 3 -0.004735 -0.003125 0.008428 0.004355 0.006107 -0.003962
# 4 0.002683 0.001094 0.004355 0.026631 0.010149 -0.001405
# 5 0.016181 0.004565 0.006107 0.010149 0.034846 0.009432
# 6 0.033171 0.013532 -0.003962 -0.001405 0.009432 0.067593
#
#
# Mechanical properties :
#
#
# Convention : Reuss Voigt Hill
#
# Bulk Modulus (GPa) = 13.15855 50.32696 31.74275
# Shear Modulus (GPa) = 20.72966 37.94654 29.33810
#
# Velocity S-wave (km/s) = 2.97351 4.02309 3.53744
# Velocity P-wave (km/s) = 4.17151 6.56096 5.49762
#
# Compressibility (1/GPa) = 0.07599624
#
# Stress axis : x y z
#
# Youngs Moduli (GPa) = 18.92837 49.65690 118.64710
#
# Poissons Ratio (x) = -0.25620 0.56184
# Poissons Ratio (y) = -0.09766 0.37072
# Poissons Ratio (z) = 0.08963 0.15516
#
# Static dielectric constant tensor:
#      x y z
#    x 2.072990 0.079330 -0.044600 
#    y 0.079330 1.927540 -0.010630 
#    z -0.044600 -0.010630 1.944930 
# 
# From -- ./inp_files/241017.got.cif
#   From: 2010.05.17/outbox.cif.g08.bks.cpg/sg2_121_cif.got.tgz:241017.got - 2010.06.03 11:33:40.
