data_PCOD9081928
_publ_section_title
;
Structure prediction by ZEFSAII (Michael W. Deem and Ramdas Pophale) SiO2 
 PCOD9081928
Probable space group: P -1
;
_chemical_formula_sum "Si O2"
_cell_formula_units_Z 16
_cell_length_a 9.129700
_cell_length_b 30.821382
_cell_length_c 9.129651
_cell_angle_alpha 38.570394
_cell_angle_beta 147.385808
_cell_angle_gamma 142.254653
_cell_volume 793.698666
_symmetry_space_group_name_H-M "P -1"
_symmetry_group_IT_number 2
_symmetry_cell_setting 'triclinic'
loop_
_space_group_symop_operation_xyz
x,y,z
-x,-y,-z
loop_
_atom_site_type_symbol
_atom_site_label
_atom_site_fract_x
_atom_site_fract_y
_atom_site_fract_z
Si Si1 0.635757 0.174112 0.890840
Si Si2 0.566406 0.578717 0.930572
Si Si3 0.736722 0.325351 0.747224
Si Si4 0.414067 0.050546 0.671847
Si Si5 0.446081 0.702627 0.997361
Si Si6 0.129308 0.792145 0.328388
Si Si7 0.348402 0.547754 0.161013
Si Si8 0.971170 0.918402 0.497638
O O1 0.643567 0.242715 0.815645
O O2 0.736817 0.204418 0.730973
O O3 0.306162 0.107843 0.776531
O O4 0.873653 0.140402 0.227332
O O5 0.399634 0.624949 0.589364
O O6 0.500000 0.500000 0.000000
O O7 0.459164 0.561157 0.052833
O O8 0.911809 0.630848 0.078723
O O9 0.629364 0.317174 0.845032
O O10 0.707475 0.123241 0.694094
O O11 0.188953 0.081200 0.482245
O O12 0.241980 0.000200 0.522421
O O13 0.500000 0.000000 0.000000
O O14 0.424110 0.628119 0.089430
O O15 0.779209 0.764185 0.100421
O O16 0.220785 0.735265 0.652019
O O17 0.500000 0.500000 0.500000
O O18 0.000000 0.500000 0.000000
#
# Coordination Sequence:
#
# PCOD9081928 Si02
#       8
#     2   2   2   2   2   2   2   2
#     4  11  21  37  60  89 120 160 207 256 312 370
#     4  12  24  43  68  95 124 167 216 251 307 382
#     4  12  25  43  63  88 129 171 209 254 310 382
#     4  10  19  34  60  95 126 156 207 264 325 366
#     4  12  25  41  60  92 127 164 209 257 319 360
#     4  11  22  37  62  91 122 156 207 268 308 369
#     4  12  24  43  68  96 130 161 202 262 313 363
#     4  10  19  32  57  91 120 152 204 257 309 372
#
# _framework density 20.158783
#
# number of rings (size 3 to 8) (size 9 to 14) (size 15 to 20)
#    0.000    0.750    2.500    7.875    1.750    0.000 
#    0.000    0.000    0.000    4.500    0.000    0.000 
#    0.000    0.000    0.000    0.000    0.000    0.000 
#
# Total GULP energy -89469.843297 kJ/mol
# GULP energy per Si atom -5591.865206 kJ/mol
# Density = 2.011290 g / cm^3
# Si number density = 20.158783 Si / 1000 Ang^3
#
#
#
# Elastic Constant Matrix: (Units=GPa)
#
#
# Indices 1 2 3 4 5 6 
#
# 1 112.2011 42.2787 12.3499 4.1921 -6.2135 -14.1900
# 2 42.2787 127.2149 -3.0727 18.5961 23.6272 -5.7325
# 3 12.3499 -3.0727 101.0842 0.9790 23.5530 -0.0383
# 4 4.1921 18.5961 0.9790 42.8036 3.8201 9.4588
# 5 -6.2135 23.6272 23.5530 3.8201 29.5684 -2.8348
# 6 -14.1900 -5.7325 -0.0383 9.4588 -2.8348 29.2295
#
#
#
# Elastic Compliance Matrix: (Units=1/GPa)
#
#
# Indices 1 2 3 4 5 6 
#
# 1 0.013473 -0.006472 -0.004762 -0.001029 0.012583 0.006818
# 2 -0.006472 0.013563 0.004892 -0.003802 -0.015677 -0.000766
# 3 -0.004762 0.004892 0.014535 0.000175 -0.016800 -0.003019
# 4 -0.001029 -0.003802 0.000175 0.027564 -0.001871 -0.010346
# 5 0.012583 -0.015677 -0.016800 -0.001871 0.063552 0.009781
# 6 0.006818 -0.000766 -0.003019 -0.010346 0.009781 0.041665
#
#
# Mechanical properties :
#
#
# Convention : Reuss Voigt Hill
#
# Bulk Modulus (GPa) = 34.61773 49.29021 41.95397
# Shear Modulus (GPa) = 25.42403 39.58324 32.50364
#
# Velocity S-wave (km/s) = 3.55517 4.43603 4.01980
# Velocity P-wave (km/s) = 5.83628 7.12333 6.51168
#
# Compressibility (1/GPa) = 0.02888693
#
# Stress axis : x y z
#
# Youngs Moduli (GPa) = 74.22259 73.73205 68.80006
#
# Poissons Ratio (x) = 0.47719 0.32763
# Poissons Ratio (y) = 0.48037 -0.33659
# Poissons Ratio (z) = 0.35345 -0.36071
#
# Static dielectric constant tensor:
#      x y z
#    x 1.656300 0.015790 0.009420 
#    y 0.015790 1.730990 0.012530 
#    z 0.009420 0.012530 1.697670 
# 
# From -- ./inp_files/227990.got.cif
#   From: 2010.05.17/outbox.cif.g08.bks.cpg/sg2_114_cif.got.tgz:227990.got - 2010.06.03 11:33:40.
