data_PCOD9081043
_publ_section_title
;
Structure prediction by ZEFSAII (Michael W. Deem and Ramdas Pophale) SiO2 
 PCOD9081043
Probable space group: P -1
;
_chemical_formula_sum "Si O2"
_cell_formula_units_Z 16
_cell_length_a 5.038235
_cell_length_b 20.474332
_cell_length_c 9.604721
_cell_angle_alpha 121.017666
_cell_angle_beta 76.175352
_cell_angle_gamma 122.122957
_cell_volume 718.269826
_symmetry_space_group_name_H-M "P -1"
_symmetry_group_IT_number 2
_symmetry_cell_setting 'triclinic'
loop_
_space_group_symop_operation_xyz
x,y,z
-x,-y,-z
loop_
_atom_site_type_symbol
_atom_site_label
_atom_site_fract_x
_atom_site_fract_y
_atom_site_fract_z
Si Si1 0.916187 0.842402 0.180490
Si Si2 0.744769 0.590688 0.497421
Si Si3 0.650964 0.401085 0.689317
Si Si4 0.767161 0.670975 0.854621
Si Si5 0.798979 0.970569 0.635947
Si Si6 0.886202 0.136357 0.504868
Si Si7 0.044880 0.590049 0.930644
Si Si8 0.729223 0.272789 0.722647
O O1 0.098703 0.857547 0.321083
O O2 0.554256 0.799770 0.228451
O O3 0.054459 0.937952 0.199931
O O4 0.921564 0.768536 0.003459
O O5 0.500000 0.500000 0.500000
O O6 0.606744 0.596499 0.373055
O O7 0.775195 0.664979 0.681398
O O8 0.068577 0.590822 0.435701
O O9 0.568644 0.315422 0.694680
O O10 0.813992 0.487225 0.860767
O O11 0.408264 0.617425 0.895584
O O12 0.943417 0.622138 0.841437
O O13 0.442895 0.935651 0.597683
O O14 0.860440 0.893538 0.600502
O O15 0.000000 0.000000 0.500000
O O16 0.887855 0.226160 0.566859
O O17 0.033653 0.649347 0.121911
#
# Coordination Sequence:
#
# PCOD9081043 Si02
#       8
#     2   2   2   2   2   2   2   2
#     4  10  21  36  55  87 121 141 180 232 281 342
#     4  12  23  42  61  78 106 151 206 242 269 313
#     4  12  25  39  59  81 113 156 193 230 278 336
#     4  11  22  36  61  81 109 149 190 241 280 306
#     4  10  19  30  55  80 117 147 179 212 282 346
#     4  11  19  34  53  83 120 147 174 221 277 354
#     4  11  21  38  56  82 114 150 184 230 283 338
#     4  11  24  35  56  87 123 149 180 225 291 344
#
# _framework density 22.275752000000001
#
# number of rings (size 3 to 8) (size 9 to 14) (size 15 to 20)
#    0.000    1.000    6.250    3.000    1.750    0.000 
#    0.000    3.125    0.000    0.000    0.000    5.250 
#    0.000    0.000    0.000    0.000    0.000    0.000 
#
# Total GULP energy -89429.291256 kJ/mol
# GULP energy per Si atom -5589.330703 kJ/mol
# Density = 2.222505 g / cm^3
# Si number density = 22.275752 Si / 1000 Ang^3
#
#
#
# Elastic Constant Matrix: (Units=GPa)
#
#
# Indices 1 2 3 4 5 6 
#
# 1 79.1328 18.5113 16.6982 10.6972 9.1677 -8.1750
# 2 18.5113 83.9809 44.9735 39.5992 9.6621 -8.5623
# 3 16.6982 44.9735 82.5889 28.7631 10.7246 3.8897
# 4 10.6972 39.5992 28.7631 41.6823 -0.0233 -2.2238
# 5 9.1677 9.6621 10.7246 -0.0233 26.6828 -1.5625
# 6 -8.1750 -8.5623 3.8897 -2.2238 -1.5625 30.9285
#
#
#
# Elastic Compliance Matrix: (Units=1/GPa)
#
#
# Indices 1 2 3 4 5 6 
#
# 1 0.014153 -0.000688 -0.001556 -0.001724 -0.003789 0.003431
# 2 -0.000688 0.026464 -0.006810 -0.019935 -0.006261 0.006251
# 3 -0.001556 -0.006810 0.019440 -0.006841 -0.005140 -0.005493
# 4 -0.001724 -0.019935 -0.006841 0.048039 0.010537 -0.001128
# 5 -0.003789 -0.006261 -0.005140 0.010537 0.043171 0.000851
# 6 0.003431 0.006251 -0.005493 -0.001128 0.000851 0.035623
#
#
# Mechanical properties :
#
#
# Convention : Reuss Voigt Hill
#
# Bulk Modulus (GPa) = 23.83879 45.11873 34.47876
# Shear Modulus (GPa) = 22.83306 30.89336 26.86321
#
# Velocity S-wave (km/s) = 3.20506 3.72810 3.47643
# Velocity P-wave (km/s) = 4.94181 6.23139 5.62369
#
# Compressibility (1/GPa) = 0.04194844
#
# Stress axis : x y z
#
# Youngs Moduli (GPa) = 70.65830 37.78755 51.43969
#
# Poissons Ratio (x) = 0.02598 0.08005
# Poissons Ratio (y) = 0.04858 0.35032
# Poissons Ratio (z) = 0.10996 0.25735
#
# Static dielectric constant tensor:
#      x y z
#    x 1.846390 -0.017220 -0.007620 
#    y -0.017220 1.908160 0.050220 
#    z -0.007620 0.050220 1.832840 
# 
# From -- ./inp_files/139245.got.cif
#   From: 2010.05.17/outbox.cif.g08.bks.cpg/sg2_70_cif.got.tgz:139245.got - 2010.06.03 11:33:40.
