data_PCOD9081205
_publ_section_title
;
Structure prediction by ZEFSAII (Michael W. Deem and Ramdas Pophale) SiO2 
 PCOD9081205
Probable space group: P -1
;
_chemical_formula_sum "Si O2"
_cell_formula_units_Z 16
_cell_length_a 12.269559
_cell_length_b 5.635494
_cell_length_c 11.221331
_cell_angle_alpha 127.085584
_cell_angle_beta 87.039601
_cell_angle_gamma 103.978572
_cell_volume 596.186443
_symmetry_space_group_name_H-M "P -1"
_symmetry_group_IT_number 2
_symmetry_cell_setting 'triclinic'
loop_
_space_group_symop_operation_xyz
x,y,z
-x,-y,-z
loop_
_atom_site_type_symbol
_atom_site_label
_atom_site_fract_x
_atom_site_fract_y
_atom_site_fract_z
Si Si1 0.276325 0.286011 0.233315
Si Si2 0.934786 0.411979 0.148661
Si Si3 0.989229 0.016089 0.823736
Si Si4 0.216483 0.648262 0.542151
Si Si5 0.673907 0.352862 0.126160
Si Si6 0.604378 0.869658 0.170238
Si Si7 0.774116 0.863240 0.470273
Si Si8 0.640978 0.163670 0.760393
O O1 0.304182 0.536309 0.415099
O O2 0.302140 0.478946 0.168858
O O3 0.142635 0.150277 0.214572
O O4 0.333398 0.011199 0.174920
O O5 0.803437 0.336616 0.096093
O O6 0.978774 0.776587 0.232948
O O7 0.007236 0.263722 0.006538
O O8 0.947185 0.238070 0.217969
O O9 0.287448 0.901175 0.704498
O O10 0.158440 0.340892 0.524189
O O11 0.156974 0.838376 0.515585
O O12 0.604198 0.034320 0.092691
O O13 0.693939 0.616086 0.311059
O O14 0.620489 0.525374 0.078900
O O15 0.492086 0.880913 0.250489
O O16 0.697083 0.987745 0.605231
#
# Coordination Sequence:
#
# PCOD9081205 Si02
#       8
#     2   2   2   2   2   2   2   2
#     4  10  19  32  52  76 105 133 169 218 257 294
#     4  10  21  38  60  80  96 125 173 223 269 312
#     4  10  21  38  60  80  96 125 173 223 269 312
#     4   8  16  27  44  69 102 133 166 201 238 284
#     4  10  19  32  52  76 105 133 169 218 257 294
#     4  10  19  31  51  78 108 143 176 201 237 298
#     4   8  16  27  44  69 102 133 166 201 238 284
#     4  10  19  31  51  78 108 143 176 201 237 298
#
# _framework density 26.837243999999998
#
# number of rings (size 3 to 8) (size 9 to 14) (size 15 to 20)
#    0.000    2.500    0.000    2.250    0.000    9.000 
#    0.000    0.000    0.000   45.000    0.000    0.000 
#    0.000    0.000    0.000    0.000    0.000    0.000 
#
# Total GULP energy -89391.888793 kJ/mol
# GULP energy per Si atom -5586.993050 kJ/mol
# Density = 2.677616 g / cm^3
# Si number density = 26.837244 Si / 1000 Ang^3
#
#
#
# Elastic Constant Matrix: (Units=GPa)
#
#
# Indices 1 2 3 4 5 6 
#
# 1 126.4201 76.0705 22.3028 12.4894 -33.4118 -17.2545
# 2 76.0705 318.4601 32.2459 14.0905 -14.5163 -63.3971
# 3 22.3028 32.2459 66.7639 7.1096 -13.1011 -13.5480
# 4 12.4894 14.0905 7.1096 35.4887 -9.4590 -4.9156
# 5 -33.4118 -14.5163 -13.1011 -9.4590 31.7199 14.8809
# 6 -17.2545 -63.3971 -13.5480 -4.9156 14.8809 55.9501
#
#
#
# Elastic Compliance Matrix: (Units=1/GPa)
#
#
# Indices 1 2 3 4 5 6 
#
# 1 0.013022 -0.003049 -0.000888 -0.000056 0.013457 -0.003238
# 2 -0.003049 0.004896 -0.000965 -0.001054 -0.004219 0.005403
# 3 -0.000888 -0.000965 0.017075 -0.001296 0.004621 0.001424
# 4 -0.000056 -0.001054 -0.001296 0.031041 0.008702 -0.001112
# 5 0.013457 -0.004219 0.004621 0.008702 0.054483 -0.013238
# 6 -0.003238 0.005403 0.001424 -0.001112 -0.013238 0.026765
#
#
# Mechanical properties :
#
#
# Convention : Reuss Voigt Hill
#
# Bulk Modulus (GPa) = 39.70218 85.87583 62.78901
# Shear Modulus (GPa) = 30.21461 50.03340 40.12401
#
# Velocity S-wave (km/s) = 3.35900 4.32247 3.87083
# Velocity P-wave (km/s) = 5.46532 7.54850 6.58975
#
# Compressibility (1/GPa) = 0.02518753
#
# Stress axis : x y z
#
# Youngs Moduli (GPa) = 76.79517 204.23879 58.56613
#
# Poissons Ratio (x) = 0.62281 0.05199
# Poissons Ratio (y) = 0.23418 0.05654
# Poissons Ratio (z) = 0.06817 0.19717
#
# Static dielectric constant tensor:
#      x y z
#    x 1.973720 -0.074630 0.004930 
#    y -0.074630 2.163890 -0.057480 
#    z 0.004930 -0.057480 2.236770 
# 
# From -- ./inp_files/71175.got.cif
#   From: 2010.05.17/outbox.cif.g08.bks.cpg/sg2_36_cif.got.tgz:71175.got - 2010.06.03 11:33:40.
