data_PCOD9081440
_publ_section_title
;
Structure prediction by ZEFSAII (Michael W. Deem and Ramdas Pophale) SiO2 
 PCOD9081440
Probable space group: P -1
;
_chemical_formula_sum "Si O2"
_cell_formula_units_Z 14
_cell_length_a 9.725914
_cell_length_b 21.266428
_cell_length_c 13.496016
_cell_angle_alpha 18.342314
_cell_angle_beta 47.501861
_cell_angle_gamma 42.719242
_cell_volume 592.834721
_symmetry_space_group_name_H-M "P -1"
_symmetry_group_IT_number 2
_symmetry_cell_setting 'triclinic'
loop_
_space_group_symop_operation_xyz
x,y,z
-x,-y,-z
loop_
_atom_site_type_symbol
_atom_site_label
_atom_site_fract_x
_atom_site_fract_y
_atom_site_fract_z
Si Si1 0.837379 0.212549 0.387370
Si Si2 0.234255 0.112348 0.856670
Si Si3 0.259585 0.492814 0.576725
Si Si4 0.150706 0.924090 0.799681
Si Si5 0.470023 0.338985 0.508051
Si Si6 0.635961 0.131103 0.028403
Si Si7 0.958428 0.280287 0.012153
O O1 0.631576 0.360610 0.320949
O O2 0.868093 0.296444 0.140963
O O3 0.855856 0.963221 0.729500
O O4 0.029824 0.151095 0.460086
O O5 0.295531 0.295630 0.599737
O O6 0.394279 0.888182 0.162448
O O7 0.280543 0.080098 0.766065
O O8 0.019751 0.118999 0.987598
O O9 0.378724 0.491335 0.418641
O O10 0.403491 0.290607 0.877015
O O11 0.243421 0.719298 0.292147
O O12 0.064779 0.449197 0.705899
O O13 0.196380 0.745005 0.956785
O O14 0.314392 0.929495 0.790433
#
# Coordination Sequence:
#
# PCOD9081440 Si02
#       7
#     2   2   2   2   2   2   2
#     4   8  16  28  52  74  88 121 161 201 223 270
#     4   9  15  27  48  72  93 118 154 202 231 268
#     4  10  19  32  47  73  94 132 151 188 235 289
#     4   9  16  30  48  74  94 119 157 202 231 266
#     4   9  14  29  51  70  89 120 167 188 225 277
#     4  10  20  28  46  73 105 118 150 197 243 272
#     4   9  16  31  50  73  92 119 168 187 232 276
#
# _framework density 23.615349999999999
#
# number of rings (size 3 to 8) (size 9 to 14) (size 15 to 20)
#    0.857    2.000    1.429    2.143    0.000    0.571 
#    0.000    0.714    0.000   14.571    0.000    0.000 
#    0.000    0.000    0.000    0.000    0.000    0.000 
#
# Total GULP energy -78071.548783 kJ/mol
# GULP energy per Si atom -5576.539199 kJ/mol
# Density = 2.356160 g / cm^3
# Si number density = 23.615350 Si / 1000 Ang^3
#
#
#
# Elastic Constant Matrix: (Units=GPa)
#
#
# Indices 1 2 3 4 5 6 
#
# 1 169.4958 42.7143 1.9656 11.0960 32.4296 16.4140
# 2 42.7143 63.3348 10.1032 5.3015 11.6122 14.7119
# 3 1.9656 10.1032 10.9910 2.5161 2.5869 11.2679
# 4 11.0960 5.3015 2.5161 25.4717 12.9023 8.7787
# 5 32.4296 11.6122 2.5869 12.9023 26.9910 -1.0093
# 6 16.4140 14.7119 11.2679 8.7787 -1.0093 35.3511
#
#
#
# Elastic Compliance Matrix: (Units=1/GPa)
#
#
# Indices 1 2 3 4 5 6 
#
# 1 0.010270 -0.004853 0.014065 0.005699 -0.014663 -0.009066
# 2 -0.004853 0.022778 -0.017579 0.001330 -0.002996 -0.002039
# 3 0.014065 -0.017579 0.169728 0.020236 -0.037498 -0.059410
# 4 0.005699 0.001330 0.020236 0.064680 -0.041282 -0.026890
# 5 -0.014663 -0.002996 -0.037498 -0.041282 0.080501 0.032557
# 6 -0.009066 -0.002039 -0.059410 -0.026890 0.032557 0.059889
#
#
# Mechanical properties :
#
#
# Convention : Reuss Voigt Hill
#
# Bulk Modulus (GPa) = 5.37514 39.26529 22.32021
# Shear Modulus (GPa) = 10.27553 30.16533 20.22043
#
# Velocity S-wave (km/s) = 2.08822 3.57790 2.92933
# Velocity P-wave (km/s) = 2.84522 5.80789 4.57312
#
# Compressibility (1/GPa) = 0.18604181
#
# Stress axis : x y z
#
# Youngs Moduli (GPa) = 97.37168 43.90269 5.89177
#
# Poissons Ratio (x) = 0.21305 -0.08287
# Poissons Ratio (y) = 0.47251 0.10357
# Poissons Ratio (z) = -1.36952 0.77177
#
# Static dielectric constant tensor:
#      x y z
#    x 1.997440 -0.054620 0.091070 
#    y -0.054620 1.921460 -0.073840 
#    z 0.091070 -0.073840 1.938990 
# 
# From -- ./inp_files/344724.got.cif
#   From: 2010.05.17/outbox.cif.g08.bks.cpg/sg2_173_cif.got.tgz:344724.got - 2010.06.03 11:33:40.
