data_PCOD9081816
_publ_section_title
;
Structure prediction by ZEFSAII (Michael W. Deem and Ramdas Pophale) SiO2 
 PCOD9081816
Probable space group: P -1
;
_chemical_formula_sum "Si O2"
_cell_formula_units_Z 16
_cell_length_a 7.796501
_cell_length_b 12.114890
_cell_length_c 18.830575
_cell_angle_alpha 154.268115
_cell_angle_beta 70.238029
_cell_angle_gamma 111.621629
_cell_volume 717.787361
_symmetry_space_group_name_H-M "P -1"
_symmetry_group_IT_number 2
_symmetry_cell_setting 'triclinic'
loop_
_space_group_symop_operation_xyz
x,y,z
-x,-y,-z
loop_
_atom_site_type_symbol
_atom_site_label
_atom_site_fract_x
_atom_site_fract_y
_atom_site_fract_z
Si Si1 0.105153 0.424300 0.873644
Si Si2 0.556089 0.735167 0.179766
Si Si3 0.384238 0.341500 0.195381
Si Si4 0.726200 0.089496 0.940986
Si Si5 0.271397 0.712326 0.535861
Si Si6 0.671998 0.207498 0.631000
Si Si7 0.009712 0.140945 0.460014
Si Si8 0.699640 0.668703 0.577208
O O1 0.300426 0.351451 0.832477
O O2 0.991462 0.160175 0.711855
O O3 0.129313 0.659699 0.952230
O O4 0.000000 0.500000 0.000000
O O5 0.381684 0.797058 0.283073
O O6 0.640222 0.003411 0.286547
O O7 0.500000 0.500000 0.000000
O O8 0.407432 0.556999 0.380413
O O9 0.332437 0.508491 0.234520
O O10 0.240690 0.114446 0.120763
O O11 0.552908 0.210809 0.066684
O O12 0.696431 0.922569 0.774693
O O13 0.120302 0.776087 0.537570
O O14 0.200982 0.524650 0.500841
O O15 0.880253 0.174101 0.564460
O O16 0.500000 0.000000 0.500000
O O17 0.206428 0.273383 0.479158
O O18 0.500000 0.500000 0.500000
#
# Coordination Sequence:
#
# PCOD9081816 Si02
#       8
#     2   2   2   2   2   2   2   2
#     4  11  20  35  60  89 120 151 203 250 288 356
#     4  11  23  36  62  89 123 157 192 247 312 355
#     4   9  17  32  57  85 108 151 200 247 276 346
#     4  10  19  32  55  88 118 145 197 248 295 339
#     4   9  20  36  58  86 114 152 204 245 291 350
#     4  11  17  36  63  86 114 157 208 246 287 358
#     4  10  20  36  61  87 110 156 210 249 285 350
#     4  11  23  36  57  84 126 161 191 244 310 362
#
# _framework density 22.290723
#
# number of rings (size 3 to 8) (size 9 to 14) (size 15 to 20)
#    0.000    1.750    6.250    0.375    1.750    0.000 
#    0.000    0.000    8.250    5.250    0.000    0.000 
#    0.000    0.000    0.000    0.000    0.000    0.000 
#
# Total GULP energy -89105.561973 kJ/mol
# GULP energy per Si atom -5569.097623 kJ/mol
# Density = 2.223999 g / cm^3
# Si number density = 22.290723 Si / 1000 Ang^3
#
#
#
# Elastic Constant Matrix: (Units=GPa)
#
#
# Indices 1 2 3 4 5 6 
#
# 1 64.1085 21.9074 19.4916 3.1656 -0.7726 9.5386
# 2 21.9074 132.1158 44.4238 18.2869 -2.0989 33.2341
# 3 19.4916 44.4238 123.2231 17.1326 -8.4491 14.3060
# 4 3.1656 18.2869 17.1326 43.6456 -3.6301 -10.5705
# 5 -0.7726 -2.0989 -8.4491 -3.6301 17.4424 1.4700
# 6 9.5386 33.2341 14.3060 -10.5705 1.4700 32.4377
#
#
#
# Elastic Compliance Matrix: (Units=1/GPa)
#
#
# Indices 1 2 3 4 5 6 
#
# 1 0.017094 -0.001368 -0.001762 -0.000734 -0.000154 -0.003080
# 2 -0.001368 0.013423 -0.001611 -0.008613 0.000285 -0.015460
# 3 -0.001762 -0.001611 0.010225 -0.003771 0.004213 -0.003761
# 4 -0.000734 -0.008613 -0.003771 0.033449 0.002254 0.021501
# 5 -0.000154 0.000285 0.004213 0.002254 0.060214 -0.004099
# 6 -0.003080 -0.015460 -0.003761 0.021501 -0.004099 0.056424
#
#
# Mechanical properties :
#
#
# Convention : Reuss Voigt Hill
#
# Bulk Modulus (GPa) = 31.98929 54.56588 43.27758
# Shear Modulus (GPa) = 23.72685 34.28013 29.00349
#
# Velocity S-wave (km/s) = 3.26610 3.92582 3.61105
# Velocity P-wave (km/s) = 5.34839 6.71429 6.06988
#
# Compressibility (1/GPa) = 0.03126046
#
# Stress axis : x y z
#
# Youngs Moduli (GPa) = 58.49869 74.49730 97.80312
#
# Poissons Ratio (x) = 0.10194 0.17230
# Poissons Ratio (y) = 0.08004 0.15756
# Poissons Ratio (z) = 0.10305 0.12001
#
# Static dielectric constant tensor:
#      x y z
#    x 1.967990 -0.025930 -0.039160 
#    y -0.025930 1.942930 0.013960 
#    z -0.039160 0.013960 1.800390 
# 
# From -- ./inp_files/439699.got.cif
#   From: 2010.05.17/outbox.cif.g08.bks.cpg/sg2_220_cif.got.tgz:439699.got - 2010.06.03 11:33:40.
