data_PCOD9081872
_publ_section_title
;
Structure prediction by ZEFSAII (Michael W. Deem and Ramdas Pophale) SiO2 
 PCOD9081872
Probable space group: P -1
;
_chemical_formula_sum "Si O2"
_cell_formula_units_Z 16
_cell_length_a 12.280233
_cell_length_b 8.356782
_cell_length_c 12.226993
_cell_angle_alpha 33.874915
_cell_angle_beta 80.603839
_cell_angle_gamma 68.098454
_cell_volume 622.352378
_symmetry_space_group_name_H-M "P -1"
_symmetry_group_IT_number 2
_symmetry_cell_setting 'triclinic'
loop_
_space_group_symop_operation_xyz
x,y,z
-x,-y,-z
loop_
_atom_site_type_symbol
_atom_site_label
_atom_site_fract_x
_atom_site_fract_y
_atom_site_fract_z
Si Si1 0.785267 0.905044 0.456377
Si Si2 0.101214 0.619436 0.790018
Si Si3 0.965978 0.206520 0.757863
Si Si4 0.377396 0.863102 0.430317
Si Si5 0.827193 0.880635 0.099875
Si Si6 0.455851 0.731669 0.126298
Si Si7 0.469906 0.846313 0.703425
Si Si8 0.860178 0.976204 0.723160
O O1 0.889332 0.553965 0.622796
O O2 0.833918 0.171996 0.294599
O O3 0.715927 0.963551 0.552085
O O4 0.673278 0.967805 0.355820
O O5 0.154144 0.460033 0.755483
O O6 0.954894 0.820392 0.696542
O O7 0.129051 0.331521 0.034137
O O8 0.109830 0.118749 0.794902
O O9 0.919781 0.175374 0.663805
O O10 0.920131 0.972447 0.961039
O O11 0.484217 0.527723 0.639927
O O12 0.442538 0.089960 0.262331
O O13 0.283673 0.829060 0.380924
O O14 0.689687 0.116313 0.957163
O O15 0.504619 0.507109 0.137699
O O16 0.500000 0.000000 0.000000
O O17 0.500000 0.000000 0.500000
#
# Coordination Sequence:
#
# PCOD9081872 Si02
#       8
#     2   2   2   2   2   2   2   2
#     4  10  19  37  61  86 108 147 201 236 271 332
#     4  10  22  38  58  81 117 152 188 236 282 343
#     4  10  21  35  59  84 114 148 189 240 279 335
#     4  10  20  38  63  84 115 153 188 231 284 346
#     4  10  19  36  58  84 111 152 196 226 274 341
#     4  10  19  32  56  88 115 142 188 241 276 322
#     4   8  17  33  56  82 110 147 186 229 276 332
#     4  10  23  41  56  84 120 154 183 230 304 338
#
# _framework density 25.708911000000001
#
# number of rings (size 3 to 8) (size 9 to 14) (size 15 to 20)
#    0.000    2.500    0.000    4.500    0.000    7.500 
#    0.000    7.500    0.000    0.000    0.000    0.000 
#    0.000    0.000    0.000    0.000    0.000    0.000 
#
# Total GULP energy -89386.434829 kJ/mol
# GULP energy per Si atom -5586.652177 kJ/mol
# Density = 2.565040 g / cm^3
# Si number density = 25.708911 Si / 1000 Ang^3
#
#
#
# Elastic Constant Matrix: (Units=GPa)
#
#
# Indices 1 2 3 4 5 6 
#
# 1 244.6542 40.5229 65.5287 -10.8423 34.3908 33.2451
# 2 40.5229 54.9792 34.7071 -17.6209 5.4702 17.2244
# 3 65.5287 34.7071 104.2422 -22.9307 -3.9688 6.7301
# 4 -10.8423 -17.6209 -22.9307 29.3450 -0.4027 -7.0491
# 5 34.3908 5.4702 -3.9688 -0.4027 58.9583 -3.8459
# 6 33.2451 17.2244 6.7301 -7.0491 -3.8459 38.1532
#
#
#
# Elastic Compliance Matrix: (Units=1/GPa)
#
#
# Indices 1 2 3 4 5 6 
#
# 1 0.006661 -0.000888 -0.004330 -0.002867 -0.004481 -0.005620
# 2 -0.000888 0.029615 -0.006617 0.009853 -0.003256 -0.009936
# 3 -0.004330 -0.006617 0.016199 0.008581 0.004677 0.005959
# 4 -0.002867 0.009853 0.008581 0.046968 0.002010 0.005417
# 5 -0.004481 -0.003256 0.004677 0.002010 0.020662 0.007003
# 6 -0.005620 -0.009936 0.005959 0.005417 0.007003 0.036249
#
#
# Mechanical properties :
#
#
# Convention : Reuss Voigt Hill
#
# Bulk Modulus (GPa) = 34.71659 76.15479 55.43569
# Shear Modulus (GPa) = 26.36767 42.83242 34.60005
#
# Velocity S-wave (km/s) = 3.20601 4.08616 3.67255
# Velocity P-wave (km/s) = 5.21898 7.20753 6.29231
#
# Compressibility (1/GPa) = 0.02880467
#
# Stress axis : x y z
#
# Youngs Moduli (GPa) = 150.13352 33.76614 61.73317
#
# Poissons Ratio (x) = 0.03000 0.26729
# Poissons Ratio (y) = 0.13339 0.40848
# Poissons Ratio (z) = 0.65004 0.22343
#
# Static dielectric constant tensor:
#      x y z
#    x 2.037720 0.058230 0.032540 
#    y 0.058230 2.308180 0.204360 
#    z 0.032540 0.204360 2.135190 
# 
# From -- ./inp_files/514816.got.cif
#   From: 2010.05.17/outbox.cif.g08.bks.cpg/sg2_258_cif.got.tgz:514816.got - 2010.06.03 11:33:40.
