data_PCOD9081909
_publ_section_title
;
Structure prediction by ZEFSAII (Michael W. Deem and Ramdas Pophale) SiO2 
 PCOD9081909
Probable space group: P -1
;
_chemical_formula_sum "Si O2"
_cell_formula_units_Z 16
_cell_length_a 10.919014
_cell_length_b 16.487194
_cell_length_c 7.541040
_cell_angle_alpha 114.036202
_cell_angle_beta 59.655292
_cell_angle_gamma 64.538472
_cell_volume 632.575829
_symmetry_space_group_name_H-M "P -1"
_symmetry_group_IT_number 2
_symmetry_cell_setting 'triclinic'
loop_
_space_group_symop_operation_xyz
x,y,z
-x,-y,-z
loop_
_atom_site_type_symbol
_atom_site_label
_atom_site_fract_x
_atom_site_fract_y
_atom_site_fract_z
Si Si1 0.915979 0.163674 0.674730
Si Si2 0.178874 0.605863 0.723069
Si Si3 0.277692 0.932781 0.921966
Si Si4 0.582725 0.321350 0.365060
Si Si5 0.748753 0.577493 0.788511
Si Si6 0.216503 0.139993 0.973366
Si Si7 0.564377 0.109423 0.846484
Si Si8 0.242800 0.594521 0.201019
O O1 0.824392 0.308080 0.826888
O O2 0.708506 0.227794 0.002729
O O3 0.848421 0.956252 0.482993
O O4 0.016138 0.069493 0.335846
O O5 0.308426 0.486804 0.679655
O O6 0.292002 0.647578 0.655150
O O7 0.260778 0.497598 0.411835
O O8 0.895227 0.764644 0.042191
O O9 0.282909 0.003791 0.827851
O O10 0.348945 0.799845 0.682675
O O11 0.453105 0.872601 0.907146
O O12 0.547762 0.750994 0.050927
O O13 0.741794 0.520457 0.918949
O O14 0.000000 0.500000 0.500000
O O15 0.425163 0.095187 0.859625
O O16 0.989829 0.266774 0.384218
O O17 0.500000 0.500000 0.000000
#
# Coordination Sequence:
#
# PCOD9081909 Si02
#       8
#     2   2   2   2   2   2   2   2
#     4   9  20  33  52  78 111 136 176 224 273 310
#     4  10  21  33  55  77 108 145 180 219 266 329
#     4   9  20  30  57  79 105 137 175 226 269 317
#     4  11  20  36  51  80 108 148 177 216 272 330
#     4  11  19  35  60  84 105 140 185 225 267 326
#     4  10  19  35  51  83 106 135 183 227 271 314
#     4  10  19  32  57  84 102 139 181 230 268 315
#     4  10  20  30  52  83 111 138 170 231 272 309
#
# _framework density 25.293407999999999
#
# number of rings (size 3 to 8) (size 9 to 14) (size 15 to 20)
#    0.750    1.250    3.750    2.250    0.000    1.500 
#    0.000    0.625    0.000    0.750    0.000    0.000 
#    0.000    0.000    0.000    0.000    0.000    0.000 
#
# Total GULP energy -89209.516598 kJ/mol
# GULP energy per Si atom -5575.594787 kJ/mol
# Density = 2.523584 g / cm^3
# Si number density = 25.293408 Si / 1000 Ang^3
#
#
#
# Elastic Constant Matrix: (Units=GPa)
#
#
# Indices 1 2 3 4 5 6 
#
# 1 71.6469 35.3474 42.3528 9.4064 -12.2547 17.2942
# 2 35.3474 198.0222 69.5961 55.7839 -12.8329 21.8731
# 3 42.3528 69.5961 113.5427 34.3453 -10.8988 3.0062
# 4 9.4064 55.7839 34.3453 47.4170 -1.0533 4.1841
# 5 -12.2547 -12.8329 -10.8988 -1.0533 55.1937 8.7743
# 6 17.2942 21.8731 3.0062 4.1841 8.7743 38.8109
#
#
#
# Elastic Compliance Matrix: (Units=1/GPa)
#
#
# Indices 1 2 3 4 5 6 
#
# 1 0.021859 -0.000497 -0.008048 0.003090 0.004840 -0.010265
# 2 -0.000497 0.008904 -0.002508 -0.008148 0.001972 -0.004170
# 3 -0.008048 -0.002508 0.015307 -0.006952 -0.000213 0.004612
# 4 0.003090 -0.008148 -0.006952 0.035016 -0.001981 0.000426
# 5 0.004840 0.001972 -0.000213 -0.001981 0.020802 -0.007741
# 6 -0.010265 -0.004170 0.004612 0.000426 -0.007741 0.034037
#
#
# Mechanical properties :
#
#
# Convention : Reuss Voigt Hill
#
# Bulk Modulus (GPa) = 41.72762 75.31162 58.51962
# Shear Modulus (GPa) = 30.11726 44.01202 37.06464
#
# Velocity S-wave (km/s) = 3.45442 4.17593 3.83219
# Velocity P-wave (km/s) = 5.69596 7.28636 6.53968
#
# Compressibility (1/GPa) = 0.02396494
#
# Stress axis : x y z
#
# Youngs Moduli (GPa) = 45.74672 112.31219 65.33067
#
# Poissons Ratio (x) = 0.05578 0.52578
# Poissons Ratio (y) = 0.02272 0.16385
# Poissons Ratio (z) = 0.36817 0.28167
#
# Static dielectric constant tensor:
#      x y z
#    x 2.097180 -0.156530 0.067890 
#    y -0.156530 2.046860 0.025150 
#    z 0.067890 0.025150 1.978170 
# 
# From -- ./inp_files/434923.got.cif
#   From: 2010.05.17/outbox.cif.g08.bks.cpg/sg2_218_cif.got.tgz:434923.got - 2010.06.03 11:33:40.
