data_PCOD9081813
_publ_section_title
;
Structure prediction by ZEFSAII (Michael W. Deem and Ramdas Pophale) SiO2 
 PCOD9081813
Probable space group: P -1
;
_chemical_formula_sum "Si O2"
_cell_formula_units_Z 16
_cell_length_a 16.686853
_cell_length_b 5.714573
_cell_length_c 10.058155
_cell_angle_alpha 110.984662
_cell_angle_beta 135.855980
_cell_angle_gamma 59.961426
_cell_volume 578.277636
_symmetry_space_group_name_H-M "P -1"
_symmetry_group_IT_number 2
_symmetry_cell_setting 'triclinic'
loop_
_space_group_symop_operation_xyz
x,y,z
-x,-y,-z
loop_
_atom_site_type_symbol
_atom_site_label
_atom_site_fract_x
_atom_site_fract_y
_atom_site_fract_z
Si Si1 0.936066 0.263554 0.665227
Si Si2 0.362349 0.920197 0.936820
Si Si3 0.637697 0.788997 0.632495
Si Si4 0.522747 0.252926 0.231089
Si Si5 0.897899 0.767923 0.372583
Si Si6 0.163068 0.738438 0.163558
Si Si7 0.286538 0.758540 0.068882
Si Si8 0.763371 0.831485 0.544941
O O1 0.915444 0.308703 0.811126
O O2 0.850981 0.538214 0.543981
O O3 0.065908 0.209992 0.734822
O O4 0.902807 0.013637 0.521497
O O5 0.248053 0.176504 0.791711
O O6 0.451170 0.739691 0.892665
O O7 0.448364 0.057863 0.136300
O O8 0.298495 0.769097 0.925693
O O9 0.698414 0.489183 0.700293
O O10 0.676376 0.740500 0.517048
O O11 0.500000 0.000000 0.500000
O O12 0.712373 0.955078 0.823414
O O13 0.426032 0.538517 0.222826
O O14 0.662794 0.095387 0.413018
O O15 0.000000 0.500000 0.500000
O O16 0.170571 0.727238 0.005920
O O17 0.151442 0.040437 0.247435
#
# Coordination Sequence:
#
# PCOD9081813 Si02
#       8
#     2   2   2   2   2   2   2   2
#     4  10  22  40  66  94 118 152 206 259 301 350
#     4  11  25  40  59  89 123 162 204 246 303 367
#     4  10  19  32  55  87 122 162 204 242 287 350
#     4  11  23  39  60  89 130 167 198 244 301 362
#     4  11  24  44  68  90 116 154 205 260 308 355
#     4  10  20  36  60  89 125 162 200 247 296 354
#     4  11  22  37  57  87 129 167 199 240 297 364
#     4  10  20  36  61  92 123 158 200 246 297 352
#
# _framework density 27.668371
#
# number of rings (size 3 to 8) (size 9 to 14) (size 15 to 20)
#    0.000    1.500    0.000    5.625    0.000    9.000 
#    0.000    0.625    0.000   14.250    0.000    0.000 
#    0.000    0.000    0.000    0.000    0.000    0.000 
#
# Total GULP energy -89096.007707 kJ/mol
# GULP energy per Si atom -5568.500482 kJ/mol
# Density = 2.760540 g / cm^3
# Si number density = 27.668371 Si / 1000 Ang^3
#
#
#
# Elastic Constant Matrix: (Units=GPa)
#
#
# Indices 1 2 3 4 5 6 
#
# 1 223.8404 20.9662 15.5265 -11.8652 -24.5747 -29.2900
# 2 20.9662 158.4742 24.6942 -11.8871 -4.1118 -27.4224
# 3 15.5265 24.6942 50.4484 -14.3416 2.9573 -2.8912
# 4 -11.8652 -11.8871 -14.3416 32.9071 -0.4149 6.2514
# 5 -24.5747 -4.1118 2.9573 -0.4149 34.5555 -13.9881
# 6 -29.2900 -27.4224 -2.8912 6.2514 -13.9881 39.1041
#
#
#
# Elastic Compliance Matrix: (Units=1/GPa)
#
#
# Indices 1 2 3 4 5 6 
#
# 1 0.006627 0.001278 -0.002625 0.000158 0.008623 0.008725
# 2 0.001278 0.008470 -0.004370 0.000048 0.005787 0.008636
# 3 -0.002625 -0.004370 0.025610 0.009947 -0.007452 -0.007393
# 4 0.000158 0.000048 0.009947 0.035865 -0.002648 -0.005793
# 5 0.008623 0.005787 -0.007452 -0.002648 0.047441 0.027360
# 6 0.008725 0.008636 -0.007393 -0.005793 0.027360 0.048331
#
#
# Mechanical properties :
#
#
# Convention : Reuss Voigt Hill
#
# Bulk Modulus (GPa) = 34.16277 61.68188 47.92233
# Shear Modulus (GPa) = 25.83487 46.08507 35.95997
#
# Velocity S-wave (km/s) = 3.05902 4.08563 3.60902
# Velocity P-wave (km/s) = 4.98506 6.67819 5.89275
#
# Compressibility (1/GPa) = 0.02927163
#
# Stress axis : x y z
#
# Youngs Moduli (GPa) = 150.90636 118.05983 39.04696
#
# Poissons Ratio (x) = -0.15085 0.10252
# Poissons Ratio (y) = -0.19282 0.17063
# Poissons Ratio (z) = 0.39620 0.51592
#
# Static dielectric constant tensor:
#      x y z
#    x 2.278190 0.015460 -0.077450 
#    y 0.015460 2.164780 -0.061690 
#    z -0.077450 -0.061690 2.297980 
# 
# From -- ./inp_files/459561.got.cif
#   From: 2010.05.17/outbox.cif.g08.bks.cpg/sg2_230_cif.got.tgz:459561.got - 2010.06.03 11:33:40.
