data_PCOD9081465
_publ_section_title
;
Structure prediction by ZEFSAII (Michael W. Deem and Ramdas Pophale) SiO2 
 PCOD9081465
Probable space group: P -1
;
_chemical_formula_sum "Si O2"
_cell_formula_units_Z 16
_cell_length_a 11.484148
_cell_length_b 9.600184
_cell_length_c 14.558990
_cell_angle_alpha 121.117221
_cell_angle_beta 37.298469
_cell_angle_gamma 96.352761
_cell_volume 678.831801
_symmetry_space_group_name_H-M "P -1"
_symmetry_group_IT_number 2
_symmetry_cell_setting 'triclinic'
loop_
_space_group_symop_operation_xyz
x,y,z
-x,-y,-z
loop_
_atom_site_type_symbol
_atom_site_label
_atom_site_fract_x
_atom_site_fract_y
_atom_site_fract_z
Si Si1 0.903785 0.876980 0.108986
Si Si2 0.995200 0.535854 0.369839
Si Si3 0.034270 0.158914 0.162062
Si Si4 0.875629 0.336802 0.855857
Si Si5 0.751879 0.527035 0.172444
Si Si6 0.493177 0.673180 0.006573
Si Si7 0.399430 0.119643 0.493004
Si Si8 0.550600 0.942654 0.775076
O O1 0.647047 0.920123 0.304963
O O2 0.924941 0.847873 0.975887
O O3 0.891031 0.063341 0.222626
O O4 0.156120 0.687405 0.918482
O O5 0.932168 0.377867 0.339235
O O6 0.066485 0.576785 0.238385
O O7 0.775408 0.748932 0.614730
O O8 0.241358 0.435027 0.235840
O O9 0.293734 0.015806 0.995335
O O10 0.733961 0.246105 0.886502
O O11 0.133532 0.176396 0.684678
O O12 0.696791 0.519162 0.098691
O O13 0.611098 0.697226 0.392473
O O14 0.000000 0.500000 0.000000
O O15 0.445431 0.863187 0.156168
O O16 0.500000 0.500000 0.000000
O O17 0.433076 0.117159 0.361805
#
# Coordination Sequence:
#
# PCOD9081465 Si02
#       8
#     2   2   2   2   2   2   2   2
#     4  10  19  32  49  73  99 133 166 196 244 289
#     4   9  17  32  51  72  98 127 162 205 248 287
#     4   9  18  31  50  73 101 126 161 209 243 285
#     4   9  18  32  49  71 101 133 160 196 241 288
#     4  10  20  34  48  69 105 136 162 196 236 292
#     4   9  18  31  49  73 100 127 161 206 246 286
#     4   9  19  32  49  72 100 131 162 194 238 294
#     4   9  17  31  51  76  98 124 162 205 251 287
#
# _framework density 23.569904000000001
#
# number of rings (size 3 to 8) (size 9 to 14) (size 15 to 20)
#    0.000    2.750    0.000    2.250    0.000    9.500 
#    0.000   10.625    0.000    3.000    0.000    5.250 
#    0.000    0.000    0.000    0.000    0.000    0.000 
#
# Total GULP energy -89071.773251 kJ/mol
# GULP energy per Si atom -5566.985828 kJ/mol
# Density = 2.351626 g / cm^3
# Si number density = 23.569904 Si / 1000 Ang^3
#
#
#
# Elastic Constant Matrix: (Units=GPa)
#
#
# Indices 1 2 3 4 5 6 
#
# 1 42.5361 11.8371 26.3764 -6.9009 -9.8348 3.9530
# 2 11.8371 54.1687 24.2637 13.0928 0.0293 12.7057
# 3 26.3764 24.2637 110.5362 25.6474 -16.5971 8.8233
# 4 -6.9009 13.0928 25.6474 18.1722 -1.1759 0.5184
# 5 -9.8348 0.0293 -16.5971 -1.1759 27.2123 3.5210
# 6 3.9530 12.7057 8.8233 0.5184 3.5210 23.8886
#
#
#
# Elastic Compliance Matrix: (Units=1/GPa)
#
#
# Indices 1 2 3 4 5 6 
#
# 1 0.058893 -0.021224 -0.026423 0.075177 0.007329 0.008591
# 2 -0.021224 0.033749 0.009090 -0.044860 -0.001962 -0.016533
# 3 -0.026423 0.009090 0.028043 -0.055438 0.006517 -0.010578
# 4 0.075177 -0.044860 -0.055438 0.193222 -0.001865 0.027978
# 5 0.007329 -0.001962 0.006517 -0.001865 0.044470 -0.009090
# 6 0.008591 -0.016533 -0.010578 0.027978 -0.009090 0.053872
#
#
# Mechanical properties :
#
#
# Convention : Reuss Voigt Hill
#
# Bulk Modulus (GPa) = 22.95073 36.91061 29.93067
# Shear Modulus (GPa) = 9.92291 23.50555 16.71423
#
# Velocity S-wave (km/s) = 2.05405 3.16138 2.66585
# Velocity P-wave (km/s) = 3.92224 5.38701 4.71189
#
# Compressibility (1/GPa) = 0.04357160
#
# Stress axis : x y z
#
# Youngs Moduli (GPa) = 16.98001 29.63066 35.66010
#
# Poissons Ratio (x) = 0.62887 0.94224
# Poissons Ratio (y) = 0.36038 -0.32415
# Poissons Ratio (z) = 0.44866 -0.26935
#
# Static dielectric constant tensor:
#      x y z
#    x 2.119160 -0.238510 -0.103050 
#    y -0.238510 2.143190 0.116920 
#    z -0.103050 0.116920 2.016240 
# 
# From -- ./inp_files/568811.got.cif
#   From: 2010.05.17/outbox.cif.g08.bks.cpg/sg2_285_cif.got.tgz:568811.got - 2010.06.03 11:33:40.
