data_PCOD9081237
_publ_section_title
;
Structure prediction by ZEFSAII (Michael W. Deem and Ramdas Pophale) SiO2 
 PCOD9081237
Probable space group: P -1
;
_chemical_formula_sum "Si O2"
_cell_formula_units_Z 16
_cell_length_a 8.093241
_cell_length_b 9.987051
_cell_length_c 10.885569
_cell_angle_alpha 47.849143
_cell_angle_beta 88.354648
_cell_angle_gamma 75.696447
_cell_volume 620.471154
_symmetry_space_group_name_H-M "P -1"
_symmetry_group_IT_number 2
_symmetry_cell_setting 'triclinic'
loop_
_space_group_symop_operation_xyz
x,y,z
-x,-y,-z
loop_
_atom_site_type_symbol
_atom_site_label
_atom_site_fract_x
_atom_site_fract_y
_atom_site_fract_z
Si Si1 0.069359 0.789046 0.071354
Si Si2 0.393391 0.764888 0.504834
Si Si3 0.853118 0.858159 0.605526
Si Si4 0.564071 0.658511 0.813932
Si Si5 0.616420 0.235837 0.765783
Si Si6 0.278312 0.176123 0.882476
Si Si7 0.875325 0.366749 0.095496
Si Si8 0.681122 0.961647 0.305394
O O1 0.252391 0.701869 0.187146
O O2 0.088910 0.774409 0.934769
O O3 0.916168 0.698156 0.160498
O O4 0.000000 0.000000 0.000000
O O5 0.462195 0.641527 0.701170
O O6 0.358550 0.693935 0.414736
O O7 0.237648 0.947960 0.437826
O O8 0.553933 0.840385 0.417177
O O9 0.721565 0.736877 0.713800
O O10 0.837966 0.897984 0.436769
O O11 0.045537 0.752484 0.713112
O O12 0.675915 0.492324 0.003433
O O13 0.434228 0.826450 0.791392
O O14 0.423285 0.280200 0.798714
O O15 0.669166 0.000703 0.913103
O O16 0.273040 0.076411 0.813002
O O17 0.000000 0.500000 0.000000
#
# Coordination Sequence:
#
# PCOD9081237 Si02
#       8
#     2   2   2   2   2   2   2   2
#     4  10  20  34  54  81 108 139 183 227 264 320
#     4   8  13  26  47  73 100 134 179 220 259 313
#     4   8  13  24  45  72 101 135 179 220 259 313
#     4   8  15  26  46  74 105 137 177 221 267 319
#     4   9  17  29  50  75 103 137 174 221 267 310
#     4   9  17  30  53  81 107 137 182 224 265 318
#     4  10  19  31  52  80 108 142 180 223 275 321
#     4   8  14  26  48  76 100 134 181 222 258 316
#
# _framework density 25.786854000000002
#
# number of rings (size 3 to 8) (size 9 to 14) (size 15 to 20)
#    0.000    3.250    0.000    3.000    0.000    4.000 
#    0.000    0.625    0.000   32.250    0.000    0.000 
#    0.000    0.000    0.000    0.000    0.000    0.000 
#
# Total GULP energy -89438.700489 kJ/mol
# GULP energy per Si atom -5589.918781 kJ/mol
# Density = 2.572816 g / cm^3
# Si number density = 25.786854 Si / 1000 Ang^3
#
#
#
# Elastic Constant Matrix: (Units=GPa)
#
#
# Indices 1 2 3 4 5 6 
#
# 1 110.1617 -1.3024 57.4938 11.6967 20.4498 -1.4363
# 2 -1.3024 69.8653 52.6177 11.1467 13.3153 -2.3981
# 3 57.4938 52.6177 195.7533 25.5635 34.3093 -17.9791
# 4 11.6967 11.1467 25.5635 29.8470 -0.9505 1.4183
# 5 20.4498 13.3153 34.3093 -0.9505 56.7639 -1.9089
# 6 -1.4363 -2.3981 -17.9791 1.4183 -1.9089 31.9755
#
#
#
# Elastic Compliance Matrix: (Units=1/GPa)
#
#
# Indices 1 2 3 4 5 6 
#
# 1 0.011993 0.004121 -0.003825 -0.002997 -0.003071 -0.001353
# 2 0.004121 0.019783 -0.005612 -0.004217 -0.002853 -0.001470
# 3 -0.003825 -0.005612 0.009273 -0.004659 -0.002832 0.004659
# 4 -0.002997 -0.004217 -0.004659 0.040632 0.005412 -0.004550
# 5 -0.003071 -0.002853 -0.002832 0.005412 0.021164 -0.000921
# 6 -0.001353 -0.001470 0.004659 -0.004550 -0.000921 0.033869
#
#
# Mechanical properties :
#
#
# Convention : Reuss Voigt Hill
#
# Bulk Modulus (GPa) = 32.87593 65.93316 49.40455
# Shear Modulus (GPa) = 31.74892 41.51535 36.63214
#
# Velocity S-wave (km/s) = 3.51266 4.01676 3.77314
# Velocity P-wave (km/s) = 5.40634 6.86560 6.17920
#
# Compressibility (1/GPa) = 0.03041739
#
# Stress axis : x y z
#
# Youngs Moduli (GPa) = 83.38085 50.54850 107.83985
#
# Poissons Ratio (x) = -0.20832 0.41247
# Poissons Ratio (y) = -0.34363 0.60522
# Poissons Ratio (z) = 0.31892 0.28369
#
# Static dielectric constant tensor:
#      x y z
#    x 2.092440 0.030220 0.010350 
#    y 0.030220 1.991770 -0.051520 
#    z 0.010350 -0.051520 2.102370 
# 
# From -- ./inp_files/389475.got.cif
#   From: 2010.05.17/outbox.cif.g08.bks.cpg/sg2_195_cif.got.tgz:389475.got - 2010.06.03 11:33:40.
