data_PCOD9081866
_publ_section_title
;
Structure prediction by ZEFSAII (Michael W. Deem and Ramdas Pophale) SiO2 
 PCOD9081866
Probable space group: P -1
;
_chemical_formula_sum "Si O2"
_cell_formula_units_Z 14
_cell_length_a 8.715491
_cell_length_b 12.616555
_cell_length_c 18.756898
_cell_angle_alpha 25.277646
_cell_angle_beta 134.391677
_cell_angle_gamma 121.540793
_cell_volume 587.426900
_symmetry_space_group_name_H-M "P -1"
_symmetry_group_IT_number 2
_symmetry_cell_setting 'triclinic'
loop_
_space_group_symop_operation_xyz
x,y,z
-x,-y,-z
loop_
_atom_site_type_symbol
_atom_site_label
_atom_site_fract_x
_atom_site_fract_y
_atom_site_fract_z
Si Si1 0.513491 0.727483 0.947221
Si Si2 0.197179 0.307723 0.633205
Si Si3 0.294166 0.186383 0.188377
Si Si4 0.667499 0.644028 0.494814
Si Si5 0.084035 0.837344 0.832637
Si Si6 0.517939 0.578825 0.626007
Si Si7 0.628942 0.278733 0.353858
O O1 0.625009 0.682979 0.931909
O O2 0.460830 0.039520 0.749737
O O3 0.679023 0.507580 0.186671
O O4 0.268990 0.710114 0.907282
O O5 0.145282 0.418044 0.468268
O O6 0.424201 0.350765 0.709701
O O7 0.000000 0.500000 0.500000
O O8 0.194676 0.012112 0.809888
O O9 0.485482 0.160207 0.327042
O O10 0.040304 0.307581 0.066772
O O11 0.331335 0.878457 0.367315
O O12 0.500000 0.500000 0.500000
O O13 0.716063 0.573822 0.636760
O O14 0.861332 0.050681 0.592159
O O15 0.524918 0.586313 0.709064
#
# Coordination Sequence:
#
# PCOD9081866 Si02
#       7
#     2   2   2   2   2   2   2
#     4  10  22  38  57  85 115 147 190 235 281 332
#     4  10  15  30  58  80 103 144 183 224 279 330
#     4  10  20  37  58  83 115 152 189 231 281 333
#     4   8  17  32  54  80 104 146 183 220 281 334
#     4  10  21  38  60  82 112 152 188 227 289 335
#     4   9  17  33  57  78 112 148 185 229 275 336
#     4  11  21  36  59  85 113 149 192 233 276 330
#
# _framework density 23.832751999999999
#
# number of rings (size 3 to 8) (size 9 to 14) (size 15 to 20)
#    0.000    2.286    2.857    2.143    0.000    1.143 
#    0.000   13.571    0.000   18.000    0.000    0.000 
#    0.000    0.000    0.000    0.000    0.000    0.000 
#
# Total GULP energy -77975.482474 kJ/mol
# GULP energy per Si atom -5569.677320 kJ/mol
# Density = 2.377851 g / cm^3
# Si number density = 23.832752 Si / 1000 Ang^3
#
#
#
# Elastic Constant Matrix: (Units=GPa)
#
#
# Indices 1 2 3 4 5 6 
#
# 1 213.2448 48.2835 41.8814 2.3123 -32.1669 -37.7967
# 2 48.2835 97.1706 23.3411 -10.1602 -12.9291 -5.8225
# 3 41.8814 23.3411 64.3922 -1.6979 -16.3575 -1.0135
# 4 2.3123 -10.1602 -1.6979 29.9071 -3.0974 -10.7910
# 5 -32.1669 -12.9291 -16.3575 -3.0974 49.7783 0.6066
# 6 -37.7967 -5.8225 -1.0135 -10.7910 0.6066 56.0688
#
#
#
# Elastic Compliance Matrix: (Units=1/GPa)
#
#
# Indices 1 2 3 4 5 6 
#
# 1 0.006973 -0.002031 -0.002956 0.000539 0.002986 0.004508
# 2 -0.002031 0.012696 -0.002801 0.004738 0.001350 0.000796
# 3 -0.002956 -0.002801 0.019394 0.000060 0.003763 -0.001962
# 4 0.000539 0.004738 0.000060 0.038369 0.003886 0.008199
# 5 0.002986 0.001350 0.003763 0.003886 0.023815 0.002711
# 6 0.004508 0.000796 -0.001962 0.008199 0.002711 0.022470
#
#
# Mechanical properties :
#
#
# Convention : Reuss Voigt Hill
#
# Bulk Modulus (GPa) = 42.57404 66.86885 54.72145
# Shear Modulus (GPa) = 33.98555 44.57094 39.27824
#
# Velocity S-wave (km/s) = 3.78034 4.32922 4.06406
# Velocity P-wave (km/s) = 6.07923 7.28752 6.71063
#
# Compressibility (1/GPa) = 0.02348849
#
# Stress axis : x y z
#
# Youngs Moduli (GPa) = 143.40067 78.76526 51.56227
#
# Poissons Ratio (x) = 0.16000 0.15240
# Poissons Ratio (y) = 0.29130 0.14440
# Poissons Ratio (z) = 0.42383 0.22058
#
# Static dielectric constant tensor:
#      x y z
#    x 2.025810 -0.005130 -0.022940 
#    y -0.005130 1.945140 -0.016250 
#    z -0.022940 -0.016250 1.951840 
# 
# From -- ./inp_files/203788.got.cif
#   From: 2010.05.17/outbox.cif.g08.bks.cpg/sg2_102_cif.got.tgz:203788.got - 2010.06.03 11:33:40.
