data_PCOD9081647
_publ_section_title
;
Structure prediction by ZEFSAII (Michael W. Deem and Ramdas Pophale) SiO2 
 PCOD9081647
Probable space group: P -1
;
_chemical_formula_sum "Si O2"
_cell_formula_units_Z 14
_cell_length_a 9.417422
_cell_length_b 10.552046
_cell_length_c 13.169261
_cell_angle_alpha 147.597647
_cell_angle_beta 121.036319
_cell_angle_gamma 71.948824
_cell_volume 578.013120
_symmetry_space_group_name_H-M "P -1"
_symmetry_group_IT_number 2
_symmetry_cell_setting 'triclinic'
loop_
_space_group_symop_operation_xyz
x,y,z
-x,-y,-z
loop_
_atom_site_type_symbol
_atom_site_label
_atom_site_fract_x
_atom_site_fract_y
_atom_site_fract_z
Si Si1 0.385289 0.055891 0.122502
Si Si2 0.166972 0.421421 0.259364
Si Si3 0.775805 0.249595 0.324572
Si Si4 0.028254 0.142702 0.843056
Si Si5 0.291530 0.362290 0.931383
Si Si6 0.221429 0.902780 0.465250
Si Si7 0.582487 0.172969 0.828150
O O1 0.320827 0.288661 0.221203
O O2 0.591203 0.123583 0.226593
O O3 0.347172 0.995867 0.185186
O O4 0.283873 0.818635 0.858890
O O5 0.155063 0.488130 0.418340
O O6 0.189335 0.674955 0.376791
O O7 0.016371 0.232752 0.013873
O O8 0.920600 0.110830 0.305991
O O9 0.200445 0.329673 0.983489
O O10 0.882285 0.139532 0.705636
O O11 0.482206 0.322858 0.967908
O O12 0.186069 0.135451 0.669617
O O13 0.300388 0.617780 0.055300
O O14 0.426834 0.998912 0.589106
#
# Coordination Sequence:
#
# PCOD9081647 Si02
#       7
#     2   2   2   2   2   2   2
#     4  10  19  33  53  78 111 142 179 217 273 314
#     4  11  21  31  55  84 111 137 177 231 265 311
#     4  10  19  32  53  80 108 139 176 230 263 305
#     4  11  20  34  56  87 107 138 180 222 272 314
#     4   9  18  33  56  79 109 144 175 215 273 317
#     4  10  19  34  55  84 110 136 178 226 268 315
#     4   9  18  34  56  79 110 143 177 215 269 325
#
# _framework density 24.220901999999999
#
# number of rings (size 3 to 8) (size 9 to 14) (size 15 to 20)
#    0.857    1.143    4.286    1.286    0.000    0.000 
#    0.000    0.714    3.143    4.286    0.000    0.000 
#    0.000    0.000    0.000    0.000    0.000    0.000 
#
# Total GULP energy -78113.643918 kJ/mol
# GULP energy per Si atom -5579.545994 kJ/mol
# Density = 2.416577 g / cm^3
# Si number density = 24.220902 Si / 1000 Ang^3
#
#
#
# Elastic Constant Matrix: (Units=GPa)
#
#
# Indices 1 2 3 4 5 6 
#
# 1 49.7334 12.8168 22.5166 -1.9566 2.1639 -10.3121
# 2 12.8168 115.1396 41.8971 -16.6138 6.7745 -24.9230
# 3 22.5166 41.8971 105.8019 -23.9990 -19.8484 -18.2281
# 4 -1.9566 -16.6138 -23.9990 37.9472 8.2283 1.6808
# 5 2.1639 6.7745 -19.8484 8.2283 7.0033 11.5868
# 6 -10.3121 -24.9230 -18.2281 1.6808 11.5868 16.1630
#
#
#
# Elastic Compliance Matrix: (Units=1/GPa)
#
#
# Indices 1 2 3 4 5 6 
#
# 1 0.019329 -0.005434 -0.001723 -0.005740 0.017033 -0.009603
# 2 -0.005434 0.004389 0.001335 -0.002221 0.024228 -0.012330
# 3 -0.001723 0.001335 0.013732 0.009706 -0.006534 0.020121
# 4 -0.005740 -0.002221 0.009706 0.028081 0.016745 -0.011066
# 5 0.017033 0.024228 -0.006534 0.016745 -0.060105 0.082203
# 6 -0.009603 -0.012330 0.020121 -0.011066 0.082203 0.001643
#
#
# Mechanical properties :
#
#
# Convention : Reuss Voigt Hill
#
# Bulk Modulus (GPa) = 38.74887 47.23733 42.99310
# Shear Modulus (GPa) = 183.05004 25.11900 104.08452
#
# Velocity S-wave (km/s) = 8.70283 3.22387 6.56249
# Velocity P-wave (km/s) = 10.81751 5.77952 8.67241
#
# Compressibility (1/GPa) = 0.02580720
#
# Stress axis : x y z
#
# Youngs Moduli (GPa) = 51.73446 227.83913 72.82332
#
# Poissons Ratio (x) = 1.23805 0.12548
# Poissons Ratio (y) = 0.28112 -0.09724
# Poissons Ratio (z) = 0.08914 -0.30423
#
# Static dielectric constant tensor:
#      x y z
#    x 1.983220 -0.025790 -0.004650 
#    y -0.025790 1.911540 0.007470 
#    z -0.004650 0.007470 1.951760 
# 
# From -- ./inp_files/518460.got.cif
#   From: 2010.05.17/outbox.cif.g08.bks.cpg/sg2_260_cif.got.tgz:518460.got - 2010.06.03 11:33:40.
