data_PCOD9081174
_publ_section_title
;
Structure prediction by ZEFSAII (Michael W. Deem and Ramdas Pophale) SiO2 
 PCOD9081174
Probable space group: P -1
;
_chemical_formula_sum "Si O2"
_cell_formula_units_Z 16
_cell_length_a 19.820752
_cell_length_b 6.661014
_cell_length_c 7.840412
_cell_angle_alpha 139.178713
_cell_angle_beta 102.411467
_cell_angle_gamma 80.488863
_cell_volume 660.853524
_symmetry_space_group_name_H-M "P -1"
_symmetry_group_IT_number 2
_symmetry_cell_setting 'triclinic'
loop_
_space_group_symop_operation_xyz
x,y,z
-x,-y,-z
loop_
_atom_site_type_symbol
_atom_site_label
_atom_site_fract_x
_atom_site_fract_y
_atom_site_fract_z
Si Si1 0.716527 0.815501 0.279170
Si Si2 0.865577 0.859737 0.270606
Si Si3 0.071787 0.355846 0.383095
Si Si4 0.426021 0.804536 0.130192
Si Si5 0.866825 0.146351 0.088882
Si Si6 0.928053 0.361257 0.808449
Si Si7 0.718721 0.090431 0.826929
Si Si8 0.428556 0.075607 0.681839
O O1 0.787452 0.948117 0.330021
O O2 0.643054 0.963516 0.280793
O O3 0.718105 0.878055 0.523485
O O4 0.716160 0.452132 0.007110
O O5 0.918781 0.003657 0.528719
O O6 0.884205 0.004027 0.190849
O O7 0.872475 0.500119 0.999422
O O8 0.079547 0.997442 0.111136
O O9 0.085235 0.496189 0.293699
O O10 0.000000 0.500000 0.500000
O O11 0.127623 0.493687 0.633679
O O12 0.352440 0.949627 0.132350
O O13 0.497679 0.954335 0.204520
O O14 0.427832 0.865245 0.376675
O O15 0.426747 0.439218 0.860072
O O16 0.790242 0.045515 0.934020
O O17 0.000000 0.500000 0.000000
#
# Coordination Sequence:
#
# PCOD9081174 Si02
#       8
#     2   2   2   2   2   2   2   2
#     4  10  19  31  50  76  99 126 167 204 235 280
#     4  10  21  36  51  71 101 130 155 193 248 295
#     4  10  21  36  53  72  94 124 160 197 241 290
#     4   8  14  25  42  66  96 125 155 196 239 274
#     4  10  21  36  51  71 101 130 155 193 248 295
#     4  10  21  36  53  72  94 124 160 197 241 290
#     4  10  19  31  50  76  99 126 167 204 235 280
#     4   8  14  25  42  66  96 125 155 196 239 274
#
# _framework density 24.211116000000001
#
# number of rings (size 3 to 8) (size 9 to 14) (size 15 to 20)
#    0.000    2.500    0.000    2.250    0.000    3.000 
#    0.000    0.000    0.000    0.750    0.000    0.000 
#    0.000   26.000    0.000    0.000    0.000    4.000 
#
# Total GULP energy -89284.051922 kJ/mol
# GULP energy per Si atom -5580.253245 kJ/mol
# Density = 2.415601 g / cm^3
# Si number density = 24.211116 Si / 1000 Ang^3
#
#
#
# Elastic Constant Matrix: (Units=GPa)
#
#
# Indices 1 2 3 4 5 6 
#
# 1 179.5522 -8.9545 60.1922 -16.8980 -4.9337 -28.5470
# 2 -8.9545 27.0967 26.2078 2.4643 -5.3968 4.8304
# 3 60.1922 26.2078 169.2387 3.8004 -0.8526 -2.0968
# 4 -16.8980 2.4643 3.8004 32.7109 -2.6575 -0.0506
# 5 -4.9337 -5.3968 -0.8526 -2.6575 42.8981 0.5378
# 6 -28.5470 4.8304 -2.0968 -0.0506 0.5378 14.2736
#
#
#
# Elastic Compliance Matrix: (Units=1/GPa)
#
#
# Indices 1 2 3 4 5 6 
#
# 1 0.011099 0.004241 -0.004484 0.006116 0.001848 0.020056
# 2 0.004241 0.050627 -0.009442 0.000011 0.006799 -0.010293
# 3 -0.004484 -0.009442 0.008966 -0.002787 -0.001643 -0.004404
# 4 0.006116 0.000011 -0.002787 0.034285 0.002625 0.011842
# 5 0.001848 0.006799 -0.001643 0.002625 0.024506 0.000241
# 6 0.020056 -0.010293 -0.004404 0.011842 0.000241 0.113041
#
#
# Mechanical properties :
#
#
# Convention : Reuss Voigt Hill
#
# Bulk Modulus (GPa) = 19.48460 58.97539 39.22999
# Shear Modulus (GPa) = 17.92110 37.87264 27.89687
#
# Velocity S-wave (km/s) = 2.72362 3.95937 3.39814
# Velocity P-wave (km/s) = 4.23746 6.73156 5.62450
#
# Compressibility (1/GPa) = 0.05132259
#
# Stress axis : x y z
#
# Youngs Moduli (GPa) = 90.09563 19.75235 111.53848
#
# Poissons Ratio (x) = -0.08378 0.50014
# Poissons Ratio (y) = -0.38213 1.05314
# Poissons Ratio (z) = 0.40399 0.18650
#
# Static dielectric constant tensor:
#      x y z
#    x 2.004600 -0.011490 0.016880 
#    y -0.011490 1.983460 0.061780 
#    z 0.016880 0.061780 1.943460 
# 
# From -- ./inp_files/44691.got.cif
#   From: 2010.05.17/outbox.cif.g08.bks.cpg/sg2_23_cif.got.tgz:44691.got - 2010.06.03 11:33:40.
