data_PCOD9081025
_publ_section_title
;
Structure prediction by ZEFSAII (Michael W. Deem and Ramdas Pophale) SiO2 
 PCOD9081025
Probable space group: P -1
;
_chemical_formula_sum "Si O2"
_cell_formula_units_Z 14
_cell_length_a 29.320805
_cell_length_b 19.430879
_cell_length_c 5.327773
_cell_angle_alpha 114.876363
_cell_angle_beta 55.513000
_cell_angle_gamma 161.740206
_cell_volume 698.790207
_symmetry_space_group_name_H-M "P -1"
_symmetry_group_IT_number 2
_symmetry_cell_setting 'triclinic'
loop_
_space_group_symop_operation_xyz
x,y,z
-x,-y,-z
loop_
_atom_site_type_symbol
_atom_site_label
_atom_site_fract_x
_atom_site_fract_y
_atom_site_fract_z
Si Si1 0.104722 0.714849 0.531311
Si Si2 0.027855 0.102251 0.867429
Si Si3 0.798025 0.811528 0.739781
Si Si4 0.131642 0.343898 0.296168
Si Si5 0.528366 0.680294 0.208294
Si Si6 0.934236 0.237236 0.780127
Si Si7 0.510911 0.272101 0.099755
O O1 0.072313 0.723954 0.398404
O O2 0.000000 0.500000 0.500000
O O3 0.319416 0.981875 0.296357
O O4 0.047827 0.685467 0.915337
O O5 0.150106 0.211095 0.469401
O O6 0.833452 0.872917 0.016282
O O7 0.129603 0.308155 0.964908
O O8 0.000000 0.000000 0.000000
O O9 0.607042 0.563782 0.823170
O O10 0.956720 0.070453 0.529628
O O11 0.087923 0.374481 0.500162
O O12 0.317344 0.558473 0.164960
O O13 0.471263 0.644625 0.595270
O O14 0.512136 0.716542 0.077892
O O15 0.741088 0.942490 0.963287
#
# Coordination Sequence:
#
# PCOD9081025 Si02
#       7
#     2   2   2   2   2   2   2
#     4  10  22  46  68  84 109 152 190 232 302 380
#     4   9  17  29  47  76 107 158 200 232 259 322
#     4  10  19  30  53  76 118 168 205 224 267 332
#     4  11  22  34  54  88 123 153 192 248 288 317
#     4  10  20  37  54  83 116 163 206 226 267 343
#     4  10  24  39  62  90 121 143 187 250 299 336
#     4  10  21  36  61  85 113 152 198 237 280 349
#
# _framework density 20.034627
#
# number of rings (size 3 to 8) (size 9 to 14) (size 15 to 20)
#    0.000    2.000    1.429    3.000    4.000    0.571 
#    0.000    2.143    0.000    0.000    0.000    0.000 
#    0.000    0.000    0.000    0.000    0.000    0.000 
#
# Total GULP energy -77968.580925 kJ/mol
# GULP energy per Si atom -5569.184352 kJ/mol
# Density = 1.998903 g / cm^3
# Si number density = 20.034627 Si / 1000 Ang^3
#
#
#
# Elastic Constant Matrix: (Units=GPa)
#
#
# Indices 1 2 3 4 5 6 
#
# 1 71.2813 33.6816 46.4391 2.9280 -14.6949 11.5605
# 2 33.6816 107.8741 27.7366 3.3819 -13.2546 3.5188
# 3 46.4391 27.7366 63.2827 5.6821 -21.4320 13.7938
# 4 2.9280 3.3819 5.6821 25.8954 8.6184 7.3385
# 5 -14.6949 -13.2546 -21.4320 8.6184 31.4755 0.9452
# 6 11.5605 3.5188 13.7938 7.3385 0.9452 24.4330
#
#
#
# Elastic Compliance Matrix: (Units=1/GPa)
#
#
# Indices 1 2 3 4 5 6 
#
# 1 0.028674 -0.004203 -0.019842 0.003318 -0.002722 -0.002651
# 2 -0.004203 0.011191 -0.001133 -0.001993 0.002479 0.001520
# 3 -0.019842 -0.001133 0.041853 -0.010829 0.022073 -0.011678
# 4 0.003318 -0.001993 -0.010829 0.050271 -0.020144 -0.009489
# 5 -0.002722 0.002479 0.022073 -0.020144 0.052315 -0.007504
# 6 -0.002651 0.001520 -0.011678 -0.009489 -0.007504 0.051697
#
#
# Mechanical properties :
#
#
# Convention : Reuss Voigt Hill
#
# Bulk Modulus (GPa) = 31.88630 50.90584 41.39607
# Shear Modulus (GPa) = 16.84560 25.33284 21.08922
#
# Velocity S-wave (km/s) = 2.90284 3.55977 3.24796
# Velocity P-wave (km/s) = 5.21397 6.50846 5.89684
#
# Compressibility (1/GPa) = 0.03136143
#
# Stress axis : x y z
#
# Youngs Moduli (GPa) = 34.87434 89.35460 23.89308
#
# Poissons Ratio (x) = 0.37558 0.47409
# Poissons Ratio (y) = 0.14659 0.02708
# Poissons Ratio (z) = 0.69198 0.10128
#
# Static dielectric constant tensor:
#      x y z
#    x 1.795080 0.108450 0.110580 
#    y 0.108450 1.793560 0.026230 
#    z 0.110580 0.026230 1.888730 
# 
# From -- ./inp_files/127458.got.cif
#   From: 2010.05.17/outbox.cif.g08.bks.cpg/sg2_64_cif.got.tgz:127458.got - 2010.06.03 11:33:40.
