data_PCOD9081084
_publ_section_title
;
Structure prediction by ZEFSAII (Michael W. Deem and Ramdas Pophale) SiO2 
 PCOD9081084
Probable space group: P -1
;
_chemical_formula_sum "Si O2"
_cell_formula_units_Z 16
_cell_length_a 13.619785
_cell_length_b 16.067863
_cell_length_c 17.595457
_cell_angle_alpha 22.704775
_cell_angle_beta 30.962793
_cell_angle_gamma 25.524033
_cell_volume 633.124515
_symmetry_space_group_name_H-M "P -1"
_symmetry_group_IT_number 2
_symmetry_cell_setting 'triclinic'
loop_
_space_group_symop_operation_xyz
x,y,z
-x,-y,-z
loop_
_atom_site_type_symbol
_atom_site_label
_atom_site_fract_x
_atom_site_fract_y
_atom_site_fract_z
Si Si1 0.395894 0.810073 0.670214
Si Si2 0.884243 0.067802 0.388924
Si Si3 0.395283 0.298215 0.222964
Si Si4 0.847029 0.586890 0.855706
Si Si5 0.163435 0.569029 0.410657
Si Si6 0.813151 0.752563 0.964108
Si Si7 0.864362 0.871333 0.215225
Si Si8 0.524864 0.644305 0.160784
O O1 0.187611 0.860527 0.713051
O O2 0.482112 0.666827 0.815299
O O3 0.621052 0.625804 0.624038
O O4 0.338132 0.100911 0.464165
O O5 0.686362 0.336604 0.334455
O O6 0.861920 0.835443 0.623080
O O7 0.124113 0.037970 0.269492
O O8 0.200892 0.485602 0.134169
O O9 0.602026 0.104090 0.192858
O O10 0.088691 0.364996 0.919287
O O11 0.572183 0.803307 0.055750
O O12 0.102792 0.369639 0.651024
O O13 0.271816 0.700263 0.273626
O O14 0.955481 0.763772 0.330012
O O15 0.000000 0.500000 0.000000
O O16 0.359543 0.339041 0.008983
O O17 0.000000 0.000000 0.000000
#
# Coordination Sequence:
#
# PCOD9081084 Si02
#       8
#     2   2   2   2   2   2   2   2
#     4   8  15  28  45  67  91 118 147 178 220 262
#     4   8  14  25  39  58  87 113 137 176 219 258
#     4   9  16  27  46  67  92 119 146 180 217 264
#     4   9  15  25  40  59  87 117 140 174 221 258
#     4   9  18  32  47  62  90 121 145 179 221 260
#     4   8  16  25  36  58  86 111 145 178 213 261
#     4  10  19  31  45  64  90 119 148 179 217 263
#     4   9  17  27  39  60  84 112 149 180 211 258
#
# _framework density 25.27149
#
# number of rings (size 3 to 8) (size 9 to 14) (size 15 to 20)
#    0.000    3.500    0.000    1.500    0.000    4.500 
#    0.000   10.000    0.000    0.000    0.000    0.875 
#    0.000   36.000    0.000    2.500    0.000    0.000 
#
# Total GULP energy -89192.518748 kJ/mol
# GULP energy per Si atom -5574.532422 kJ/mol
# Density = 2.521397 g / cm^3
# Si number density = 25.271490 Si / 1000 Ang^3
#
#
#
# Elastic Constant Matrix: (Units=GPa)
#
#
# Indices 1 2 3 4 5 6 
#
# 1 151.5834 18.5729 59.5993 11.7827 -33.8363 -30.7190
# 2 18.5729 57.1717 13.2687 0.8322 5.4399 -5.1959
# 3 59.5993 13.2687 158.3910 4.9547 -30.3057 -7.9744
# 4 11.7827 0.8322 4.9547 21.4955 -9.9989 -2.2589
# 5 -33.8363 5.4399 -30.3057 -9.9989 55.9683 10.8419
# 6 -30.7190 -5.1959 -7.9744 -2.2589 10.8419 31.4449
#
#
#
# Elastic Compliance Matrix: (Units=1/GPa)
#
#
# Indices 1 2 3 4 5 6 
#
# 1 0.010417 -0.002304 -0.002658 -0.002755 0.003067 0.007867
# 2 -0.002304 0.019237 -0.001500 -0.001091 -0.004673 0.002080
# 3 -0.002658 -0.001500 0.007962 0.001065 0.003414 -0.001926
# 4 -0.002755 -0.001091 0.001065 0.051634 0.008602 -0.001858
# 5 0.003067 -0.004673 0.003414 0.008602 0.024477 -0.004732
# 6 0.007867 0.002080 -0.001926 -0.001858 -0.004732 0.040840
#
#
# Mechanical properties :
#
#
# Convention : Reuss Voigt Hill
#
# Bulk Modulus (GPa) = 40.49668 61.11420 50.80544
# Shear Modulus (GPa) = 28.45390 40.16208 34.30799
#
# Velocity S-wave (km/s) = 3.35913 3.99083 3.68853
# Velocity P-wave (km/s) = 5.57713 6.74324 6.18772
#
# Compressibility (1/GPa) = 0.02469338
#
# Stress axis : x y z
#
# Youngs Moduli (GPa) = 95.99482 51.98238 125.59541
#
# Poissons Ratio (x) = 0.11977 0.33381
# Poissons Ratio (y) = 0.22118 0.18836
# Poissons Ratio (z) = 0.25513 0.07796
#
# Static dielectric constant tensor:
#      x y z
#    x 2.108290 0.013490 -0.084660 
#    y 0.013490 2.253820 0.146500 
#    z -0.084660 0.146500 2.139820 
# 
# From -- ./inp_files/598441.got.cif
#   From: 2010.05.17/outbox.cif.g08.bks.cpg/sg2_300_cif.got.tgz:598441.got - 2010.06.03 11:33:40.
