data_PCOD9081029
_publ_section_title
;
Structure prediction by ZEFSAII (Michael W. Deem and Ramdas Pophale) SiO2 
 PCOD9081029
Probable space group: P -1
;
_chemical_formula_sum "Si O2"
_cell_formula_units_Z 16
_cell_length_a 14.016147
_cell_length_b 12.325128
_cell_length_c 14.930400
_cell_angle_alpha 27.456028
_cell_angle_beta 51.148544
_cell_angle_gamma 42.724289
_cell_volume 804.346058
_symmetry_space_group_name_H-M "P -1"
_symmetry_group_IT_number 2
_symmetry_cell_setting 'triclinic'
loop_
_space_group_symop_operation_xyz
x,y,z
-x,-y,-z
loop_
_atom_site_type_symbol
_atom_site_label
_atom_site_fract_x
_atom_site_fract_y
_atom_site_fract_z
Si Si1 0.888474 0.455127 0.338451
Si Si2 0.195928 0.767924 0.060810
Si Si3 0.696421 0.047466 0.969859
Si Si4 0.870358 0.955547 0.767464
Si Si5 0.058456 0.321772 0.683166
Si Si6 0.121382 0.466340 0.070267
Si Si7 0.430125 0.351573 0.022071
Si Si8 0.488833 0.225630 0.273259
O O1 0.758392 0.724158 0.176140
O O2 0.891659 0.530593 0.384857
O O3 0.028441 0.420704 0.233129
O O4 0.879314 0.184923 0.537594
O O5 0.330947 0.479937 0.179900
O O6 0.065787 0.715044 0.173092
O O7 0.215390 0.879385 0.063562
O O8 0.174297 0.007567 0.830787
O O9 0.741131 0.094584 0.811631
O O10 0.535992 0.215233 0.975656
O O11 0.853676 0.744115 0.869743
O O12 0.016163 0.769980 0.872601
O O13 0.000000 0.500000 0.500000
O O14 0.272818 0.409685 0.056163
O O15 0.426035 0.632492 0.842514
O O16 0.507157 0.160283 0.204122
O O17 0.500000 0.000000 0.500000
#
# Coordination Sequence:
#
# PCOD9081029 Si02
#       8
#     2   2   2   2   2   2   2   2
#     4  10  20  36  57  80 111 148 191 237 282 337
#     4   9  19  34  49  78 114 141 185 233 273 338
#     4   9  20  37  55  79 113 149 184 233 290 338
#     4  10  21  39  61  82 111 150 192 237 291 345
#     4  10  19  30  53  81 108 145 185 230 284 334
#     4  10  22  39  59  85 113 147 190 241 291 335
#     4  10  22  39  58  85 121 149 189 242 283 343
#     4  10  22  38  57  81 117 160 191 227 286 347
#
# _framework density 19.891936000000001
#
# number of rings (size 3 to 8) (size 9 to 14) (size 15 to 20)
#    0.000    2.250    0.000    1.875    0.000   11.500 
#    0.000    0.625    0.000    0.000    0.000    0.000 
#    0.000    0.000    0.000    0.000    0.000    0.000 
#
# Total GULP energy -89263.346020 kJ/mol
# GULP energy per Si atom -5578.959126 kJ/mol
# Density = 1.984666 g / cm^3
# Si number density = 19.891936 Si / 1000 Ang^3
#
#
#
# Elastic Constant Matrix: (Units=GPa)
#
#
# Indices 1 2 3 4 5 6 
#
# 1 68.2041 28.0246 27.5817 2.7703 -1.0112 -17.4727
# 2 28.0246 116.2194 24.2592 1.7917 -0.8368 -20.1391
# 3 27.5817 24.2592 96.2582 1.7644 1.8134 -6.1581
# 4 2.7703 1.7917 1.7644 21.0550 1.8290 2.3503
# 5 -1.0112 -0.8368 1.8134 1.8290 20.7522 3.6360
# 6 -17.4727 -20.1391 -6.1581 2.3503 3.6360 24.0102
#
#
#
# Elastic Compliance Matrix: (Units=1/GPa)
#
#
# Indices 1 2 3 4 5 6 
#
# 1 0.020656 -0.001751 -0.004580 -0.003565 -0.000597 0.012827
# 2 -0.001751 0.010691 -0.001675 -0.001315 -0.000706 0.007499
# 3 -0.004580 -0.001675 0.012049 -0.000005 -0.001083 -0.001483
# 4 -0.003565 -0.001315 -0.000005 0.049248 -0.003158 -0.008041
# 5 -0.000597 -0.000706 -0.001083 -0.003158 0.050004 -0.008568
# 6 0.012827 0.007499 -0.001483 -0.008041 -0.008568 0.058977
#
#
# Mechanical properties :
#
#
# Convention : Reuss Voigt Hill
#
# Bulk Modulus (GPa) = 36.52036 48.93473 42.72754
# Shear Modulus (GPa) = 22.04915 26.55123 24.30019
#
# Velocity S-wave (km/s) = 3.33295 3.65742 3.49895
# Velocity P-wave (km/s) = 5.76286 6.51838 6.15223
#
# Compressibility (1/GPa) = 0.02738199
#
# Stress axis : x y z
#
# Youngs Moduli (GPa) = 48.41269 93.53614 82.99495
#
# Poissons Ratio (x) = 0.16382 0.38012
# Poissons Ratio (y) = 0.08479 0.13905
# Poissons Ratio (z) = 0.22173 0.15671
#
# Static dielectric constant tensor:
#      x y z
#    x 1.703930 -0.005750 0.020800 
#    y -0.005750 1.780480 0.007280 
#    z 0.020800 0.007280 1.665160 
# 
# From -- ./inp_files/532254.got.cif
#   From: 2010.05.17/outbox.cif.g08.bks.cpg/sg2_267_cif.got.tgz:532254.got - 2010.06.03 11:33:40.
