data_PCOD9081534
_publ_section_title
;
Structure prediction by ZEFSAII (Michael W. Deem and Ramdas Pophale) SiO2 
 PCOD9081534
Probable space group: P -1
;
_chemical_formula_sum "Si O2"
_cell_formula_units_Z 16
_cell_length_a 20.596179
_cell_length_b 10.589052
_cell_length_c 12.369859
_cell_angle_alpha 139.738065
_cell_angle_beta 24.313153
_cell_angle_gamma 149.503948
_cell_volume 560.504877
_symmetry_space_group_name_H-M "P -1"
_symmetry_group_IT_number 2
_symmetry_cell_setting 'triclinic'
loop_
_space_group_symop_operation_xyz
x,y,z
-x,-y,-z
loop_
_atom_site_type_symbol
_atom_site_label
_atom_site_fract_x
_atom_site_fract_y
_atom_site_fract_z
Si Si1 0.549115 0.166630 0.145453
Si Si2 0.326799 0.673309 0.617263
Si Si3 0.663954 0.718286 0.572502
Si Si4 0.960494 0.732368 0.877276
Si Si5 0.787936 0.643688 0.872871
Si Si6 0.226009 0.400803 0.374651
Si Si7 0.762516 0.000550 0.821030
Si Si8 0.789145 0.092476 0.184044
O O1 0.367904 0.185638 0.426884
O O2 0.745586 0.458280 0.045655
O O3 0.601954 0.048727 0.079700
O O4 0.500000 0.000000 0.000000
O O5 0.259784 0.445116 0.647612
O O6 0.339226 0.594562 0.425551
O O7 0.194618 0.760769 0.851029
O O8 0.553807 0.905378 0.450676
O O9 0.781459 0.927244 0.622332
O O10 0.434096 0.529338 0.847098
O O11 0.957381 0.686985 0.723397
O O12 0.100314 0.758817 0.776996
O O13 0.000000 0.000000 0.000000
O O14 0.762404 0.528749 0.720667
O O15 0.844746 0.914735 0.954393
O O16 0.990081 0.233346 0.655208
O O17 0.294441 0.226884 0.167361
#
# Coordination Sequence:
#
# PCOD9081534 Si02
#       8
#     2   2   2   2   2   2   2   2
#     4   9  16  30  51  76 101 136 183 219 257 321
#     4   9  17  29  48  73 103 137 172 213 265 319
#     4   8  16  30  49  72  99 135 174 216 265 314
#     4   9  17  31  52  77 105 138 178 222 270 321
#     4   9  18  32  53  80 106 134 178 233 271 309
#     4  10  19  32  51  79 110 137 175 228 276 313
#     4   9  18  30  49  74 105 142 171 209 272 332
#     4   9  17  30  49  75 104 140 174 211 268 330
#
# _framework density 28.545694000000001
#
# number of rings (size 3 to 8) (size 9 to 14) (size 15 to 20)
#    0.000    3.000    0.000    1.500    0.000    4.500 
#    0.000    5.625    0.000   24.750    0.000   74.375 
#    0.000    0.000    0.000    0.000    0.000    0.000 
#
# Total GULP energy -89471.349519 kJ/mol
# GULP energy per Si atom -5591.959345 kJ/mol
# Density = 2.848072 g / cm^3
# Si number density = 28.545694 Si / 1000 Ang^3
#
#
#
# Elastic Constant Matrix: (Units=GPa)
#
#
# Indices 1 2 3 4 5 6 
#
# 1 175.5411 44.3203 77.4405 -3.8510 -30.5238 38.8226
# 2 44.3203 155.4887 52.3273 2.6892 -8.9671 20.1968
# 3 77.4405 52.3273 88.9752 7.8618 -7.5212 1.5671
# 4 -3.8510 2.6892 7.8618 43.4340 -2.5176 -19.5738
# 5 -30.5238 -8.9671 -7.5212 -2.5176 52.0169 -0.2023
# 6 38.8226 20.1968 1.5671 -19.5738 -0.2023 52.2330
#
#
#
# Elastic Compliance Matrix: (Units=1/GPa)
#
#
# Indices 1 2 3 4 5 6 
#
# 1 0.014861 0.002238 -0.013317 -0.001415 0.007066 -0.012014
# 2 0.002238 0.008925 -0.006821 -0.001476 0.001773 -0.005456
# 3 -0.013317 -0.006821 0.026256 -0.000633 -0.005180 0.011490
# 4 -0.001415 -0.001476 -0.000633 0.028707 0.000261 0.012400
# 5 0.007066 0.001773 -0.005180 0.000261 0.022918 -0.005595
# 6 -0.012014 -0.005456 0.011490 0.012400 -0.005595 0.034465
#
#
# Mechanical properties :
#
#
# Convention : Reuss Voigt Hill
#
# Bulk Modulus (GPa) = 70.20409 85.35346 77.77877
# Shear Modulus (GPa) = 28.29978 45.93124 37.11551
#
# Velocity S-wave (km/s) = 3.15204 4.01564 3.60976
# Velocity P-wave (km/s) = 6.15582 7.17398 6.68432
#
# Compressibility (1/GPa) = 0.01424418
#
# Stress axis : x y z
#
# Youngs Moduli (GPa) = 67.29046 112.04169 38.08583
#
# Poissons Ratio (x) = -0.25076 0.50718
# Poissons Ratio (y) = -0.15060 0.25977
# Poissons Ratio (z) = 0.89609 0.76420
#
# Static dielectric constant tensor:
#      x y z
#    x 2.210610 -0.103500 -0.020600 
#    y -0.103500 2.245900 0.028930 
#    z -0.020600 0.028930 2.281700 
# 
# From -- ./inp_files/540858.got.cif
#   From: 2010.05.17/outbox.cif.g08.bks.cpg/sg2_271_cif.got.tgz:540858.got - 2010.06.03 11:33:40.
