data_PCOD9081739
_publ_section_title
;
Structure prediction by ZEFSAII (Michael W. Deem and Ramdas Pophale) SiO2 
 PCOD9081739
Probable space group: P -1
;
_chemical_formula_sum "Si O2"
_cell_formula_units_Z 15
_cell_length_a 11.041804
_cell_length_b 12.710789
_cell_length_c 12.106160
_cell_angle_alpha 129.312125
_cell_angle_beta 35.172494
_cell_angle_gamma 105.329574
_cell_volume 622.836365
_symmetry_space_group_name_H-M "P -1"
_symmetry_group_IT_number 2
_symmetry_cell_setting 'triclinic'
loop_
_space_group_symop_operation_xyz
x,y,z
-x,-y,-z
loop_
_atom_site_type_symbol
_atom_site_label
_atom_site_fract_x
_atom_site_fract_y
_atom_site_fract_z
Si Si1 0.412125 0.993871 0.893578
Si Si2 0.063840 0.905411 0.005407
Si Si3 0.775984 0.661967 0.499724
Si Si4 0.000000 0.500000 0.000000
Si Si5 0.359966 0.398047 0.911184
Si Si6 0.789103 0.678703 0.824520
Si Si7 0.742331 0.823909 0.320429
Si Si8 0.271305 0.595513 0.522379
O O1 0.175934 0.976593 0.051627
O O2 0.614823 0.857539 0.736451
O O3 0.535336 0.939700 0.642121
O O4 0.327202 0.180976 0.087287
O O5 0.270734 0.712403 0.693094
O O6 0.822189 0.919432 0.248789
O O7 0.000000 0.000000 0.000000
O O8 0.665433 0.577851 0.597491
O O9 0.800297 0.593665 0.312201
O O10 0.077013 0.568333 0.242743
O O11 0.013326 0.327578 0.898150
O O12 0.329501 0.284082 0.770201
O O13 0.562482 0.420597 0.717091
O O14 0.407757 0.323894 0.948668
O O15 0.000000 0.500000 0.500000
O O16 0.971530 0.701821 0.782933
#
# Coordination Sequence:
#
# PCOD9081739 Si02
#       8
#     2   2   2   1   2   2   2   2
#     4  11  23  35  61  90 120 155 192 243 288 347
#     4  12  21  33  54  90 126 151 192 233 286 355
#     4   9  20  36  54  89 124 156 191 230 292 353
#     4   8  14  30  46  76 122 156 172 208 278 348
#     4  10  20  39  61  84 121 159 191 233 295 355
#     4  11  25  44  61  83 114 154 205 250 293 343
#     4  10  19  32  54  85 122 151 184 229 285 345
#     4  11  21  39  61  86 121 160 191 234 298 348
#
# _framework density 24.083373000000002
#
# number of rings (size 3 to 8) (size 9 to 14) (size 15 to 20)
#    0.000    1.600    6.667    0.000    1.867    5.333 
#    0.000    2.667    0.000    1.600    0.000    0.000 
#    0.000    0.000    0.000    0.000    0.000    0.000 
#
# Total GULP energy -83567.072950 kJ/mol
# GULP energy per Si atom -5571.138197 kJ/mol
# Density = 2.402856 g / cm^3
# Si number density = 24.083373 Si / 1000 Ang^3
#
#
#
# Elastic Constant Matrix: (Units=GPa)
#
#
# Indices 1 2 3 4 5 6 
#
# 1 32.1082 18.1810 6.1859 0.7588 1.0343 -12.6542
# 2 18.1810 199.5607 65.9717 -8.9883 -2.4314 -26.1938
# 3 6.1859 65.9717 87.5903 15.7207 6.5983 -5.4434
# 4 0.7588 -8.9883 15.7207 65.4859 -4.2697 -1.6873
# 5 1.0343 -2.4314 6.5983 -4.2697 28.3538 6.5640
# 6 -12.6542 -26.1938 -5.4434 -1.6873 6.5640 25.2506
#
#
#
# Elastic Compliance Matrix: (Units=1/GPa)
#
#
# Indices 1 2 3 4 5 6 
#
# 1 0.040092 -0.000938 -0.000292 -0.000403 -0.006321 0.020673
# 2 -0.000938 0.008181 -0.006289 0.002885 0.001114 0.006563
# 3 -0.000292 -0.006289 0.017392 -0.005408 -0.004927 -0.002002
# 4 -0.000403 0.002885 -0.005408 0.017257 0.003699 0.001817
# 5 -0.006321 0.001114 -0.004927 0.003699 0.040383 -0.013325
# 6 0.020673 0.006563 -0.002002 0.001817 -0.013325 0.059925
#
#
# Mechanical properties :
#
#
# Convention : Reuss Voigt Hill
#
# Bulk Modulus (GPa) = 19.75235 55.54849 37.65042
# Shear Modulus (GPa) = 23.24030 39.07943 31.15987
#
# Velocity S-wave (km/s) = 3.10980 4.03261 3.60089
# Velocity P-wave (km/s) = 4.59499 6.69311 5.74072
#
# Compressibility (1/GPa) = 0.05062688
#
# Stress axis : x y z
#
# Youngs Moduli (GPa) = 24.94236 122.24081 57.49902
#
# Poissons Ratio (x) = 0.11465 0.01678
# Poissons Ratio (y) = 0.02339 0.36162
# Poissons Ratio (z) = 0.00728 0.76879
#
# Static dielectric constant tensor:
#      x y z
#    x 2.088570 -0.069310 -0.046830 
#    y -0.069310 1.969690 0.072590 
#    z -0.046830 0.072590 1.957980 
# 
# From -- ./inp_files/454963.got.cif
#   From: 2010.05.17/outbox.cif.g08.bks.cpg/sg2_228_cif.got.tgz:454963.got - 2010.06.03 11:33:40.
