data_PCOD9081733
_publ_section_title
;
Structure prediction by ZEFSAII (Michael W. Deem and Ramdas Pophale) SiO2 
 PCOD9081733
Probable space group: P -1
;
_chemical_formula_sum "Si O2"
_cell_formula_units_Z 16
_cell_length_a 13.099269
_cell_length_b 8.810632
_cell_length_c 11.926382
_cell_angle_alpha 77.713837
_cell_angle_beta 45.555668
_cell_angle_gamma 58.906994
_cell_volume 816.200306
_symmetry_space_group_name_H-M "P -1"
_symmetry_group_IT_number 2
_symmetry_cell_setting 'triclinic'
loop_
_space_group_symop_operation_xyz
x,y,z
-x,-y,-z
loop_
_atom_site_type_symbol
_atom_site_label
_atom_site_fract_x
_atom_site_fract_y
_atom_site_fract_z
Si Si1 0.269105 0.109669 0.479953
Si Si2 0.594445 0.501349 0.278503
Si Si3 0.000991 0.093355 0.366994
Si Si4 0.708487 0.206856 0.397210
Si Si5 0.645512 0.102070 0.963234
Si Si6 0.960580 0.344298 0.536409
Si Si7 0.542753 0.822128 0.136701
Si Si8 0.396132 0.379342 0.294097
O O1 0.324076 0.258722 0.422389
O O2 0.081169 0.201551 0.559735
O O3 0.280297 0.985909 0.595914
O O4 0.394057 0.963662 0.313155
O O5 0.732551 0.311534 0.259527
O O6 0.480158 0.649246 0.437953
O O7 0.640064 0.619137 0.144695
O O8 0.474340 0.452079 0.311184
O O9 0.837336 0.173823 0.403444
O O10 0.015809 0.256730 0.384022
O O11 0.164799 0.954241 0.193417
O O12 0.000000 0.000000 0.500000
O O13 0.545575 0.174732 0.911805
O O14 0.539948 0.248461 0.116640
O O15 0.648452 0.916731 0.019034
O O16 0.759367 0.446813 0.676172
O O17 0.000000 0.500000 0.500000
#
# Coordination Sequence:
#
# PCOD9081733 Si02
#       8
#     2   2   2   2   2   2   2   2
#     4   9  17  34  55  81 114 145 179 226 270 328
#     4  10  20  36  54  82 111 143 189 235 257 323
#     4  12  20  37  61  82 106 144 187 225 271 335
#     4  10  20  34  58  80 107 151 190 218 275 322
#     4  10  21  35  57  81 109 150 176 217 294 327
#     4  10  19  32  54  84 118 132 174 238 268 307
#     4   9  18  35  55  78 112 146 181 222 270 336
#     4  10  21  34  54  86 117 139 178 233 278 318
#
# _framework density 19.603031000000001
#
# number of rings (size 3 to 8) (size 9 to 14) (size 15 to 20)
#    0.000    2.000    3.750    0.750    1.750    1.000 
#    0.000    1.250    0.000    0.000    0.000    0.000 
#    0.000    0.000    0.000    0.000    0.000    0.000 
#
# Total GULP energy -89123.758924 kJ/mol
# GULP energy per Si atom -5570.234933 kJ/mol
# Density = 1.955841 g / cm^3
# Si number density = 19.603031 Si / 1000 Ang^3
#
#
#
# Elastic Constant Matrix: (Units=GPa)
#
#
# Indices 1 2 3 4 5 6 
#
# 1 33.1633 15.3154 3.5557 -6.1202 -5.5330 -6.4740
# 2 15.3154 120.7507 27.2272 -22.1200 4.2313 -22.3078
# 3 3.5557 27.2272 57.3579 -1.8560 -10.4336 -12.4347
# 4 -6.1202 -22.1200 -1.8560 31.4905 -3.9917 9.1022
# 5 -5.5330 4.2313 -10.4336 -3.9917 14.4971 6.0114
# 6 -6.4740 -22.3078 -12.4347 9.1022 6.0114 28.3687
#
#
#
# Elastic Compliance Matrix: (Units=1/GPa)
#
#
# Indices 1 2 3 4 5 6 
#
# 1 0.036591 -0.005128 0.003990 0.006380 0.020198 -0.000260
# 2 -0.005128 0.012896 -0.006272 0.003952 -0.012280 0.007556
# 3 0.003990 -0.006272 0.024285 -0.000468 0.019617 0.002617
# 4 0.006380 0.003952 -0.000468 0.041680 0.017716 -0.012769
# 5 0.020198 -0.012280 0.019617 0.017716 0.109802 -0.025400
# 6 -0.000260 0.007556 0.002617 -0.012769 -0.025400 0.051759
#
#
# Mechanical properties :
#
#
# Convention : Reuss Voigt Hill
#
# Bulk Modulus (GPa) = 16.96271 33.71872 25.34071
# Shear Modulus (GPa) = 16.05228 25.88282 20.96755
#
# Velocity S-wave (km/s) = 2.86469 3.63760 3.27403
# Velocity P-wave (km/s) = 4.42875 5.90601 5.21990
#
# Compressibility (1/GPa) = 0.05895286
#
# Stress axis : x y z
#
# Youngs Moduli (GPa) = 27.32932 77.54213 41.17816
#
# Poissons Ratio (x) = 0.39762 -0.16430
# Poissons Ratio (y) = 0.14014 0.25826
# Poissons Ratio (z) = -0.10904 0.48632
#
# Static dielectric constant tensor:
#      x y z
#    x 1.682380 0.009850 -0.014480 
#    y 0.009850 1.839620 -0.031090 
#    z -0.014480 -0.031090 1.714440 
# 
# From -- ./inp_files/187874.got.cif
#   From: 2010.05.17/outbox.cif.g08.bks.cpg/sg2_94_cif.got.tgz:187874.got - 2010.06.03 11:33:40.
