data_PCOD9081696
_publ_section_title
;
Structure prediction by ZEFSAII (Michael W. Deem and Ramdas Pophale) SiO2 
 PCOD9081696
Probable space group: P -1
;
_chemical_formula_sum "Si O2"
_cell_formula_units_Z 14
_cell_length_a 16.520724
_cell_length_b 16.283582
_cell_length_c 9.203484
_cell_angle_alpha 112.417302
_cell_angle_beta 134.691123
_cell_angle_gamma 29.028188
_cell_volume 628.477473
_symmetry_space_group_name_H-M "P -1"
_symmetry_group_IT_number 2
_symmetry_cell_setting 'triclinic'
loop_
_space_group_symop_operation_xyz
x,y,z
-x,-y,-z
loop_
_atom_site_type_symbol
_atom_site_label
_atom_site_fract_x
_atom_site_fract_y
_atom_site_fract_z
Si Si1 0.886520 0.804840 0.829599
Si Si2 0.299043 0.601641 0.015573
Si Si3 0.334610 0.418388 0.573955
Si Si4 0.288893 0.774779 0.309961
Si Si5 0.907184 0.960424 0.167096
Si Si6 0.903722 0.216517 0.410167
Si Si7 0.792020 0.673224 0.721227
O O1 0.877572 0.709144 0.798710
O O2 0.141257 0.635667 0.919291
O O3 0.564222 0.062368 0.531602
O O4 0.942174 0.837468 0.050935
O O5 0.061635 0.810190 0.738004
O O6 0.381363 0.613647 0.250514
O O7 0.606605 0.373029 0.167611
O O8 0.463125 0.337217 0.515173
O O9 0.160047 0.633053 0.536786
O O10 0.171252 0.442661 0.406010
O O11 0.616957 0.207300 0.891503
O O12 0.172213 0.835621 0.364258
O O13 0.000000 0.000000 0.000000
O O14 0.887638 0.964519 0.318134
O O15 0.000000 0.500000 0.000000
#
# Coordination Sequence:
#
# PCOD9081696 Si02
#       7
#     2   2   2   2   2   2   2
#     4   9  19  35  52  75 104 128 168 216 248 288
#     4   9  19  34  50  75 108 134 160 205 250 298
#     4   9  18  31  48  73 102 128 166 212 248 293
#     4   8  15  30  50  73  98 125 161 204 248 292
#     4   9  17  31  53  74  97 133 167 205 252 295
#     4  10  19  33  52  75 106 136 163 196 249 309
#     4  10  19  32  54  77  97 130 173 215 252 287
#
# _framework density 22.276056000000001
#
# number of rings (size 3 to 8) (size 9 to 14) (size 15 to 20)
#    0.000    2.857    0.000    1.714    0.000    6.286 
#    0.000   13.571    0.000   12.000    0.000    0.000 
#    0.000    0.000    0.000    0.000    0.000    0.000 
#
# Total GULP energy -77989.149028 kJ/mol
# GULP energy per Si atom -5570.653502 kJ/mol
# Density = 2.222535 g / cm^3
# Si number density = 22.276056 Si / 1000 Ang^3
#
#
#
# Elastic Constant Matrix: (Units=GPa)
#
#
# Indices 1 2 3 4 5 6 
#
# 1 95.0560 30.7271 37.0250 5.5190 10.1500 31.9877
# 2 30.7271 63.4731 17.3021 12.5439 2.5321 35.6666
# 3 37.0250 17.3021 93.0842 -3.6188 -17.8541 11.3919
# 4 5.5190 12.5439 -3.6188 30.6655 12.4170 -3.0135
# 5 10.1500 2.5321 -17.8541 12.4170 37.2906 3.9422
# 6 31.9877 35.6666 11.3919 -3.0135 3.9422 36.3764
#
#
#
# Elastic Compliance Matrix: (Units=1/GPa)
#
#
# Indices 1 2 3 4 5 6 
#
# 1 0.019265 0.005324 -0.007415 -0.006487 -0.004897 -0.019846
# 2 0.005324 0.055393 -0.004120 -0.034566 0.010854 -0.061744
# 3 -0.007415 -0.004120 0.015586 0.001847 0.008628 0.004897
# 4 -0.006487 -0.034566 0.001847 0.060838 -0.020149 0.046241
# 5 -0.004897 0.010854 0.008628 -0.020149 0.039841 -0.015025
# 6 -0.019846 -0.061744 0.004897 0.046241 -0.015025 0.109407
#
#
# Mechanical properties :
#
#
# Convention : Reuss Voigt Hill
#
# Bulk Modulus (GPa) = 12.84970 46.85798 29.85384
# Shear Modulus (GPa) = 14.76269 31.97044 23.36657
#
# Velocity S-wave (km/s) = 2.57712 3.79250 3.24227
# Velocity P-wave (km/s) = 3.82574 6.34494 5.23902
#
# Compressibility (1/GPa) = 0.07782280
#
# Stress axis : x y z
#
# Youngs Moduli (GPa) = 51.90638 18.05272 64.16203
#
# Poissons Ratio (x) = -0.09612 0.47579
# Poissons Ratio (y) = -0.27636 0.26432
# Poissons Ratio (z) = 0.38491 0.07437
#
# Static dielectric constant tensor:
#      x y z
#    x 1.846230 -0.010220 -0.026020 
#    y -0.010220 1.997320 0.005160 
#    z -0.026020 0.005160 1.872570 
# 
# From -- ./inp_files/252750.got.cif
#   From: 2010.05.17/outbox.cif.g08.bks.cpg/sg2_127_cif.got.tgz:252750.got - 2010.06.03 11:33:40.
