data_PCOD9081691
_publ_section_title
;
Structure prediction by ZEFSAII (Michael W. Deem and Ramdas Pophale) SiO2 
 PCOD9081691
Probable space group: P -1
;
_chemical_formula_sum "Si O2"
_cell_formula_units_Z 12
_cell_length_a 10.699955
_cell_length_b 9.859100
_cell_length_c 9.368903
_cell_angle_alpha 141.333882
_cell_angle_beta 79.228955
_cell_angle_gamma 80.603296
_cell_volume 524.027356
_symmetry_space_group_name_H-M "P -1"
_symmetry_group_IT_number 2
_symmetry_cell_setting 'triclinic'
loop_
_space_group_symop_operation_xyz
x,y,z
-x,-y,-z
loop_
_atom_site_type_symbol
_atom_site_label
_atom_site_fract_x
_atom_site_fract_y
_atom_site_fract_z
Si Si1 0.267756 0.997998 0.032999
Si Si2 0.304351 0.422309 0.214125
Si Si3 0.551760 0.316579 0.498318
Si Si4 0.330465 0.138241 0.703467
Si Si5 0.250962 0.299563 0.550224
Si Si6 0.053108 0.696264 0.699603
O O1 0.315394 0.185642 0.102624
O O2 0.263004 0.077035 0.262780
O O3 0.105560 0.051989 0.064599
O O4 0.379208 0.738322 0.720269
O O5 0.443314 0.455676 0.239198
O O6 0.167307 0.653037 0.513270
O O7 0.292534 0.367003 0.007118
O O8 0.402514 0.306942 0.520366
O O9 0.666720 0.078435 0.377754
O O10 0.231273 0.239833 0.667597
O O11 0.500000 0.000000 0.500000
O O12 0.130751 0.564705 0.724016
O O13 0.000000 0.500000 0.500000
#
# Coordination Sequence:
#
# PCOD9081691 Si02
#       6
#     2   2   2   2   2   2
#     4   9  19  36  53  73 100 132 168 204 247 293
#     4   9  18  33  51  73 102 131 165 203 249 291
#     4  10  19  32  54  76 101 131 163 207 247 293
#     4   9  19  33  49  73 105 134 161 200 249 299
#     4   9  17  32  53  75  98 132 167 203 249 291
#     4   8  17  34  53  71  99 134 165 203 247 292
#
# _framework density 22.899569
#
# number of rings (size 3 to 8) (size 9 to 14) (size 15 to 20)
#    0.000    3.333    0.000    0.500    0.000    7.333 
#    0.000   16.667    0.000   10.000    0.000    0.000 
#    0.000    0.000    0.000    0.000    0.000    0.000 
#
# Total GULP energy -66901.343625 kJ/mol
# GULP energy per Si atom -5575.111969 kJ/mol
# Density = 2.284745 g / cm^3
# Si number density = 22.899569 Si / 1000 Ang^3
#
#
#
# Elastic Constant Matrix: (Units=GPa)
#
#
# Indices 1 2 3 4 5 6 
#
# 1 88.7775 28.0835 6.6160 -6.7179 14.2814 -16.3593
# 2 28.0835 130.5412 45.4251 -31.2856 10.8698 -31.5790
# 3 6.6160 45.4251 116.5356 -20.6346 4.1768 -18.7005
# 4 -6.7179 -31.2856 -20.6346 49.1592 -14.1681 4.0063
# 5 14.2814 10.8698 4.1768 -14.1681 24.8226 -2.7994
# 6 -16.3593 -31.5790 -18.7005 4.0063 -2.7994 29.1760
#
#
#
# Elastic Compliance Matrix: (Units=1/GPa)
#
#
# Indices 1 2 3 4 5 6 
#
# 1 0.013930 -0.001483 0.000805 -0.001397 -0.007600 0.006184
# 2 -0.001483 0.012808 -0.002058 0.006321 0.000426 0.010886
# 3 0.000805 -0.002058 0.010613 0.003157 0.000983 0.004688
# 4 -0.001397 0.006321 0.003157 0.029337 0.014868 0.005479
# 5 -0.007600 0.000426 0.000983 0.014868 0.052776 -0.000148
# 6 0.006184 0.010886 0.004688 0.005479 -0.000148 0.051763
#
#
# Mechanical properties :
#
#
# Convention : Reuss Voigt Hill
#
# Bulk Modulus (GPa) = 31.36790 55.12264 43.24527
# Shear Modulus (GPa) = 26.69162 37.68019 32.18590
#
# Velocity S-wave (km/s) = 3.41778 4.06082 3.75310
# Velocity P-wave (km/s) = 5.41320 6.79049 6.14058
#
# Compressibility (1/GPa) = 0.03187972
#
# Stress axis : x y z
#
# Youngs Moduli (GPa) = 71.78938 78.07586 94.22085
#
# Poissons Ratio (x) = 0.11575 -0.07580
# Poissons Ratio (y) = 0.10643 0.19387
# Poissons Ratio (z) = -0.05776 0.16065
#
# Static dielectric constant tensor:
#      x y z
#    x 1.912240 -0.057380 -0.002760 
#    y -0.057380 1.990440 0.124460 
#    z -0.002760 0.124460 2.022240 
# 
# From -- ./inp_files/255534.got.cif
#   From: 2010.05.17/outbox.cif.g08.bks.cpg/sg2_128_cif.got.tgz:255534.got - 2010.06.03 11:33:40.
