data_PCOD9081618
_publ_section_title
;
Structure prediction by ZEFSAII (Michael W. Deem and Ramdas Pophale) SiO2 
 PCOD9081618
Probable space group: P -1
;
_chemical_formula_sum "Si O2"
_cell_formula_units_Z 16
_cell_length_a 9.991376
_cell_length_b 22.382445
_cell_length_c 7.120525
_cell_angle_alpha 36.634743
_cell_angle_beta 45.220123
_cell_angle_gamma 37.662935
_cell_volume 570.042575
_symmetry_space_group_name_H-M "P -1"
_symmetry_group_IT_number 2
_symmetry_cell_setting 'triclinic'
loop_
_space_group_symop_operation_xyz
x,y,z
-x,-y,-z
loop_
_atom_site_type_symbol
_atom_site_label
_atom_site_fract_x
_atom_site_fract_y
_atom_site_fract_z
Si Si1 0.310084 0.687345 0.389727
Si Si2 0.894455 0.860354 0.508533
Si Si3 0.391306 0.227021 0.966199
Si Si4 0.406811 0.433287 0.959320
Si Si5 0.785145 0.020709 0.540344
Si Si6 0.153182 0.670393 0.069338
Si Si7 0.061071 0.486949 0.690927
Si Si8 0.679464 0.824478 0.258934
O O1 0.060461 0.801994 0.318313
O O2 0.410902 0.754342 0.229763
O O3 0.316814 0.570324 0.753157
O O4 0.454364 0.625609 0.217379
O O5 0.855360 0.973482 0.376137
O O6 0.030500 0.753434 0.800074
O O7 0.664938 0.868883 0.666018
O O8 0.377257 0.212189 0.793394
O O9 0.189513 0.348953 0.946872
O O10 0.604308 0.348017 0.121446
O O11 0.174642 0.440366 0.156062
O O12 0.540233 0.142937 0.484665
O O13 0.713115 0.934434 0.918234
O O14 0.000000 0.000000 0.500000
O O15 0.221371 0.536898 0.393611
O O16 0.941599 0.728482 0.275686
O O17 0.000000 0.500000 0.500000
#
# Coordination Sequence:
#
# PCOD9081618 Si02
#       8
#     2   2   2   2   2   2   2   2
#     4  11  22  37  51  76 112 152 187 219 263 322
#     4  10  21  35  58  83 105 141 181 227 274 323
#     4  10  19  32  53  76 108 145 177 222 263 319
#     4  11  25  34  51  78 113 153 186 218 266 321
#     4   9  17  32  55  84 110 134 169 230 284 320
#     4  10  21  35  54  81 112 145 177 228 267 322
#     4  12  20  34  52  80 110 146 182 222 272 316
#     4   9  19  33  52  86 110 133 179 226 277 318
#
# _framework density 28.068078
#
# number of rings (size 3 to 8) (size 9 to 14) (size 15 to 20)
#    0.000    2.000    5.000    0.750    1.750    4.500 
#    0.000    0.000    0.000    0.750    0.000   32.375 
#    0.000    0.000    0.000    0.000    0.000    0.000 
#
# Total GULP energy -89076.237703 kJ/mol
# GULP energy per Si atom -5567.264856 kJ/mol
# Density = 2.800419 g / cm^3
# Si number density = 28.068078 Si / 1000 Ang^3
#
#
#
# Elastic Constant Matrix: (Units=GPa)
#
#
# Indices 1 2 3 4 5 6 
#
# 1 105.8338 32.8743 30.1316 -4.7175 -32.5611 23.4705
# 2 32.8743 155.4780 38.7821 29.3847 -15.0796 2.4961
# 3 30.1316 38.7821 79.1069 -5.4792 -37.0121 -8.1588
# 4 -4.7175 29.3847 -5.4792 49.9107 1.7613 -3.1053
# 5 -32.5611 -15.0796 -37.0121 1.7613 37.8142 -5.9584
# 6 23.4705 2.4961 -8.1588 -3.1053 -5.9584 38.8921
#
#
#
# Elastic Compliance Matrix: (Units=1/GPa)
#
#
# Indices 1 2 3 4 5 6 
#
# 1 0.015264 -0.002383 -0.000259 0.001985 0.010694 -0.007316
# 2 -0.002383 0.009327 -0.006443 -0.006368 -0.004615 -0.001727
# 3 -0.000259 -0.006443 0.031538 0.006948 0.029690 0.012289
# 4 0.001985 -0.006368 0.006948 0.024762 0.005363 0.003467
# 5 0.010694 -0.004615 0.029690 0.005363 0.064253 0.010343
# 6 -0.007316 -0.001727 0.012289 0.003467 0.010343 0.034677
#
#
# Mechanical properties :
#
#
# Convention : Reuss Voigt Hill
#
# Bulk Modulus (GPa) = 26.34482 60.44385 43.39433
# Shear Modulus (GPa) = 23.73671 41.23212 32.48441
#
# Velocity S-wave (km/s) = 2.91122 3.83692 3.40567
# Velocity P-wave (km/s) = 4.55046 6.41956 5.56405
#
# Compressibility (1/GPa) = 0.03795813
#
# Stress axis : x y z
#
# Youngs Moduli (GPa) = 65.51363 107.22127 31.70767
#
# Poissons Ratio (x) = 0.25553 0.00822
# Poissons Ratio (y) = 0.15614 0.20429
# Poissons Ratio (z) = 0.01697 0.69082
#
# Static dielectric constant tensor:
#      x y z
#    x 2.110200 -0.053850 0.205160 
#    y -0.053850 2.376290 -0.009480 
#    z 0.205160 -0.009480 2.212640 
# 
# From -- ./inp_files/284024.got.cif
#   From: 2010.05.17/outbox.cif.g08.bks.cpg/sg2_143_cif.got.tgz:284024.got - 2010.06.03 11:33:40.
