data_PCOD9081026
_publ_section_title
;
Structure prediction by ZEFSAII (Michael W. Deem and Ramdas Pophale) SiO2 
 PCOD9081026
Probable space group: P -1
;
_chemical_formula_sum "Si O2"
_cell_formula_units_Z 12
_cell_length_a 15.950260
_cell_length_b 7.756983
_cell_length_c 10.473656
_cell_angle_alpha 135.282975
_cell_angle_beta 146.853962
_cell_angle_gamma 48.436170
_cell_volume 490.572285
_symmetry_space_group_name_H-M "P -1"
_symmetry_group_IT_number 2
_symmetry_cell_setting 'triclinic'
loop_
_space_group_symop_operation_xyz
x,y,z
-x,-y,-z
loop_
_atom_site_type_symbol
_atom_site_label
_atom_site_fract_x
_atom_site_fract_y
_atom_site_fract_z
Si Si1 0.505018 0.213378 0.970891
Si Si2 0.827155 0.142474 0.479741
Si Si3 0.929217 0.505909 0.637147
Si Si4 0.632741 0.878948 0.507897
Si Si5 0.192208 0.423620 0.770107
Si Si6 0.626200 0.264956 0.504713
O O1 0.459362 0.257828 0.787391
O O2 0.378097 0.394210 0.988205
O O3 0.461536 0.936708 0.784794
O O4 0.682125 0.195945 0.224046
O O5 0.765268 0.303055 0.610446
O O6 0.846098 0.857812 0.403203
O O7 0.043525 0.740414 0.368968
O O8 0.796756 0.696747 0.644460
O O9 0.859436 0.489566 0.394302
O O10 0.093788 0.572047 0.836605
O O11 0.500000 0.000000 0.500000
O O12 0.682541 0.109969 0.619735
O O13 0.500000 0.500000 0.500000
#
# Coordination Sequence:
#
# PCOD9081026 Si02
#       6
#     2   2   2   2   2   2
#     4   8  19  32  54  78 107 130 174 222 254 300
#     4  11  18  33  54  83 104 132 175 220 259 297
#     4  10  19  30  53  77 108 137 167 213 262 303
#     4   9  18  32  48  78 105 132 175 212 250 313
#     4   9  18  33  46  80 109 133 171 211 255 314
#     4   9  17  30  49  75 105 134 165 213 257 298
#
# _framework density 24.461224999999999
#
# number of rings (size 3 to 8) (size 9 to 14) (size 15 to 20)
#    1.000    1.667    1.667    3.500    0.000    2.667 
#    0.000    1.667    0.000    1.000    8.667    9.333 
#    0.000    0.000    0.000    0.000    0.000    0.000 
#
# Total GULP energy -66822.932246 kJ/mol
# GULP energy per Si atom -5568.577687 kJ/mol
# Density = 2.440555 g / cm^3
# Si number density = 24.461225 Si / 1000 Ang^3
#
#
#
# Elastic Constant Matrix: (Units=GPa)
#
#
# Indices 1 2 3 4 5 6 
#
# 1 182.9344 34.9626 10.1971 8.4498 -4.5291 -8.2246
# 2 34.9626 110.6399 5.3023 -4.5741 -4.6323 -4.4663
# 3 10.1971 5.3023 40.0264 4.0742 4.3869 -4.7418
# 4 8.4498 -4.5741 4.0742 19.3193 0.9725 -0.9598
# 5 -4.5291 -4.6323 4.3869 0.9725 16.4374 -2.3329
# 6 -8.2246 -4.4663 -4.7418 -0.9598 -2.3329 57.7701
#
#
#
# Elastic Compliance Matrix: (Units=1/GPa)
#
#
# Indices 1 2 3 4 5 6 
#
# 1 0.006098 -0.001897 -0.001114 -0.002935 0.001709 0.000650
# 2 -0.001897 0.009973 -0.001396 0.003385 0.002537 0.000545
# 3 -0.001114 -0.001396 0.026963 -0.005081 -0.007374 0.001564
# 4 -0.002935 0.003385 -0.005081 0.055018 -0.001716 0.000272
# 5 0.001709 0.002537 -0.007374 -0.001716 0.064434 0.002408
# 6 0.000650 0.000545 0.001564 0.000272 0.002408 0.017675
#
#
# Mechanical properties :
#
#
# Convention : Reuss Voigt Hill
#
# Bulk Modulus (GPa) = 29.22235 48.28052 38.75144
# Shear Modulus (GPa) = 24.95240 37.58126 31.26683
#
# Velocity S-wave (km/s) = 3.19733 3.92390 3.57910
# Velocity P-wave (km/s) = 5.05993 6.34899 5.74076
#
# Compressibility (1/GPa) = 0.03422038
#
# Stress axis : x y z
#
# Youngs Moduli (GPa) = 163.98147 100.27136 37.08812
#
# Poissons Ratio (x) = 0.19024 0.04131
# Poissons Ratio (y) = 0.31111 0.05177
# Poissons Ratio (z) = 0.18263 0.13996
#
# Static dielectric constant tensor:
#      x y z
#    x 2.041710 -0.010240 -0.012010 
#    y -0.010240 2.093660 0.017580 
#    z -0.012010 0.017580 2.002560 
# 
# From -- ./inp_files/460836.got.cif
#   From: 2010.05.17/outbox.cif.g08.bks.cpg/sg2_231_cif.got.tgz:460836.got - 2010.06.03 11:33:40.
