data_PCOD9081157
_publ_section_title
;
Structure prediction by ZEFSAII (Michael W. Deem and Ramdas Pophale) SiO2 
 PCOD9081157
Probable space group: P -1
;
_chemical_formula_sum "Si O2"
_cell_formula_units_Z 16
_cell_length_a 9.250837
_cell_length_b 11.852441
_cell_length_c 14.246419
_cell_angle_alpha 49.177109
_cell_angle_beta 107.865733
_cell_angle_gamma 68.703227
_cell_volume 700.195942
_symmetry_space_group_name_H-M "P -1"
_symmetry_group_IT_number 2
_symmetry_cell_setting 'triclinic'
loop_
_space_group_symop_operation_xyz
x,y,z
-x,-y,-z
loop_
_atom_site_type_symbol
_atom_site_label
_atom_site_fract_x
_atom_site_fract_y
_atom_site_fract_z
Si Si1 0.142502 0.251112 0.556998
Si Si2 0.480319 0.953607 0.126218
Si Si3 0.250477 0.609442 0.912836
Si Si4 0.434786 0.977726 0.371904
Si Si5 0.872658 0.928367 0.899950
Si Si6 0.255619 0.389784 0.202968
Si Si7 0.152697 0.936523 0.844093
Si Si8 0.704339 0.593528 0.146071
O O1 0.885504 0.474515 0.333511
O O2 0.340740 0.106117 0.588902
O O3 0.112761 0.123846 0.682332
O O4 0.266869 0.267365 0.648798
O O5 0.284980 0.974191 0.090492
O O6 0.365925 0.189438 0.025090
O O7 0.500000 0.000000 0.000000
O O8 0.093560 0.857197 0.796109
O O9 0.166655 0.598020 0.806579
O O10 0.500000 0.500000 0.000000
O O11 0.318347 0.439618 0.098317
O O12 0.227274 0.248167 0.225175
O O13 0.540587 0.804094 0.574159
O O14 0.323266 0.956456 0.283223
O O15 0.063794 0.644024 0.080468
O O16 0.998007 0.990225 0.870676
O O17 0.442161 0.718230 0.046645
#
# Coordination Sequence:
#
# PCOD9081157 Si02
#       8
#     2   2   2   2   2   2   2   2
#     4  10  21  38  57  82 113 147 185 221 272 329
#     4  10  22  41  62  81 103 138 188 239 284 327
#     4   9  17  31  51  77 113 151 179 207 257 320
#     4  10  20  31  51  79 109 147 185 223 263 319
#     4  10  20  35  54  79 108 139 180 228 277 324
#     4  10  19  31  49  78 111 145 185 224 267 315
#     4   9  20  34  54  83 114 148 180 216 265 328
#     4  10  20  37  57  79 113 151 185 225 267 321
#
# _framework density 22.850746999999998
#
# number of rings (size 3 to 8) (size 9 to 14) (size 15 to 20)
#    0.000    2.250    0.000    4.125    0.000    9.000 
#    0.000    2.500    0.000    1.500    0.000    0.000 
#    0.000    0.000    0.000    0.000    0.000    0.000 
#
# Total GULP energy -89157.305487 kJ/mol
# GULP energy per Si atom -5572.331593 kJ/mol
# Density = 2.279874 g / cm^3
# Si number density = 22.850747 Si / 1000 Ang^3
#
#
#
# Elastic Constant Matrix: (Units=GPa)
#
#
# Indices 1 2 3 4 5 6 
#
# 1 161.0808 17.7703 49.6039 5.1480 -7.6083 -30.1590
# 2 17.7703 47.6595 19.8988 17.6449 5.2164 -1.9095
# 3 49.6039 19.8988 130.2775 16.5302 7.0472 -12.2457
# 4 5.1480 17.6449 16.5302 25.1572 2.3755 -2.8142
# 5 -7.6083 5.2164 7.0472 2.3755 25.2538 4.9176
# 6 -30.1590 -1.9095 -12.2457 -2.8142 4.9176 32.7819
#
#
#
# Elastic Compliance Matrix: (Units=1/GPa)
#
#
# Indices 1 2 3 4 5 6 
#
# 1 0.008644 -0.003100 -0.002664 0.002668 0.002444 0.006639
# 2 -0.003100 0.030266 -0.000907 -0.019837 -0.004591 -0.002442
# 3 -0.002664 -0.000907 0.009714 -0.004776 -0.003107 0.001181
# 4 0.002668 -0.019837 -0.004776 0.056742 0.000044 0.004379
# 5 0.002444 -0.004591 -0.003107 0.000044 0.043248 -0.005663
# 6 0.006639 -0.002442 0.001181 0.004379 -0.005663 0.038136
#
#
# Mechanical properties :
#
#
# Convention : Reuss Voigt Hill
#
# Bulk Modulus (GPa) = 28.34341 57.06264 42.70302
# Shear Modulus (GPa) = 23.60142 33.42156 28.51149
#
# Velocity S-wave (km/s) = 3.21729 3.82855 3.53615
# Velocity P-wave (km/s) = 5.12171 6.67606 5.94986
#
# Compressibility (1/GPa) = 0.03528158
#
# Stress axis : x y z
#
# Youngs Moduli (GPa) = 115.69229 33.04092 102.94465
#
# Poissons Ratio (x) = 0.10242 0.27428
# Poissons Ratio (y) = 0.35861 0.09334
# Poissons Ratio (z) = 0.30825 0.02996
#
# Static dielectric constant tensor:
#      x y z
#    x 2.108060 -0.313180 -0.114840 
#    y -0.313180 2.363080 0.177430 
#    z -0.114840 0.177430 1.930210 
# 
# From -- ./inp_files/503871.got.cif
#   From: 2010.05.17/outbox.cif.g08.bks.cpg/sg2_252_cif.got.tgz:503871.got - 2010.06.03 11:33:40.
