data_PCOD9081500
_publ_section_title
;
Structure prediction by ZEFSAII (Michael W. Deem and Ramdas Pophale) SiO2 
 PCOD9081500
Probable space group: P -1
;
_chemical_formula_sum "Si O2"
_cell_formula_units_Z 16
_cell_length_a 20.918058
_cell_length_b 15.414833
_cell_length_c 8.730177
_cell_angle_alpha 105.789170
_cell_angle_beta 82.831521
_cell_angle_gamma 160.308679
_cell_volume 834.434182
_symmetry_space_group_name_H-M "P -1"
_symmetry_group_IT_number 2
_symmetry_cell_setting 'triclinic'
loop_
_space_group_symop_operation_xyz
x,y,z
-x,-y,-z
loop_
_atom_site_type_symbol
_atom_site_label
_atom_site_fract_x
_atom_site_fract_y
_atom_site_fract_z
Si Si1 0.385034 0.198479 0.405634
Si Si2 0.620010 0.346528 0.439563
Si Si3 0.531040 0.836208 0.249951
Si Si4 0.751790 0.806322 0.670160
Si Si5 0.106997 0.022787 0.639769
Si Si6 0.345739 0.804880 0.596263
Si Si7 0.877893 0.788922 0.072535
Si Si8 0.134687 0.859523 0.614229
O O1 0.482928 0.236037 0.335513
O O2 0.563550 0.485512 0.594541
O O3 0.323877 0.191349 0.295122
O O4 0.196035 0.929383 0.449378
O O5 0.532173 0.236883 0.586631
O O6 0.620224 0.242198 0.341297
O O7 0.857658 0.694325 0.541560
O O8 0.607587 0.036153 0.268654
O O9 0.711981 0.001784 0.272901
O O10 0.325566 0.531290 0.078967
O O11 0.806487 0.867430 0.504094
O O12 0.952917 0.051185 0.824282
O O13 0.180010 0.209082 0.791322
O O14 0.159799 0.000218 0.701636
O O15 0.106629 0.484805 0.459186
O O16 0.500000 0.000000 0.500000
O O17 0.000000 0.000000 0.000000
#
# Coordination Sequence:
#
# PCOD9081500 Si02
#       8
#     2   2   2   2   2   2   2   2
#     4   9  17  32  54  80 101 135 187 227 253 300
#     4   9  16  32  54  78 101 138 187 222 256 301
#     4  10  19  32  50  80 113 143 171 216 280 311
#     4  10  20  33  54  81 108 144 187 211 255 328
#     4  10  19  33  55  78 105 145 186 214 253 320
#     4   9  18  31  55  78 104 140 183 224 257 320
#     4  12  21  33  53  79 120 141 166 221 277 323
#     4   9  18  33  53  79 106 138 184 222 261 312
#
# _framework density 19.174669999999999
#
# number of rings (size 3 to 8) (size 9 to 14) (size 15 to 20)
#    0.000    2.250    2.500    1.500    0.000    0.500 
#    0.000    0.000    0.000    7.500    0.000    0.000 
#    0.000    0.000    0.000    0.000    0.000    0.125 
#
# Total GULP energy -89233.635197 kJ/mol
# GULP energy per Si atom -5577.102200 kJ/mol
# Density = 1.913103 g / cm^3
# Si number density = 19.174670 Si / 1000 Ang^3
#
#
#
# Elastic Constant Matrix: (Units=GPa)
#
#
# Indices 1 2 3 4 5 6 
#
# 1 182.3117 29.8767 60.8529 29.5280 22.8511 0.6091
# 2 29.8767 81.7543 21.0361 24.4774 7.8615 7.3847
# 3 60.8529 21.0361 52.0024 22.4345 15.3496 -8.1913
# 4 29.5280 24.4774 22.4345 26.5080 5.0658 -1.5603
# 5 22.8511 7.8615 15.3496 5.0658 11.6241 7.9915
# 6 0.6091 7.3847 -8.1913 -1.5603 7.9915 30.0190
#
#
#
# Elastic Compliance Matrix: (Units=1/GPa)
#
#
# Indices 1 2 3 4 5 6 
#
# 1 0.009409 0.000114 -0.008915 -0.002207 -0.004818 -0.001484
# 2 0.000114 0.017745 -0.001987 -0.015433 0.001288 -0.006055
# 3 -0.008915 -0.001987 0.096910 -0.041392 -0.132465 0.060226
# 4 -0.002207 -0.015433 -0.041392 0.079941 0.045120 -0.015310
# 5 -0.004818 0.001288 -0.132465 0.045120 0.334492 -0.123066
# 6 -0.001484 -0.006055 0.060226 -0.015310 -0.123066 0.083232
#
#
# Mechanical properties :
#
#
# Convention : Reuss Voigt Hill
#
# Bulk Modulus (GPa) = 9.75742 59.95554 34.85648
# Shear Modulus (GPa) = 7.38041 27.25040 17.31541
#
# Velocity S-wave (km/s) = 1.96403 3.77393 3.00832
# Velocity P-wave (km/s) = 3.20046 7.09408 5.50313
#
# Compressibility (1/GPa) = 0.10248614
#
# Stress axis : x y z
#
# Youngs Moduli (GPa) = 106.28609 56.35251 10.31887
#
# Poissons Ratio (x) = -0.00641 0.09200
# Poissons Ratio (y) = -0.01208 0.02051
# Poissons Ratio (z) = 0.94757 0.11198
#
# Static dielectric constant tensor:
#      x y z
#    x 1.756210 -0.007090 0.002620 
#    y -0.007090 1.691330 -0.017230 
#    z 0.002620 -0.017230 1.626680 
# 
# From -- ./inp_files/189392.got.cif
#   From: 2010.05.17/outbox.cif.g08.bks.cpg/sg2_95_cif.got.tgz:189392.got - 2010.06.03 11:33:40.
