data_PCOD9081257
_publ_section_title
;
Structure prediction by ZEFSAII (Michael W. Deem and Ramdas Pophale) SiO2 
 PCOD9081257
Probable space group: P -1
;
_chemical_formula_sum "Si O2"
_cell_formula_units_Z 10
_cell_length_a 7.641468
_cell_length_b 9.538903
_cell_length_c 7.644782
_cell_angle_alpha 69.849993
_cell_angle_beta 78.308881
_cell_angle_gamma 48.215178
_cell_volume 389.785926
_symmetry_space_group_name_H-M "P -1"
_symmetry_group_IT_number 2
_symmetry_cell_setting 'triclinic'
loop_
_space_group_symop_operation_xyz
x,y,z
-x,-y,-z
loop_
_atom_site_type_symbol
_atom_site_label
_atom_site_fract_x
_atom_site_fract_y
_atom_site_fract_z
Si Si1 0.520663 0.374289 0.776183
Si Si2 0.850163 0.631959 0.641111
Si Si3 0.456773 0.861679 0.838038
Si Si4 0.780185 0.745205 0.131499
Si Si5 0.870474 0.224845 0.459812
O O1 0.379795 0.308270 0.748086
O O2 0.737490 0.294754 0.643249
O O3 0.332856 0.609402 0.704284
O O4 0.590065 0.267212 0.994954
O O5 0.955559 0.457023 0.836724
O O6 0.936459 0.751895 0.598921
O O7 0.000000 0.500000 0.500000
O O8 0.571394 0.780296 0.660669
O O9 0.252376 0.091422 0.813423
O O10 0.665639 0.827593 0.928385
O O11 0.000000 0.000000 0.500000
#
# Coordination Sequence:
#
# PCOD9081257 Si02
#       5
#     2   2   2   2   2
#     4   8  17  31  50  78  94 127 181 213 239 288
#     4  11  22  33  50  82 111 132 162 214 267 304
#     4   9  17  33  56  76  96 137 180 214 241 298
#     4   8  17  32  57  75  97 133 184 209 244 297
#     4  10  19  31  53  76 104 132 169 212 251 299
#
# _framework density 25.655107000000001
#
# number of rings (size 3 to 8) (size 9 to 14) (size 15 to 20)
#    1.200    1.600    0.000    1.800    0.000    0.800 
#    0.000    1.000    0.000    2.400    0.000    0.000 
#    0.000    0.000    0.000    0.000    0.000    0.000 
#
# Total GULP energy -55809.591386 kJ/mol
# GULP energy per Si atom -5580.959139 kJ/mol
# Density = 2.559672 g / cm^3
# Si number density = 25.655107 Si / 1000 Ang^3
#
#
#
# Elastic Constant Matrix: (Units=GPa)
#
#
# Indices 1 2 3 4 5 6 
#
# 1 51.2915 31.4708 29.7283 -7.8582 -19.0761 7.0904
# 2 31.4708 218.7016 58.9573 -32.2410 -14.6571 -0.4170
# 3 29.7283 58.9573 91.4479 9.2835 -26.3845 4.0648
# 4 -7.8582 -32.2410 9.2835 39.4114 -0.5059 -4.7666
# 5 -19.0761 -14.6571 -26.3845 -0.5059 40.2417 -1.7634
# 6 7.0904 -0.4170 4.0648 -4.7666 -1.7634 25.6103
#
#
#
# Elastic Compliance Matrix: (Units=1/GPa)
#
#
# Indices 1 2 3 4 5 6 
#
# 1 0.028820 -0.000880 -0.006637 0.006074 0.008838 -0.005201
# 2 -0.000880 0.007201 -0.005570 0.007316 -0.001244 0.002521
# 3 -0.006637 -0.005570 0.020164 -0.010886 0.007780 -0.002944
# 4 0.006074 0.007316 -0.010886 0.035945 -0.000843 0.006797
# 5 0.008838 -0.001244 0.007780 -0.000843 0.033609 -0.001545
# 6 -0.005201 0.002521 -0.002944 0.006797 -0.001545 0.042154
#
#
# Mechanical properties :
#
#
# Convention : Reuss Voigt Hill
#
# Bulk Modulus (GPa) = 33.32129 66.86154 50.09142
# Shear Modulus (GPa) = 24.50147 37.13832 30.81990
#
# Velocity S-wave (km/s) = 3.09371 3.80886 3.46976
# Velocity P-wave (km/s) = 5.07718 6.74251 5.96822
#
# Compressibility (1/GPa) = 0.03001084
#
# Stress axis : x y z
#
# Youngs Moduli (GPa) = 34.69852 138.87852 49.59251
#
# Poissons Ratio (x) = 0.12222 0.32914
# Poissons Ratio (y) = 0.03054 0.27622
# Poissons Ratio (z) = 0.23029 0.77353
#
# Static dielectric constant tensor:
#      x y z
#    x 2.008490 0.034830 0.165270 
#    y 0.034830 2.002250 0.003400 
#    z 0.165270 0.003400 2.147980 
# 
# From -- ./inp_files/20242.got.cif
#   From: 2010.05.17/outbox.cif.g08.bks.cpg/sg2_11_cif.got.tgz:20242.got - 2010.06.03 11:33:40.
