data_PCOD9081972
_publ_section_title
;
Structure prediction by ZEFSAII (Michael W. Deem and Ramdas Pophale) SiO2 
 PCOD9081972
Probable space group: P -1
;
_chemical_formula_sum "Si O2"
_cell_formula_units_Z 14
_cell_length_a 8.682670
_cell_length_b 7.778855
_cell_length_c 12.621790
_cell_angle_alpha 61.511682
_cell_angle_beta 43.262274
_cell_angle_gamma 75.951838
_cell_volume 505.698584
_symmetry_space_group_name_H-M "P -1"
_symmetry_group_IT_number 2
_symmetry_cell_setting 'triclinic'
loop_
_space_group_symop_operation_xyz
x,y,z
-x,-y,-z
loop_
_atom_site_type_symbol
_atom_site_label
_atom_site_fract_x
_atom_site_fract_y
_atom_site_fract_z
Si Si1 0.899067 0.248800 0.743799
Si Si2 0.284577 0.371190 0.853519
Si Si3 0.487476 0.761956 0.585135
Si Si4 0.634996 0.924716 0.663872
Si Si5 0.784898 0.882717 0.222962
Si Si6 0.195978 0.670959 0.467467
Si Si7 0.589872 0.703701 0.956314
O O1 0.900262 0.253449 0.615469
O O2 0.636968 0.215627 0.918178
O O3 0.021692 0.091581 0.791207
O O4 0.030095 0.470976 0.644062
O O5 0.268329 0.598845 0.766936
O O6 0.137559 0.220616 0.890098
O O7 0.548773 0.360682 0.687661
O O8 0.275049 0.328101 0.995343
O O9 0.636926 0.766172 0.616391
O O10 0.602047 0.723684 0.428668
O O11 0.500000 0.000000 0.500000
O O12 0.367458 0.956855 0.786079
O O13 0.774522 0.147036 0.518217
O O14 0.701423 0.845376 0.765797
O O15 0.500000 0.500000 0.000000
#
# Coordination Sequence:
#
# PCOD9081972 Si02
#       7
#     2   2   2   2   2   2   2
#     4  10  21  37  62  86 124 153 199 251 296 343
#     4  10  19  36  65  82 119 163 201 234 295 364
#     4  10  19  32  58  93 118 150 196 252 288 348
#     4  10  22  38  64  89 121 160 198 239 297 362
#     4  10  21  36  62  92 115 155 204 248 293 345
#     4   9  20  37  61  92 114 157 205 243 292 347
#     4  11  23  42  60  84 125 164 196 239 304 364
#
# _framework density 27.684474000000002
#
# number of rings (size 3 to 8) (size 9 to 14) (size 15 to 20)
#    0.000    2.000    2.857    0.429    4.000    5.714 
#    0.000    3.571    0.000    0.000    0.000    0.000 
#    0.000    0.000    0.000    0.000    0.000    0.000 
#
# Total GULP energy -78233.919162 kJ/mol
# GULP energy per Si atom -5588.137083 kJ/mol
# Density = 2.762146 g / cm^3
# Si number density = 27.684474 Si / 1000 Ang^3
#
#
#
# Elastic Constant Matrix: (Units=GPa)
#
#
# Indices 1 2 3 4 5 6 
#
# 1 107.3695 33.7592 30.4672 12.4472 18.3839 -16.2686
# 2 33.7592 78.5813 0.4077 -7.0495 6.0247 17.8400
# 3 30.4672 0.4077 97.8282 -6.1685 41.4350 -5.1084
# 4 12.4472 -7.0495 -6.1685 33.5522 4.9827 6.4205
# 5 18.3839 6.0247 41.4350 4.9827 59.0238 2.9579
# 6 -16.2686 17.8400 -5.1084 6.4205 2.9579 45.8027
#
#
#
# Elastic Compliance Matrix: (Units=1/GPa)
#
#
# Indices 1 2 3 4 5 6 
#
# 1 0.017671 -0.011337 -0.005634 -0.012234 0.000051 0.011775
# 2 -0.011337 0.021987 0.004457 0.012599 -0.002218 -0.013717
# 3 -0.005634 0.004457 0.017166 0.008298 -0.011338 -0.002254
# 4 -0.012234 0.012599 0.008298 0.042076 -0.006160 -0.013828
# 5 0.000051 -0.002218 -0.011338 -0.006160 0.025691 -0.001178
# 6 0.011775 -0.013717 -0.002254 -0.013828 -0.001178 0.033121
#
#
# Mechanical properties :
#
#
# Convention : Reuss Voigt Hill
#
# Bulk Modulus (GPa) = 31.45175 45.89414 38.67294
# Shear Modulus (GPa) = 25.86116 42.28541 34.07328
#
# Velocity S-wave (km/s) = 3.05969 3.91244 3.51204
# Velocity P-wave (km/s) = 4.88546 6.08467 5.51774
#
# Compressibility (1/GPa) = 0.03179474
#
# Stress axis : x y z
#
# Youngs Moduli (GPa) = 56.59063 45.48061 58.25490
#
# Poissons Ratio (x) = 0.51562 0.32823
# Poissons Ratio (y) = 0.64157 -0.25963
# Poissons Ratio (z) = 0.31886 -0.20270
#
# Static dielectric constant tensor:
#      x y z
#    x 2.183530 -0.046150 -0.035030 
#    y -0.046150 2.374750 0.012660 
#    z -0.035030 0.012660 2.212640 
# 
# From -- ./inp_files/159114.got.cif
#   From: 2010.05.17/outbox.cif.g08.bks.cpg/sg2_80_cif.got.tgz:159114.got - 2010.06.03 11:33:40.
