data_PCOD9081678
_publ_section_title
;
Structure prediction by ZEFSAII (Michael W. Deem and Ramdas Pophale) SiO2 
 PCOD9081678
Probable space group: P -1
;
_chemical_formula_sum "Si O2"
_cell_formula_units_Z 16
_cell_length_a 13.636034
_cell_length_b 7.940104
_cell_length_c 14.254046
_cell_angle_alpha 62.449995
_cell_angle_beta 146.705240
_cell_angle_gamma 122.927667
_cell_volume 710.986037
_symmetry_space_group_name_H-M "P -1"
_symmetry_group_IT_number 2
_symmetry_cell_setting 'triclinic'
loop_
_space_group_symop_operation_xyz
x,y,z
-x,-y,-z
loop_
_atom_site_type_symbol
_atom_site_label
_atom_site_fract_x
_atom_site_fract_y
_atom_site_fract_z
Si Si1 0.255218 0.251524 0.645596
Si Si2 0.932185 0.251159 0.653741
Si Si3 0.361587 0.274369 0.933032
Si Si4 0.167909 0.609053 0.842355
Si Si5 0.244981 0.853132 0.019272
Si Si6 0.094386 0.104239 0.145127
Si Si7 0.386087 0.496146 0.204025
Si Si8 0.171137 0.822245 0.613033
O O1 0.355049 0.225460 0.829585
O O2 0.394086 0.446504 0.656172
O O3 0.048202 0.245044 0.511723
O O4 0.238348 0.060239 0.616576
O O5 0.146172 0.267224 0.788243
O O6 0.971571 0.443100 0.702230
O O7 0.822280 0.248116 0.469706
O O8 0.857044 0.052669 0.706591
O O9 0.500000 0.500000 0.000000
O O10 0.375850 0.084096 0.053814
O O11 0.256547 0.719790 0.788993
O O12 0.160761 0.778752 0.866987
O O13 0.283003 0.489194 0.022465
O O14 0.348622 0.691958 0.169024
O O15 0.070524 0.832899 0.952313
O O16 0.276193 0.294520 0.220662
O O17 0.000000 0.000000 0.000000
#
# Coordination Sequence:
#
# PCOD9081678 Si02
#       8
#     2   2   2   2   2   2   2   2
#     4  10  20  36  55  88 117 160 190 241 296 349
#     4  10  21  35  57  85 115 159 197 230 297 352
#     4  10  19  32  53  85 120 147 189 243 296 344
#     4  10  19  37  60  90 115 150 194 247 292 352
#     4   9  21  34  57  90 113 151 187 245 300 338
#     4  11  20  38  60  87 119 152 199 249 292 345
#     4  10  21  35  61  89 115 150 205 245 287 337
#     4  10  21  37  60  83 127 158 189 236 301 369
#
# _framework density 22.503958000000001
#
# number of rings (size 3 to 8) (size 9 to 14) (size 15 to 20)
#    0.750    1.250    2.500    1.500    3.500    3.000 
#    0.000    0.625    0.000    0.750    0.000    0.000 
#    0.000    0.000    0.000    0.000    0.000    0.000 
#
# Total GULP energy -89324.499732 kJ/mol
# GULP energy per Si atom -5582.781233 kJ/mol
# Density = 2.245274 g / cm^3
# Si number density = 22.503958 Si / 1000 Ang^3
#
#
#
# Elastic Constant Matrix: (Units=GPa)
#
#
# Indices 1 2 3 4 5 6 
#
# 1 91.4295 50.2371 33.9204 18.3316 -8.6801 20.9142
# 2 50.2371 147.8417 37.2137 28.4890 3.7843 38.3327
# 3 33.9204 37.2137 61.0266 13.3144 -7.1588 3.4921
# 4 18.3316 28.4890 13.3144 33.5287 3.8494 4.1210
# 5 -8.6801 3.7843 -7.1588 3.8494 28.9640 10.9441
# 6 20.9142 38.3327 3.4921 4.1210 10.9441 46.2788
#
#
#
# Elastic Compliance Matrix: (Units=1/GPa)
#
#
# Indices 1 2 3 4 5 6 
#
# 1 0.017747 -0.001562 -0.006325 -0.005809 0.007574 -0.007523
# 2 -0.001562 0.011782 -0.004299 -0.006531 0.000962 -0.008375
# 3 -0.006325 -0.004299 0.023332 -0.003040 0.003266 0.004158
# 4 -0.005809 -0.006531 -0.003040 0.040002 -0.009588 0.006969
# 5 0.007574 0.000962 0.003266 -0.009588 0.044052 -0.014030
# 6 -0.007523 -0.008375 0.004158 0.006969 -0.014030 0.034328
#
#
# Mechanical properties :
#
#
# Convention : Reuss Voigt Hill
#
# Bulk Modulus (GPa) = 35.10348 60.33779 47.72064
# Shear Modulus (GPa) = 24.37670 33.68275 29.02973
#
# Velocity S-wave (km/s) = 3.29480 3.87298 3.59553
# Velocity P-wave (km/s) = 5.48698 6.84619 6.20392
#
# Compressibility (1/GPa) = 0.02848720
#
# Stress axis : x y z
#
# Youngs Moduli (GPa) = 56.34764 84.87185 42.85899
#
# Poissons Ratio (x) = 0.13260 0.27110
# Poissons Ratio (y) = 0.08804 0.18427
# Poissons Ratio (z) = 0.35642 0.36491
#
# Static dielectric constant tensor:
#      x y z
#    x 1.844280 -0.038520 0.028590 
#    y -0.038520 1.839230 -0.009020 
#    z 0.028590 -0.009020 1.899070 
# 
# From -- ./inp_files/527443.got.cif
#   From: 2010.05.17/outbox.cif.g08.bks.cpg/sg2_264_cif.got.tgz:527443.got - 2010.06.03 11:33:40.
