data_PCOD9081948
_publ_section_title
;
Structure prediction by ZEFSAII (Michael W. Deem and Ramdas Pophale) SiO2 
 PCOD9081948
Probable space group: P -1
;
_chemical_formula_sum "Si O2"
_cell_formula_units_Z 16
_cell_length_a 14.513592
_cell_length_b 13.299513
_cell_length_c 12.718353
_cell_angle_alpha 106.957585
_cell_angle_beta 29.882094
_cell_angle_gamma 127.171462
_cell_volume 790.486283
_symmetry_space_group_name_H-M "P -1"
_symmetry_group_IT_number 2
_symmetry_cell_setting 'triclinic'
loop_
_space_group_symop_operation_xyz
x,y,z
-x,-y,-z
loop_
_atom_site_type_symbol
_atom_site_label
_atom_site_fract_x
_atom_site_fract_y
_atom_site_fract_z
Si Si1 0.026551 0.043777 0.663122
Si Si2 0.876626 0.807388 0.578640
Si Si3 0.880034 0.582242 0.606246
Si Si4 0.576185 0.747669 0.151414
Si Si5 0.000632 0.164711 0.084473
Si Si6 0.352582 0.173486 0.583868
Si Si7 0.761977 0.424065 0.874406
Si Si8 0.827683 0.333087 0.298625
O O1 0.037991 0.953351 0.540504
O O2 0.758160 0.904901 0.953922
O O3 0.002635 0.135708 0.641036
O O4 0.276370 0.147146 0.528992
O O5 0.866145 0.692411 0.610950
O O6 0.562276 0.710274 0.843631
O O7 0.618458 0.405122 0.773376
O O8 0.877884 0.567538 0.729171
O O9 0.131255 0.631429 0.313456
O O10 0.394855 0.734828 0.410594
O O11 0.779489 0.755444 0.014904
O O12 0.898201 0.239512 0.190966
O O13 0.761490 0.983951 0.301244
O O14 0.164859 0.183958 0.829041
O O15 0.669473 0.310836 0.345970
O O16 0.904397 0.495894 0.868541
#
# Coordination Sequence:
#
# PCOD9081948 Si02
#       8
#     2   2   2   2   2   2   2   2
#     4  10  22  38  56  81 117 152 184 223 274 335
#     4  11  22  39  58  80 115 154 184 221 278 336
#     4  10  20  36  59  85 110 145 185 235 281 316
#     4   9  18  35  57  84 116 135 182 241 270 322
#     4   9  17  31  53  83 108 144 183 225 282 323
#     4   9  19  34  49  78 118 143 179 230 269 326
#     4  10  21  35  59  87 109 137 192 236 272 329
#     4  10  19  32  58  86 107 139 184 235 278 322
#
# _framework density 20.240705999999999
#
# number of rings (size 3 to 8) (size 9 to 14) (size 15 to 20)
#    0.000    2.250    1.250    2.250    3.500    0.000 
#    0.000    6.875    0.000   10.500    0.000    0.000 
#    0.000    0.000    0.000    0.000    0.000    0.000 
#
# Total GULP energy -89265.946423 kJ/mol
# GULP energy per Si atom -5579.121651 kJ/mol
# Density = 2.019464 g / cm^3
# Si number density = 20.240706 Si / 1000 Ang^3
#
#
#
# Elastic Constant Matrix: (Units=GPa)
#
#
# Indices 1 2 3 4 5 6 
#
# 1 95.0153 27.3677 32.9632 -6.2880 -14.2003 39.2033
# 2 27.3677 48.7807 15.8313 6.9682 -10.1237 16.3309
# 3 32.9632 15.8313 31.5772 8.4918 -2.9146 -16.4608
# 4 -6.2880 6.9682 8.4918 16.8704 -2.1263 0.0875
# 5 -14.2003 -10.1237 -2.9146 -2.1263 19.3028 5.9234
# 6 39.2033 16.3309 -16.4608 0.0875 5.9234 19.5307
#
#
#
# Elastic Compliance Matrix: (Units=1/GPa)
#
#
# Indices 1 2 3 4 5 6 
#
# 1 0.002645 -0.011552 0.010593 -0.000579 -0.007336 0.015506
# 2 -0.011552 0.027688 0.004917 -0.017746 0.003863 0.003088
# 3 0.010593 0.004917 0.005675 0.001663 0.019552 -0.026528
# 4 -0.000579 -0.017746 0.001663 0.064389 -0.008426 0.019670
# 5 -0.007336 0.003863 0.019552 -0.008426 0.046159 0.014012
# 6 0.015506 0.003088 -0.026528 0.019670 0.014012 -0.009201
#
#
# Mechanical properties :
#
#
# Convention : Reuss Voigt Hill
#
# Bulk Modulus (GPa) = 22.76774 36.41084 29.58929
# Shear Modulus (GPa) = 34.70261 17.75483 26.22872
#
# Velocity S-wave (km/s) = 4.14514 2.96494 3.60368
# Velocity P-wave (km/s) = 5.84658 5.45428 5.65383
#
# Compressibility (1/GPa) = 0.04392179
#
# Stress axis : x y z
#
# Youngs Moduli (GPa) = 378.09909 36.11646 176.21650
#
# Poissons Ratio (x) = 0.41723 -1.86659
# Poissons Ratio (y) = 4.36792 -0.86640
# Poissons Ratio (z) = -4.00504 -0.17757
#
# Static dielectric constant tensor:
#      x y z
#    x 1.766930 0.033410 -0.001820 
#    y 0.033410 1.726520 -0.005950 
#    z -0.001820 -0.005950 1.733400 
# 
# From -- ./inp_files/306232.got.cif
#   From: 2010.05.17/outbox.cif.g08.bks.cpg/sg2_154_cif.got.tgz:306232.got - 2010.06.03 11:33:40.
