data_PCOD9081573
_publ_section_title
;
Structure prediction by ZEFSAII (Michael W. Deem and Ramdas Pophale) SiO2 
 PCOD9081573
Probable space group: P -1
;
_chemical_formula_sum "Si O2"
_cell_formula_units_Z 16
_cell_length_a 12.411797
_cell_length_b 9.710386
_cell_length_c 7.895305
_cell_angle_alpha 87.616138
_cell_angle_beta 85.938965
_cell_angle_gamma 53.470652
_cell_volume 762.714815
_symmetry_space_group_name_H-M "P -1"
_symmetry_group_IT_number 2
_symmetry_cell_setting 'triclinic'
loop_
_space_group_symop_operation_xyz
x,y,z
-x,-y,-z
loop_
_atom_site_type_symbol
_atom_site_label
_atom_site_fract_x
_atom_site_fract_y
_atom_site_fract_z
Si Si1 0.157282 0.168362 0.286312
Si Si2 0.391088 0.023498 0.745363
Si Si3 0.116379 0.320656 0.658225
Si Si4 0.545955 0.667596 0.877443
Si Si5 0.836263 0.537477 0.854228
Si Si6 0.417436 0.501790 0.751349
Si Si7 0.131981 0.610586 0.765564
Si Si8 0.432862 0.855721 0.379868
O O1 0.139590 0.247437 0.471609
O O2 0.176154 0.287177 0.157907
O O3 0.014224 0.211074 0.252089
O O4 0.289508 0.975657 0.295139
O O5 0.460806 0.872223 0.880139
O O6 0.416625 0.927150 0.567454
O O7 0.232688 0.166239 0.768301
O O8 0.463205 0.116370 0.720097
O O9 0.136950 0.470050 0.655328
O O10 0.968444 0.402332 0.739060
O O11 0.695462 0.587011 0.798611
O O12 0.470245 0.613683 0.774027
O O13 0.562854 0.590972 0.065354
O O14 0.858021 0.460425 0.042833
O O15 0.260233 0.608696 0.719814
O O16 0.506127 0.342431 0.624092
#
# Coordination Sequence:
#
# PCOD9081573 Si02
#       8
#     2   2   2   2   2   2   2   2
#     4  10  19  32  53  79 108 136 171 220 267 311
#     4  10  20  35  55  81 108 137 179 223 264 313
#     4  10  19  32  53  79 108 136 171 220 267 311
#     4  10  22  38  55  78 109 144 180 218 264 317
#     4  10  19  32  52  78 107 138 176 216 262 315
#     4  10  22  38  55  78 109 144 180 218 264 317
#     4  10  19  32  52  78 107 138 176 216 262 315
#     4  10  20  35  55  81 108 137 179 223 264 313
#
# _framework density 20.977695000000001
#
# number of rings (size 3 to 8) (size 9 to 14) (size 15 to 20)
#    0.000    2.000    2.500    3.000    0.000    4.000 
#    0.000    1.250    0.000    7.500    0.000    0.000 
#    0.000    0.000    0.000    0.000    0.000    0.000 
#
# Total GULP energy -89409.602910 kJ/mol
# GULP energy per Si atom -5588.100182 kJ/mol
# Density = 2.092995 g / cm^3
# Si number density = 20.977695 Si / 1000 Ang^3
#
#
#
# Elastic Constant Matrix: (Units=GPa)
#
#
# Indices 1 2 3 4 5 6 
#
# 1 132.1658 30.8989 17.5875 -0.0018 14.8230 -33.4655
# 2 30.8989 45.1468 6.1251 -8.0981 -2.0767 -14.8376
# 3 17.5875 6.1251 51.5316 3.2553 2.6144 -7.1358
# 4 -0.0018 -8.0981 3.2553 26.6580 -4.1366 11.9216
# 5 14.8230 -2.0767 2.6144 -4.1366 17.2018 -0.6092
# 6 -33.4655 -14.8376 -7.1358 11.9216 -0.6092 32.9251
#
#
#
# Elastic Compliance Matrix: (Units=1/GPa)
#
#
# Indices 1 2 3 4 5 6 
#
# 1 0.015466 -0.008203 -0.000473 -0.012175 -0.016606 0.016022
# 2 -0.008203 0.031183 -0.002124 0.011246 0.013911 0.001440
# 3 -0.000473 -0.002124 0.021183 -0.006309 -0.004395 0.005356
# 4 -0.012175 0.011246 -0.006309 0.058929 0.025933 -0.029532
# 5 -0.016606 0.013911 -0.004395 0.025933 0.080337 -0.019466
# 6 0.016022 0.001440 0.005356 -0.029532 -0.019466 0.058799
#
#
# Mechanical properties :
#
#
# Convention : Reuss Voigt Hill
#
# Bulk Modulus (GPa) = 21.63018 37.56302 29.59660
# Shear Modulus (GPa) = 16.50668 26.97249 21.73959
#
# Velocity S-wave (km/s) = 2.80816 3.58965 3.22268
# Velocity P-wave (km/s) = 4.56594 5.92671 5.29026
#
# Compressibility (1/GPa) = 0.04623170
#
# Stress axis : x y z
#
# Youngs Moduli (GPa) = 64.65709 32.06910 47.20828
#
# Poissons Ratio (x) = 0.26307 0.02234
# Poissons Ratio (y) = 0.53039 0.10025
# Poissons Ratio (z) = 0.03060 0.06810
#
# Static dielectric constant tensor:
#      x y z
#    x 1.747760 -0.035960 0.010350 
#    y -0.035960 1.731670 -0.008670 
#    z 0.010350 -0.008670 1.805760 
# 
# From -- ./inp_files/179057.got.cif
#   From: 2010.05.17/outbox.cif.g08.bks.cpg/sg2_90_cif.got.tgz:179057.got - 2010.06.03 11:33:40.
