data_PCOD9081028
_publ_section_title
;
Structure prediction by ZEFSAII (Michael W. Deem and Ramdas Pophale) SiO2 
 PCOD9081028
Probable space group: P -1
;
_chemical_formula_sum "Si O2"
_cell_formula_units_Z 16
_cell_length_a 16.645645
_cell_length_b 25.650676
_cell_length_c 7.834283
_cell_angle_alpha 137.087001
_cell_angle_beta 138.896479
_cell_angle_gamma 18.129783
_cell_volume 682.122379
_symmetry_space_group_name_H-M "P -1"
_symmetry_group_IT_number 2
_symmetry_cell_setting 'triclinic'
loop_
_space_group_symop_operation_xyz
x,y,z
-x,-y,-z
loop_
_atom_site_type_symbol
_atom_site_label
_atom_site_fract_x
_atom_site_fract_y
_atom_site_fract_z
Si Si1 0.862477 0.994565 0.279370
Si Si2 0.371198 0.751372 0.003438
Si Si3 0.331665 0.359648 0.365087
Si Si4 0.107725 0.049532 0.154671
Si Si5 0.122692 0.503159 0.995819
Si Si6 0.682474 0.345241 0.603059
Si Si7 0.724173 0.435900 0.132424
Si Si8 0.964569 0.293746 0.519672
O O1 0.099308 0.810525 0.289215
O O2 0.588608 0.164149 0.348476
O O3 0.000000 0.000000 0.500000
O O4 0.776867 0.013693 0.001980
O O5 0.197804 0.811394 0.022126
O O6 0.683124 0.590030 0.075688
O O7 0.281070 0.736872 0.685229
O O8 0.252129 0.902422 0.138517
O O9 0.300813 0.389115 0.180316
O O10 0.348824 0.434908 0.649037
O O11 0.067358 0.463162 0.249866
O O12 0.100757 0.139781 0.429644
O O13 0.949906 0.674622 0.182450
O O14 0.356618 0.529068 0.529052
O O15 0.748804 0.397187 0.880787
O O16 0.967884 0.292562 0.315088
O O17 0.500000 0.500000 0.000000
#
# Coordination Sequence:
#
# PCOD9081028 Si02
#       8
#     2   2   2   2   2   2   2   2
#     4  12  19  32  54  86 107 142 175 230 275 315
#     4  10  21  37  53  86 109 145 178 223 274 326
#     4  10  20  32  55  81 111 147 176 225 271 317
#     4  11  21  32  56  85 112 138 182 224 279 312
#     4   9  18  37  52  74 117 146 182 216 266 332
#     4  10  19  30  53  80 114 131 179 228 270 314
#     4   9  16  28  49  81 107 129 177 224 265 310
#     4   9  18  32  53  82 107 143 178 227 267 317
#
# _framework density 23.456199999999999
#
# number of rings (size 3 to 8) (size 9 to 14) (size 15 to 20)
#    0.000    2.000    3.750    3.000    1.750    2.000 
#    0.000    1.875    0.000    0.750    0.000    3.500 
#    0.000    0.000    0.000    0.000    0.000    0.000 
#
# Total GULP energy -89097.167003 kJ/mol
# GULP energy per Si atom -5568.572938 kJ/mol
# Density = 2.340281 g / cm^3
# Si number density = 23.456200 Si / 1000 Ang^3
#
#
#
# Elastic Constant Matrix: (Units=GPa)
#
#
# Indices 1 2 3 4 5 6 
#
# 1 55.0466 21.5456 22.8284 9.2269 15.5472 0.0633
# 2 21.5456 70.4929 50.5661 30.3875 9.8817 5.2584
# 3 22.8284 50.5661 124.7029 28.2732 26.7128 3.9989
# 4 9.2269 30.3875 28.2732 34.9375 6.1408 5.7263
# 5 15.5472 9.8817 26.7128 6.1408 27.0945 2.2360
# 6 0.0633 5.2584 3.9989 5.7263 2.2360 21.4846
#
#
#
# Elastic Compliance Matrix: (Units=1/GPa)
#
#
# Indices 1 2 3 4 5 6 
#
# 1 0.023792 -0.006463 0.000705 0.000518 -0.012316 0.002524
# 2 -0.006463 0.028510 -0.007299 -0.017780 0.004647 -0.001345
# 3 0.000705 -0.007299 0.013883 -0.003381 -0.010764 0.001222
# 4 0.000518 -0.017780 -0.003381 0.048088 -0.000738 -0.007761
# 5 -0.012316 0.004647 -0.010764 -0.000738 0.053428 -0.004461
# 6 0.002524 -0.001345 0.001222 -0.007761 -0.004461 0.049172
#
#
# Mechanical properties :
#
#
# Convention : Reuss Voigt Hill
#
# Bulk Modulus (GPa) = 24.95498 48.90254 36.92876
# Shear Modulus (GPa) = 19.50502 27.05678 23.28090
#
# Velocity S-wave (km/s) = 2.88679 3.40001 3.15386
# Velocity P-wave (km/s) = 4.66621 6.02554 5.38891
#
# Compressibility (1/GPa) = 0.04007215
#
# Stress axis : x y z
#
# Youngs Moduli (GPa) = 42.03020 35.07533 72.03172
#
# Poissons Ratio (x) = 0.22669 -0.05078
# Poissons Ratio (y) = 0.27164 0.52573
# Poissons Ratio (z) = -0.02963 0.25600
#
# Static dielectric constant tensor:
#      x y z
#    x 2.085360 0.073590 -0.140480 
#    y 0.073590 2.168200 0.053550 
#    z -0.140480 0.053550 1.971610 
# 
# From -- ./inp_files/338807.got.cif
#   From: 2010.05.17/outbox.cif.g08.bks.cpg/sg2_170_cif.got.tgz:338807.got - 2010.06.03 11:33:40.
