data_PCOD9081055
_publ_section_title
;
Structure prediction by ZEFSAII (Michael W. Deem and Ramdas Pophale) SiO2 
 PCOD9081055
Probable space group: P -1
;
_chemical_formula_sum "Si O2"
_cell_formula_units_Z 16
_cell_length_a 31.485000
_cell_length_b 14.402530
_cell_length_c 5.779022
_cell_angle_alpha 131.695219
_cell_angle_beta 41.229694
_cell_angle_gamma 160.338175
_cell_volume 570.077941
_symmetry_space_group_name_H-M "P -1"
_symmetry_group_IT_number 2
_symmetry_cell_setting 'triclinic'
loop_
_space_group_symop_operation_xyz
x,y,z
-x,-y,-z
loop_
_atom_site_type_symbol
_atom_site_label
_atom_site_fract_x
_atom_site_fract_y
_atom_site_fract_z
Si Si1 0.583528 0.643845 0.142762
Si Si2 0.470517 0.007538 0.381414
Si Si3 0.815972 0.209079 0.753480
Si Si4 0.366512 0.027548 0.294066
Si Si5 0.855242 0.638214 0.306654
Si Si6 0.052805 0.771632 0.496614
Si Si7 0.334881 0.482589 0.325326
Si Si8 0.888562 0.544389 0.388968
O O1 0.500000 0.500000 0.500000
O O2 0.657190 0.906392 0.309578
O O3 0.500000 0.500000 0.000000
O O4 0.684542 0.695851 0.832748
O O5 0.583254 0.317098 0.455219
O O6 0.500000 0.000000 0.500000
O O7 0.295276 0.703656 0.617881
O O8 0.500000 0.000000 0.000000
O O9 0.933010 0.450771 0.477613
O O10 0.829925 0.091870 0.590348
O O11 0.670231 0.983886 0.830778
O O12 0.865219 0.396141 0.050162
O O13 0.257017 0.725569 0.304115
O O14 0.537643 0.292438 0.021764
O O15 0.799080 0.665348 0.458197
O O16 0.900078 0.703299 0.500354
O O17 0.981627 0.776898 0.894475
O O18 0.036637 0.768216 0.285475
#
# Coordination Sequence:
#
# PCOD9081055 Si02
#       8
#     2   2   2   2   2   2   2   2
#     4  10  24  41  62  84 115 159 206 249 288 344
#     4  10  22  33  52  80 118 154 184 219 284 356
#     4   9  18  34  55  77 116 151 194 251 284 348
#     4  10  22  37  57  85 114 155 203 247 296 346
#     4  10  22  32  52  83 121 155 182 232 300 363
#     4   9  18  34  50  83 115 153 195 233 299 353
#     4  10  22  40  54  84 120 155 190 242 296 358
#     4  10  19  30  56  84 117 151 195 237 298 357
#
# _framework density 28.066334999999999
#
# number of rings (size 3 to 8) (size 9 to 14) (size 15 to 20)
#    0.000    2.250    0.000    2.625   12.250    3.000 
#    0.000    0.000    0.000    0.750    0.000    1.750 
#    0.000    0.000    0.000    0.000    0.000    0.000 
#
# Total GULP energy -89176.187246 kJ/mol
# GULP energy per Si atom -5573.511703 kJ/mol
# Density = 2.800245 g / cm^3
# Si number density = 28.066335 Si / 1000 Ang^3
#
#
#
# Elastic Constant Matrix: (Units=GPa)
#
#
# Indices 1 2 3 4 5 6 
#
# 1 225.9516 30.2904 67.0634 9.7290 -23.8210 23.2858
# 2 30.2904 51.6282 -2.5499 19.0932 5.0766 11.7549
# 3 67.0634 -2.5499 136.3200 21.9694 -8.5284 22.4449
# 4 9.7290 19.0932 21.9694 32.2030 5.3248 -7.8453
# 5 -23.8210 5.0766 -8.5284 5.3248 54.9880 1.1157
# 6 23.2858 11.7549 22.4449 -7.8453 1.1157 48.1134
#
#
#
# Elastic Compliance Matrix: (Units=1/GPa)
#
#
# Indices 1 2 3 4 5 6 
#
# 1 0.006327 -0.005712 -0.003813 0.003866 0.002288 0.000689
# 2 -0.005712 0.040624 0.012268 -0.035174 -0.000539 -0.018607
# 3 -0.003813 0.012268 0.014378 -0.018850 0.001493 -0.010968
# 4 0.003866 -0.035174 -0.018850 0.071136 -0.005443 0.027242
# 5 0.002288 -0.000539 0.001493 -0.005443 0.020047 -0.003025
# 6 0.000689 -0.018607 -0.010968 0.027242 -0.003025 0.034625
#
#
# Mechanical properties :
#
#
# Convention : Reuss Voigt Hill
#
# Bulk Modulus (GPa) = 14.96640 67.05640 41.01140
# Shear Modulus (GPa) = 24.51927 48.33396 36.42661
#
# Velocity S-wave (km/s) = 2.95891 4.15436 3.60651
# Velocity P-wave (km/s) = 4.12524 6.85242 5.65567
#
# Compressibility (1/GPa) = 0.06681635
#
# Stress axis : x y z
#
# Youngs Moduli (GPa) = 158.05651 24.61598 69.55095
#
# Poissons Ratio (x) = 0.14061 0.26518
# Poissons Ratio (y) = 0.90281 -0.85328
# Poissons Ratio (z) = 0.60263 -0.30200
#
# Static dielectric constant tensor:
#      x y z
#    x 2.457420 -0.052910 -0.037100 
#    y -0.052910 2.430380 -0.143170 
#    z -0.037100 -0.143170 2.407320 
# 
# From -- ./inp_files/128650.got.cif
#   From: 2010.05.17/outbox.cif.g08.bks.cpg/sg2_65_cif.got.tgz:128650.got - 2010.06.03 11:33:40.
