data_PCOD9081219
_publ_section_title
;
Structure prediction by ZEFSAII (Michael W. Deem and Ramdas Pophale) SiO2 
 PCOD9081219
Probable space group: P -1
;
_chemical_formula_sum "Si O2"
_cell_formula_units_Z 16
_cell_length_a 15.215101
_cell_length_b 17.505057
_cell_length_c 14.039804
_cell_angle_alpha 157.997272
_cell_angle_beta 128.354289
_cell_angle_gamma 40.156230
_cell_volume 841.236397
_symmetry_space_group_name_H-M "P -1"
_symmetry_group_IT_number 2
_symmetry_cell_setting 'triclinic'
loop_
_space_group_symop_operation_xyz
x,y,z
-x,-y,-z
loop_
_atom_site_type_symbol
_atom_site_label
_atom_site_fract_x
_atom_site_fract_y
_atom_site_fract_z
Si Si1 0.663153 0.897906 0.489815
Si Si2 0.817553 0.317510 0.987489
Si Si3 0.318694 0.674566 0.918392
Si Si4 0.298104 0.023100 0.785969
Si Si5 0.655649 0.561173 0.734610
Si Si6 0.360073 0.833059 0.397437
Si Si7 0.580526 0.433387 0.348967
Si Si8 0.923991 0.033187 0.387200
O O1 0.500000 0.000000 0.500000
O O2 0.686653 0.937474 0.442081
O O3 0.772775 0.600183 0.259180
O O4 0.671814 0.098571 0.785506
O O5 0.694524 0.315168 0.854538
O O6 0.808936 0.276775 0.047140
O O7 0.964072 0.084913 0.761640
O O8 0.466546 0.389308 0.725381
O O9 0.325695 0.657237 0.788705
O O10 0.291270 0.955802 0.594726
O O11 0.440778 0.748076 0.608337
O O12 0.150528 0.103871 0.823890
O O13 0.324399 0.231718 0.045173
O O14 0.662421 0.407738 0.469123
O O15 0.500930 0.688274 0.828708
O O16 0.787845 0.345019 0.642336
O O17 0.000000 0.000000 0.500000
#
# Coordination Sequence:
#
# PCOD9081219 Si02
#       8
#     2   2   2   2   2   2   2   2
#     4  11  19  29  53  79 112 150 183 225 283 341
#     4  11  21  36  50  79 122 147 184 231 274 340
#     4  10  20  34  54  84 111 143 189 236 288 331
#     4  10  21  35  62  87 112 150 193 233 285 344
#     4  10  22  40  62  83 115 151 192 239 287 336
#     4  10  19  31  51  84 114 144 182 232 284 332
#     4   9  21  40  62  88 111 143 193 250 289 325
#     4  11  24  39  55  82 123 158 187 228 282 345
#
# _framework density 19.019622999999999
#
# number of rings (size 3 to 8) (size 9 to 14) (size 15 to 20)
#    0.000    1.750    3.750    1.125    3.500    2.500 
#    0.000    0.625    0.000    1.500    0.000    0.000 
#    0.000    0.000    0.000    0.000    0.000    0.000 
#
# Total GULP energy -89243.636857 kJ/mol
# GULP energy per Si atom -5577.727304 kJ/mol
# Density = 1.897633 g / cm^3
# Si number density = 19.019623 Si / 1000 Ang^3
#
#
#
# Elastic Constant Matrix: (Units=GPa)
#
#
# Indices 1 2 3 4 5 6 
#
# 1 114.1727 15.0787 20.7587 -6.9889 -4.4709 15.3670
# 2 15.0787 55.3987 -1.7163 -9.9968 -0.3986 14.6386
# 3 20.7587 -1.7163 37.8614 -1.2165 16.8806 2.5922
# 4 -6.9889 -9.9968 -1.2165 8.6269 7.1320 -4.5959
# 5 -4.4709 -0.3986 16.8806 7.1320 42.0275 -4.5192
# 6 15.3670 14.6386 2.5922 -4.5959 -4.5192 25.2166
#
#
#
# Elastic Compliance Matrix: (Units=1/GPa)
#
#
# Indices 1 2 3 4 5 6 
#
# 1 0.011122 -0.002118 -0.007569 0.000247 0.003725 -0.004057
# 2 -0.002118 0.028230 0.009202 0.035093 -0.010856 -0.011593
# 3 -0.007569 0.009202 0.042277 0.027046 -0.022742 -0.004222
# 4 0.000247 0.035093 0.027046 0.199601 -0.043814 0.005223
# 5 0.003725 -0.010856 -0.022742 -0.043814 0.041279 0.005782
# 6 -0.004057 -0.011593 -0.004222 0.005223 0.005782 0.051281
#
#
# Mechanical properties :
#
#
# Convention : Reuss Voigt Hill
#
# Bulk Modulus (GPa) = 12.39773 30.63054 21.51414
# Shear Modulus (GPa) = 12.44881 26.72834 19.58857
#
# Velocity S-wave (km/s) = 2.56114 3.75280 3.21271
# Velocity P-wave (km/s) = 3.90877 5.90912 5.00980
#
# Compressibility (1/GPa) = 0.08065990
#
# Stress axis : x y z
#
# Youngs Moduli (GPa) = 89.91493 35.42279 23.65359
#
# Poissons Ratio (x) = 0.07503 0.17903
# Poissons Ratio (y) = 0.19045 -0.21767
# Poissons Ratio (z) = 0.68055 -0.32597
#
# Static dielectric constant tensor:
#      x y z
#    x 1.723230 0.016800 0.015010 
#    y 0.016800 1.688680 0.018660 
#    z 0.015010 0.018660 1.658770 
# 
# From -- ./inp_files/70781.got.cif
#   From: 2010.05.17/outbox.cif.g08.bks.cpg/sg2_36_cif.got.tgz:70781.got - 2010.06.03 11:33:40.
