data_PCOD9081164
_publ_section_title
;
Structure prediction by ZEFSAII (Michael W. Deem and Ramdas Pophale) SiO2 
 PCOD9081164
Probable space group: P -1
;
_chemical_formula_sum "Si O2"
_cell_formula_units_Z 12
_cell_length_a 15.197799
_cell_length_b 10.720372
_cell_length_c 5.539407
_cell_angle_alpha 72.525394
_cell_angle_beta 138.690096
_cell_angle_gamma 122.713210
_cell_volume 492.124639
_symmetry_space_group_name_H-M "P -1"
_symmetry_group_IT_number 2
_symmetry_cell_setting 'triclinic'
loop_
_space_group_symop_operation_xyz
x,y,z
-x,-y,-z
loop_
_atom_site_type_symbol
_atom_site_label
_atom_site_fract_x
_atom_site_fract_y
_atom_site_fract_z
Si Si1 0.863797 0.041077 0.709397
Si Si2 0.180990 0.377870 0.643845
Si Si3 0.437974 0.617073 0.799707
Si Si4 0.185836 0.078775 0.822808
Si Si5 0.615865 0.329377 0.842646
Si Si6 0.914102 0.319089 0.419380
O O1 0.936263 0.221212 0.729714
O O2 0.775346 0.977849 0.309878
O O3 0.773819 0.969429 0.812317
O O4 0.000000 0.000000 0.000000
O O5 0.250769 0.504517 0.505446
O O6 0.226820 0.251127 0.780116
O O7 0.001398 0.300538 0.378985
O O8 0.280565 0.486612 0.010807
O O9 0.472765 0.702036 0.571176
O O10 0.500000 0.500000 0.000000
O O11 0.475553 0.711652 0.069475
O O12 0.000000 0.000000 0.500000
O O13 0.735761 0.270460 0.094282
O O14 0.000000 0.500000 0.500000
#
# Coordination Sequence:
#
# PCOD9081164 Si02
#       6
#     2   2   2   2   2   2
#     4  10  20  33  49  73 115 150 180 209 258 341
#     4   9  20  33  55  84 114 146 179 225 278 326
#     4  10  21  38  56  80 111 145 193 234 271 322
#     4  10  19  31  50  74 112 146 184 213 257 330
#     4   9  22  34  55  82 113 144 178 228 293 317
#     4  10  19  37  51  88 120 147 170 229 285 345
#
# _framework density 24.384066000000001
#
# number of rings (size 3 to 8) (size 9 to 14) (size 15 to 20)
#    1.000    1.333    3.333    0.500    2.333    3.333 
#    0.000    0.000    0.000    0.000    0.000    7.000 
#    0.000    0.000    0.000    0.000    0.000    0.000 
#
# Total GULP energy -66853.690774 kJ/mol
# GULP energy per Si atom -5571.140898 kJ/mol
# Density = 2.432857 g / cm^3
# Si number density = 24.384066 Si / 1000 Ang^3
#
#
#
# Elastic Constant Matrix: (Units=GPa)
#
#
# Indices 1 2 3 4 5 6 
#
# 1 135.7940 23.7477 57.8434 4.9231 -35.7152 1.2983
# 2 23.7477 103.1105 24.7882 -22.0745 -15.6457 4.9130
# 3 57.8434 24.7882 84.0298 -8.4311 -28.2494 -16.2481
# 4 4.9231 -22.0745 -8.4311 29.5596 -6.7416 -0.9293
# 5 -35.7152 -15.6457 -28.2494 -6.7416 60.5610 -1.3543
# 6 1.2983 4.9130 -16.2481 -0.9293 -1.3543 35.3585
#
#
#
# Elastic Compliance Matrix: (Units=1/GPa)
#
#
# Indices 1 2 3 4 5 6 
#
# 1 0.011975 -0.001270 -0.008466 -0.005003 0.002134 -0.004203
# 2 -0.001270 0.013061 -0.001280 0.010251 0.003126 -0.001967
# 3 -0.008466 -0.001280 0.023681 0.009181 0.007011 0.011881
# 4 -0.005003 0.010251 0.009181 0.047211 0.009338 0.004577
# 5 0.002134 0.003126 0.007011 0.009338 0.022974 0.003834
# 6 -0.004203 -0.001967 0.011881 0.004577 0.003834 0.034436
#
#
# Mechanical properties :
#
#
# Convention : Reuss Voigt Hill
#
# Bulk Modulus (GPa) = 37.47282 59.52146 48.49714
# Shear Modulus (GPa) = 27.13480 39.53281 33.33380
#
# Velocity S-wave (km/s) = 3.33950 4.03085 3.70135
# Velocity P-wave (km/s) = 5.50189 6.79166 6.18051
#
# Compressibility (1/GPa) = 0.02668601
#
# Stress axis : x y z
#
# Youngs Moduli (GPa) = 83.50526 76.56328 42.22763
#
# Poissons Ratio (x) = 0.09721 0.35750
# Poissons Ratio (y) = 0.10602 0.05405
# Poissons Ratio (z) = 0.70696 0.09800
#
# Static dielectric constant tensor:
#      x y z
#    x 2.110290 0.389070 -0.139090 
#    y 0.389070 3.685860 -0.527810 
#    z -0.139090 -0.527810 2.179620 
# 
# From -- ./inp_files/108011.got.cif
#   From: 2010.05.17/outbox.cif.g08.bks.cpg/sg2_55_cif.got.tgz:108011.got - 2010.06.03 11:33:40.
