data_PCOD9081415
_publ_section_title
;
Structure prediction by ZEFSAII (Michael W. Deem and Ramdas Pophale) SiO2 
 PCOD9081415
Probable space group: P -1
;
_chemical_formula_sum "Si O2"
_cell_formula_units_Z 16
_cell_length_a 19.228126
_cell_length_b 13.332938
_cell_length_c 11.863527
_cell_angle_alpha 134.465425
_cell_angle_beta 20.308249
_cell_angle_gamma 140.591183
_cell_volume 666.109140
_symmetry_space_group_name_H-M "P -1"
_symmetry_group_IT_number 2
_symmetry_cell_setting 'triclinic'
loop_
_space_group_symop_operation_xyz
x,y,z
-x,-y,-z
loop_
_atom_site_type_symbol
_atom_site_label
_atom_site_fract_x
_atom_site_fract_y
_atom_site_fract_z
Si Si1 0.377784 0.638702 0.378728
Si Si2 0.600643 0.346382 0.290612
Si Si3 0.548809 0.618321 0.690986
Si Si4 0.764132 0.838763 0.134779
Si Si5 0.980391 0.691793 0.364950
Si Si6 0.682363 0.813224 0.852366
Si Si7 0.356647 0.907646 0.536103
Si Si8 0.899485 0.607609 0.682944
O O1 0.563034 0.743337 0.272513
O O2 0.206691 0.462720 0.538380
O O3 0.232638 0.726603 0.626350
O O4 0.528766 0.666170 0.057670
O O5 0.664248 0.521227 0.380392
O O6 0.579591 0.347688 0.189679
O O7 0.353906 0.228794 0.620517
O O8 0.774755 0.286040 0.019823
O O9 0.676579 0.768833 0.695696
O O10 0.358840 0.495076 0.966306
O O11 0.800805 0.016708 0.204098
O O12 0.955549 0.783737 0.780816
O O13 0.928552 0.839354 0.541148
O O14 0.938909 0.631535 0.509533
O O15 0.548577 0.914187 0.160853
O O16 0.500000 0.000000 0.500000
O O17 0.000000 0.500000 0.500000
#
# Coordination Sequence:
#
# PCOD9081415 Si02
#       8
#     2   2   2   2   2   2   2   2
#     4   9  18  29  57  81 101 129 180 230 259 302
#     4  10  23  32  51  77 119 144 164 214 280 333
#     4  10  20  37  48  78 110 146 174 212 276 318
#     4  10  19  36  52  77 111 144 174 212 273 327
#     4  12  18  32  53  90 103 131 179 231 273 303
#     4  10  19  31  59  81 102 134 185 231 257 306
#     4   8  16  33  55  81 100 143 179 222 263 310
#     4  11  18  29  55  79 102 136 179 224 256 312
#
# _framework density 24.020087
#
# number of rings (size 3 to 8) (size 9 to 14) (size 15 to 20)
#    0.750    1.250    3.750    1.875    0.000    2.000 
#    0.000    1.250    0.000    4.500    0.000    0.000 
#    0.000    0.000    0.000    0.000    0.000    0.000 
#
# Total GULP energy -89095.089378 kJ/mol
# GULP energy per Si atom -5568.443086 kJ/mol
# Density = 2.396542 g / cm^3
# Si number density = 24.020087 Si / 1000 Ang^3
#
#
#
# Elastic Constant Matrix: (Units=GPa)
#
#
# Indices 1 2 3 4 5 6 
#
# 1 100.8187 18.0646 32.5339 20.5851 16.3111 1.5973
# 2 18.0646 60.4140 18.0475 36.9127 -17.3132 -18.4501
# 3 32.5339 18.0475 82.8007 33.8295 -19.1388 -2.5954
# 4 20.5851 36.9127 33.8295 39.2872 -16.3344 -13.5009
# 5 16.3111 -17.3132 -19.1388 -16.3344 38.4620 14.3261
# 6 1.5973 -18.4501 -2.5954 -13.5009 14.3261 26.4303
#
#
#
# Elastic Compliance Matrix: (Units=1/GPa)
#
#
# Indices 1 2 3 4 5 6 
#
# 1 0.016011 -0.003717 -0.006919 -0.004446 -0.014244 0.001208
# 2 -0.003717 0.047315 0.012659 -0.048688 0.006153 0.006291
# 3 -0.006919 0.012659 0.026782 -0.029331 0.013353 -0.010335
# 4 -0.004446 -0.048688 -0.029331 0.105899 0.004801 0.014893
# 5 -0.014244 0.006153 0.013353 0.004801 0.050333 -0.018362
# 6 0.001208 0.006291 -0.010335 0.014893 -0.018362 0.058700
#
#
# Mechanical properties :
#
#
# Convention : Reuss Voigt Hill
#
# Bulk Modulus (GPa) = 10.62077 42.36949 26.49513
# Shear Modulus (GPa) = 15.04315 32.52838 23.78576
#
# Velocity S-wave (km/s) = 2.50526 3.68396 3.15023
# Velocity P-wave (km/s) = 3.57766 5.98104 4.92811
#
# Compressibility (1/GPa) = 0.09415517
#
# Stress axis : x y z
#
# Youngs Moduli (GPa) = 62.45866 21.13491 37.33796
#
# Poissons Ratio (x) = 0.07856 0.25833
# Poissons Ratio (y) = 0.23217 -0.47268
# Poissons Ratio (z) = 0.43213 -0.26755
#
# Static dielectric constant tensor:
#      x y z
#    x 2.014610 0.043640 -0.048940 
#    y 0.043640 2.104430 0.087770 
#    z -0.048940 0.087770 1.997260 
# 
# From -- ./inp_files/471735.got.cif
#   From: 2010.05.17/outbox.cif.g08.bks.cpg/sg2_236_cif.got.tgz:471735.got - 2010.06.03 11:33:40.
