data_PCOD9081403
_publ_section_title
;
Structure prediction by ZEFSAII (Michael W. Deem and Ramdas Pophale) SiO2 
 PCOD9081403
Probable space group: P -1
;
_chemical_formula_sum "Si O2"
_cell_formula_units_Z 14
_cell_length_a 15.794839
_cell_length_b 9.784769
_cell_length_c 5.307195
_cell_angle_alpha 57.706323
_cell_angle_beta 110.378281
_cell_angle_gamma 119.812258
_cell_volume 597.763677
_symmetry_space_group_name_H-M "P -1"
_symmetry_group_IT_number 2
_symmetry_cell_setting 'triclinic'
loop_
_space_group_symop_operation_xyz
x,y,z
-x,-y,-z
loop_
_atom_site_type_symbol
_atom_site_label
_atom_site_fract_x
_atom_site_fract_y
_atom_site_fract_z
Si Si1 0.032680 0.193892 0.235155
Si Si2 0.628351 0.258380 0.954541
Si Si3 0.231527 0.974786 0.147013
Si Si4 0.250537 0.614547 0.546005
Si Si5 0.600215 0.866778 0.165624
Si Si6 0.780464 0.845380 0.538696
Si Si7 0.964136 0.645160 0.421581
O O1 0.001804 0.298908 0.313963
O O2 0.152029 0.263347 0.290956
O O3 0.000000 0.000000 0.500000
O O4 0.809917 0.979436 0.199212
O O5 0.684049 0.355253 0.666022
O O6 0.515279 0.232620 0.861733
O O7 0.684082 0.354779 0.166773
O O8 0.626098 0.058171 0.136920
O O9 0.211918 0.772732 0.350728
O O10 0.997858 0.793126 0.094464
O O11 0.200770 0.051899 0.281413
O O12 0.349259 0.077679 0.112090
O O13 0.154345 0.437541 0.618536
O O14 0.662547 0.765411 0.456981
O O15 0.000000 0.500000 0.500000
#
# Coordination Sequence:
#
# PCOD9081403 Si02
#       7
#     2   2   2   2   2   2   2
#     4  12  28  47  74 101 132 173 227 280 334 408
#     4  10  19  31  57  95 133 173 216 274 317 386
#     4   9  18  32  59  92 123 176 205 274 308 388
#     4  11  21  37  60  89 135 166 218 261 344 371
#     4   8  19  29  57  93 135 168 222 269 322 366
#     4  10  20  36  60  91 133 161 217 268 332 362
#     4  12  29  48  72 100 135 175 220 278 344 413
#
# _framework density 23.420627
#
# number of rings (size 3 to 8) (size 9 to 14) (size 15 to 20)
#    0.857    0.857    1.429    2.571    6.000    1.714 
#    0.000    0.000    0.000    5.143    0.000    0.000 
#    0.000    0.000    0.000    0.000    0.000    0.000 
#
# Total GULP energy -78232.537097 kJ/mol
# GULP energy per Si atom -5588.038364 kJ/mol
# Density = 2.336732 g / cm^3
# Si number density = 23.420627 Si / 1000 Ang^3
#
#
#
# Elastic Constant Matrix: (Units=GPa)
#
#
# Indices 1 2 3 4 5 6 
#
# 1 95.2931 10.7639 33.3274 11.4549 -15.2065 5.1534
# 2 10.7639 58.3366 26.4460 14.2655 -27.1299 16.3141
# 3 33.3274 26.4460 118.5071 17.9050 -35.6354 1.4039
# 4 11.4549 14.2655 17.9050 36.3101 -3.1871 -4.7255
# 5 -15.2065 -27.1299 -35.6354 -3.1871 43.6796 6.3346
# 6 5.1534 16.3141 1.4039 -4.7255 6.3346 43.3172
#
#
#
# Elastic Compliance Matrix: (Units=1/GPa)
#
#
# Indices 1 2 3 4 5 6 
#
# 1 0.012298 0.002722 -0.002067 -0.003992 0.004505 -0.003516
# 2 0.002722 0.039477 0.002049 -0.017624 0.028959 -0.021416
# 3 -0.002067 0.002049 0.012814 -0.005920 0.011040 -0.003202
# 4 -0.003992 -0.017624 -0.005920 0.039025 -0.016342 0.013952
# 5 0.004505 0.028959 0.011040 -0.016342 0.053365 -0.021387
# 6 -0.003516 -0.021416 -0.003202 0.013952 -0.021387 0.036323
#
#
# Mechanical properties :
#
#
# Convention : Reuss Voigt Hill
#
# Bulk Modulus (GPa) = 14.28589 45.91237 30.09913
# Shear Modulus (GPa) = 23.67134 38.10133 30.88634
#
# Velocity S-wave (km/s) = 3.18261 4.03777 3.63542
# Velocity P-wave (km/s) = 4.42925 6.43305 5.52279
#
# Compressibility (1/GPa) = 0.06999914
#
# Stress axis : x y z
#
# Youngs Moduli (GPa) = 81.31349 25.33112 78.03778
#
# Poissons Ratio (x) = -0.06895 0.16127
# Poissons Ratio (y) = -0.22133 -0.15993
# Poissons Ratio (z) = 0.16804 -0.05191
#
# Static dielectric constant tensor:
#      x y z
#    x 1.931590 0.038330 0.018450 
#    y 0.038330 1.899700 -0.003000 
#    z 0.018450 -0.003000 1.861640 
# 
# From -- ./inp_files/93235.got.cif
#   From: 2010.05.17/outbox.cif.g08.bks.cpg/sg2_47_cif.got.tgz:93235.got - 2010.06.03 11:33:40.
