data_PCOD9081590
_publ_section_title
;
Structure prediction by ZEFSAII (Michael W. Deem and Ramdas Pophale) SiO2 
 PCOD9081590
Probable space group: P -1
;
_chemical_formula_sum "Si O2"
_cell_formula_units_Z 16
_cell_length_a 21.099315
_cell_length_b 18.095541
_cell_length_c 5.047581
_cell_angle_alpha 102.453234
_cell_angle_beta 111.367719
_cell_angle_gamma 29.968956
_cell_volume 875.557386
_symmetry_space_group_name_H-M "P -1"
_symmetry_group_IT_number 2
_symmetry_cell_setting 'triclinic'
loop_
_space_group_symop_operation_xyz
x,y,z
-x,-y,-z
loop_
_atom_site_type_symbol
_atom_site_label
_atom_site_fract_x
_atom_site_fract_y
_atom_site_fract_z
Si Si1 0.159388 0.835027 0.096098
Si Si2 0.450929 0.435367 0.725175
Si Si3 0.618041 0.911379 0.897764
Si Si4 0.731506 0.596763 0.976417
Si Si5 0.682530 0.275040 0.261878
Si Si6 0.705723 0.455032 0.914248
Si Si7 0.419744 0.199636 0.577508
Si Si8 0.905572 0.575636 0.166191
O O1 0.242667 0.807460 0.408995
O O2 0.202571 0.706889 0.127938
O O3 0.208037 0.804815 0.850460
O O4 0.000000 0.000000 0.000000
O O5 0.416865 0.556922 0.716236
O O6 0.423823 0.425252 0.390841
O O7 0.592840 0.298308 0.994132
O O8 0.344500 0.504029 0.828488
O O9 0.623055 0.842757 0.621982
O O10 0.569708 0.037065 0.794488
O O11 0.769926 0.758900 0.123230
O O12 0.500000 0.000000 0.000000
O O13 0.668282 0.685163 0.225607
O O14 0.847674 0.545530 0.044700
O O15 0.774892 0.468463 0.973793
O O16 0.614174 0.717445 0.665455
O O17 0.000000 0.500000 0.500000
O O18 0.000000 0.500000 0.000000
#
# Coordination Sequence:
#
# PCOD9081590 Si02
#       8
#     2   2   2   2   2   2   2   2
#     4  10  19  32  52  81 104 149 191 218 262 333
#     4   9  17  31  51  79 101 132 168 222 288 311
#     4  10  19  35  59  83 109 137 182 233 283 328
#     4  11  21  36  54  80 110 145 184 238 285 338
#     4   9  17  30  51  76 108 127 168 233 271 309
#     4  10  20  33  54  77 108 140 185 229 274 334
#     4  10  19  32  57  81 102 137 180 223 282 329
#     4  11  23  35  55  84 112 143 187 232 283 335
#
# _framework density 18.274073999999999
#
# number of rings (size 3 to 8) (size 9 to 14) (size 15 to 20)
#    0.000    2.000    2.500    3.375    1.750    3.000 
#    0.000    0.000    0.000    9.000    0.000    0.000 
#    0.000    0.000    0.000    0.000    0.000    0.000 
#
# Total GULP energy -89095.817958 kJ/mol
# GULP energy per Si atom -5568.488622 kJ/mol
# Density = 1.823248 g / cm^3
# Si number density = 18.274074 Si / 1000 Ang^3
#
#
#
# Elastic Constant Matrix: (Units=GPa)
#
#
# Indices 1 2 3 4 5 6 
#
# 1 56.8321 23.6904 13.0374 2.0607 -0.9329 5.2183
# 2 23.6904 73.1968 26.7340 -9.0356 1.7474 -7.9142
# 3 13.0374 26.7340 85.2637 -3.3489 -24.0876 -10.7172
# 4 2.0607 -9.0356 -3.3489 31.6824 -7.3200 -2.9006
# 5 -0.9329 1.7474 -24.0876 -7.3200 26.7771 1.1776
# 6 5.2183 -7.9142 -10.7172 -2.9006 1.1776 20.0247
#
#
#
# Elastic Compliance Matrix: (Units=1/GPa)
#
#
# Indices 1 2 3 4 5 6 
#
# 1 0.023031 -0.008102 -0.003528 -0.005941 -0.002949 -0.011779
# 2 -0.008102 0.019844 -0.005221 0.005181 -0.005219 0.008217
# 3 -0.003528 -0.005221 0.021291 0.006704 0.020763 0.010001
# 4 -0.005941 0.005181 0.006704 0.038823 0.015575 0.011891
# 5 -0.002949 -0.005219 0.020763 0.015575 0.060143 0.008537
# 6 -0.011779 0.008217 0.010001 0.011891 0.008537 0.062828
#
#
# Mechanical properties :
#
#
# Convention : Reuss Voigt Hill
#
# Bulk Modulus (GPa) = 32.82706 38.02403 35.42555
# Shear Modulus (GPa) = 18.53107 25.81888 22.17498
#
# Velocity S-wave (km/s) = 3.18789 3.76289 3.48726
# Velocity P-wave (km/s) = 5.61720 6.30333 5.97013
#
# Compressibility (1/GPa) = 0.03046268
#
# Stress axis : x y z
#
# Youngs Moduli (GPa) = 43.41970 50.39430 46.96837
#
# Poissons Ratio (x) = 0.40830 0.16572
# Poissons Ratio (y) = 0.35179 0.24522
# Poissons Ratio (z) = 0.15320 0.26311
#
# Static dielectric constant tensor:
#      x y z
#    x 1.647930 0.019860 -0.003610 
#    y 0.019860 1.631360 -0.028330 
#    z -0.003610 -0.028330 1.686600 
# 
# From -- ./inp_files/119932.got.cif
#   From: 2010.05.17/outbox.cif.g08.bks.cpg/sg2_60_cif.got.tgz:119932.got - 2010.06.03 11:33:40.
