data_PCOD9081967
_publ_section_title
;
Structure prediction by ZEFSAII (Michael W. Deem and Ramdas Pophale) SiO2 
 PCOD9081967
Probable space group: P -1
;
_chemical_formula_sum "Si O2"
_cell_formula_units_Z 16
_cell_length_a 8.093788
_cell_length_b 9.094077
_cell_length_c 15.935521
_cell_angle_alpha 146.113703
_cell_angle_beta 115.560206
_cell_angle_gamma 66.503455
_cell_volume 588.050107
_symmetry_space_group_name_H-M "P -1"
_symmetry_group_IT_number 2
_symmetry_cell_setting 'triclinic'
loop_
_space_group_symop_operation_xyz
x,y,z
-x,-y,-z
loop_
_atom_site_type_symbol
_atom_site_label
_atom_site_fract_x
_atom_site_fract_y
_atom_site_fract_z
Si Si1 0.382443 0.692471 0.627367
Si Si2 0.247114 0.978680 0.227661
Si Si3 0.392619 0.006396 0.623792
Si Si4 0.776890 0.551257 0.956342
Si Si5 0.120811 0.690738 0.307751
Si Si6 0.419105 0.968508 0.081463
Si Si7 0.023776 0.215791 0.429495
Si Si8 0.800358 0.475243 0.243481
O O1 0.500000 0.500000 0.500000
O O2 0.174383 0.627321 0.549121
O O3 0.368864 0.966351 0.698800
O O4 0.488355 0.748678 0.762426
O O5 0.391301 0.073493 0.374212
O O6 0.284460 0.665002 0.094286
O O7 0.288203 0.031292 0.165542
O O8 0.063418 0.088331 0.285383
O O9 0.346005 0.300035 0.720319
O O10 0.265808 0.811590 0.457852
O O11 0.779954 0.469759 0.821232
O O12 0.613592 0.784238 0.034610
O O13 0.000000 0.500000 0.000000
O O14 0.979402 0.519053 0.244756
O O15 0.023948 0.955551 0.366985
O O16 0.282391 0.808879 0.918186
O O17 0.145959 0.408672 0.600082
#
# Coordination Sequence:
#
# PCOD9081967 Si02
#       8
#     2   2   2   2   2   2   2   2
#     4  11  23  41  60  78 112 162 202 230 276 347
#     4  10  21  31  55  84 124 149 186 224 293 352
#     4  10  19  35  56  86 116 153 185 232 287 346
#     4  11  21  30  52  86 125 151 179 230 299 349
#     4  10  19  32  58  89 122 149 180 229 298 355
#     4  11  23  36  55  89 117 151 188 244 289 331
#     4  10  20  37  58  87 117 156 189 228 287 356
#     4  11  19  34  61  91 121 139 185 247 298 336
#
# _framework density 27.208565
#
# number of rings (size 3 to 8) (size 9 to 14) (size 15 to 20)
#    0.000    1.500    3.750    3.375    5.250    1.500 
#    0.000    3.125    0.000    0.750    0.000    0.000 
#    0.000    0.000    0.000    0.000    0.000    0.000 
#
# Total GULP energy -89203.187883 kJ/mol
# GULP energy per Si atom -5575.199243 kJ/mol
# Density = 2.714664 g / cm^3
# Si number density = 27.208565 Si / 1000 Ang^3
#
#
#
# Elastic Constant Matrix: (Units=GPa)
#
#
# Indices 1 2 3 4 5 6 
#
# 1 65.8752 13.1323 46.1011 -12.1261 -16.9638 -20.1811
# 2 13.1323 71.9263 7.2383 0.6934 -6.8929 -3.3477
# 3 46.1011 7.2383 175.6303 -12.7838 -5.6558 -9.5988
# 4 -12.1261 0.6934 -12.7838 32.0104 2.1898 -5.2440
# 5 -16.9638 -6.8929 -5.6558 2.1898 57.4390 -3.5563
# 6 -20.1811 -3.3477 -9.5988 -5.2440 -3.5563 39.0291
#
#
#
# Elastic Compliance Matrix: (Units=1/GPa)
#
#
# Indices 1 2 3 4 5 6 
#
# 1 0.028255 -0.003247 -0.005432 0.010540 0.007956 0.015137
# 2 -0.003247 0.014553 0.000130 -0.001639 0.000829 -0.000543
# 3 -0.005432 0.000130 0.007073 0.000658 -0.000983 -0.001059
# 4 0.010540 -0.001639 0.000658 0.037125 0.002226 0.010662
# 5 0.007956 0.000829 -0.000983 0.002226 0.020053 0.006069
# 6 0.015137 -0.000543 -0.001059 0.010662 0.006069 0.035127
#
#
# Mechanical properties :
#
#
# Convention : Reuss Voigt Hill
#
# Bulk Modulus (GPa) = 30.50377 49.59725 40.05051
# Shear Modulus (GPa) = 29.37531 42.15970 35.76750
#
# Velocity S-wave (km/s) = 3.28934 3.94064 3.62963
# Velocity P-wave (km/s) = 5.06575 6.24283 5.68484
#
# Compressibility (1/GPa) = 0.03278283
#
# Stress axis : x y z
#
# Youngs Moduli (GPa) = 35.39190 68.71530 141.39039
#
# Poissons Ratio (x) = 0.22311 0.76806
# Poissons Ratio (y) = 0.11491 -0.01841
# Poissons Ratio (z) = 0.19226 -0.00895
#
# Static dielectric constant tensor:
#      x y z
#    x 2.333270 0.016690 0.140940 
#    y 0.016690 2.234950 0.025000 
#    z 0.140940 0.025000 2.157390 
# 
# From -- ./inp_files/559432.got.cif
#   From: 2010.05.17/outbox.cif.g08.bks.cpg/sg2_280_cif.got.tgz:559432.got - 2010.06.03 11:33:40.
