data_PCOD9081832
_publ_section_title
;
Structure prediction by ZEFSAII (Michael W. Deem and Ramdas Pophale) SiO2 
 PCOD9081832
Probable space group: P -1
;
_chemical_formula_sum "Si O2"
_cell_formula_units_Z 14
_cell_length_a 7.213806
_cell_length_b 11.622898
_cell_length_c 14.621174
_cell_angle_alpha 127.659348
_cell_angle_beta 39.735971
_cell_angle_gamma 106.589472
_cell_volume 577.783881
_symmetry_space_group_name_H-M "P -1"
_symmetry_group_IT_number 2
_symmetry_cell_setting 'triclinic'
loop_
_space_group_symop_operation_xyz
x,y,z
-x,-y,-z
loop_
_atom_site_type_symbol
_atom_site_label
_atom_site_fract_x
_atom_site_fract_y
_atom_site_fract_z
Si Si1 0.054200 0.322729 0.631487
Si Si2 0.584667 0.561813 0.171490
Si Si3 0.137725 0.043434 0.175223
Si Si4 0.734391 0.239729 0.273530
Si Si5 0.130042 0.333822 0.042611
Si Si6 0.811907 0.389616 0.493623
Si Si7 0.776742 0.220710 0.845130
O O1 0.377323 0.261080 0.425861
O O2 0.758872 0.343529 0.691158
O O3 0.967425 0.494808 0.791661
O O4 0.038519 0.212003 0.667163
O O5 0.513776 0.564820 0.307062
O O6 0.802181 0.640210 0.076768
O O7 0.676248 0.388391 0.013642
O O8 0.105715 0.912786 0.189418
O O9 0.945548 0.084171 0.172681
O O10 0.012127 0.210782 0.353489
O O11 0.500000 0.000000 0.000000
O O12 0.764882 0.374766 0.396084
O O13 0.875396 0.262450 0.134884
O O14 0.459373 0.230291 0.916678
O O15 0.000000 0.500000 0.500000
#
# Coordination Sequence:
#
# PCOD9081832 Si02
#       7
#     2   2   2   2   2   2   2
#     4   9  18  31  54  83 105 137 177 221 258 310
#     4   9  18  34  58  80 101 139 178 221 260 303
#     4  10  19  32  56  78 105 140 182 210 258 322
#     4  10  20  31  56  83 104 136 183 217 258 311
#     4   9  16  31  53  75 105 138 177 204 254 320
#     4  10  20  33  53  83 107 134 180 220 261 305
#     4   9  16  33  53  78 103 142 176 210 255 326
#
# _framework density 24.230512999999998
#
# number of rings (size 3 to 8) (size 9 to 14) (size 15 to 20)
#    0.857    1.714    1.429    4.714    0.000    0.571 
#    0.000    5.714    0.000    6.000    7.429    0.000 
#    0.000    0.000    0.000    0.000    0.000    0.000 
#
# Total GULP energy -78267.655245 kJ/mol
# GULP energy per Si atom -5590.546803 kJ/mol
# Density = 2.417536 g / cm^3
# Si number density = 24.230513 Si / 1000 Ang^3
#
#
#
# Elastic Constant Matrix: (Units=GPa)
#
#
# Indices 1 2 3 4 5 6 
#
# 1 67.6173 35.5167 23.1013 -6.8216 -10.1260 -12.8142
# 2 35.5167 164.0595 69.8606 -29.9421 -3.8053 -44.3204
# 3 23.1013 69.8606 128.6235 -35.1863 -9.0224 -0.0347
# 4 -6.8216 -29.9421 -35.1863 41.3909 0.1588 -1.5385
# 5 -10.1260 -3.8053 -9.0224 0.1588 39.9309 -4.5750
# 6 -12.8142 -44.3204 -0.0347 -1.5385 -4.5750 36.4218
#
#
#
# Elastic Compliance Matrix: (Units=1/GPa)
#
#
# Indices 1 2 3 4 5 6 
#
# 1 0.017931 -0.001492 -0.001994 0.000352 0.004534 0.005075
# 2 -0.001492 0.015195 -0.006165 0.006185 0.001765 0.018443
# 3 -0.001994 -0.006165 0.013235 0.006169 0.000978 -0.007807
# 4 0.000352 0.006185 0.006169 0.034277 0.003023 0.009483
# 5 0.004534 0.001765 0.000978 0.003023 0.027408 0.007315
# 6 0.005075 0.018443 -0.007807 0.009483 0.007315 0.052996
#
#
# Mechanical properties :
#
#
# Convention : Reuss Voigt Hill
#
# Bulk Modulus (GPa) = 36.95605 68.58416 52.77011
# Shear Modulus (GPa) = 26.40410 39.00350 32.70380
#
# Velocity S-wave (km/s) = 3.30465 4.01644 3.67780
# Velocity P-wave (km/s) = 5.46314 7.06225 6.31353
#
# Compressibility (1/GPa) = 0.02705917
#
# Stress axis : x y z
#
# Youngs Moduli (GPa) = 55.77075 65.80952 75.55599
#
# Poissons Ratio (x) = 0.09819 0.15069
# Poissons Ratio (y) = 0.08321 0.46577
# Poissons Ratio (z) = 0.11123 0.40569
#
# Static dielectric constant tensor:
#      x y z
#    x 2.006350 -0.030390 0.009700 
#    y -0.030390 1.913870 -0.020540 
#    z 0.009700 -0.020540 1.961510 
# 
# From -- ./inp_files/559884.got.cif
#   From: 2010.05.17/outbox.cif.g08.bks.cpg/sg2_280_cif.got.tgz:559884.got - 2010.06.03 11:33:40.
