data_PCOD9081936
_publ_section_title
;
Structure prediction by ZEFSAII (Michael W. Deem and Ramdas Pophale) SiO2 
 PCOD9081936
Probable space group: P -1
;
_chemical_formula_sum "Si O2"
_cell_formula_units_Z 16
_cell_length_a 22.623818
_cell_length_b 9.194779
_cell_length_c 5.303336
_cell_angle_alpha 98.055112
_cell_angle_beta 92.112792
_cell_angle_gamma 40.449841
_cell_volume 704.486422
_symmetry_space_group_name_H-M "P -1"
_symmetry_group_IT_number 2
_symmetry_cell_setting 'triclinic'
loop_
_space_group_symop_operation_xyz
x,y,z
-x,-y,-z
loop_
_atom_site_type_symbol
_atom_site_label
_atom_site_fract_x
_atom_site_fract_y
_atom_site_fract_z
Si Si1 0.308851 0.061466 0.619115
Si Si2 0.986849 0.123449 0.776282
Si Si3 0.294211 0.641296 0.123532
Si Si4 0.177705 0.826386 0.670969
Si Si5 0.357329 0.203335 0.057081
Si Si6 0.404096 0.596988 0.505564
Si Si7 0.191651 0.480709 0.433973
Si Si8 0.491462 0.852510 0.344760
O O1 0.215532 0.277800 0.509173
O O2 0.328169 0.857812 0.647449
O O3 0.402198 0.934012 0.457373
O O4 0.309211 0.173753 0.874138
O O5 0.884618 0.377897 0.763896
O O6 0.071860 0.074370 0.750987
O O7 0.000000 0.000000 0.500000
O O8 0.000000 0.000000 0.000000
O O9 0.224904 0.762283 0.388295
O O10 0.347485 0.387604 0.008165
O O11 0.369675 0.613090 0.227318
O O12 0.234487 0.782228 0.901848
O O13 0.172018 0.657439 0.655385
O O14 0.291944 0.336886 0.319683
O O15 0.456349 0.951438 0.080582
O O16 0.500000 0.500000 0.500000
O O17 0.424946 0.409340 0.620704
O O18 0.500000 0.000000 0.500000
#
# Coordination Sequence:
#
# PCOD9081936 Si02
#       8
#     2   2   2   2   2   2   2   2
#     4  10  21  38  56  83 119 159 201 254 311 374
#     4  10  19  32  57  97 131 154 199 261 309 361
#     4  11  21  40  61  87 125 163 206 257 305 373
#     4  10  20  36  61  91 122 161 203 253 312 361
#     4  10  19  34  58  84 115 155 205 245 307 360
#     4  10  23  43  57  87 122 162 214 258 318 368
#     4   9  19  33  58  87 124 154 197 250 307 364
#     4  10  20  37  55  83 115 152 206 259 311 362
#
# _framework density 22.711582
#
# number of rings (size 3 to 8) (size 9 to 14) (size 15 to 20)
#    0.000    2.000    2.500    2.250    1.750    1.000 
#   11.250    0.000    0.000    1.500    0.000    0.000 
#    0.000    0.000    0.000    0.000    0.000    0.000 
#
# Total GULP energy -89088.751553 kJ/mol
# GULP energy per Si atom -5568.046972 kJ/mol
# Density = 2.265989 g / cm^3
# Si number density = 22.711582 Si / 1000 Ang^3
#
#
#
# Elastic Constant Matrix: (Units=GPa)
#
#
# Indices 1 2 3 4 5 6 
#
# 1 83.8313 55.3815 34.3840 -16.0403 15.1625 -1.9377
# 2 55.3815 136.7697 40.2919 -29.6980 10.4658 -4.9765
# 3 34.3840 40.2919 98.7636 -24.4909 11.8739 -1.1329
# 4 -16.0403 -29.6980 -24.4909 36.7497 -7.2587 10.8166
# 5 15.1625 10.4658 11.8739 -7.2587 40.4899 -3.0742
# 6 -1.9377 -4.9765 -1.1329 10.8166 -3.0742 37.0937
#
#
#
# Elastic Compliance Matrix: (Units=1/GPa)
#
#
# Indices 1 2 3 4 5 6 
#
# 1 0.018017 -0.005993 -0.003301 0.000084 -0.004241 -0.000339
# 2 -0.005993 0.011313 -0.001110 0.006085 0.000695 -0.000546
# 3 -0.003301 -0.001110 0.013624 0.007087 -0.001360 -0.002084
# 4 0.000084 0.006085 0.007087 0.040544 0.002785 -0.010555
# 5 -0.004241 0.000695 -0.001360 0.002785 0.027100 0.001264
# 6 -0.000339 -0.000546 -0.002084 -0.010555 0.001264 0.029987
#
#
# Mechanical properties :
#
#
# Convention : Reuss Voigt Hill
#
# Bulk Modulus (GPa) = 45.15283 64.38660 54.76972
# Shear Modulus (GPa) = 29.62524 35.48713 32.55618
#
# Velocity S-wave (km/s) = 3.61558 3.95715 3.79022
# Velocity P-wave (km/s) = 6.11179 7.02068 6.58194
#
# Compressibility (1/GPa) = 0.02214701
#
# Stress axis : x y z
#
# Youngs Moduli (GPa) = 55.50402 88.39057 73.39913
#
# Poissons Ratio (x) = 0.52970 0.24229
# Poissons Ratio (y) = 0.33262 0.08147
# Poissons Ratio (z) = 0.18322 0.09811
#
# Static dielectric constant tensor:
#      x y z
#    x 1.752540 -0.288860 -0.461940 
#    y -0.288860 1.497510 -0.658550 
#    z -0.461940 -0.658550 1.048480 
# 
# From -- ./inp_files/53771.got.cif
#   From: 2010.05.17/outbox.cif.g08.bks.cpg/sg2_27_cif.got.tgz:53771.got - 2010.06.03 11:33:40.
