data_PCOD9081665
_publ_section_title
;
Structure prediction by ZEFSAII (Michael W. Deem and Ramdas Pophale) SiO2 
 PCOD9081665
Probable space group: P -1
;
_chemical_formula_sum "Si O2"
_cell_formula_units_Z 16
_cell_length_a 17.549275
_cell_length_b 25.877750
_cell_length_c 14.034058
_cell_angle_alpha 25.082673
_cell_angle_beta 21.035027
_cell_angle_gamma 18.082769
_cell_volume 700.275675
_symmetry_space_group_name_H-M "P -1"
_symmetry_group_IT_number 2
_symmetry_cell_setting 'triclinic'
loop_
_space_group_symop_operation_xyz
x,y,z
-x,-y,-z
loop_
_atom_site_type_symbol
_atom_site_label
_atom_site_fract_x
_atom_site_fract_y
_atom_site_fract_z
Si Si1 0.320934 0.387713 0.770383
Si Si2 0.861425 0.156277 0.179739
Si Si3 0.051045 0.411639 0.303196
Si Si4 0.291332 0.061910 0.301438
Si Si5 0.498133 0.095845 0.178627
Si Si6 0.225907 0.610534 0.733055
Si Si7 0.198285 0.428095 0.481538
Si Si8 0.095224 0.185686 0.050279
O O1 0.463924 0.451407 0.540590
O O2 0.244615 0.443044 0.656443
O O3 0.497224 0.206335 0.915923
O O4 0.000000 0.500000 0.000000
O O5 0.539076 0.327807 0.234887
O O6 0.937618 0.190732 0.133941
O O7 0.814632 0.029133 0.453577
O O8 0.161659 0.056032 0.936039
O O9 0.262842 0.228053 0.312717
O O10 0.948876 0.433607 0.493959
O O11 0.230909 0.467543 0.993116
O O12 0.388351 0.026136 0.358984
O O13 0.026606 0.259183 0.264887
O O14 0.576543 0.998260 0.018030
O O15 0.107786 0.737678 0.749328
O O16 0.000000 0.500000 0.500000
O O17 0.177430 0.295780 0.760604
#
# Coordination Sequence:
#
# PCOD9081665 Si02
#       8
#     2   2   2   2   2   2   2   2
#     4  10  20  32  49  79 117 159 187 215 271 336
#     4  10  20  38  58  80 116 154 185 237 284 337
#     4  10  22  37  55  85 120 149 195 238 277 339
#     4  10  19  32  53  82 119 158 185 226 276 339
#     4  10  20  35  53  84 120 156 185 223 281 347
#     4  11  19  32  53  81 120 159 194 227 272 332
#     4  10  22  42  64  84 107 144 195 250 295 335
#     4   9  21  35  55  87 111 147 195 234 288 344
#
# _framework density 22.848144999999999
#
# number of rings (size 3 to 8) (size 9 to 14) (size 15 to 20)
#    0.000    2.000    2.500    1.125    0.000    5.000 
#    0.000    0.625    0.000    6.750    0.000    0.000 
#    0.000    0.000    0.000    0.000    0.000    0.000 
#
# Total GULP energy -89270.324013 kJ/mol
# GULP energy per Si atom -5579.395251 kJ/mol
# Density = 2.279614 g / cm^3
# Si number density = 22.848145 Si / 1000 Ang^3
#
#
#
# Elastic Constant Matrix: (Units=GPa)
#
#
# Indices 1 2 3 4 5 6 
#
# 1 108.8103 38.3871 21.4006 30.3971 -14.5650 13.1143
# 2 38.3871 76.6968 31.7323 33.0445 -5.0287 7.5574
# 3 21.4006 31.7323 61.4841 28.1990 -30.2077 -6.3693
# 4 30.3971 33.0445 28.1990 39.0732 -2.6444 -13.3573
# 5 -14.5650 -5.0287 -30.2077 -2.6444 34.5894 -1.6319
# 6 13.1143 7.5574 -6.3693 -13.3573 -1.6319 37.7621
#
#
#
# Elastic Compliance Matrix: (Units=1/GPa)
#
#
# Indices 1 2 3 4 5 6 
#
# 1 0.017408 -0.001007 0.011645 -0.024103 0.014956 -0.011759
# 2 -0.001007 0.027357 -0.008209 -0.021779 -0.005963 -0.014472
# 3 0.011645 -0.008209 0.065996 -0.047808 0.057422 -0.005699
# 4 -0.024103 -0.021779 -0.047808 0.108252 -0.044856 0.041018
# 5 0.014956 -0.005963 0.057422 -0.044856 0.080744 -0.006692
# 6 -0.011759 -0.014472 -0.005699 0.041018 -0.006692 0.046720
#
#
# Mechanical properties :
#
#
# Convention : Reuss Voigt Hill
#
# Bulk Modulus (GPa) = 8.64908 47.78125 28.21517
# Shear Modulus (GPa) = 13.15243 32.64970 22.90107
#
# Velocity S-wave (km/s) = 2.40186 3.78430 3.16937
# Velocity P-wave (km/s) = 3.38904 6.32870 5.07632
#
# Compressibility (1/GPa) = 0.11561918
#
# Stress axis : x y z
#
# Youngs Moduli (GPa) = 57.44583 36.55377 15.15248
#
# Poissons Ratio (x) = 0.03679 -0.17645
# Poissons Ratio (y) = 0.05782 0.12438
# Poissons Ratio (z) = -0.66894 0.30006
#
# Static dielectric constant tensor:
#      x y z
#    x 1.950680 0.031570 0.031620 
#    y 0.031570 1.920640 0.018600 
#    z 0.031620 0.018600 1.888360 
# 
# From -- ./inp_files/93978.got.cif
#   From: 2010.05.17/outbox.cif.g08.bks.cpg/sg2_47_cif.got.tgz:93978.got - 2010.06.03 11:33:40.
