data_PCOD9081471
_publ_section_title
;
Structure prediction by ZEFSAII (Michael W. Deem and Ramdas Pophale) SiO2 
 PCOD9081471
Probable space group: P -1
;
_chemical_formula_sum "Si O2"
_cell_formula_units_Z 16
_cell_length_a 9.209801
_cell_length_b 10.843902
_cell_length_c 11.588223
_cell_angle_alpha 131.755481
_cell_angle_beta 116.223176
_cell_angle_gamma 72.122827
_cell_volume 774.355639
_symmetry_space_group_name_H-M "P -1"
_symmetry_group_IT_number 2
_symmetry_cell_setting 'triclinic'
loop_
_space_group_symop_operation_xyz
x,y,z
-x,-y,-z
loop_
_atom_site_type_symbol
_atom_site_label
_atom_site_fract_x
_atom_site_fract_y
_atom_site_fract_z
Si Si1 0.431790 0.089798 0.231375
Si Si2 0.268502 0.074325 0.841828
Si Si3 0.160510 0.845549 0.038812
Si Si4 0.135461 0.580424 0.178886
Si Si5 0.623841 0.892459 0.339424
Si Si6 0.084080 0.961111 0.337162
Si Si7 0.389851 0.615611 0.110868
Si Si8 0.175503 0.290774 0.170040
O O1 0.329411 0.256830 0.283982
O O2 0.580627 0.054012 0.173775
O O3 0.294038 0.948427 0.081285
O O4 0.520000 0.054505 0.362592
O O5 0.323142 0.177103 0.811886
O O6 0.103726 0.986877 0.690197
O O7 0.224601 0.188733 0.006113
O O8 0.123280 0.945784 0.205867
O O9 0.247733 0.681822 0.017584
O O10 0.988822 0.793788 0.893976
O O11 0.101251 0.777228 0.285349
O O12 0.305793 0.551043 0.155212
O O13 0.139874 0.478017 0.234962
O O14 0.000000 0.500000 0.000000
O O15 0.498992 0.771793 0.277840
O O16 0.782796 0.928773 0.488241
O O17 0.500000 0.500000 0.000000
#
# Coordination Sequence:
#
# PCOD9081471 Si02
#       8
#     2   2   2   2   2   2   2   2
#     4   9  20  31  49  79 100 136 173 207 252 300
#     4   9  18  31  53  76  99 129 172 213 250 295
#     4   9  19  31  51  76 100 138 167 212 252 297
#     4  11  20  31  52  77 102 137 165 213 260 298
#     4   9  20  33  53  77 102 134 175 211 250 298
#     4  10  19  35  54  76 104 134 174 207 260 301
#     4  10  19  32  49  76 105 126 168 213 256 296
#     4  11  18  34  50  73 109 135 169 209 253 305
#
# _framework density 20.662341000000001
#
# number of rings (size 3 to 8) (size 9 to 14) (size 15 to 20)
#    0.750    1.500    3.750    1.875    0.000    4.500 
#    0.000    0.625    0.000    0.000    0.000    0.875 
#    0.000    0.375    0.000    0.000    0.000    0.000 
#
# Total GULP energy -89128.098532 kJ/mol
# GULP energy per Si atom -5570.506158 kJ/mol
# Density = 2.061531 g / cm^3
# Si number density = 20.662341 Si / 1000 Ang^3
#
#
#
# Elastic Constant Matrix: (Units=GPa)
#
#
# Indices 1 2 3 4 5 6 
#
# 1 110.1508 20.2254 16.1499 -9.8175 27.5800 -15.1437
# 2 20.2254 63.3986 12.7669 -7.0261 17.7828 -6.9465
# 3 16.1499 12.7669 34.6683 -11.1780 15.3671 -4.0096
# 4 -9.8175 -7.0261 -11.1780 12.0940 -4.9017 5.8455
# 5 27.5800 17.7828 15.3671 -4.9017 30.2573 -4.8235
# 6 -15.1437 -6.9465 -4.0096 5.8455 -4.8235 28.6455
#
#
#
# Elastic Compliance Matrix: (Units=1/GPa)
#
#
# Indices 1 2 3 4 5 6 
#
# 1 0.012555 -0.000335 0.000773 0.004626 -0.010254 0.003994
# 2 -0.000335 0.019540 -0.000757 0.005675 -0.009607 0.001680
# 3 0.000773 -0.000757 0.050150 0.040614 -0.019849 -0.004386
# 4 0.004626 0.005675 0.040614 0.132598 -0.009757 -0.019195
# 5 -0.010254 -0.009607 -0.019849 -0.009757 0.056705 0.001010
# 6 0.003994 0.001680 -0.004386 -0.019195 0.001010 0.040902
#
#
# Mechanical properties :
#
#
# Convention : Reuss Voigt Hill
#
# Bulk Modulus (GPa) = 12.25376 34.05578 23.15477
# Shear Modulus (GPa) = 14.69334 24.80440 19.74887
#
# Velocity S-wave (km/s) = 2.66957 3.46853 3.09494
# Velocity P-wave (km/s) = 3.93008 5.70603 4.89920
#
# Compressibility (1/GPa) = 0.08160761
#
# Stress axis : x y z
#
# Youngs Moduli (GPa) = 79.64654 51.17646 19.94029
#
# Poissons Ratio (x) = 0.01712 -0.01542
# Poissons Ratio (y) = 0.02665 0.01510
# Poissons Ratio (z) = -0.06158 0.03876
#
# Static dielectric constant tensor:
#      x y z
#    x 1.806040 -0.005550 -0.011960 
#    y -0.005550 1.807110 -0.003020 
#    z -0.011960 -0.003020 1.747050 
# 
# From -- ./inp_files/423615.got.cif
#   From: 2010.05.17/outbox.cif.g08.bks.cpg/sg2_212_cif.got.tgz:423615.got - 2010.06.03 11:33:40.
