data_PCOD9081107
_publ_section_title
;
Structure prediction by ZEFSAII (Michael W. Deem and Ramdas Pophale) SiO2 
 PCOD9081107
Probable space group: P -1
;
_chemical_formula_sum "Si O2"
_cell_formula_units_Z 16
_cell_length_a 15.291254
_cell_length_b 8.220998
_cell_length_c 13.004352
_cell_angle_alpha 124.803104
_cell_angle_beta 130.866416
_cell_angle_gamma 35.076439
_cell_volume 708.101195
_symmetry_space_group_name_H-M "P -1"
_symmetry_group_IT_number 2
_symmetry_cell_setting 'triclinic'
loop_
_space_group_symop_operation_xyz
x,y,z
-x,-y,-z
loop_
_atom_site_type_symbol
_atom_site_label
_atom_site_fract_x
_atom_site_fract_y
_atom_site_fract_z
Si Si1 0.590291 0.011128 0.167195
Si Si2 0.497048 0.768835 0.421431
Si Si3 0.761622 0.830708 0.917518
Si Si4 0.657409 0.546887 0.680097
Si Si5 0.835153 0.061716 0.776529
Si Si6 0.628617 0.332025 0.202054
Si Si7 0.053559 0.652472 0.956213
Si Si8 0.608996 0.586898 0.094511
O O1 0.465133 0.261838 0.246247
O O2 0.692814 0.066017 0.218932
O O3 0.683817 0.711056 0.181637
O O4 0.500000 0.000000 0.000000
O O5 0.320944 0.886800 0.303808
O O6 0.500000 0.000000 0.500000
O O7 0.553265 0.637883 0.531101
O O8 0.614247 0.529134 0.339863
O O9 0.752261 0.640251 0.775044
O O10 0.886642 0.829515 0.960445
O O11 0.573376 0.133758 0.896266
O O12 0.833718 0.658616 0.019558
O O13 0.787741 0.212207 0.683453
O O14 0.989061 0.746512 0.824025
O O15 0.857942 0.245589 0.918783
O O16 0.703160 0.331144 0.154741
O O17 0.451483 0.458257 0.069138
#
# Coordination Sequence:
#
# PCOD9081107 Si02
#       8
#     2   2   2   2   2   2   2   2
#     4   9  17  30  48  71 106 141 165 203 255 318
#     4  12  22  32  50  77 113 143 166 208 270 329
#     4   9  17  32  52  75 101 130 169 225 262 301
#     4  10  19  31  49  76 111 132 166 209 266 329
#     4  10  19  31  47  74 104 134 171 216 251 310
#     4  10  19  31  49  74 108 143 169 205 269 324
#     4   9  18  31  50  73 100 132 179 217 261 292
#     4   9  18  32  50  76 105 133 176 219 258 320
#
# _framework density 22.59564
#
# number of rings (size 3 to 8) (size 9 to 14) (size 15 to 20)
#    0.000    2.250    1.250    3.375    0.000    0.000 
#    0.000    0.000    0.000    0.000    0.000   15.750 
#    0.000    0.000    0.000    0.000    0.000    0.000 
#
# Total GULP energy -89097.170391 kJ/mol
# GULP energy per Si atom -5568.573149 kJ/mol
# Density = 2.254421 g / cm^3
# Si number density = 22.595640 Si / 1000 Ang^3
#
#
#
# Elastic Constant Matrix: (Units=GPa)
#
#
# Indices 1 2 3 4 5 6 
#
# 1 87.4682 53.4416 38.9401 10.1099 8.6831 18.2600
# 2 53.4416 79.9463 20.9910 -7.0742 5.2083 27.9661
# 3 38.9401 20.9910 90.4842 7.8928 3.1907 9.2733
# 4 10.1099 -7.0742 7.8928 42.0219 10.7324 5.5015
# 5 8.6831 5.2083 3.1907 10.7324 44.1078 6.8299
# 6 18.2600 27.9661 9.2733 5.5015 6.8299 49.7139
#
#
#
# Elastic Compliance Matrix: (Units=1/GPa)
#
#
# Indices 1 2 3 4 5 6 
#
# 1 0.024675 -0.016180 -0.006402 -0.007490 -0.001002 0.002200
# 2 -0.016180 0.027884 0.000760 0.010107 -0.000938 -0.010874
# 3 -0.006402 0.000760 0.013759 -0.000965 0.000504 -0.000605
# 4 -0.007490 0.010107 -0.000965 0.029715 -0.006073 -0.005209
# 5 -0.001002 -0.000938 0.000504 -0.006073 0.024719 -0.001922
# 6 0.002200 -0.010874 -0.000605 -0.005209 -0.001922 0.026378
#
#
# Mechanical properties :
#
#
# Convention : Reuss Voigt Hill
#
# Bulk Modulus (GPa) = 44.10343 53.84935 48.97639
# Shear Modulus (GPa) = 25.21039 36.80380 31.00710
#
# Velocity S-wave (km/s) = 3.34386 4.04022 3.70842
# Velocity P-wave (km/s) = 5.87107 6.75633 6.32920
#
# Compressibility (1/GPa) = 0.02267397
#
# Stress axis : x y z
#
# Youngs Moduli (GPa) = 40.52729 35.86256 72.68051
#
# Poissons Ratio (x) = 0.58027 0.46530
# Poissons Ratio (y) = 0.65574 -0.05527
# Poissons Ratio (z) = 0.25946 -0.02727
#
# Static dielectric constant tensor:
#      x y z
#    x 1.977500 0.036300 -0.010220 
#    y 0.036300 1.941670 0.019450 
#    z -0.010220 0.019450 1.823290 
# 
# From -- ./inp_files/401221.got.cif
#   From: 2010.05.17/outbox.cif.g08.bks.cpg/sg2_201_cif.got.tgz:401221.got - 2010.06.03 11:33:40.
