data_PCOD9081488
_publ_section_title
;
Structure prediction by ZEFSAII (Michael W. Deem and Ramdas Pophale) SiO2 
 PCOD9081488
Probable space group: P -1
;
_chemical_formula_sum "Si O2"
_cell_formula_units_Z 16
_cell_length_a 9.837849
_cell_length_b 9.585958
_cell_length_c 11.347430
_cell_angle_alpha 87.936703
_cell_angle_beta 62.389625
_cell_angle_gamma 123.006202
_cell_volume 732.859528
_symmetry_space_group_name_H-M "P -1"
_symmetry_group_IT_number 2
_symmetry_cell_setting 'triclinic'
loop_
_space_group_symop_operation_xyz
x,y,z
-x,-y,-z
loop_
_atom_site_type_symbol
_atom_site_label
_atom_site_fract_x
_atom_site_fract_y
_atom_site_fract_z
Si Si1 0.072391 0.489226 0.597125
Si Si2 0.217219 0.566558 0.876620
Si Si3 0.766044 0.928408 0.978811
Si Si4 0.348438 0.672949 0.193433
Si Si5 0.214623 0.380305 0.094085
Si Si6 0.247008 0.809857 0.687535
Si Si7 0.617317 0.834673 0.295021
Si Si8 0.842584 0.704485 0.288515
O O1 0.855575 0.367955 0.753484
O O2 0.000000 0.500000 0.500000
O O3 0.212551 0.683466 0.597895
O O4 0.150701 0.378721 0.590531
O O5 0.322172 0.759112 0.768437
O O6 0.198052 0.436244 0.789597
O O7 0.300518 0.536594 0.957354
O O8 0.000000 0.500000 0.000000
O O9 0.757825 0.762233 0.949018
O O10 0.541449 0.851068 0.049036
O O11 0.776302 0.942013 0.117876
O O12 0.944965 0.106250 0.836442
O O13 0.310029 0.491711 0.172589
O O14 0.417213 0.709429 0.301696
O O15 0.979103 0.269552 0.197499
O O16 0.368968 0.022729 0.631715
O O17 0.680600 0.732991 0.341835
#
# Coordination Sequence:
#
# PCOD9081488 Si02
#       8
#     2   2   2   2   2   2   2   2
#     4  10  23  44  58  71 104 149 193 229 268 314
#     4   9  16  25  46  75 111 149 185 190 250 336
#     4  10  18  28  55  82 125 130 172 208 279 323
#     4   9  22  32  54  82 117 141 174 224 271 311
#     4  10  15  30  47  82 118 151 167 204 269 334
#     4   9  18  32  55  75 106 146 185 216 263 334
#     4  10  19  33  55  88 113 138 175 221 271 329
#     4  11  19  33  57  84 105 152 176 215 272 336
#
# _framework density 21.832287999999998
#
# number of rings (size 3 to 8) (size 9 to 14) (size 15 to 20)
#    0.750    1.500    2.500    3.000    0.000    0.500 
#    2.250    1.875    0.000    0.000    0.000    0.000 
#    0.000    0.000    0.000    0.000    0.000    0.000 
#
# Total GULP energy -89177.504623 kJ/mol
# GULP energy per Si atom -5573.594039 kJ/mol
# Density = 2.178260 g / cm^3
# Si number density = 21.832288 Si / 1000 Ang^3
#
#
#
# Elastic Constant Matrix: (Units=GPa)
#
#
# Indices 1 2 3 4 5 6 
#
# 1 88.1711 67.0821 20.2100 -14.4752 11.3805 1.9458
# 2 67.0821 124.4268 22.7354 9.5276 17.1334 -13.7944
# 3 20.2100 22.7354 41.6219 1.6399 19.4678 -2.9510
# 4 -14.4752 9.5276 1.6399 24.8048 5.1074 1.1667
# 5 11.3805 17.1334 19.4678 5.1074 30.1192 -5.0655
# 6 1.9458 -13.7944 -2.9510 1.1667 -5.0655 38.2024
#
#
#
# Elastic Compliance Matrix: (Units=1/GPa)
#
#
# Indices 1 2 3 4 5 6 
#
# 1 0.032810 -0.019485 -0.004955 0.028426 -0.004711 -0.010582
# 2 -0.019485 0.021177 -0.001131 -0.020076 0.001015 0.009299
# 3 -0.004955 -0.001131 0.037057 -0.000502 -0.021370 -0.000112
# 4 0.028426 -0.020076 -0.000502 0.067828 -0.012597 -0.012478
# 5 -0.004711 0.001015 -0.021370 -0.012597 0.051388 0.006154
# 6 -0.010582 0.009299 -0.000112 -0.012478 0.006154 0.031262
#
#
# Mechanical properties :
#
#
# Convention : Reuss Voigt Hill
#
# Bulk Modulus (GPa) = 25.06128 52.69721 38.87925
# Shear Modulus (GPa) = 16.34185 28.23811 22.28998
#
# Velocity S-wave (km/s) = 2.73887 3.60030 3.19872
# Velocity P-wave (km/s) = 4.63744 6.43992 5.61152
#
# Compressibility (1/GPa) = 0.03990219
#
# Stress axis : x y z
#
# Youngs Moduli (GPa) = 30.47867 47.22190 26.98555
#
# Poissons Ratio (x) = 0.92010 0.13371
# Poissons Ratio (y) = 0.59386 0.03052
# Poissons Ratio (z) = 0.15102 0.05341
#
# Static dielectric constant tensor:
#      x y z
#    x 1.823620 0.012220 -0.035890 
#    y 0.012220 1.772250 -0.009480 
#    z -0.035890 -0.009480 1.911580 
# 
# From -- ./inp_files/283729.got.cif
#   From: 2010.05.17/outbox.cif.g08.bks.cpg/sg2_142_cif.got.tgz:283729.got - 2010.06.03 11:33:40.
