data_PCOD9081791
_publ_section_title
;
Structure prediction by ZEFSAII (Michael W. Deem and Ramdas Pophale) SiO2 
 PCOD9081791
Probable space group: P -1
;
_chemical_formula_sum "Si O2"
_cell_formula_units_Z 16
_cell_length_a 7.712284
_cell_length_b 17.635618
_cell_length_c 9.539175
_cell_angle_alpha 120.563590
_cell_angle_beta 102.348041
_cell_angle_gamma 125.744399
_cell_volume 618.699552
_symmetry_space_group_name_H-M "P -1"
_symmetry_group_IT_number 2
_symmetry_cell_setting 'triclinic'
loop_
_space_group_symop_operation_xyz
x,y,z
-x,-y,-z
loop_
_atom_site_type_symbol
_atom_site_label
_atom_site_fract_x
_atom_site_fract_y
_atom_site_fract_z
Si Si1 0.330975 0.851866 0.460884
Si Si2 0.261401 0.037804 0.128964
Si Si3 0.407331 0.672317 0.918138
Si Si4 0.339372 0.641431 0.566679
Si Si5 0.804725 0.507405 0.031055
Si Si6 0.522866 0.472828 0.677431
Si Si7 0.982973 0.252322 0.204857
Si Si8 0.454162 0.087720 0.760485
O O1 0.655941 0.955675 0.689592
O O2 0.365990 0.853909 0.301515
O O3 0.069044 0.677984 0.295732
O O4 0.243479 0.914616 0.555038
O O5 0.566552 0.219133 0.309402
O O6 0.000000 0.000000 0.000000
O O7 0.150515 0.898628 0.921130
O O8 0.485761 0.680829 0.781786
O O9 0.417741 0.610428 0.990872
O O10 0.027437 0.529505 0.689842
O O11 0.619737 0.840178 0.168833
O O12 0.500177 0.636258 0.490230
O O13 0.633201 0.495250 0.872311
O O14 0.000000 0.500000 0.000000
O O15 0.183666 0.371763 0.481421
O O16 0.778958 0.630110 0.775645
O O17 0.673682 0.169698 0.011497
#
# Coordination Sequence:
#
# PCOD9081791 Si02
#       8
#     2   2   2   2   2   2   2   2
#     4  10  19  32  55  84 113 140 194 235 278 323
#     4  11  21  34  56  87 112 147 192 236 276 338
#     4  11  22  35  58  84 120 148 186 236 283 338
#     4  11  21  37  54  88 115 150 188 231 289 337
#     4  12  18  34  58  87 110 146 196 239 269 331
#     4  11  20  35  59  88 112 145 195 233 282 335
#     4  10  20  33  56  87 114 142 187 245 277 327
#     4  10  19  35  53  85 115 147 181 235 289 329
#
# _framework density 25.860690999999999
#
# number of rings (size 3 to 8) (size 9 to 14) (size 15 to 20)
#    0.000    1.250    7.500    0.000    0.000    0.000 
#    0.000    3.750    0.000    6.000    3.250    0.000 
#    0.000    0.000    0.000    0.000    0.000    0.000 
#
# Total GULP energy -89200.151851 kJ/mol
# GULP energy per Si atom -5575.009491 kJ/mol
# Density = 2.580183 g / cm^3
# Si number density = 25.860691 Si / 1000 Ang^3
#
#
#
# Elastic Constant Matrix: (Units=GPa)
#
#
# Indices 1 2 3 4 5 6 
#
# 1 35.8289 31.7592 35.4803 -2.5671 -3.5653 -13.4592
# 2 31.7592 119.9723 45.5558 -1.7318 -14.9766 -37.3759
# 3 35.4803 45.5558 137.6189 -13.8877 -12.3189 -7.6595
# 4 -2.5671 -1.7318 -13.8877 64.4948 -14.8514 -9.5187
# 5 -3.5653 -14.9766 -12.3189 -14.8514 30.9527 2.1823
# 6 -13.4592 -37.3759 -7.6595 -9.5187 2.1823 26.3313
#
#
#
# Elastic Compliance Matrix: (Units=1/GPa)
#
#
# Indices 1 2 3 4 5 6 
#
# 1 0.047387 -0.003378 -0.009949 0.002135 -0.000333 0.017333
# 2 -0.003378 0.020003 -0.002827 0.005902 0.009077 0.027226
# 3 -0.009949 -0.002827 0.010912 0.001766 0.003067 -0.005540
# 4 0.002135 0.005902 0.001766 0.021585 0.012983 0.016709
# 5 -0.000333 0.009077 0.003067 0.012983 0.043072 0.014729
# 6 0.017333 0.027226 -0.005540 0.016709 0.014729 0.088691
#
#
# Mechanical properties :
#
#
# Convention : Reuss Voigt Hill
#
# Bulk Modulus (GPa) = 21.74173 57.66785 39.70479
# Shear Modulus (GPa) = 17.90259 36.39742 27.15001
#
# Velocity S-wave (km/s) = 2.63396 3.75566 3.24366
# Velocity P-wave (km/s) = 4.20426 6.41517 5.42357
#
# Compressibility (1/GPa) = 0.04599451
#
# Stress axis : x y z
#
# Youngs Moduli (GPa) = 21.10269 49.99210 91.64422
#
# Poissons Ratio (x) = 0.16886 0.91175
# Poissons Ratio (y) = 0.07128 0.25911
# Poissons Ratio (z) = 0.20995 0.14135
#
# Static dielectric constant tensor:
#      x y z
#    x 2.176440 0.005380 0.069670 
#    y 0.005380 2.139130 -0.010570 
#    z 0.069670 -0.010570 1.996070 
# 
# From -- ./inp_files/278041.got.cif
#   From: 2010.05.17/outbox.cif.g08.bks.cpg/sg2_140_cif.got.tgz:278041.got - 2010.06.03 11:33:40.
