data_PCOD9081923
_publ_section_title
;
Structure prediction by ZEFSAII (Michael W. Deem and Ramdas Pophale) SiO2 
 PCOD9081923
Probable space group: P -1
;
_chemical_formula_sum "Si O2"
_cell_formula_units_Z 16
_cell_length_a 9.412812
_cell_length_b 17.627263
_cell_length_c 11.969971
_cell_angle_alpha 59.262266
_cell_angle_beta 41.306332
_cell_angle_gamma 85.317719
_cell_volume 953.522841
_symmetry_space_group_name_H-M "P -1"
_symmetry_group_IT_number 2
_symmetry_cell_setting 'triclinic'
loop_
_space_group_symop_operation_xyz
x,y,z
-x,-y,-z
loop_
_atom_site_type_symbol
_atom_site_label
_atom_site_fract_x
_atom_site_fract_y
_atom_site_fract_z
Si Si1 0.049492 0.941901 0.762144
Si Si2 0.725209 0.925506 0.273048
Si Si3 0.801147 0.077331 0.759681
Si Si4 0.799910 0.146280 0.463607
Si Si5 0.885618 0.767892 0.352376
Si Si6 0.977225 0.639115 0.952066
Si Si7 0.159626 0.269029 0.831195
Si Si8 0.418002 0.592957 0.690084
O O1 0.138372 0.915936 0.615910
O O2 0.918812 0.006673 0.765790
O O3 0.869185 0.830657 0.014064
O O4 0.273522 0.013982 0.663055
O O5 0.498636 0.897557 0.344567
O O6 0.727920 0.824481 0.384363
O O7 0.000000 0.000000 0.000000
O O8 0.865173 0.128771 0.561322
O O9 0.913724 0.167786 0.719194
O O10 0.500000 0.000000 0.000000
O O11 0.949983 0.266496 0.246407
O O12 0.002063 0.772241 0.157906
O O13 0.659406 0.647408 0.591046
O O14 0.206875 0.618624 0.830220
O O15 0.932925 0.676537 0.069684
O O16 0.726726 0.530493 0.146448
O O17 0.440004 0.349548 0.554033
#
# Coordination Sequence:
#
# PCOD9081923 Si02
#       8
#     2   2   2   2   2   2   2   2
#     4  10  21  34  53  78 108 141 176 228 267 314
#     4  11  17  32  54  75 105 141 178 216 274 314
#     4  11  24  35  53  73 111 150 182 209 273 323
#     4  11  21  35  51  82 106 139 186 221 263 326
#     4   9  19  34  52  76 108 141 175 222 260 325
#     4  10  19  32  57  89 100 141 170 236 269 315
#     4   9  18  33  57  80 110 131 182 217 271 316
#     4   9  18  34  56  81 114 129 179 221 283 309
#
# _framework density 16.779881
#
# number of rings (size 3 to 8) (size 9 to 14) (size 15 to 20)
#    0.750    1.250    2.500    2.625    1.750    0.000 
#    0.000    1.875    0.000    0.000    0.000    3.500 
#    0.000    0.000    0.000    0.000    0.000    0.000 
#
# Total GULP energy -89068.265234 kJ/mol
# GULP energy per Si atom -5566.766577 kJ/mol
# Density = 1.674169 g / cm^3
# Si number density = 16.779881 Si / 1000 Ang^3
#
#
#
# Elastic Constant Matrix: (Units=GPa)
#
#
# Indices 1 2 3 4 5 6 
#
# 1 85.7938 45.3534 37.7729 -1.8007 3.1974 25.1907
# 2 45.3534 122.5789 50.7086 -1.4300 9.1404 23.0748
# 3 37.7729 50.7086 87.4011 -2.1802 2.1739 20.0026
# 4 -1.8007 -1.4300 -2.1802 26.9472 3.3459 -4.1163
# 5 3.1974 9.1404 2.1739 3.3459 18.1634 0.7650
# 6 25.1907 23.0748 20.0026 -4.1163 0.7650 27.2984
#
#
#
# Elastic Compliance Matrix: (Units=1/GPa)
#
#
# Indices 1 2 3 4 5 6 
#
# 1 0.018277 -0.003086 -0.003395 -0.000963 -0.000580 -0.011899
# 2 -0.003086 0.012418 -0.004841 0.000075 -0.004974 -0.003951
# 3 -0.003395 -0.004841 0.016871 -0.000065 0.001245 -0.005182
# 4 -0.000963 0.000075 -0.000065 0.039019 -0.007342 0.006962
# 5 -0.000580 -0.004974 0.001245 -0.007342 0.058819 0.001072
# 6 -0.011899 -0.003951 -0.005182 0.006962 0.001072 0.055768
#
#
# Mechanical properties :
#
#
# Convention : Reuss Voigt Hill
#
# Bulk Modulus (GPa) = 40.12620 62.60484 51.36552
# Shear Modulus (GPa) = 21.54021 25.27771 23.40896
#
# Velocity S-wave (km/s) = 3.58675 3.88549 3.73910
# Velocity P-wave (km/s) = 6.41235 7.58418 7.02275
#
# Compressibility (1/GPa) = 0.02492137
#
# Stress axis : x y z
#
# Youngs Moduli (GPa) = 54.71352 80.52784 59.27408
#
# Poissons Ratio (x) = 0.24852 0.20123
# Poissons Ratio (y) = 0.16885 0.28696
# Poissons Ratio (z) = 0.18575 0.38985
#
# Static dielectric constant tensor:
#      x y z
#    x 1.554640 0.022130 -0.004820 
#    y 0.022130 1.597760 -0.003420 
#    z -0.004820 -0.003420 1.600740 
# 
# From -- ./inp_files/400488.got.cif
#   From: 2010.05.17/outbox.cif.g08.bks.cpg/sg2_201_cif.got.tgz:400488.got - 2010.06.03 11:33:40.
