data_PCOD9081136
_publ_section_title
;
Structure prediction by ZEFSAII (Michael W. Deem and Ramdas Pophale) SiO2 
 PCOD9081136
Probable space group: P -1
;
_chemical_formula_sum "Si O2"
_cell_formula_units_Z 15
_cell_length_a 5.316409
_cell_length_b 16.378381
_cell_length_c 21.872993
_cell_angle_alpha 158.004392
_cell_angle_beta 120.547766
_cell_angle_gamma 66.513001
_cell_volume 598.507437
_symmetry_space_group_name_H-M "P -1"
_symmetry_group_IT_number 2
_symmetry_cell_setting 'triclinic'
loop_
_space_group_symop_operation_xyz
x,y,z
-x,-y,-z
loop_
_atom_site_type_symbol
_atom_site_label
_atom_site_fract_x
_atom_site_fract_y
_atom_site_fract_z
Si Si1 0.752763 0.727335 0.761449
Si Si2 0.543481 0.190655 0.339655
Si Si3 0.308282 0.120119 0.514093
Si Si4 0.414566 0.687770 0.815949
Si Si5 0.705079 0.479136 0.068740
Si Si6 0.204029 0.149308 0.390970
Si Si7 0.000000 0.000000 0.500000
Si Si8 0.662666 0.625766 0.929549
O O1 0.646715 0.459062 0.549647
O O2 0.649228 0.839560 0.766711
O O3 0.595150 0.772818 0.836049
O O4 0.107685 0.768780 0.840697
O O5 0.354485 0.101917 0.314429
O O6 0.845523 0.102269 0.309084
O O7 0.290615 0.037868 0.386067
O O8 0.991173 0.065776 0.470368
O O9 0.491015 0.371360 0.714053
O O10 0.500000 0.000000 0.500000
O O11 0.312576 0.417475 0.603981
O O12 0.603587 0.741640 0.939017
O O13 0.509361 0.352468 0.013309
O O14 0.989934 0.372487 0.016339
O O15 0.500000 0.500000 0.000000
O O16 0.850760 0.735701 0.284467
#
# Coordination Sequence:
#
# PCOD9081136 Si02
#       8
#     2   2   2   2   2   2   1   2
#     4   9  15  24  40  57  86 125 168 205 263 322
#     4   9  16  26  35  57  87 124 165 212 259 326
#     4  10  19  31  49  69  99 138 188 229 267 323
#     4   9  16  26  42  64  87 125 168 215 254 318
#     4  11  22  37  56  79 109 149 186 232 279 322
#     4   9  18  25  39  58  88 124 168 216 264 306
#     4  10  22  36  56  78 108 142 198 224 272 334
#     4  10  20  34  51  75 106 136 185 228 271 324
#
# _framework density 25.062344
#
# number of rings (size 3 to 8) (size 9 to 14) (size 15 to 20)
#    0.000    2.400    1.333    2.000    1.867    6.400 
#    0.000    0.000    0.000    0.000    0.000    0.000 
#    0.000    0.000    0.000   24.000    0.000   63.067 
#
# Total GULP energy -83708.555991 kJ/mol
# GULP energy per Si atom -5580.570399 kJ/mol
# Density = 2.500530 g / cm^3
# Si number density = 25.062344 Si / 1000 Ang^3
#
#
#
# Elastic Constant Matrix: (Units=GPa)
#
#
# Indices 1 2 3 4 5 6 
#
# 1 226.4415 100.8385 57.5962 -54.0924 1.3387 22.1587
# 2 100.8385 162.8064 63.2653 -67.9266 -4.4029 32.4692
# 3 57.5962 63.2653 106.1916 -9.1786 -4.2402 13.6820
# 4 -54.0924 -67.9266 -9.1786 56.2019 1.2219 -7.1395
# 5 1.3387 -4.4029 -4.2402 1.2219 24.9239 -0.3324
# 6 22.1587 32.4692 13.6820 -7.1395 -0.3324 48.2115
#
#
#
# Elastic Compliance Matrix: (Units=1/GPa)
#
#
# Indices 1 2 3 4 5 6 
#
# 1 0.006770 -0.001089 -0.002542 0.004687 -0.001231 -0.000971
# 2 -0.001089 0.021051 -0.009001 0.021901 0.001067 -0.007872
# 3 -0.002542 -0.009001 0.015122 -0.010718 0.001663 0.001363
# 4 0.004687 0.021901 -0.010718 0.046143 -0.000562 -0.007033
# 5 -0.001231 0.001067 0.001663 -0.000562 0.040682 -0.000428
# 6 -0.000971 -0.007872 0.001363 -0.007033 -0.000428 0.025058
#
#
# Mechanical properties :
#
#
# Convention : Reuss Voigt Hill
#
# Bulk Modulus (GPa) = 56.56320 104.31552 80.43936
# Shear Modulus (GPa) = 26.88428 44.11675 35.50052
#
# Velocity S-wave (km/s) = 3.27876 4.20012 3.76771
# Velocity P-wave (km/s) = 6.07879 8.07676 7.14793
#
# Compressibility (1/GPa) = 0.01767934
#
# Stress axis : x y z
#
# Youngs Moduli (GPa) = 147.71583 47.50392 66.12758
#
# Poissons Ratio (x) = 0.05175 0.16808
# Poissons Ratio (y) = 0.16090 0.59520
# Poissons Ratio (z) = 0.37545 0.42757
#
# Static dielectric constant tensor:
#      x y z
#    x 1.375190 -0.084700 -0.123100 
#    y -0.084700 1.955500 0.050450 
#    z -0.123100 0.050450 1.996850 
# 
# From -- ./inp_files/549874.got.cif
#   From: 2010.05.17/outbox.cif.g08.bks.cpg/sg2_275_cif.got.tgz:549874.got - 2010.06.03 11:33:40.
