data_PCOD9081857
_publ_section_title
;
Structure prediction by ZEFSAII (Michael W. Deem and Ramdas Pophale) SiO2 
 PCOD9081857
Probable space group: P -1
;
_chemical_formula_sum "Si O2"
_cell_formula_units_Z 16
_cell_length_a 9.710559
_cell_length_b 9.875056
_cell_length_c 12.041833
_cell_angle_alpha 88.644620
_cell_angle_beta 93.055071
_cell_angle_gamma 148.800914
_cell_volume 596.772642
_symmetry_space_group_name_H-M "P -1"
_symmetry_group_IT_number 2
_symmetry_cell_setting 'triclinic'
loop_
_space_group_symop_operation_xyz
x,y,z
-x,-y,-z
loop_
_atom_site_type_symbol
_atom_site_label
_atom_site_fract_x
_atom_site_fract_y
_atom_site_fract_z
Si Si1 0.485703 0.598503 0.659813
Si Si2 0.884882 0.760816 0.534749
Si Si3 0.158062 0.927996 0.757000
Si Si4 0.611415 0.237868 0.460444
Si Si5 0.593216 0.502397 0.847514
Si Si6 0.661087 0.355274 0.036278
Si Si7 0.927739 0.487659 0.676505
Si Si8 0.747341 0.180547 0.868220
O O1 0.643220 0.607337 0.607960
O O2 0.210134 0.374256 0.585114
O O3 0.585794 0.828562 0.615019
O O4 0.473898 0.540117 0.787427
O O5 0.110484 0.893086 0.623368
O O6 0.000000 0.000000 0.500000
O O7 0.905304 0.772479 0.819158
O O8 0.096866 0.716615 0.770840
O O9 0.414631 0.231627 0.788913
O O10 0.739933 0.405671 0.578361
O O11 0.854531 0.406072 0.386927
O O12 0.500000 0.000000 0.500000
O O13 0.591878 0.439844 0.972774
O O14 0.950192 0.607455 0.097652
O O15 0.440208 0.104277 0.110812
O O16 0.680441 0.252484 0.944035
O O17 0.738412 0.231515 0.743437
#
# Coordination Sequence:
#
# PCOD9081857 Si02
#       8
#     2   2   2   2   2   2   2   2
#     4  10  22  37  55  89 121 165 207 258 317 372
#     4  10  19  32  56  84 120 158 202 257 311 378
#     4  11  22  34  62  92 127 164 200 246 324 372
#     4  11  27  42  61  88 127 174 222 255 301 384
#     4  11  22  38  63  96 129 159 197 263 321 378
#     4  10  21  37  60  99 124 159 205 260 322 377
#     4  11  25  40  61  90 127 174 210 262 306 380
#     4  10  22  37  63  90 130 162 204 260 316 376
#
# _framework density 26.810879
#
# number of rings (size 3 to 8) (size 9 to 14) (size 15 to 20)
#    0.000    1.500    3.750    0.750    8.750    0.000 
#    0.000    0.000    0.000    1.500    0.000    0.000 
#    0.000    0.000    0.000    0.000    0.000    0.000 
#
# Total GULP energy -89350.221226 kJ/mol
# GULP energy per Si atom -5584.388827 kJ/mol
# Density = 2.674986 g / cm^3
# Si number density = 26.810879 Si / 1000 Ang^3
#
#
#
# Elastic Constant Matrix: (Units=GPa)
#
#
# Indices 1 2 3 4 5 6 
#
# 1 117.2681 22.9666 34.2287 -10.9458 33.2013 -8.1713
# 2 22.9666 111.0886 26.9542 -21.0689 6.7206 10.3682
# 3 34.2287 26.9542 148.9399 -31.0425 48.1513 2.6848
# 4 -10.9458 -21.0689 -31.0425 46.6732 -8.2242 -0.6278
# 5 33.2013 6.7206 48.1513 -8.2242 51.5065 -4.7442
# 6 -8.1713 10.3682 2.6848 -0.6278 -4.7442 24.8436
#
#
#
# Elastic Compliance Matrix: (Units=1/GPa)
#
#
# Indices 1 2 3 4 5 6 
#
# 1 0.011046 -0.002093 -0.000028 0.000538 -0.006432 0.003295
# 2 -0.002093 0.010778 -0.000875 0.003893 0.000939 -0.004814
# 3 -0.000028 -0.000875 0.011159 0.005278 -0.009694 -0.002568
# 4 0.000538 0.003893 0.005278 0.026495 -0.001713 -0.001676
# 5 -0.006432 0.000939 -0.009694 -0.001713 0.032664 0.004734
# 6 0.003295 -0.004814 -0.002568 -0.001676 0.004734 0.044484
#
#
# Mechanical properties :
#
#
# Convention : Reuss Voigt Hill
#
# Bulk Modulus (GPa) = 37.04814 60.62172 48.83493
# Shear Modulus (GPa) = 32.97820 44.14780 38.56300
#
# Velocity S-wave (km/s) = 3.51098 4.06228 3.79665
# Velocity P-wave (km/s) = 5.50312 6.68302 6.12157
#
# Compressibility (1/GPa) = 0.02699191
#
# Stress axis : x y z
#
# Youngs Moduli (GPa) = 90.52686 92.78372 89.61274
#
# Poissons Ratio (x) = 0.19423 0.00247
# Poissons Ratio (y) = 0.18951 0.07839
# Poissons Ratio (z) = 0.00249 0.08117
#
# Static dielectric constant tensor:
#      x y z
#    x 2.430010 -0.277430 -0.040640 
#    y -0.277430 2.362820 0.054830 
#    z -0.040640 0.054830 2.166370 
# 
# From -- ./inp_files/428169.got.cif
#   From: 2010.05.17/outbox.cif.g08.bks.cpg/sg2_215_cif.got.tgz:428169.got - 2010.06.03 11:33:40.
