data_PCOD9081225
_publ_section_title
;
Structure prediction by ZEFSAII (Michael W. Deem and Ramdas Pophale) SiO2 
 PCOD9081225
Probable space group: P -1
;
_chemical_formula_sum "Si O2"
_cell_formula_units_Z 16
_cell_length_a 14.724282
_cell_length_b 7.149985
_cell_length_c 10.493305
_cell_angle_alpha 69.164872
_cell_angle_beta 142.827942
_cell_angle_gamma 115.873579
_cell_volume 600.509144
_symmetry_space_group_name_H-M "P -1"
_symmetry_group_IT_number 2
_symmetry_cell_setting 'triclinic'
loop_
_space_group_symop_operation_xyz
x,y,z
-x,-y,-z
loop_
_atom_site_type_symbol
_atom_site_label
_atom_site_fract_x
_atom_site_fract_y
_atom_site_fract_z
Si Si1 0.927291 0.255623 0.883026
Si Si2 0.699879 0.357575 0.782544
Si Si3 0.690721 0.307467 0.433115
Si Si4 0.830111 0.595270 0.320478
Si Si5 0.443880 0.225105 0.960202
Si Si6 0.437465 0.287580 0.346110
Si Si7 0.110908 0.133185 0.908117
Si Si8 0.283445 0.771200 0.894720
O O1 0.846092 0.403973 0.837847
O O2 0.776156 0.162845 0.641652
O O3 0.964426 0.096190 0.066121
O O4 0.058820 0.284365 0.915334
O O5 0.541829 0.201393 0.584677
O O6 0.638867 0.553406 0.705116
O O7 0.750881 0.261427 0.988620
O O8 0.830344 0.496909 0.485127
O O9 0.573504 0.199627 0.215239
O O10 0.578487 0.388513 0.382312
O O11 0.653941 0.625327 0.131171
O O12 0.915024 0.795466 0.281460
O O13 0.833333 0.400934 0.279549
O O14 0.310908 0.011511 0.837567
O O15 0.548546 0.269083 0.939684
O O16 0.294757 0.159833 0.131813
#
# Coordination Sequence:
#
# PCOD9081225 Si02
#       8
#     2   2   2   2   2   2   2   2
#     4  10  25  38  56  81 118 154 202 232 285 349
#     4  10  19  34  54  83 112 144 187 241 284 339
#     4  10  20  37  61  89 113 148 190 243 292 344
#     4  11  20  37  63  83 120 151 189 243 293 342
#     4  10  19  31  57  88 119 146 182 245 296 341
#     4  10  20  33  58  84 113 142 190 239 291 341
#     4  11  22  40  54  84 113 159 196 235 287 344
#     4  10  19  31  51  92 114 146 189 230 294 356
#
# _framework density 26.644057
#
# number of rings (size 3 to 8) (size 9 to 14) (size 15 to 20)
#    0.000    1.750    2.500    3.000    1.750    2.000 
#    0.000    0.000    0.000    0.000    0.000   12.250 
#    0.000    0.000    0.000    0.000    0.000    0.000 
#
# Total GULP energy -89127.628752 kJ/mol
# GULP energy per Si atom -5570.476797 kJ/mol
# Density = 2.658341 g / cm^3
# Si number density = 26.644057 Si / 1000 Ang^3
#
#
#
# Elastic Constant Matrix: (Units=GPa)
#
#
# Indices 1 2 3 4 5 6 
#
# 1 180.3093 12.7000 17.3975 -10.8954 13.5082 -1.6944
# 2 12.7000 52.5380 3.3446 -12.3653 3.6694 -4.8563
# 3 17.3975 3.3446 78.4552 -11.8827 12.1455 1.2160
# 4 -10.8954 -12.3653 -11.8827 27.7877 3.7857 -0.0633
# 5 13.5082 3.6694 12.1455 3.7857 34.7485 -3.3723
# 6 -1.6944 -4.8563 1.2160 -0.0633 -3.3723 45.6921
#
#
#
# Elastic Compliance Matrix: (Units=1/GPa)
#
#
# Indices 1 2 3 4 5 6 
#
# 1 0.005951 -0.000766 -0.000635 0.002025 -0.002232 -0.000006
# 2 -0.000766 0.022048 0.001330 0.010554 -0.003447 0.002040
# 3 -0.000635 0.001330 0.014910 0.007534 -0.005995 -0.000711
# 4 0.002025 0.010554 0.007534 0.045996 -0.009511 0.000358
# 5 -0.002232 -0.003447 -0.005995 -0.009511 0.033351 0.002159
# 6 -0.000006 0.002040 -0.000711 0.000358 0.002159 0.022281
#
#
# Mechanical properties :
#
#
# Convention : Reuss Voigt Hill
#
# Bulk Modulus (GPa) = 23.38186 42.02074 32.70130
# Shear Modulus (GPa) = 31.45973 40.16968 35.81470
#
# Velocity S-wave (km/s) = 3.43992 3.88705 3.67030
# Velocity P-wave (km/s) = 4.95702 5.99591 5.50104
#
# Compressibility (1/GPa) = 0.04276819
#
# Stress axis : x y z
#
# Youngs Moduli (GPa) = 168.04681 45.35642 67.06727
#
# Poissons Ratio (x) = 0.03475 0.04256
# Poissons Ratio (y) = 0.12875 -0.08923
# Poissons Ratio (z) = 0.10665 -0.06035
#
# Static dielectric constant tensor:
#      x y z
#    x 2.104390 0.017960 -0.042810 
#    y 0.017960 2.205320 0.082850 
#    z -0.042810 0.082850 2.140870 
# 
# From -- ./inp_files/444403.got.cif
#   From: 2010.05.17/outbox.cif.g08.bks.cpg/sg2_223_cif.got.tgz:444403.got - 2010.06.03 11:33:40.
