data_PCOD9081059
_publ_section_title
;
Structure prediction by ZEFSAII (Michael W. Deem and Ramdas Pophale) SiO2 
 PCOD9081059
Probable space group: P -1
;
_chemical_formula_sum "Si O2"
_cell_formula_units_Z 16
_cell_length_a 8.981122
_cell_length_b 9.748739
_cell_length_c 11.410344
_cell_angle_alpha 57.479702
_cell_angle_beta 80.865456
_cell_angle_gamma 88.075747
_cell_volume 830.089325
_symmetry_space_group_name_H-M "P -1"
_symmetry_group_IT_number 2
_symmetry_cell_setting 'triclinic'
loop_
_space_group_symop_operation_xyz
x,y,z
-x,-y,-z
loop_
_atom_site_type_symbol
_atom_site_label
_atom_site_fract_x
_atom_site_fract_y
_atom_site_fract_z
Si Si1 0.553192 0.853185 0.139964
Si Si2 0.047025 0.145346 0.261826
Si Si3 0.967466 0.571556 0.707910
Si Si4 0.747053 0.311647 0.764254
Si Si5 0.554808 0.760843 0.431314
Si Si6 0.141080 0.044992 0.044190
Si Si7 0.734081 0.461447 0.447892
Si Si8 0.188724 0.123628 0.488429
O O1 0.435322 0.700006 0.197185
O O2 0.534322 0.881188 0.268704
O O3 0.727770 0.846496 0.088036
O O4 0.500000 0.000000 0.000000
O O5 0.093806 0.128079 0.131440
O O6 0.175858 0.094355 0.363147
O O7 0.903339 0.023510 0.367297
O O8 0.014642 0.328099 0.220228
O O9 0.123563 0.514182 0.665477
O O10 0.838693 0.426794 0.791055
O O11 0.905638 0.713209 0.565408
O O12 0.786599 0.382227 0.599016
O O13 0.796406 0.129142 0.850681
O O14 0.655240 0.623920 0.421728
O O15 0.396371 0.666718 0.526900
O O16 0.649307 0.839234 0.490748
O O17 0.000000 0.000000 0.000000
#
# Coordination Sequence:
#
# PCOD9081059 Si02
#       8
#     2   2   2   2   2   2   2   2
#     4   9  21  37  53  80 117 148 190 234 265 322
#     4   9  20  35  56  82 117 145 183 228 283 339
#     4  10  19  33  55  82 116 144 175 229 299 327
#     4  10  20  35  58  84 110 145 192 234 279 324
#     4  10  19  33  56  87 113 139 192 229 280 335
#     4  11  22  37  62  80 107 157 197 222 268 335
#     4  10  19  30  56  89 115 139 174 247 286 322
#     4   9  18  34  56  81 119 145 172 234 291 334
#
# _framework density 19.275034999999999
#
# number of rings (size 3 to 8) (size 9 to 14) (size 15 to 20)
#    0.750    1.500    1.250    1.875    3.500    0.000 
#    0.000    1.875    8.250    0.000    0.000    0.000 
#    0.000    0.000    0.000    0.000    0.000    0.000 
#
# Total GULP energy -89150.733890 kJ/mol
# GULP energy per Si atom -5571.920868 kJ/mol
# Density = 1.923116 g / cm^3
# Si number density = 19.275035 Si / 1000 Ang^3
#
#
#
# Elastic Constant Matrix: (Units=GPa)
#
#
# Indices 1 2 3 4 5 6 
#
# 1 88.9412 34.8479 21.6230 13.7772 -14.4220 26.4424
# 2 34.8479 79.1488 13.5882 1.8148 -19.9482 24.3092
# 3 21.6230 13.5882 45.0839 9.4651 -6.3539 6.5450
# 4 13.7772 1.8148 9.4651 19.0617 -1.6946 9.6030
# 5 -14.4220 -19.9482 -6.3539 -1.6946 33.9948 -4.4016
# 6 26.4424 24.3092 6.5450 9.6030 -4.4016 32.0314
#
#
#
# Elastic Compliance Matrix: (Units=1/GPa)
#
#
# Indices 1 2 3 4 5 6 
#
# 1 0.017719 -0.003231 -0.004615 -0.005281 0.003305 -0.009195
# 2 -0.003231 0.021156 -0.003598 0.010200 0.009006 -0.014473
# 3 -0.004615 -0.003598 0.027520 -0.012283 0.001077 0.004747
# 4 -0.005281 0.010200 -0.012283 0.072898 0.002179 -0.022426
# 5 0.003305 0.009006 0.001077 0.002179 0.035697 -0.005531
# 6 -0.009195 -0.014473 0.004747 -0.022426 -0.005531 0.054787
#
#
# Mechanical properties :
#
#
# Convention : Reuss Voigt Hill
#
# Bulk Modulus (GPa) = 22.98475 39.25467 31.11971
# Shear Modulus (GPa) = 18.71493 26.55858 22.63675
#
# Velocity S-wave (km/s) = 3.11937 3.71600 3.43068
# Velocity P-wave (km/s) = 4.99244 6.23067 5.64561
#
# Compressibility (1/GPa) = 0.04350710
#
# Stress axis : x y z
#
# Youngs Moduli (GPa) = 56.43695 47.26851 36.33717
#
# Poissons Ratio (x) = 0.15273 0.16770
# Poissons Ratio (y) = 0.18235 0.13073
# Poissons Ratio (z) = 0.26046 0.17006
#
# Static dielectric constant tensor:
#      x y z
#    x 1.726970 0.005780 0.036100 
#    y 0.005780 1.678670 -0.018230 
#    z 0.036100 -0.018230 1.686330 
# 
# From -- ./inp_files/386712.got.cif
#   From: 2010.05.17/outbox.cif.g08.bks.cpg/sg2_194_cif.got.tgz:386712.got - 2010.06.03 11:33:40.
