data_PCOD9081998
_publ_section_title
;
Structure prediction by ZEFSAII (Michael W. Deem and Ramdas Pophale) SiO2 
 PCOD9081998
Probable space group: P -1
;
_chemical_formula_sum "Si O2"
_cell_formula_units_Z 16
_cell_length_a 9.433059
_cell_length_b 11.947440
_cell_length_c 12.420012
_cell_angle_alpha 52.512074
_cell_angle_beta 127.486636
_cell_angle_gamma 95.725861
_cell_volume 795.763079
_symmetry_space_group_name_H-M "P -1"
_symmetry_group_IT_number 2
_symmetry_cell_setting 'triclinic'
loop_
_space_group_symop_operation_xyz
x,y,z
-x,-y,-z
loop_
_atom_site_type_symbol
_atom_site_label
_atom_site_fract_x
_atom_site_fract_y
_atom_site_fract_z
Si Si1 0.598765 0.438163 0.197824
Si Si2 0.612123 0.909342 0.945596
Si Si3 0.296347 0.890705 0.981857
Si Si4 0.893969 0.571071 0.296810
Si Si5 0.079487 0.404299 0.258668
Si Si6 0.731622 0.939799 0.445677
Si Si7 0.775029 0.409075 0.940909
Si Si8 0.054184 0.906555 0.429235
O O1 0.690803 0.553105 0.211390
O O2 0.430617 0.453878 0.195021
O O3 0.780275 0.268695 0.380921
O O4 0.500000 0.500000 0.000000
O O5 0.465321 0.889616 0.978561
O O6 0.486466 0.937753 0.761410
O O7 0.818407 0.755555 0.134751
O O8 0.639477 0.063560 0.901812
O O9 0.262908 0.736474 0.033897
O O10 0.085623 0.035316 0.772288
O O11 0.000000 0.500000 0.500000
O O12 0.015799 0.470517 0.310039
O O13 0.256557 0.232051 0.442569
O O14 0.127091 0.527632 0.141435
O O15 0.910934 0.375678 0.130624
O O16 0.888720 0.932880 0.429290
O O17 0.823457 0.990637 0.558891
#
# Coordination Sequence:
#
# PCOD9081998 Si02
#       8
#     2   2   2   2   2   2   2   2
#     4  12  21  37  63  95 122 160 217 257 300 367
#     4  10  22  35  61  91 125 157 209 259 300 365
#     4  10  20  38  58  91 122 164 202 252 314 363
#     4  12  24  40  63  96 130 159 210 260 307 366
#     4  11  24  42  63  94 130 166 202 262 319 369
#     4  10  19  35  58  91 122 159 202 254 314 356
#     4  11  23  42  65  92 129 166 208 255 318 372
#     4  10  19  32  59  89 120 154 207 260 300 356
#
# _framework density 20.106487000000001
#
# number of rings (size 3 to 8) (size 9 to 14) (size 15 to 20)
#    0.000    1.250    5.000    1.500    5.250    0.000 
#    0.000    5.000    0.000    0.000    0.000    0.000 
#    0.000    0.000    0.000    0.000    0.000    0.000 
#
# Total GULP energy -89193.269961 kJ/mol
# GULP energy per Si atom -5574.579373 kJ/mol
# Density = 2.006072 g / cm^3
# Si number density = 20.106487 Si / 1000 Ang^3
#
#
#
# Elastic Constant Matrix: (Units=GPa)
#
#
# Indices 1 2 3 4 5 6 
#
# 1 36.4335 22.8388 10.5831 6.4323 -2.9656 1.8948
# 2 22.8388 110.9598 33.3073 3.4446 -1.2054 14.6317
# 3 10.5831 33.3073 92.7914 -1.4591 6.1474 -7.2570
# 4 6.4323 3.4446 -1.4591 39.0023 -2.8156 3.8396
# 5 -2.9656 -1.2054 6.1474 -2.8156 17.7192 -1.3802
# 6 1.8948 14.6317 -7.2570 3.8396 -1.3802 24.7793
#
#
#
# Elastic Compliance Matrix: (Units=1/GPa)
#
#
# Indices 1 2 3 4 5 6 
#
# 1 0.033080 -0.006287 -0.001798 -0.004764 0.005106 0.001679
# 2 -0.006287 0.012787 -0.004581 0.000630 0.000848 -0.008462
# 3 -0.001798 -0.004581 0.013451 0.000224 -0.004738 0.006483
# 4 -0.004764 0.000630 0.000224 0.026994 0.003150 -0.003950
# 5 0.005106 0.000848 -0.004738 0.003150 0.059535 0.000549
# 6 0.001679 -0.008462 0.006483 -0.003950 0.000549 0.047765
#
#
# Mechanical properties :
#
#
# Convention : Reuss Voigt Hill
#
# Bulk Modulus (GPa) = 29.42413 41.51593 35.47003
# Shear Modulus (GPa) = 21.71335 27.86386 24.78861
#
# Velocity S-wave (km/s) = 3.28978 3.72669 3.51503
# Velocity P-wave (km/s) = 5.39408 6.26183 5.84408
#
# Compressibility (1/GPa) = 0.03398572
#
# Stress axis : x y z
#
# Youngs Moduli (GPa) = 30.22960 78.20557 74.34595
#
# Poissons Ratio (x) = 0.49169 0.13367
# Poissons Ratio (y) = 0.19006 0.34056
# Poissons Ratio (z) = 0.05435 0.35824
#
# Static dielectric constant tensor:
#      x y z
#    x 1.680810 0.002220 0.002320 
#    y 0.002220 1.751820 -0.022210 
#    z 0.002320 -0.022210 1.723380 
# 
# From -- ./inp_files/244039.got.cif
#   From: 2010.05.17/outbox.cif.g08.bks.cpg/sg2_123_cif.got.tgz:244039.got - 2010.06.03 11:33:40.
