data_PCOD9081914
_publ_section_title
;
Structure prediction by ZEFSAII (Michael W. Deem and Ramdas Pophale) SiO2 
 PCOD9081914
Probable space group: P -1
;
_chemical_formula_sum "Si O2"
_cell_formula_units_Z 14
_cell_length_a 12.357933
_cell_length_b 8.803000
_cell_length_c 9.658821
_cell_angle_alpha 82.637549
_cell_angle_beta 129.233952
_cell_angle_gamma 85.410448
_cell_volume 789.229188
_symmetry_space_group_name_H-M "P -1"
_symmetry_group_IT_number 2
_symmetry_cell_setting 'triclinic'
loop_
_space_group_symop_operation_xyz
x,y,z
-x,-y,-z
loop_
_atom_site_type_symbol
_atom_site_label
_atom_site_fract_x
_atom_site_fract_y
_atom_site_fract_z
Si Si1 0.147789 0.994684 0.539419
Si Si2 0.647567 0.593730 0.972441
Si Si3 0.958507 0.066015 0.112127
Si Si4 0.319131 0.637706 0.710067
Si Si5 0.054841 0.551551 0.394376
Si Si6 0.914568 0.426341 0.053023
Si Si7 0.806508 0.846383 0.175984
O O1 0.211957 0.109853 0.680849
O O2 0.093578 0.035881 0.333547
O O3 0.244996 0.820436 0.646220
O O4 0.000000 0.000000 0.500000
O O5 0.482099 0.618949 0.798208
O O6 0.678870 0.461056 0.134189
O O7 0.759619 0.530973 0.949588
O O8 0.686316 0.754033 0.041983
O O9 0.905779 0.251227 0.034033
O O10 0.832710 0.993694 0.090521
O O11 0.000000 0.000000 0.000000
O O12 0.217470 0.565802 0.533077
O O13 0.000000 0.500000 0.500000
O O14 0.011826 0.432889 0.265712
O O15 0.954638 0.723009 0.274990
O O16 0.000000 0.500000 0.000000
#
# Coordination Sequence:
#
# PCOD9081914 Si02
#       7
#     2   2   2   2   2   2   2
#     4  10  19  32  57  85 109 147 188 233 278 329
#     4  10  22  36  56  90 119 152 183 237 290 333
#     4  11  21  34  58  84 109 143 192 242 278 325
#     4  11  20  35  59  86 125 145 188 237 286 333
#     4  11  18  34  60  86 111 149 193 234 273 335
#     4  11  23  38  61  84 111 150 198 234 281 345
#     4  10  19  33  57  83 114 145 191 230 280 335
#
# _framework density 17.738827000000001
#
# number of rings (size 3 to 8) (size 9 to 14) (size 15 to 20)
#    0.000    1.429    5.714    4.286    0.000    0.571 
#    0.000    0.714    0.000    1.714    0.000    0.000 
#    0.000    0.000    0.000    0.000    0.000    0.000 
#
# Total GULP energy -78009.065024 kJ/mol
# GULP energy per Si atom -5572.076073 kJ/mol
# Density = 1.769845 g / cm^3
# Si number density = 17.738827 Si / 1000 Ang^3
#
#
#
# Elastic Constant Matrix: (Units=GPa)
#
#
# Indices 1 2 3 4 5 6 
#
# 1 107.5173 36.6301 46.5622 10.9360 11.3116 5.0348
# 2 36.6301 106.8224 22.0101 11.8729 3.5312 0.6254
# 3 46.5622 22.0101 62.9640 17.0828 7.8803 -2.4023
# 4 10.9360 11.8729 17.0828 33.6038 0.2503 -4.1999
# 5 11.3116 3.5312 7.8803 0.2503 46.0756 3.9450
# 6 5.0348 0.6254 -2.4023 -4.1999 3.9450 28.3722
#
#
#
# Elastic Compliance Matrix: (Units=1/GPa)
#
#
# Indices 1 2 3 4 5 6 
#
# 1 0.014960 -0.003076 -0.010206 0.001030 -0.001432 -0.003100
# 2 -0.003076 0.010864 -0.000889 -0.002404 0.000099 -0.000139
# 3 -0.010206 -0.000889 0.026723 -0.009560 -0.002200 0.002984
# 4 0.001030 -0.002404 -0.009560 0.035650 0.001013 0.004197
# 5 -0.001432 0.000099 -0.002200 0.001013 0.022670 -0.002937
# 6 -0.003100 -0.000139 0.002984 0.004197 -0.002937 0.037081
#
#
# Mechanical properties :
#
#
# Convention : Reuss Voigt Hill
#
# Bulk Modulus (GPa) = 41.31267 54.18984 47.75126
# Shear Modulus (GPa) = 27.12137 33.08375 30.10256
#
# Velocity S-wave (km/s) = 3.91439 4.32330 4.12392
# Velocity P-wave (km/s) = 6.61588 7.45227 7.04650
#
# Compressibility (1/GPa) = 0.02420565
#
# Stress axis : x y z
#
# Youngs Moduli (GPa) = 66.84648 92.04844 37.42073
#
# Poissons Ratio (x) = 0.28313 0.38192
# Poissons Ratio (y) = 0.20561 0.03325
# Poissons Ratio (z) = 0.68224 0.08179
#
# Static dielectric constant tensor:
#      x y z
#    x 1.578600 0.021260 -0.010100 
#    y 0.021260 1.707780 -0.018140 
#    z -0.010100 -0.018140 1.665190 
# 
# From -- ./inp_files/154586.got.cif
#   From: 2010.05.17/outbox.cif.g08.bks.cpg/sg2_78_cif.got.tgz:154586.got - 2010.06.03 11:33:40.
