data_PCOD9081044
_publ_section_title
;
Structure prediction by ZEFSAII (Michael W. Deem and Ramdas Pophale) SiO2 
 PCOD9081044
Probable space group: P -1
;
_chemical_formula_sum "Si O2"
_cell_formula_units_Z 16
_cell_length_a 9.162769
_cell_length_b 8.848837
_cell_length_c 11.951214
_cell_angle_alpha 125.155308
_cell_angle_beta 51.422117
_cell_angle_gamma 106.244494
_cell_volume 614.563866
_symmetry_space_group_name_H-M "P -1"
_symmetry_group_IT_number 2
_symmetry_cell_setting 'triclinic'
loop_
_space_group_symop_operation_xyz
x,y,z
-x,-y,-z
loop_
_atom_site_type_symbol
_atom_site_label
_atom_site_fract_x
_atom_site_fract_y
_atom_site_fract_z
Si Si1 0.889104 0.851951 0.309496
Si Si2 0.341232 0.661619 0.179983
Si Si3 0.608711 0.071950 0.122824
Si Si4 0.346258 0.669484 0.600032
Si Si5 0.196096 0.128584 0.249372
Si Si6 0.232413 0.632574 0.978882
Si Si7 0.059670 0.403950 0.604310
Si Si8 0.536293 0.768748 0.331366
O O1 0.878043 0.753387 0.394919
O O2 0.681117 0.892893 0.373528
O O3 0.011565 0.025070 0.320136
O O4 0.010857 0.697078 0.106450
O O5 0.424851 0.804396 0.283359
O O6 0.164021 0.581208 0.284809
O O7 0.500000 0.500000 0.000000
O O8 0.267553 0.724668 0.121101
O O9 0.644498 0.134633 0.257808
O O10 0.392933 0.062144 0.191370
O O11 0.663484 0.256277 0.113173
O O12 0.741843 0.907012 0.925322
O O13 0.500000 0.500000 0.500000
O O14 0.148253 0.588930 0.673208
O O15 0.397309 0.704342 0.463293
O O16 0.142515 0.330308 0.414798
O O17 0.324932 0.422758 0.843302
#
# Coordination Sequence:
#
# PCOD9081044 Si02
#       8
#     2   2   2   2   2   2   2   2
#     4  10  19  30  55  81 109 141 187 232 274 323
#     4   9  22  36  54  81 114 148 183 227 278 329
#     4  10  19  34  54  88 115 141 179 234 281 322
#     4  12  20  33  59  87 112 139 181 236 277 320
#     4  10  20  32  54  83 115 144 182 227 280 328
#     4   9  17  33  55  81 108 145 182 232 279 326
#     4  11  20  37  57  83 111 148 188 225 277 330
#     4  11  19  34  53  81 114 143 184 228 278 324
#
# _framework density 26.034724000000001
#
# number of rings (size 3 to 8) (size 9 to 14) (size 15 to 20)
#    0.000    1.750    3.750    0.750    0.000    5.500 
#    0.000    0.625    0.000    1.500    0.000    0.000 
#    0.000    0.000    0.000    0.000    0.000    0.000 
#
# Total GULP energy -89426.449801 kJ/mol
# GULP energy per Si atom -5589.153113 kJ/mol
# Density = 2.597547 g / cm^3
# Si number density = 26.034724 Si / 1000 Ang^3
#
#
#
# Elastic Constant Matrix: (Units=GPa)
#
#
# Indices 1 2 3 4 5 6 
#
# 1 106.2036 64.7969 35.7153 -29.0578 -2.4444 41.1886
# 2 64.7969 29.0719 53.0297 26.8675 13.6618 20.3047
# 3 35.7153 53.0297 131.9042 -8.7838 7.7759 32.2675
# 4 -29.0578 26.8675 -8.7838 10.4596 4.1255 9.2956
# 5 -2.4444 13.6618 7.7759 4.1255 40.3465 2.0578
# 6 41.1886 20.3047 32.2675 9.2956 2.0578 44.2953
#
#
#
# Elastic Compliance Matrix: (Units=1/GPa)
#
#
# Indices 1 2 3 4 5 6 
#
# 1 0.004633 0.008153 -0.004355 -0.008843 -0.000584 -0.002990
# 2 0.008153 0.006168 0.000843 0.022703 -0.003281 -0.015634
# 3 -0.004355 0.000843 0.008480 -0.005352 -0.001569 -0.001318
# 4 -0.008843 0.022703 -0.005352 0.011883 -0.008387 -0.000390
# 5 -0.000584 -0.003281 -0.001569 -0.008387 0.026832 0.003704
# 6 -0.002990 -0.015634 -0.001318 -0.000390 0.003704 0.033393
#
#
# Mechanical properties :
#
#
# Convention : Reuss Voigt Hill
#
# Bulk Modulus (GPa) = 35.01149 63.80703 49.40926
# Shear Modulus (GPa) = 54.56864 26.59614 40.58239
#
# Velocity S-wave (km/s) = 4.58317 3.19966 3.95242
# Velocity P-wave (km/s) = 6.44084 6.18159 6.31255
#
# Compressibility (1/GPa) = 0.02856206
#
# Stress axis : x y z
#
# Youngs Moduli (GPa) = 215.84987 162.13098 117.92089
#
# Poissons Ratio (x) = -1.32188 0.51358
# Poissons Ratio (y) = -1.75986 -0.09936
# Poissons Ratio (z) = 0.94008 -0.13662
#
# Static dielectric constant tensor:
#      x y z
#    x 2.527590 0.136330 -0.047890 
#    y 0.136330 2.102800 0.025060 
#    z -0.047890 0.025060 2.043760 
# 
# From -- ./inp_files/257448.got.cif
#   From: 2010.05.17/outbox.cif.g08.bks.cpg/sg2_129_cif.got.tgz:257448.got - 2010.06.03 11:33:40.
