data_PCOD9081681
_publ_section_title
;
Structure prediction by ZEFSAII (Michael W. Deem and Ramdas Pophale) SiO2 
 PCOD9081681
Probable space group: P -1
;
_chemical_formula_sum "Si O2"
_cell_formula_units_Z 14
_cell_length_a 18.243922
_cell_length_b 9.306660
_cell_length_c 8.674544
_cell_angle_alpha 112.524457
_cell_angle_beta 67.529733
_cell_angle_gamma 155.260004
_cell_volume 567.125238
_symmetry_space_group_name_H-M "P -1"
_symmetry_group_IT_number 2
_symmetry_cell_setting 'triclinic'
loop_
_space_group_symop_operation_xyz
x,y,z
-x,-y,-z
loop_
_atom_site_type_symbol
_atom_site_label
_atom_site_fract_x
_atom_site_fract_y
_atom_site_fract_z
Si Si1 0.789217 0.139288 0.034011
Si Si2 0.445979 0.231791 0.218431
Si Si3 0.907030 0.478548 0.361159
Si Si4 0.786361 0.788577 0.007116
Si Si5 0.048690 0.796755 0.676917
Si Si6 0.855918 0.839044 0.646307
Si Si7 0.407894 0.505660 0.487053
O O1 0.761445 0.205072 0.232081
O O2 0.000000 0.500000 0.000000
O O3 0.703590 0.044951 0.904464
O O4 0.731583 0.864630 0.016143
O O5 0.465505 0.453204 0.325145
O O6 0.448006 0.186833 0.378950
O O7 0.612477 0.437280 0.093580
O O8 0.949856 0.377124 0.333910
O O9 0.901233 0.552074 0.563158
O O10 0.068120 0.851929 0.304948
O O11 0.840168 0.782909 0.815718
O O12 0.940336 0.082126 0.128392
O O13 0.234640 0.154014 0.584939
O O14 0.669965 0.507090 0.574072
O O15 0.000000 0.000000 0.500000
#
# Coordination Sequence:
#
# PCOD9081681 Si02
#       7
#     2   2   2   2   2   2   2
#     4  11  17  28  53  83 113 131 175 234 278 320
#     4  10  19  32  56  83 113 139 173 238 282 324
#     4   9  17  31  49  79 108 135 174 224 279 305
#     4  10  19  32  53  86 107 144 180 219 287 321
#     4   8  16  30  52  78 111 131 169 235 274 317
#     4  11  21  35  55  79 114 150 186 220 258 335
#     4   9  18  34  51  84 113 141 181 215 289 321
#
# _framework density 24.685908000000001
#
# number of rings (size 3 to 8) (size 9 to 14) (size 15 to 20)
#    0.000    2.286    2.857    1.286    0.000    0.000 
#    0.000    6.429    0.000    1.714    0.000    0.000 
#    0.000    0.000    0.000    0.000    0.000    0.000 
#
# Total GULP energy -78027.190110 kJ/mol
# GULP energy per Si atom -5573.370722 kJ/mol
# Density = 2.462972 g / cm^3
# Si number density = 24.685908 Si / 1000 Ang^3
#
#
#
# Elastic Constant Matrix: (Units=GPa)
#
#
# Indices 1 2 3 4 5 6 
#
# 1 56.2183 12.6588 58.2088 20.0962 23.0707 21.4429
# 2 12.6588 68.4013 38.7893 6.8248 11.8788 12.8107
# 3 58.2088 38.7893 263.1169 35.8339 34.0162 46.1189
# 4 20.0962 6.8248 35.8339 42.7854 22.7082 17.7353
# 5 23.0707 11.8788 34.0162 22.7082 37.2112 10.8945
# 6 21.4429 12.8107 46.1189 17.7353 10.8945 29.8004
#
#
#
# Elastic Compliance Matrix: (Units=1/GPa)
#
#
# Indices 1 2 3 4 5 6 
#
# 1 0.031087 0.000685 -0.002974 0.000254 -0.012987 -0.013464
# 2 0.000685 0.016879 -0.001472 0.002998 -0.004673 -0.005547
# 3 -0.002974 -0.001472 0.005870 -0.000276 -0.001214 -0.005703
# 4 0.000254 0.002998 -0.000276 0.041671 -0.020970 -0.018178
# 5 -0.012987 -0.004673 -0.001214 -0.020970 0.047925 0.008191
# 6 -0.013464 -0.005547 -0.005703 -0.018178 0.008191 0.062279
#
#
# Mechanical properties :
#
#
# Convention : Reuss Voigt Hill
#
# Bulk Modulus (GPa) = 21.59180 67.45003 44.52091
# Shear Modulus (GPa) = 21.86555 40.49804 31.18179
#
# Velocity S-wave (km/s) = 2.97938 4.05474 3.55793
# Velocity P-wave (km/s) = 4.53886 7.02167 5.91207
#
# Compressibility (1/GPa) = 0.04631388
#
# Stress axis : x y z
#
# Youngs Moduli (GPa) = 32.16774 59.24622 170.36792
#
# Poissons Ratio (x) = -0.04058 0.50667
# Poissons Ratio (y) = -0.02203 0.25073
# Poissons Ratio (z) = 0.09567 0.08719
#
# Static dielectric constant tensor:
#      x y z
#    x 1.981950 0.000570 0.039520 
#    y 0.000570 2.033870 0.001010 
#    z 0.039520 0.001010 2.073480 
# 
# From -- ./inp_files/353837.got.cif
#   From: 2010.05.17/outbox.cif.g08.bks.cpg/sg2_177_cif.got.tgz:353837.got - 2010.06.03 11:33:40.
