data_PCOD9081114
_publ_section_title
;
Structure prediction by ZEFSAII (Michael W. Deem and Ramdas Pophale) SiO2 
 PCOD9081114
Probable space group: P -1
;
_chemical_formula_sum "Si O2"
_cell_formula_units_Z 16
_cell_length_a 7.941963
_cell_length_b 22.947356
_cell_length_c 25.482639
_cell_angle_alpha 168.707759
_cell_angle_beta 133.762419
_cell_angle_gamma 50.076139
_cell_volume 634.504359
_symmetry_space_group_name_H-M "P -1"
_symmetry_group_IT_number 2
_symmetry_cell_setting 'triclinic'
loop_
_space_group_symop_operation_xyz
x,y,z
-x,-y,-z
loop_
_atom_site_type_symbol
_atom_site_label
_atom_site_fract_x
_atom_site_fract_y
_atom_site_fract_z
Si Si1 0.262075 0.527698 0.535479
Si Si2 0.111048 0.495551 0.936720
Si Si3 0.884650 0.238042 0.014918
Si Si4 0.714500 0.630555 0.897871
Si Si5 0.302610 0.202620 0.506096
Si Si6 0.477732 0.812454 0.626624
Si Si7 0.301553 0.935834 0.458847
Si Si8 0.786501 0.850901 0.903016
O O1 0.376209 0.340168 0.435901
O O2 0.496260 0.739127 0.741360
O O3 0.116050 0.309677 0.266243
O O4 0.143934 0.780648 0.758356
O O5 0.955173 0.640880 0.991572
O O6 0.913083 0.274908 0.737458
O O7 0.243443 0.265816 0.733901
O O8 0.278285 0.745878 0.232125
O O9 0.867550 0.045899 0.788162
O O10 0.670597 0.028785 0.820206
O O11 0.825736 0.567430 0.288813
O O12 0.116335 0.252959 0.113893
O O13 0.500206 0.421404 0.703349
O O14 0.691230 0.443196 0.673118
O O15 0.657343 0.961192 0.173899
O O16 0.457986 0.051935 0.445699
#
# Coordination Sequence:
#
# PCOD9081114 Si02
#       8
#     2   2   2   2   2   2   2   2
#     4  10  21  36  52  70  93 120 152 192 232 272
#     4   9  15  23  37  58  88 125 156 182 220 269
#     4  10  19  31  48  69  95 124 152 188 232 276
#     4   9  17  28  42  65  96 125 154 190 230 269
#     4   9  17  28  42  65  96 125 154 190 230 269
#     4  10  19  31  48  69  95 124 152 188 232 276
#     4   9  15  23  37  58  88 125 156 182 220 269
#     4  10  21  36  52  70  93 120 152 192 232 272
#
# _framework density 25.216535
#
# number of rings (size 3 to 8) (size 9 to 14) (size 15 to 20)
#    0.000    2.500    0.000    3.000    0.000    7.000 
#    0.000    0.000    0.000    0.000    0.000    0.000 
#    0.000   20.000    0.000    0.000    0.000    0.000 
#
# Total GULP energy -89670.999523 kJ/mol
# GULP energy per Si atom -5604.437470 kJ/mol
# Density = 2.515914 g / cm^3
# Si number density = 25.216535 Si / 1000 Ang^3
#
#
#
# Elastic Constant Matrix: (Units=GPa)
#
#
# Indices 1 2 3 4 5 6 
#
# 1 71.9219 13.9394 42.8345 -3.2054 -13.2445 4.4608
# 2 13.9394 150.0940 77.6056 -1.5586 -37.1842 -2.7982
# 3 42.8345 77.6056 168.7907 -8.1922 -53.0420 -9.2324
# 4 -3.2054 -1.5586 -8.1922 56.2867 -6.9212 -1.5954
# 5 -13.2445 -37.1842 -53.0420 -6.9212 55.2423 -5.0637
# 6 4.4608 -2.7982 -9.2324 -1.5954 -5.0637 38.2161
#
#
#
# Elastic Compliance Matrix: (Units=1/GPa)
#
#
# Indices 1 2 3 4 5 6 
#
# 1 0.016813 0.000834 -0.004955 0.000116 -0.000440 -0.003152
# 2 0.000834 0.009124 -0.003413 0.000190 0.003103 0.000165
# 3 -0.004955 -0.003413 0.011811 0.002522 0.008576 0.004423
# 4 0.000116 0.000190 0.002522 0.018834 0.005127 0.002075
# 5 -0.000440 0.003103 0.008576 0.005127 0.029556 0.006481
# 6 -0.003152 0.000165 0.004423 0.002075 0.006481 0.028561
#
#
# Mechanical properties :
#
#
# Convention : Reuss Voigt Hill
#
# Bulk Modulus (GPa) = 44.09386 73.28507 58.68947
# Shear Modulus (GPa) = 36.40937 47.04415 41.72676
#
# Velocity S-wave (km/s) = 3.80395 4.32395 4.07226
# Velocity P-wave (km/s) = 6.06774 7.35215 6.74061
#
# Compressibility (1/GPa) = 0.02267890
#
# Stress axis : x y z
#
# Youngs Moduli (GPa) = 59.47727 109.60681 84.66872
#
# Poissons Ratio (x) = -0.09142 0.41955
# Poissons Ratio (y) = -0.04961 0.28899
# Poissons Ratio (z) = 0.29472 0.37410
#
# Static dielectric constant tensor:
#      x y z
#    x 2.097440 -0.016130 0.081770 
#    y -0.016130 1.848120 -0.016700 
#    z 0.081770 -0.016700 1.977660 
# 
# From -- ./inp_files/81307.got.cif
#   From: 2010.05.17/outbox.cif.g08.bks.cpg/sg2_41_cif.got.tgz:81307.got - 2010.06.03 11:33:40.
