data_PCOD9081624
_publ_section_title
;
Structure prediction by ZEFSAII (Michael W. Deem and Ramdas Pophale) SiO2 
 PCOD9081624
Probable space group: P -1
;
_chemical_formula_sum "Si O2"
_cell_formula_units_Z 16
_cell_length_a 27.931805
_cell_length_b 5.657375
_cell_length_c 19.127621
_cell_angle_alpha 56.602832
_cell_angle_beta 16.828362
_cell_angle_gamma 58.573934
_cell_volume 730.368814
_symmetry_space_group_name_H-M "P -1"
_symmetry_group_IT_number 2
_symmetry_cell_setting 'triclinic'
loop_
_space_group_symop_operation_xyz
x,y,z
-x,-y,-z
loop_
_atom_site_type_symbol
_atom_site_label
_atom_site_fract_x
_atom_site_fract_y
_atom_site_fract_z
Si Si1 0.395064 0.539766 0.732973
Si Si2 0.870452 0.223427 0.596025
Si Si3 0.340505 0.220145 0.221215
Si Si4 0.829072 0.509151 0.816253
Si Si5 0.494074 0.978029 0.840181
Si Si6 0.014664 0.933906 0.688545
Si Si7 0.703514 0.801827 0.214367
Si Si8 0.470836 0.491796 0.859886
O O1 0.592420 0.598281 0.452348
O O2 0.361642 0.317396 0.752019
O O3 0.332310 0.872009 0.763852
O O4 0.297300 0.422561 0.955405
O O5 0.774752 0.509947 0.666156
O O6 0.707839 0.025147 0.869650
O O7 0.012819 0.278222 0.446474
O O8 0.969459 0.182777 0.392554
O O9 0.454957 0.281560 0.983517
O O10 0.434546 0.197434 0.165855
O O11 0.203173 0.972785 0.443349
O O12 0.714750 0.455499 0.917603
O O13 0.917136 0.223442 0.764365
O O14 0.538110 0.795533 0.740793
O O15 0.555358 0.298605 0.715320
O O16 0.899205 0.775513 0.932585
#
# Coordination Sequence:
#
# PCOD9081624 Si02
#       8
#     2   2   2   2   2   2   2   2
#     4   9  17  31  49  71 105 135 159 203 238 315
#     4  10  19  33  52  72 106 136 164 215 250 301
#     4  10  22  37  51  73 100 135 181 221 248 285
#     4  10  22  33  49  79 110 135 167 199 261 313
#     4  11  24  38  53  71 100 137 184 219 246 285
#     4  10  19  32  53  77 106 135 164 216 247 309
#     4   9  17  30  50  74 100 134 166 194 257 290
#     4  11  23  36  53  74 101 142 171 210 253 305
#
# _framework density 21.906741
#
# number of rings (size 3 to 8) (size 9 to 14) (size 15 to 20)
#    0.000    2.000    2.500    1.875    3.500    5.000 
#    0.000    0.000    0.000    0.000    0.000    1.750 
#    0.000    0.000    0.000    0.000    0.000    0.000 
#
# Total GULP energy -89080.730224 kJ/mol
# GULP energy per Si atom -5567.545639 kJ/mol
# Density = 2.185688 g / cm^3
# Si number density = 21.906741 Si / 1000 Ang^3
#
#
#
# Elastic Constant Matrix: (Units=GPa)
#
#
# Indices 1 2 3 4 5 6 
#
# 1 79.1126 23.2988 24.1914 1.1196 -19.2750 8.1325
# 2 23.2988 81.5791 7.3791 -0.7814 4.2350 37.0792
# 3 24.1914 7.3791 86.3479 -7.5008 3.8042 -4.5382
# 4 1.1196 -0.7814 -7.5008 18.7473 4.6897 0.3452
# 5 -19.2750 4.2350 3.8042 4.6897 38.7475 3.7044
# 6 8.1325 37.0792 -4.5382 0.3452 3.7044 35.2492
#
#
#
# Elastic Compliance Matrix: (Units=1/GPa)
#
#
# Indices 1 2 3 4 5 6 
#
# 1 0.018964 -0.005123 -0.006001 -0.006599 0.011467 -0.000900
# 2 -0.005123 0.025863 -0.001849 0.001856 -0.002935 -0.025972
# 3 -0.006001 -0.001849 0.014618 0.007442 -0.005667 0.005735
# 4 -0.006599 0.001856 0.007442 0.059657 -0.011547 0.001157
# 5 0.011467 -0.002935 -0.005667 -0.011547 0.034147 -0.003763
# 6 -0.000900 -0.025972 0.005735 0.001157 -0.003763 0.057020
#
#
# Mechanical properties :
#
#
# Convention : Reuss Voigt Hill
#
# Bulk Modulus (GPa) = 29.85210 39.64204 34.74707
# Shear Modulus (GPa) = 20.21175 31.36014 25.78594
#
# Velocity S-wave (km/s) = 3.04077 3.78766 3.43458
# Velocity P-wave (km/s) = 5.09754 6.10439 5.62354
#
# Compressibility (1/GPa) = 0.03349848
#
# Stress axis : x y z
#
# Youngs Moduli (GPa) = 52.73265 38.66503 68.40953
#
# Poissons Ratio (x) = 0.19807 0.41051
# Poissons Ratio (y) = 0.27014 0.12652
# Poissons Ratio (z) = 0.31644 0.07151
#
# Static dielectric constant tensor:
#      x y z
#    x 1.846830 0.032210 -0.014400 
#    y 0.032210 1.996990 -0.011420 
#    z -0.014400 -0.011420 1.828640 
# 
# From -- ./inp_files/44547.got.cif
#   From: 2010.05.17/outbox.cif.g08.bks.cpg/sg2_23_cif.got.tgz:44547.got - 2010.06.03 11:33:40.
