data_PCOD9081360
_publ_section_title
;
Structure prediction by ZEFSAII (Michael W. Deem and Ramdas Pophale) SiO2 
 PCOD9081360
Probable space group: P -1
;
_chemical_formula_sum "Si O2"
_cell_formula_units_Z 14
_cell_length_a 12.756668
_cell_length_b 11.731570
_cell_length_c 6.977093
_cell_angle_alpha 123.899281
_cell_angle_beta 126.523824
_cell_angle_gamma 46.541115
_cell_volume 589.043888
_symmetry_space_group_name_H-M "P -1"
_symmetry_group_IT_number 2
_symmetry_cell_setting 'triclinic'
loop_
_space_group_symop_operation_xyz
x,y,z
-x,-y,-z
loop_
_atom_site_type_symbol
_atom_site_label
_atom_site_fract_x
_atom_site_fract_y
_atom_site_fract_z
Si Si1 0.304065 0.477926 0.222245
Si Si2 0.133621 0.791832 0.167020
Si Si3 0.847096 0.618569 0.323797
Si Si4 0.820725 0.886325 0.027315
Si Si5 0.901262 0.886050 0.696151
Si Si6 0.338943 0.303533 0.439839
Si Si7 0.558911 0.121979 0.216962
O O1 0.171205 0.467653 0.957693
O O2 0.290539 0.636019 0.265890
O O3 0.291592 0.467866 0.427868
O O4 0.454101 0.300603 0.177573
O O5 0.119979 0.961563 0.293639
O O6 0.001538 0.810138 0.184724
O O7 0.072815 0.776990 0.875982
O O8 0.854932 0.775114 0.430730
O O9 0.705176 0.672866 0.366090
O O10 0.000000 0.500000 0.500000
O O11 0.802987 0.946944 0.843979
O O12 0.763856 0.760896 0.830136
O O13 0.719502 0.029074 0.196902
O O14 0.514140 0.171775 0.439085
O O15 0.500000 0.000000 0.000000
#
# Coordination Sequence:
#
# PCOD9081360 Si02
#       7
#     2   2   2   2   2   2   2
#     4  10  19  31  56  78 102 130 171 205 262 293
#     4   9  16  30  52  75  99 141 164 205 253 303
#     4  11  18  31  52  83 102 128 168 217 251 295
#     4   8  13  29  51  66 101 136 163 199 259 290
#     4   8  17  30  48  74 110 126 170 208 250 296
#     4   8  18  30  47  74 109 121 164 212 252 288
#     4   8  16  32  47  76 104 130 164 212 253 298
#
# _framework density 23.767330999999999
#
# number of rings (size 3 to 8) (size 9 to 14) (size 15 to 20)
#    1.714    1.429    1.429    0.000    0.000    2.286 
#    0.000    7.143    0.000    6.857    0.000    5.000 
#    0.000    0.000    0.000    0.000    0.000    0.000 
#
# Total GULP energy -77965.625279 kJ/mol
# GULP energy per Si atom -5568.973234 kJ/mol
# Density = 2.371324 g / cm^3
# Si number density = 23.767331 Si / 1000 Ang^3
#
#
#
# Elastic Constant Matrix: (Units=GPa)
#
#
# Indices 1 2 3 4 5 6 
#
# 1 62.3563 31.1072 10.9677 17.4816 -9.8749 -4.7279
# 2 31.1072 144.6948 15.1684 18.0443 -3.4167 19.1573
# 3 10.9677 15.1684 36.7092 -2.7908 6.6337 1.4667
# 4 17.4816 18.0443 -2.7908 24.1218 -1.5632 2.5447
# 5 -9.8749 -3.4167 6.6337 -1.5632 15.3286 10.0858
# 6 -4.7279 19.1573 1.4667 2.5447 10.0858 33.5682
#
#
#
# Elastic Compliance Matrix: (Units=1/GPa)
#
#
# Indices 1 2 3 4 5 6 
#
# 1 0.027875 -0.001915 -0.012728 -0.018999 0.020548 0.000842
# 2 -0.001915 0.009611 -0.004814 -0.005109 0.007309 -0.007353
# 3 -0.012728 -0.004814 0.039167 0.014730 -0.029276 0.006923
# 4 -0.018999 -0.005109 0.014730 0.060026 -0.012927 -0.001070
# 5 0.020548 0.007309 -0.029276 -0.012927 0.113185 -0.033025
# 6 0.000842 -0.007353 0.006923 -0.001070 -0.033025 0.043806
#
#
# Mechanical properties :
#
#
# Convention : Reuss Voigt Hill
#
# Bulk Modulus (GPa) = 26.49900 39.80521 33.15210
# Shear Modulus (GPa) = 14.48580 27.03818 20.76199
#
# Velocity S-wave (km/s) = 2.47145 3.37652 2.95880
# Velocity P-wave (km/s) = 4.39518 5.65557 5.06473
#
# Compressibility (1/GPa) = 0.03773728
#
# Stress axis : x y z
#
# Youngs Moduli (GPa) = 35.87408 104.04966 25.53176
#
# Poissons Ratio (x) = 0.19931 0.32497
# Poissons Ratio (y) = 0.06872 0.12292
# Poissons Ratio (z) = 0.45661 0.50093
#
# Static dielectric constant tensor:
#      x y z
#    x 1.975220 -0.028460 0.056940 
#    y -0.028460 1.992380 -0.035230 
#    z 0.056940 -0.035230 1.903300 
# 
# From -- ./inp_files/255086.got.cif
#   From: 2010.05.17/outbox.cif.g08.bks.cpg/sg2_128_cif.got.tgz:255086.got - 2010.06.03 11:33:40.
