data_PCOD9081221
_publ_section_title
;
Structure prediction by ZEFSAII (Michael W. Deem and Ramdas Pophale) SiO2 
 PCOD9081221
Probable space group: P -1
;
_chemical_formula_sum "Si O2"
_cell_formula_units_Z 16
_cell_length_a 8.539381
_cell_length_b 17.150027
_cell_length_c 8.898892
_cell_angle_alpha 133.532342
_cell_angle_beta 114.813257
_cell_angle_gamma 44.362732
_cell_volume 653.788381
_symmetry_space_group_name_H-M "P -1"
_symmetry_group_IT_number 2
_symmetry_cell_setting 'triclinic'
loop_
_space_group_symop_operation_xyz
x,y,z
-x,-y,-z
loop_
_atom_site_type_symbol
_atom_site_label
_atom_site_fract_x
_atom_site_fract_y
_atom_site_fract_z
Si Si1 0.893206 0.151650 0.273494
Si Si2 0.796548 0.807909 0.432208
Si Si3 0.096567 0.490996 0.189204
Si Si4 0.002353 0.301253 0.959383
Si Si5 0.949455 0.929180 0.168783
Si Si6 0.578581 0.391214 0.253268
Si Si7 0.374114 0.846169 0.402047
Si Si8 0.579250 0.379110 0.716739
O O1 0.791975 0.239252 0.195397
O O2 0.728994 0.267767 0.493105
O O3 0.133494 0.106086 0.355983
O O4 0.880718 0.028766 0.129886
O O5 0.842981 0.785680 0.242525
O O6 0.549815 0.861809 0.434766
O O7 0.971562 0.654398 0.383669
O O8 0.363643 0.400637 0.158197
O O9 0.042043 0.409580 0.160020
O O10 0.000000 0.500000 0.000000
O O11 0.059178 0.194966 0.973479
O O12 0.758106 0.373698 0.881731
O O13 0.198289 0.868068 0.241050
O O14 0.780091 0.041008 0.379853
O O15 0.500000 0.500000 0.500000
O O16 0.594594 0.468071 0.224989
O O17 0.504036 0.689618 0.314516
#
# Coordination Sequence:
#
# PCOD9081221 Si02
#       8
#     2   2   2   2   2   2   2   2
#     4   9  17  28  48  69  96 128 169 201 238 293
#     4  10  17  28  47  82  95 124 169 214 246 278
#     4  10  17  30  51  77 104 124 165 206 246 299
#     4   9  17  30  49  69 101 132 160 198 247 297
#     4   9  18  32  45  69 101 137 161 199 254 296
#     4  10  15  29  52  72  96 134 168 198 242 303
#     4   9  17  28  49  73 101 125 166 216 246 279
#     4   8  14  28  45  68  95 127 159 197 253 286
#
# _framework density 24.472750999999999
#
# number of rings (size 3 to 8) (size 9 to 14) (size 15 to 20)
#    0.000    2.750    5.000    2.250    0.000    2.000 
#    0.000    3.750    0.000    0.000    0.000    7.875 
#    0.000    0.000    0.000    0.000    0.000    0.000 
#
# Total GULP energy -89460.337481 kJ/mol
# GULP energy per Si atom -5591.271093 kJ/mol
# Density = 2.441705 g / cm^3
# Si number density = 24.472751 Si / 1000 Ang^3
#
#
#
# Elastic Constant Matrix: (Units=GPa)
#
#
# Indices 1 2 3 4 5 6 
#
# 1 136.8185 62.4587 23.8887 3.0930 14.4192 23.5970
# 2 62.4587 127.4660 23.2524 23.4514 6.5529 36.7313
# 3 23.8887 23.2524 60.9976 15.0452 8.9870 8.5663
# 4 3.0930 23.4514 15.0452 35.4077 9.4227 13.1466
# 5 14.4192 6.5529 8.9870 9.4227 37.4423 11.1610
# 6 23.5970 36.7313 8.5663 13.1466 11.1610 57.3951
#
#
#
# Elastic Compliance Matrix: (Units=1/GPa)
#
#
# Indices 1 2 3 4 5 6 
#
# 1 0.010551 -0.005070 -0.002754 0.004942 -0.003416 -0.001150
# 2 -0.005070 0.013098 -0.001095 -0.006669 0.003157 -0.005221
# 3 -0.002754 -0.001095 0.019846 -0.007290 -0.001951 0.000920
# 4 0.004942 -0.006669 -0.007290 0.038858 -0.007540 -0.004110
# 5 -0.003416 0.003157 -0.001951 -0.007540 0.031229 -0.004671
# 6 -0.001150 -0.005221 0.000920 -0.004110 -0.004671 0.022950
#
#
# Mechanical properties :
#
#
# Convention : Reuss Voigt Hill
#
# Bulk Modulus (GPa) = 38.97272 60.49797 49.73534
# Shear Modulus (GPa) = 30.68969 40.42785 35.55877
#
# Velocity S-wave (km/s) = 3.54508 4.06883 3.81595
# Velocity P-wave (km/s) = 5.71982 6.84457 6.30731
#
# Compressibility (1/GPa) = 0.02565897
#
# Stress axis : x y z
#
# Youngs Moduli (GPa) = 94.77954 76.34501 50.38784
#
# Poissons Ratio (x) = 0.38706 0.13875
# Poissons Ratio (y) = 0.48052 0.05516
# Poissons Ratio (z) = 0.26099 0.08357
#
# Static dielectric constant tensor:
#      x y z
#    x 1.911510 0.052140 -0.029170 
#    y 0.052140 1.963470 0.073540 
#    z -0.029170 0.073540 1.997220 
# 
# From -- ./inp_files/401358.got.cif
#   From: 2010.05.17/outbox.cif.g08.bks.cpg/sg2_201_cif.got.tgz:401358.got - 2010.06.03 11:33:40.
