data_PCOD9081181
_publ_section_title
;
Structure prediction by ZEFSAII (Michael W. Deem and Ramdas Pophale) SiO2 
 PCOD9081181
Probable space group: P -1
;
_chemical_formula_sum "Si O2"
_cell_formula_units_Z 16
_cell_length_a 29.990411
_cell_length_b 13.720694
_cell_length_c 8.527479
_cell_angle_alpha 141.286240
_cell_angle_beta 27.374775
_cell_angle_gamma 153.710978
_cell_volume 712.418775
_symmetry_space_group_name_H-M "P -1"
_symmetry_group_IT_number 2
_symmetry_cell_setting 'triclinic'
loop_
_space_group_symop_operation_xyz
x,y,z
-x,-y,-z
loop_
_atom_site_type_symbol
_atom_site_label
_atom_site_fract_x
_atom_site_fract_y
_atom_site_fract_z
Si Si1 0.061526 0.395939 0.159420
Si Si2 0.835370 0.240355 0.295676
Si Si3 0.138947 0.659092 0.981360
Si Si4 0.216492 0.030999 0.422956
Si Si5 0.605558 0.830772 0.691891
Si Si6 0.091456 0.025034 0.380423
Si Si7 0.687620 0.577094 0.993175
Si Si8 0.851438 0.714144 0.968657
O O1 0.813677 0.124318 0.816942
O O2 0.918436 0.142351 0.259449
O O3 0.000000 0.500000 0.500000
O O4 0.157440 0.536049 0.887060
O O5 0.975339 0.472363 0.217279
O O6 0.709618 0.072720 0.593822
O O7 0.791470 0.281197 0.328224
O O8 0.878912 0.118055 0.943812
O O9 0.867039 0.598472 0.906171
O O10 0.353152 0.129282 0.205318
O O11 0.216622 0.216621 0.641663
O O12 0.646659 0.704398 0.343025
O O13 0.448446 0.671746 0.937597
O O14 0.005428 0.923797 0.682925
O O15 0.000000 0.000000 0.500000
O O16 0.228133 0.282438 0.251822
O O17 0.768655 0.598208 0.917590
#
# Coordination Sequence:
#
# PCOD9081181 Si02
#       8
#     2   2   2   2   2   2   2   2
#     4  10  19  31  50  79 114 146 179 226 282 331
#     4  10  19  34  54  82 112 146 194 232 280 336
#     4  10  21  34  52  84 112 148 188 232 284 328
#     4  10  19  33  55  88 113 145 182 234 289 330
#     4   9  16  32  57  82 114 149 190 230 273 346
#     4   9  17  30  52  85 113 139 180 239 282 324
#     4   8  17  31  54  86 114 150 187 228 282 334
#     4  10  19  33  57  86 118 144 185 235 284 338
#
# _framework density 22.458701000000001
#
# number of rings (size 3 to 8) (size 9 to 14) (size 15 to 20)
#    0.000    2.500    1.250    2.625    0.000    0.000 
#    0.000    0.000    0.000   24.000    0.000    4.375 
#    0.000    0.000    0.000    0.000    0.000    0.000 
#
# Total GULP energy -89190.709378 kJ/mol
# GULP energy per Si atom -5574.419336 kJ/mol
# Density = 2.240758 g / cm^3
# Si number density = 22.458701 Si / 1000 Ang^3
#
#
#
# Elastic Constant Matrix: (Units=GPa)
#
#
# Indices 1 2 3 4 5 6 
#
# 1 185.3320 50.1046 35.9894 -13.1813 3.8040 -5.8877
# 2 50.1046 102.1604 28.6017 1.8843 -7.4326 15.0069
# 3 35.9894 28.6017 35.2078 -6.3082 -1.6367 5.1378
# 4 -13.1813 1.8843 -6.3082 34.3991 4.7159 -5.5376
# 5 3.8040 -7.4326 -1.6367 4.7159 23.2153 -6.1739
# 6 -5.8877 15.0069 5.1378 -5.5376 -6.1739 40.0165
#
#
#
# Elastic Compliance Matrix: (Units=1/GPa)
#
#
# Indices 1 2 3 4 5 6 
#
# 1 0.007563 -0.002831 -0.005454 0.002841 -0.002334 0.002908
# 2 -0.002831 0.014853 -0.009153 -0.004944 0.004293 -0.004833
# 3 -0.005454 -0.009153 0.042769 0.006020 -0.000817 -0.002154
# 4 0.002841 -0.004944 0.006020 0.033309 -0.007055 0.005020
# 5 -0.002334 0.004293 -0.000817 -0.007055 0.047401 0.004489
# 6 0.002908 -0.004833 -0.002154 0.005020 0.004489 0.028894
#
#
# Mechanical properties :
#
#
# Convention : Reuss Voigt Hill
#
# Bulk Modulus (GPa) = 32.99528 61.34350 47.16939
# Shear Modulus (GPa) = 22.75122 33.39314 28.07218
#
# Velocity S-wave (km/s) = 3.18626 3.86018 3.53929
# Velocity P-wave (km/s) = 5.31599 6.87322 6.14414
#
# Compressibility (1/GPa) = 0.03030737
#
# Stress axis : x y z
#
# Youngs Moduli (GPa) = 132.22785 67.32528 23.38169
#
# Poissons Ratio (x) = 0.19063 0.12753
# Poissons Ratio (y) = 0.37440 0.21401
# Poissons Ratio (z) = 0.72120 0.61622
#
# Static dielectric constant tensor:
#      x y z
#    x 1.937820 -0.030030 0.070910 
#    y -0.030030 1.875840 0.011610 
#    z 0.070910 0.011610 1.897870 
# 
# From -- ./inp_files/358700.got.cif
#   From: 2010.05.17/outbox.cif.g08.bks.cpg/sg2_180_cif.got.tgz:358700.got - 2010.06.03 11:33:40.
