data_PCOD9081579
_publ_section_title
;
Structure prediction by ZEFSAII (Michael W. Deem and Ramdas Pophale) SiO2 
 PCOD9081579
Probable space group: P -1
;
_chemical_formula_sum "Si O2"
_cell_formula_units_Z 14
_cell_length_a 13.290862
_cell_length_b 24.238714
_cell_length_c 5.434265
_cell_angle_alpha 110.679503
_cell_angle_beta 49.248318
_cell_angle_gamma 145.141629
_cell_volume 687.361641
_symmetry_space_group_name_H-M "P -1"
_symmetry_group_IT_number 2
_symmetry_cell_setting 'triclinic'
loop_
_space_group_symop_operation_xyz
x,y,z
-x,-y,-z
loop_
_atom_site_type_symbol
_atom_site_label
_atom_site_fract_x
_atom_site_fract_y
_atom_site_fract_z
Si Si1 0.476771 0.436960 0.756507
Si Si2 0.302423 0.590253 0.401160
Si Si3 0.257076 0.642679 0.057971
Si Si4 0.593707 0.985843 0.521740
Si Si5 0.887269 0.648666 0.165176
Si Si6 0.349930 0.798235 0.385638
Si Si7 0.165517 0.827650 0.352712
O O1 0.512994 0.391348 0.779029
O O2 0.700672 0.529525 0.357617
O O3 0.237720 0.359656 0.862534
O O4 0.500000 0.500000 0.000000
O O5 0.337453 0.629381 0.133688
O O6 0.033873 0.462908 0.628363
O O7 0.310190 0.640105 0.692902
O O8 0.370715 0.747445 0.112533
O O9 0.583856 0.916828 0.312946
O O10 0.500000 0.000000 0.500000
O O11 0.830346 0.104158 0.442143
O O12 0.386095 0.907384 0.933960
O O13 0.942958 0.717146 0.394401
O O14 0.138192 0.711256 0.787598
O O15 0.237697 0.807717 0.411736
#
# Coordination Sequence:
#
# PCOD9081579 Si02
#       7
#     2   2   2   2   2   2   2
#     4  11  23  36  51  73 105 143 183 224 261 313
#     4  10  23  36  52  75 104 142 185 222 265 316
#     4  10  22  35  54  75 106 142 179 223 266 319
#     4   8  16  28  48  76 108 132 165 213 267 325
#     4  10  21  31  53  75 105 140 179 215 272 313
#     4  10  19  32  52  79 107 140 173 216 272 321
#     4   9  16  30  49  76 109 132 169 215 268 323
#
# _framework density 20.367733999999999
#
# number of rings (size 3 to 8) (size 9 to 14) (size 15 to 20)
#    0.000    2.286    0.000    2.571   14.000    0.000 
#    0.000    0.000    0.000    0.000    0.000    2.000 
#    0.000    0.000    0.000    0.000    0.000    0.000 
#
# Total GULP energy -78041.593939 kJ/mol
# GULP energy per Si atom -5574.399567 kJ/mol
# Density = 2.032138 g / cm^3
# Si number density = 20.367734 Si / 1000 Ang^3
#
#
#
# Elastic Constant Matrix: (Units=GPa)
#
#
# Indices 1 2 3 4 5 6 
#
# 1 72.7859 16.9396 -0.0486 3.5364 4.2117 8.4044
# 2 16.9396 130.3014 3.4808 36.6113 -4.3880 9.6929
# 3 -0.0486 3.4808 28.7590 3.9465 8.7384 -6.2436
# 4 3.5364 36.6113 3.9465 32.7410 -3.6716 10.5574
# 5 4.2117 -4.3880 8.7384 -3.6716 20.7102 3.0336
# 6 8.4044 9.6929 -6.2436 10.5574 3.0336 29.3904
#
#
#
# Elastic Compliance Matrix: (Units=1/GPa)
#
#
# Indices 1 2 3 4 5 6 
#
# 1 0.014769 -0.002247 -0.000034 0.001894 -0.002557 -0.003906
# 2 -0.002247 0.011569 0.000864 -0.013401 -0.000101 0.001835
# 3 -0.000034 0.000864 0.048623 -0.015624 -0.025780 0.018328
# 4 0.001894 -0.013401 -0.015624 0.055881 0.016381 -0.021205
# 5 -0.002557 -0.000101 -0.025780 0.016381 0.065102 -0.017316
# 6 -0.003906 0.001835 0.018328 -0.021205 -0.017316 0.047834
#
#
# Mechanical properties :
#
#
# Convention : Reuss Voigt Hill
#
# Bulk Modulus (GPa) = 13.86432 30.28776 22.07604
# Shear Modulus (GPa) = 18.47372 30.66662 24.57017
#
# Velocity S-wave (km/s) = 3.01493 3.88448 3.47699
# Velocity P-wave (km/s) = 4.35218 5.91791 5.19438
#
# Compressibility (1/GPa) = 0.07212760
#
# Stress axis : x y z
#
# Youngs Moduli (GPa) = 67.71053 86.43822 20.56620
#
# Poissons Ratio (x) = 0.19421 0.00070
# Poissons Ratio (y) = 0.15213 -0.01777
# Poissons Ratio (z) = 0.00230 -0.07468
#
# Static dielectric constant tensor:
#      x y z
#    x 1.735230 0.011370 0.065330 
#    y 0.011370 1.791040 0.002900 
#    z 0.065330 0.002900 1.828660 
# 
# From -- ./inp_files/36296.got.cif
#   From: 2010.05.17/outbox.cif.g08.bks.cpg/sg2_19_cif.got.tgz:36296.got - 2010.06.03 11:33:40.
