data_PCOD9081944
_publ_section_title
;
Structure prediction by ZEFSAII (Michael W. Deem and Ramdas Pophale) SiO2 
 PCOD9081944
Probable space group: P -1
;
_chemical_formula_sum "Si O2"
_cell_formula_units_Z 16
_cell_length_a 7.045728
_cell_length_b 11.562251
_cell_length_c 20.540890
_cell_angle_alpha 28.608715
_cell_angle_beta 71.419318
_cell_angle_gamma 62.318046
_cell_volume 693.653934
_symmetry_space_group_name_H-M "P -1"
_symmetry_group_IT_number 2
_symmetry_cell_setting 'triclinic'
loop_
_space_group_symop_operation_xyz
x,y,z
-x,-y,-z
loop_
_atom_site_type_symbol
_atom_site_label
_atom_site_fract_x
_atom_site_fract_y
_atom_site_fract_z
Si Si1 0.887769 0.957232 0.181583
Si Si2 0.577360 0.700455 0.930929
Si Si3 0.299849 0.973430 0.495640
Si Si4 0.460423 0.510784 0.793154
Si Si5 0.183952 0.810266 0.784797
Si Si6 0.201124 0.124200 0.288840
Si Si7 0.872301 0.717821 0.068682
Si Si8 0.943132 0.445532 0.738284
O O1 0.979203 0.665202 0.287028
O O2 0.893535 0.735504 0.135204
O O3 0.850616 0.009750 0.236967
O O4 0.057430 0.078500 0.078470
O O5 0.638862 0.876151 0.786510
O O6 0.500000 0.500000 0.000000
O O7 0.354699 0.880570 0.902808
O O8 0.791057 0.483649 0.049346
O O9 0.309720 0.968266 0.419106
O O10 0.100060 0.248117 0.400174
O O11 0.500000 0.000000 0.500000
O O12 0.310267 0.703179 0.657796
O O13 0.402492 0.700295 0.770241
O O14 0.358606 0.294077 0.917571
O O15 0.711007 0.426599 0.789041
O O16 0.984087 0.946401 0.690458
O O17 0.066281 0.431153 0.172163
#
# Coordination Sequence:
#
# PCOD9081944 Si02
#       8
#     2   2   2   2   2   2   2   2
#     4  11  22  36  55  90 130 155 191 237 315 366
#     4  10  19  32  58  83 123 157 190 241 297 364
#     4   9  21  39  67  85 112 159 213 253 283 349
#     4  10  22  39  65  85 114 156 213 250 298 332
#     4  10  21  34  60  90 119 152 198 251 295 362
#     4  10  19  35  58  91 114 151 208 252 290 338
#     4  10  20  35  59  89 117 155 200 245 296 360
#     4  10  22  40  57  86 125 161 196 249 295 365
#
# _framework density 23.066255999999999
#
# number of rings (size 3 to 8) (size 9 to 14) (size 15 to 20)
#    0.000    2.000    2.500    1.500   10.500    5.000 
#    2.250    0.625    0.000    5.250    0.000    0.000 
#    0.000    0.000    0.000    0.000    0.000    0.000 
#
# Total GULP energy -89247.226983 kJ/mol
# GULP energy per Si atom -5577.951686 kJ/mol
# Density = 2.301376 g / cm^3
# Si number density = 23.066256 Si / 1000 Ang^3
#
#
#
# Elastic Constant Matrix: (Units=GPa)
#
#
# Indices 1 2 3 4 5 6 
#
# 1 103.9591 24.8376 7.6706 12.6544 9.2483 0.0591
# 2 24.8376 127.4928 6.1721 10.8965 12.4390 6.0877
# 3 7.6706 6.1721 37.7919 21.1410 7.9575 7.2765
# 4 12.6544 10.8965 21.1410 28.3233 7.1981 6.7483
# 5 9.2483 12.4390 7.9575 7.1981 24.9316 17.8305
# 6 0.0591 6.0877 7.2765 6.7483 17.8305 26.6894
#
#
#
# Elastic Compliance Matrix: (Units=1/GPa)
#
#
# Indices 1 2 3 4 5 6 
#
# 1 0.011017 -0.001442 0.000933 -0.004785 -0.006098 0.005334
# 2 -0.001442 0.008657 0.001025 -0.002673 -0.004238 0.001256
# 3 0.000933 0.001025 0.046298 -0.033837 -0.005339 -0.000736
# 4 -0.004785 -0.002673 -0.033837 0.065354 -0.000351 -0.006444
# 5 -0.006098 -0.004238 -0.005339 -0.000351 0.085188 -0.054388
# 6 0.005334 0.001256 -0.000736 -0.006444 -0.054388 0.075335
#
#
# Mechanical properties :
#
#
# Convention : Reuss Voigt Hill
#
# Bulk Modulus (GPa) = 14.92450 38.51162 26.71806
# Shear Modulus (GPa) = 15.96666 31.35975 23.66321
#
# Velocity S-wave (km/s) = 2.63384 3.69121 3.20641
# Velocity P-wave (km/s) = 3.96659 5.90754 5.03154
#
# Compressibility (1/GPa) = 0.06700391
#
# Stress axis : x y z
#
# Youngs Moduli (GPa) = 90.77051 115.51464 21.59899
#
# Poissons Ratio (x) = 0.16659 -0.02016
# Poissons Ratio (y) = 0.13091 -0.02214
# Poissons Ratio (z) = -0.08471 -0.11839
#
# Static dielectric constant tensor:
#      x y z
#    x 1.952330 0.037430 0.015130 
#    y 0.037430 1.919370 0.048390 
#    z 0.015130 0.048390 1.955270 
# 
# From -- ./inp_files/588566.got.cif
#   From: 2010.05.17/outbox.cif.g08.bks.cpg/sg2_295_cif.got.tgz:588566.got - 2010.06.03 11:33:40.
