data_PCOD9081789
_publ_section_title
;
Structure prediction by ZEFSAII (Michael W. Deem and Ramdas Pophale) SiO2 
 PCOD9081789
Probable space group: P -1
;
_chemical_formula_sum "Si O2"
_cell_formula_units_Z 16
_cell_length_a 14.675505
_cell_length_b 23.892888
_cell_length_c 13.434660
_cell_angle_alpha 27.323948
_cell_angle_beta 29.835248
_cell_angle_gamma 22.047127
_cell_volume 784.758819
_symmetry_space_group_name_H-M "P -1"
_symmetry_group_IT_number 2
_symmetry_cell_setting 'triclinic'
loop_
_space_group_symop_operation_xyz
x,y,z
-x,-y,-z
loop_
_atom_site_type_symbol
_atom_site_label
_atom_site_fract_x
_atom_site_fract_y
_atom_site_fract_z
Si Si1 0.935394 0.988893 0.268566
Si Si2 0.501372 0.701243 0.187200
Si Si3 0.161328 0.615435 0.112909
Si Si4 0.581642 0.880513 0.206175
Si Si5 0.774327 0.827521 0.765666
Si Si6 0.667152 0.424512 0.308523
Si Si7 0.181954 0.873078 0.613966
Si Si8 0.407227 0.637315 0.021889
O O1 0.845380 0.888864 0.511987
O O2 0.222441 0.868976 0.152309
O O3 0.916747 0.036099 0.328710
O O4 0.752341 0.169745 0.106241
O O5 0.613228 0.552373 0.240334
O O6 0.439078 0.654047 0.422052
O O7 0.686080 0.731777 0.974711
O O8 0.200021 0.721581 0.845075
O O9 0.236322 0.621815 0.143287
O O10 0.364471 0.433045 0.159674
O O11 0.871489 0.722281 0.201677
O O12 0.443864 0.815100 0.432851
O O13 0.456459 0.008245 0.215464
O O14 0.500000 0.000000 0.000000
O O15 0.029650 0.714527 0.768425
O O16 0.523133 0.527221 0.184045
O O17 0.000000 0.000000 0.500000
#
# Coordination Sequence:
#
# PCOD9081789 Si02
#       8
#     2   2   2   2   2   2   2   2
#     4   9  21  38  55  82 115 150 191 232 285 342
#     4  10  21  39  62  85 109 148 197 246 283 339
#     4  10  21  37  55  81 120 156 185 232 286 345
#     4  11  20  31  55  87 110 147 196 229 278 341
#     4  10  20  37  59  82 115 146 188 248 286 331
#     4  10  22  38  60  87 114 145 193 243 292 338
#     4  10  19  32  55  83 113 144 187 237 278 327
#     4  10  21  40  57  80 124 158 183 237 294 338
#
# _framework density 20.388431000000001
#
# number of rings (size 3 to 8) (size 9 to 14) (size 15 to 20)
#    0.000    2.000    1.250    2.625    3.500    0.500 
#    0.000   16.875    0.000    0.000    0.000    0.000 
#    0.000    0.000    0.000    0.000    0.000    0.000 
#
# Total GULP energy -89315.543615 kJ/mol
# GULP energy per Si atom -5582.221476 kJ/mol
# Density = 2.034203 g / cm^3
# Si number density = 20.388431 Si / 1000 Ang^3
#
#
#
# Elastic Constant Matrix: (Units=GPa)
#
#
# Indices 1 2 3 4 5 6 
#
# 1 54.4887 16.1778 32.1974 2.9471 -4.3486 -23.4921
# 2 16.1778 96.6698 18.6891 1.7649 -6.2543 -35.1254
# 3 32.1974 18.6891 85.7655 -1.8939 -20.5343 -13.8791
# 4 2.9471 1.7649 -1.8939 33.4279 -7.4638 -5.4350
# 5 -4.3486 -6.2543 -20.5343 -7.4638 23.0857 4.0144
# 6 -23.4921 -35.1254 -13.8791 -5.4350 4.0144 28.2413
#
#
#
# Elastic Compliance Matrix: (Units=1/GPa)
#
#
# Indices 1 2 3 4 5 6 
#
# 1 0.039328 0.009833 -0.012294 0.000084 -0.007797 0.040027
# 2 0.009833 0.021715 -0.002629 0.003571 0.000551 0.034505
# 3 -0.012294 -0.002629 0.020438 0.005557 0.017802 -0.004914
# 4 0.000084 0.003571 0.005557 0.035381 0.015300 0.011876
# 5 -0.007797 0.000551 0.017802 0.015300 0.063319 -0.003107
# 6 0.040027 0.034505 -0.004914 0.011876 -0.003107 0.111933
#
#
# Mechanical properties :
#
#
# Convention : Reuss Voigt Hill
#
# Bulk Modulus (GPa) = 14.02507 41.22808 27.62657
# Shear Modulus (GPa) = 15.33457 28.27496 21.80476
#
# Velocity S-wave (km/s) = 2.74546 3.72804 3.27382
# Velocity P-wave (km/s) = 4.11630 6.22866 5.27921
#
# Compressibility (1/GPa) = 0.07130091
#
# Stress axis : x y z
#
# Youngs Moduli (GPa) = 25.42721 46.05102 48.92911
#
# Poissons Ratio (x) = -0.45283 0.60155
# Poissons Ratio (y) = -0.25003 0.12862
# Poissons Ratio (z) = 0.31261 0.12106
#
# Static dielectric constant tensor:
#      x y z
#    x 1.731300 -0.000620 -0.004800 
#    y -0.000620 1.818460 -0.016730 
#    z -0.004800 -0.016730 1.750910 
# 
# From -- ./inp_files/535401.got.cif
#   From: 2010.05.17/outbox.cif.g08.bks.cpg/sg2_268_cif.got.tgz:535401.got - 2010.06.03 11:33:40.
