data_PCOD9081281
_publ_section_title
;
Structure prediction by ZEFSAII (Michael W. Deem and Ramdas Pophale) SiO2 
 PCOD9081281
Probable space group: P -1
;
_chemical_formula_sum "Si O2"
_cell_formula_units_Z 15
_cell_length_a 11.467727
_cell_length_b 10.115450
_cell_length_c 12.569930
_cell_angle_alpha 155.866710
_cell_angle_beta 91.815820
_cell_angle_gamma 89.243314
_cell_volume 595.431111
_symmetry_space_group_name_H-M "P -1"
_symmetry_group_IT_number 2
_symmetry_cell_setting 'triclinic'
loop_
_space_group_symop_operation_xyz
x,y,z
-x,-y,-z
loop_
_atom_site_type_symbol
_atom_site_label
_atom_site_fract_x
_atom_site_fract_y
_atom_site_fract_z
Si Si1 0.434427 0.248140 0.898134
Si Si2 0.371021 0.866956 0.432426
Si Si3 0.280475 0.792330 0.795603
Si Si4 0.805285 0.110924 0.748284
Si Si5 0.000000 0.500000 0.000000
Si Si6 0.631580 0.869909 0.745182
Si Si7 0.044968 0.400728 0.570356
Si Si8 0.088008 0.153965 0.956867
O O1 0.346186 0.038762 0.668298
O O2 0.522875 0.014663 0.786421
O O3 0.500000 0.500000 0.000000
O O4 0.384101 0.485840 0.157818
O O5 0.283292 0.926599 0.378214
O O6 0.500000 0.000000 0.500000
O O7 0.358400 0.516238 0.544621
O O8 0.166274 0.600939 0.702903
O O9 0.215718 0.023559 0.882939
O O10 0.350560 0.985617 0.031187
O O11 0.871014 0.451037 0.018119
O O12 0.740437 0.007132 0.777338
O O13 0.917289 0.893468 0.566101
O O14 0.067827 0.386576 0.028145
O O15 0.992297 0.175503 0.308274
O O16 0.953334 0.639028 0.791716
#
# Coordination Sequence:
#
# PCOD9081281 Si02
#       8
#     2   2   2   2   1   2   2   2
#     4  10  19  31  53  84 119 138 175 232 297 341
#     4  10  19  32  54  82 117 143 178 236 284 339
#     4  11  21  33  56  80 111 152 183 236 285 336
#     4  10  21  36  56  86 121 150 191 225 288 337
#     4  10  24  40  58  82 116 162 188 232 266 342
#     4  11  21  34  56  89 116 144 181 237 296 332
#     4  10  21  34  57  77 112 145 190 240 273 335
#     4  11  22  40  53  78 110 154 198 224 275 332
#
# _framework density 25.19183
#
# number of rings (size 3 to 8) (size 9 to 14) (size 15 to 20)
#    0.000    1.600    2.667    4.800    5.600    4.267 
#    0.000    0.000    0.000    0.000    0.000    5.600 
#    0.000    0.000    0.000    0.000    0.000    0.000 
#
# Total GULP energy -83600.487143 kJ/mol
# GULP energy per Si atom -5573.365810 kJ/mol
# Density = 2.513449 g / cm^3
# Si number density = 25.191830 Si / 1000 Ang^3
#
#
#
# Elastic Constant Matrix: (Units=GPa)
#
#
# Indices 1 2 3 4 5 6 
#
# 1 53.5960 46.0705 47.6964 6.9659 10.1568 -29.4628
# 2 46.0705 78.6478 -0.3643 -28.7493 -19.3858 -44.0480
# 3 47.6964 -0.3643 122.8199 -59.6635 -47.4435 -26.8198
# 4 6.9659 -28.7493 -59.6635 11.5973 -24.1624 2.7866
# 5 10.1568 -19.3858 -47.4435 -24.1624 18.2463 5.2751
# 6 -29.4628 -44.0480 -26.8198 2.7866 5.2751 58.9756
#
#
#
# Elastic Compliance Matrix: (Units=1/GPa)
#
#
# Indices 1 2 3 4 5 6 
#
# 1 0.019399 -0.000515 0.002379 0.010947 0.006655 0.009276
# 2 -0.000515 0.013528 -0.004239 -0.006859 -0.008036 0.008962
# 3 0.002379 -0.004239 0.003116 -0.004988 -0.004351 0.000064
# 4 0.010947 -0.006859 -0.004988 0.009615 -0.013274 -0.001189
# 5 0.006655 -0.008036 -0.004351 -0.013274 0.015230 -0.005391
# 6 0.009276 0.008962 0.000064 -0.001189 -0.005391 0.028851
#
#
# Mechanical properties :
#
#
# Convention : Reuss Voigt Hill
#
# Bulk Modulus (GPa) = 31.95675 49.09652 40.52663
# Shear Modulus (GPa) = 47.65495 28.54126 38.09811
#
# Velocity S-wave (km/s) = 4.35407 3.36959 3.89307
# Velocity P-wave (km/s) = 6.16361 5.88815 6.02745
#
# Compressibility (1/GPa) = 0.03129230
#
# Stress axis : x y z
#
# Youngs Moduli (GPa) = 51.54926 73.91975 320.94946
#
# Poissons Ratio (x) = 0.03810 -0.76360
# Poissons Ratio (y) = 0.02657 1.36052
# Poissons Ratio (z) = -0.12265 0.31335
#
# Static dielectric constant tensor:
#      x y z
#    x 1.916640 -0.052200 -0.064830 
#    y -0.052200 1.946990 -0.018400 
#    z -0.064830 -0.018400 2.148620 
# 
# From -- ./inp_files/519451.got.cif
#   From: 2010.05.17/outbox.cif.g08.bks.cpg/sg2_260_cif.got.tgz:519451.got - 2010.06.03 11:33:40.
