data_PCOD9081512
_publ_section_title
;
Structure prediction by ZEFSAII (Michael W. Deem and Ramdas Pophale) SiO2 
 PCOD9081512
Probable space group: P -1
;
_chemical_formula_sum "Si O2"
_cell_formula_units_Z 16
_cell_length_a 26.110698
_cell_length_b 7.973332
_cell_length_c 7.776606
_cell_angle_alpha 141.269070
_cell_angle_beta 46.009446
_cell_angle_gamma 134.760014
_cell_volume 679.733406
_symmetry_space_group_name_H-M "P -1"
_symmetry_group_IT_number 2
_symmetry_cell_setting 'triclinic'
loop_
_space_group_symop_operation_xyz
x,y,z
-x,-y,-z
loop_
_atom_site_type_symbol
_atom_site_label
_atom_site_fract_x
_atom_site_fract_y
_atom_site_fract_z
Si Si1 0.454677 0.230634 0.145014
Si Si2 0.081290 0.294890 0.234009
Si Si3 0.676925 0.720618 0.680089
Si Si4 0.002479 0.358232 0.104806
Si Si5 0.597102 0.428638 0.178245
Si Si6 0.247724 0.347223 0.188097
Si Si7 0.239096 0.626300 0.979778
Si Si8 0.838386 0.308620 0.150468
O O1 0.411620 0.320448 0.162514
O O2 0.544019 0.386703 0.098268
O O3 0.416859 0.328493 0.478158
O O4 0.435240 0.888616 0.915185
O O5 0.043681 0.323577 0.160162
O O6 0.171540 0.420876 0.090925
O O7 0.053650 0.481777 0.580010
O O8 0.044476 0.962564 0.103415
O O9 0.707593 0.683414 0.765900
O O10 0.722636 0.051071 0.782155
O O11 0.699705 0.510306 0.332348
O O12 0.071278 0.540927 0.967428
O O13 0.684570 0.510966 0.989499
O O14 0.197735 0.534249 0.505572
O O15 0.192770 0.028742 0.012386
O O16 0.197645 0.656090 0.921953
#
# Coordination Sequence:
#
# PCOD9081512 Si02
#       8
#     2   2   2   2   2   2   2   2
#     4  10  21  37  55  75 101 131 164 205 248 292
#     4   9  15  23  37  59  92 132 164 192 237 293
#     4  10  19  32  51  74 102 133 164 203 249 296
#     4   9  15  23  37  59  92 132 164 192 237 293
#     4  10  21  37  55  75 101 131 164 205 248 292
#     4  10  19  32  51  74 102 133 164 203 249 296
#     4   9  17  28  43  68 101 132 163 203 248 289
#     4   9  17  28  43  68 101 132 163 203 248 289
#
# _framework density 23.538640000000001
#
# number of rings (size 3 to 8) (size 9 to 14) (size 15 to 20)
#    0.000    2.500    0.000    3.000    0.000    6.500 
#    0.000    0.000    0.000    9.000    0.000    0.000 
#    0.000   70.000    0.000    0.000    0.000    0.000 
#
# Total GULP energy -89555.550583 kJ/mol
# GULP energy per Si atom -5597.221911 kJ/mol
# Density = 2.348506 g / cm^3
# Si number density = 23.538640 Si / 1000 Ang^3
#
#
#
# Elastic Constant Matrix: (Units=GPa)
#
#
# Indices 1 2 3 4 5 6 
#
# 1 -984.0726 6008.4555-1389.7615 4437.8061**********-3329.6522
# 2 6008.4555********** 7640.6875**********70482.778418278.4025
# 3 -1389.7615 7640.6875-1632.3734 5640.3995**********-4217.5783
# 4 4437.8061********** 5640.3995**********52135.412013506.4980
# 5 **********70482.7784**********52135.4120********************
# 6 -3329.652218278.4025-4217.578313506.4980********************
#
#
#
# Elastic Compliance Matrix: (Units=1/GPa)
#
#
# Indices 1 2 3 4 5 6 
#
# 1 0.009011 0.000186 -0.000054 0.000988 0.000254 -0.002271
# 2 0.000186 0.011300 -0.003475 -0.000533 0.005449 -0.000017
# 3 -0.000054 -0.003475 0.009847 -0.004038 -0.003303 -0.002962
# 4 0.000988 -0.000533 -0.004038 0.025678 0.006947 0.007764
# 5 0.000254 0.005449 -0.003303 0.006947 0.006196 -0.003590
# 6 -0.002271 -0.000017 -0.002962 0.007764 -0.003590 0.026121
#
#
# Mechanical properties :
#
#
# Convention : Reuss Voigt Hill
#
# Bulk Modulus (GPa) = 42.60286 -1207.31138 -582.35426
# Shear Modulus (GPa) = 48.70248 -39015.40806 -19483.35279
#
# Velocity S-wave (km/s) = 4.55361 -128.88379 -91.07770
# Velocity P-wave (km/s) = 6.76650 150.53923 106.33973
#
# Compressibility (1/GPa) = 0.02347260
#
# Stress axis : x y z
#
# Youngs Moduli (GPa) = 110.97891 88.49177 101.55081
#
# Poissons Ratio (x) = -0.01646 0.00550
# Poissons Ratio (y) = -0.02064 0.35286
# Poissons Ratio (z) = 0.00601 0.30749
#
# Static dielectric constant tensor:
#      x y z
#    x 1.995800 -0.026720 0.008390 
#    y -0.026720 1.810330 0.001410 
#    z 0.008390 0.001410 1.790110 
# 
# From -- ./inp_files/51115.got.cif
#   From: 2010.05.17/outbox.cif.g08.bks.cpg/sg2_26_cif.got.tgz:51115.got - 2010.06.03 11:33:40.
