data_PCOD9081814
_publ_section_title
;
Structure prediction by ZEFSAII (Michael W. Deem and Ramdas Pophale) SiO2 
 PCOD9081814
Probable space group: P -1
;
_chemical_formula_sum "Si O2"
_cell_formula_units_Z 16
_cell_length_a 9.186488
_cell_length_b 16.311171
_cell_length_c 15.366027
_cell_angle_alpha 36.097973
_cell_angle_beta 124.949197
_cell_angle_gamma 134.157029
_cell_volume 972.962168
_symmetry_space_group_name_H-M "P -1"
_symmetry_group_IT_number 2
_symmetry_cell_setting 'triclinic'
loop_
_space_group_symop_operation_xyz
x,y,z
-x,-y,-z
loop_
_atom_site_type_symbol
_atom_site_label
_atom_site_fract_x
_atom_site_fract_y
_atom_site_fract_z
Si Si1 0.415811 0.297791 0.995455
Si Si2 0.063695 0.389961 0.559303
Si Si3 0.316007 0.020647 0.952456
Si Si4 0.870268 0.481578 0.057710
Si Si5 0.906416 0.520421 0.701279
Si Si6 0.542234 0.617401 0.266810
Si Si7 0.035703 0.271653 0.985940
Si Si8 0.162846 0.956809 0.137400
O O1 0.453995 0.361873 0.854329
O O2 0.246299 0.326795 0.960575
O O3 0.632520 0.378795 0.046432
O O4 0.312276 0.106544 0.117885
O O5 0.024098 0.391130 0.442003
O O6 0.302978 0.446792 0.602412
O O7 0.000000 0.500000 0.500000
O O8 0.947303 0.210933 0.709766
O O9 0.370793 0.203934 0.818979
O O10 0.500000 0.000000 0.000000
O O11 0.281489 0.953165 0.096366
O O12 0.112919 0.914456 0.918373
O O13 0.919983 0.654336 0.965626
O O14 0.944813 0.410757 0.223311
O O15 0.000000 0.500000 0.000000
O O16 0.683811 0.484380 0.685925
O O17 0.912304 0.355059 0.831278
O O18 0.000000 0.000000 0.000000
#
# Coordination Sequence:
#
# PCOD9081814 Si02
#       8
#     2   2   2   2   2   2   2   2
#     4  11  18  36  59  86 112 149 198 248 275 342
#     4  12  23  38  56  87 126 149 188 238 299 363
#     4  11  18  32  57  86 118 143 193 242 286 345
#     4  10  21  36  55  84 117 154 198 241 280 342
#     4  10  22  35  53  82 117 155 189 228 300 338
#     4  11  20  34  59  86 119 152 187 241 299 341
#     4  10  19  32  55  88 113 147 196 235 292 333
#     4  11  21  36  59  85 115 151 189 243 291 339
#
# _framework density 16.444628000000002
#
# number of rings (size 3 to 8) (size 9 to 14) (size 15 to 20)
#    0.750    0.500    6.250    2.250    1.750    0.000 
#    0.000    0.625    0.000    0.000    0.000    2.625 
#    0.000    0.000    0.000    0.000    0.000    0.000 
#
# Total GULP energy -89114.568580 kJ/mol
# GULP energy per Si atom -5569.660536 kJ/mol
# Density = 1.640720 g / cm^3
# Si number density = 16.444628 Si / 1000 Ang^3
#
#
#
# Elastic Constant Matrix: (Units=GPa)
#
#
# Indices 1 2 3 4 5 6 
#
# 1 151.9491 39.1184 28.9675 11.8250 1.3137 0.4703
# 2 39.1184 105.5797 21.4945 9.0156 5.5662 -1.8174
# 3 28.9675 21.4945 59.2138 13.4374 -5.6560 -6.5923
# 4 11.8250 9.0156 13.4374 19.5663 -0.1569 3.5274
# 5 1.3137 5.5662 -5.6560 -0.1569 24.6787 5.0884
# 6 0.4703 -1.8174 -6.5923 3.5274 5.0884 31.2159
#
#
#
# Elastic Compliance Matrix: (Units=1/GPa)
#
#
# Indices 1 2 3 4 5 6 
#
# 1 0.007803 -0.002171 -0.002739 -0.001738 -0.000451 -0.000553
# 2 -0.002171 0.011200 -0.002723 -0.002163 -0.003230 0.000881
# 3 -0.002739 -0.002723 0.023548 -0.014243 0.004898 0.005667
# 4 -0.001738 -0.002163 -0.014243 0.064813 -0.000125 -0.010411
# 5 -0.000451 -0.003230 0.004898 -0.000125 0.043685 -0.006254
# 6 -0.000553 0.000881 0.005667 -0.010411 -0.006254 0.035487
#
#
# Mechanical properties :
#
#
# Convention : Reuss Voigt Hill
#
# Bulk Modulus (GPa) = 36.65135 55.10037 45.87586
# Shear Modulus (GPa) = 23.70815 30.23633 26.97224
#
# Velocity S-wave (km/s) = 3.80109 4.29263 4.05431
# Velocity P-wave (km/s) = 6.44984 7.62550 7.06218
#
# Compressibility (1/GPa) = 0.02728412
#
# Stress axis : x y z
#
# Youngs Moduli (GPa) = 128.15377 89.28235 42.46709
#
# Poissons Ratio (x) = 0.19381 0.11634
# Poissons Ratio (y) = 0.27819 0.11565
# Poissons Ratio (z) = 0.35107 0.24315
#
# Static dielectric constant tensor:
#      x y z
#    x 1.611710 0.008030 -0.002020 
#    y 0.008030 1.573780 -0.008090 
#    z -0.002020 -0.008090 1.553930 
# 
# From -- ./inp_files/561728.got.cif
#   From: 2010.05.17/outbox.cif.g08.bks.cpg/sg2_281_cif.got.tgz:561728.got - 2010.06.03 11:33:40.
