data_PCOD9081657
_publ_section_title
;
Structure prediction by ZEFSAII (Michael W. Deem and Ramdas Pophale) SiO2 
 PCOD9081657
Probable space group: P -1
;
_chemical_formula_sum "Si O2"
_cell_formula_units_Z 16
_cell_length_a 6.988397
_cell_length_b 14.713777
_cell_length_c 23.985523
_cell_angle_alpha 18.984386
_cell_angle_beta 54.223963
_cell_angle_gamma 51.897718
_cell_volume 631.349973
_symmetry_space_group_name_H-M "P -1"
_symmetry_group_IT_number 2
_symmetry_cell_setting 'triclinic'
loop_
_space_group_symop_operation_xyz
x,y,z
-x,-y,-z
loop_
_atom_site_type_symbol
_atom_site_label
_atom_site_fract_x
_atom_site_fract_y
_atom_site_fract_z
Si Si1 0.907779 0.338502 0.200672
Si Si2 0.530424 0.926796 0.707097
Si Si3 0.511144 0.477158 0.446035
Si Si4 0.704529 0.825342 0.139819
Si Si5 0.036744 0.896162 0.841195
Si Si6 0.066654 0.845545 0.168475
Si Si7 0.242975 0.747539 0.606701
Si Si8 0.977317 0.771956 0.454686
O O1 0.196851 0.243230 0.224360
O O2 0.732708 0.346744 0.278648
O O3 0.886591 0.654315 0.996678
O O4 0.859411 0.088548 0.314690
O O5 0.317539 0.767597 0.846887
O O6 0.410701 0.210880 0.599831
O O7 0.569156 0.090379 0.548099
O O8 0.500000 0.500000 0.500000
O O9 0.473277 0.749430 0.253800
O O10 0.804032 0.332647 0.477754
O O11 0.793990 0.530981 0.259085
O O12 0.856648 0.894125 0.127925
O O13 0.714360 0.066333 0.952682
O O14 0.945605 0.162961 0.658943
O O15 0.019360 0.977044 0.863115
O O16 0.129127 0.507393 0.367097
O O17 0.000000 0.000000 0.500000
#
# Coordination Sequence:
#
# PCOD9081657 Si02
#       8
#     2   2   2   2   2   2   2   2
#     4  10  20  37  57  78 108 149 188 220 271 331
#     4   9  19  31  55  83 108 134 187 233 269 312
#     4   9  17  34  57  79 108 144 181 223 274 325
#     4   9  17  31  53  82 106 137 181 231 263 318
#     4  12  21  35  56  85 113 142 180 233 274 323
#     4  10  19  32  53  81 110 137 185 223 270 318
#     4   9  16  32  55  79 105 143 179 224 277 320
#     4  10  22  36  55  78 114 151 177 217 283 336
#
# _framework density 25.342518999999999
#
# number of rings (size 3 to 8) (size 9 to 14) (size 15 to 20)
#    0.000    2.250    1.250    4.875    0.000    0.000 
#    0.000    0.625    2.750    2.250    0.000    0.000 
#    0.000    0.000    0.000    0.000    0.000    0.000 
#
# Total GULP energy -89129.765914 kJ/mol
# GULP energy per Si atom -5570.610370 kJ/mol
# Density = 2.528484 g / cm^3
# Si number density = 25.342519 Si / 1000 Ang^3
#
#
#
# Elastic Constant Matrix: (Units=GPa)
#
#
# Indices 1 2 3 4 5 6 
#
# 1 55.3433 -0.1179 0.3612 -1.3255 -3.7637 4.1786
# 2 -0.1179 153.3718 60.3236 24.9722 -16.0356 25.9311
# 3 0.3612 60.3236 205.9634 30.1893 -18.1891 11.4951
# 4 -1.3255 24.9722 30.1893 45.7702 9.7353 4.8978
# 5 -3.7637 -16.0356 -18.1891 9.7353 26.9270 -8.3318
# 6 4.1786 25.9311 11.4951 4.8978 -8.3318 25.4511
#
#
#
# Elastic Compliance Matrix: (Units=1/GPa)
#
#
# Indices 1 2 3 4 5 6 
#
# 1 0.018450 0.000727 0.000131 -0.000077 0.002167 -0.003104
# 2 0.000727 0.009357 -0.001348 -0.004366 0.004232 -0.006818
# 3 0.000131 -0.001348 0.006384 -0.004807 0.005650 0.001243
# 4 -0.000077 -0.004366 -0.004807 0.032129 -0.019288 -0.005865
# 5 0.002167 0.004232 0.005650 -0.019288 0.055264 0.014583
# 6 -0.003104 -0.006818 0.001243 -0.005865 0.014583 0.052089
#
#
# Mechanical properties :
#
#
# Convention : Reuss Voigt Hill
#
# Bulk Modulus (GPa) = 30.11113 59.53470 44.82292
# Shear Modulus (GPa) = 26.92203 43.23711 35.07957
#
# Velocity S-wave (km/s) = 3.26287 4.13499 3.72454
# Velocity P-wave (km/s) = 5.10907 6.80739 6.01843
#
# Compressibility (1/GPa) = 0.03321031
#
# Stress axis : x y z
#
# Youngs Moduli (GPa) = 54.20156 106.87413 156.64592
#
# Poissons Ratio (x) = -0.07767 -0.02048
# Poissons Ratio (y) = -0.03939 0.21108
# Poissons Ratio (z) = -0.00709 0.14402
#
# Static dielectric constant tensor:
#      x y z
#    x 2.099350 -0.091730 -0.003600 
#    y -0.091730 2.012590 0.092660 
#    z -0.003600 0.092660 1.937170 
# 
# From -- ./inp_files/436383.got.cif
#   From: 2010.05.17/outbox.cif.g08.bks.cpg/sg2_219_cif.got.tgz:436383.got - 2010.06.03 11:33:40.
