data_PCOD9081191
_publ_section_title
;
Structure prediction by ZEFSAII (Michael W. Deem and Ramdas Pophale) SiO2 
 PCOD9081191
Probable space group: P -1
;
_chemical_formula_sum "Si O2"
_cell_formula_units_Z 16
_cell_length_a 14.459419
_cell_length_b 14.903624
_cell_length_c 14.780414
_cell_angle_alpha 109.811010
_cell_angle_beta 19.445433
_cell_angle_gamma 101.595915
_cell_volume 923.347076
_symmetry_space_group_name_H-M "P -1"
_symmetry_group_IT_number 2
_symmetry_cell_setting 'triclinic'
loop_
_space_group_symop_operation_xyz
x,y,z
-x,-y,-z
loop_
_atom_site_type_symbol
_atom_site_label
_atom_site_fract_x
_atom_site_fract_y
_atom_site_fract_z
Si Si1 0.050285 0.803657 0.517485
Si Si2 0.098174 0.969558 0.295473
Si Si3 0.347770 0.427866 0.658417
Si Si4 0.361127 0.353682 0.437153
Si Si5 0.313053 0.510845 0.899818
Si Si6 0.340970 0.503515 0.246659
Si Si7 0.777418 0.832577 0.584111
Si Si8 0.707336 0.674192 0.852529
O O1 0.996723 0.794840 0.455937
O O2 0.796884 0.770284 0.782311
O O3 0.377125 0.722131 0.215859
O O4 0.008943 0.920134 0.616948
O O5 0.938501 0.890233 0.391410
O O6 0.455918 0.915208 0.940804
O O7 0.000000 0.000000 0.500000
O O8 0.500000 0.500000 0.500000
O O9 0.412479 0.339041 0.493648
O O10 0.425162 0.419701 0.690357
O O11 0.000000 0.500000 0.000000
O O12 0.604865 0.393289 0.181473
O O13 0.306771 0.257798 0.411636
O O14 0.044044 0.449043 0.748640
O O15 0.463225 0.481672 0.848299
O O16 0.324773 0.390246 0.227697
O O17 0.003627 0.588209 0.593474
O O18 0.500000 0.500000 0.000000
#
# Coordination Sequence:
#
# PCOD9081191 Si02
#       8
#     2   2   2   2   2   2   2   2
#     4  11  19  33  47  63  90 129 160 185 236 280
#     4  10  20  32  45  66  94 122 157 195 233 285
#     4   8  16  31  47  69  93 122 157 196 228 284
#     4  10  19  31  51  73  95 125 165 188 235 292
#     4  10  20  32  49  67  99 134 158 192 241 270
#     4  11  23  35  45  70 100 127 167 204 227 266
#     4  11  19  30  47  70  94 122 155 197 233 284
#     4  11  22  32  47  63  92 126 164 197 221 269
#
# _framework density 17.328263
#
# number of rings (size 3 to 8) (size 9 to 14) (size 15 to 20)
#    0.000    1.750    1.250    6.000    3.500    0.000 
#    0.000    0.000    0.000    0.000    0.000    0.000 
#    0.000    6.000    0.000    0.000    0.000    0.250 
#
# Total GULP energy -89104.209612 kJ/mol
# GULP energy per Si atom -5569.013101 kJ/mol
# Density = 1.728882 g / cm^3
# Si number density = 17.328263 Si / 1000 Ang^3
#
#
#
# Elastic Constant Matrix: (Units=GPa)
#
#
# Indices 1 2 3 4 5 6 
#
# 1 86.7376 -2.4383 12.4527 5.6797 2.8383 6.6647
# 2 -2.4383 58.4830 5.4473 -9.5219 0.4509 9.5134
# 3 12.4527 5.4473 78.1718 -7.3622 -13.8551 -5.5579
# 4 5.6797 -9.5219 -7.3622 30.3044 3.0761 -3.1809
# 5 2.8383 0.4509 -13.8551 3.0761 17.7482 -0.6628
# 6 6.6647 9.5134 -5.5579 -3.1809 -0.6628 15.5844
#
#
#
# Elastic Compliance Matrix: (Units=1/GPa)
#
#
# Indices 1 2 3 4 5 6 
#
# 1 0.013274 0.001939 -0.004136 -0.003328 -0.005168 -0.009234
# 2 0.001939 0.020439 -0.003101 0.004323 -0.004512 -0.013722
# 3 -0.004136 -0.003101 0.017301 0.003756 0.014013 0.011194
# 4 -0.003328 0.004323 0.003756 0.036967 -0.002770 0.007551
# 5 -0.005168 -0.004512 0.014013 -0.002770 0.069165 0.012338
# 6 -0.009234 -0.013722 0.011194 0.007551 0.012338 0.082551
#
#
# Mechanical properties :
#
#
# Convention : Reuss Voigt Hill
#
# Bulk Modulus (GPa) = 24.74177 28.25731 26.49954
# Shear Modulus (GPa) = 18.95625 26.58943 22.77284
#
# Velocity S-wave (km/s) = 3.31108 3.92146 3.62913
# Velocity P-wave (km/s) = 5.37838 6.07011 5.73468
#
# Compressibility (1/GPa) = 0.04041748
#
# Stress axis : x y z
#
# Youngs Moduli (GPa) = 75.33606 48.92498 57.80174
#
# Poissons Ratio (x) = -0.09485 0.23905
# Poissons Ratio (y) = -0.14606 0.17926
# Poissons Ratio (z) = 0.31156 0.15173
#
# Static dielectric constant tensor:
#      x y z
#    x 1.639760 0.006860 0.020090 
#    y 0.006860 1.661050 -0.007810 
#    z 0.020090 -0.007810 1.608040 
# 
# From -- ./inp_files/532954.got.cif
#   From: 2010.05.17/outbox.cif.g08.bks.cpg/sg2_267_cif.got.tgz:532954.got - 2010.06.03 11:33:40.
