data_PCOD9081687
_publ_section_title
;
Structure prediction by ZEFSAII (Michael W. Deem and Ramdas Pophale) SiO2 
 PCOD9081687
Probable space group: P -1
;
_chemical_formula_sum "Si O2"
_cell_formula_units_Z 16
_cell_length_a 17.568269
_cell_length_b 14.747991
_cell_length_c 14.178859
_cell_angle_alpha 40.657075
_cell_angle_beta 159.230687
_cell_angle_gamma 139.002267
_cell_volume 832.201451
_symmetry_space_group_name_H-M "P -1"
_symmetry_group_IT_number 2
_symmetry_cell_setting 'triclinic'
loop_
_space_group_symop_operation_xyz
x,y,z
-x,-y,-z
loop_
_atom_site_type_symbol
_atom_site_label
_atom_site_fract_x
_atom_site_fract_y
_atom_site_fract_z
Si Si1 0.214587 0.056162 0.057874
Si Si2 0.467581 0.801826 0.540375
Si Si3 0.775792 0.863359 0.674454
Si Si4 0.030301 0.634621 0.208688
Si Si5 0.363162 0.944616 0.793675
Si Si6 0.985485 0.687776 0.538641
Si Si7 0.424834 0.210855 0.000701
Si Si8 0.909125 0.333170 0.532326
O O1 0.334386 0.176626 0.172679
O O2 0.328478 0.920818 0.311339
O O3 0.285278 0.100298 0.998733
O O4 0.958782 0.993196 0.825998
O O5 0.574592 0.828580 0.540845
O O6 0.283168 0.661461 0.447017
O O7 0.709234 0.926596 0.449438
O O8 0.889097 0.725663 0.912000
O O9 0.035603 0.697858 0.271651
O O10 0.947139 0.464699 0.248991
O O11 0.154300 0.820138 0.672776
O O12 0.504217 0.869269 0.943596
O O13 0.500000 0.000000 0.000000
O O14 0.991619 0.718548 0.407894
O O15 0.741401 0.685160 0.294621
O O16 0.648112 0.287149 0.250543
O O17 0.000000 0.500000 0.500000
#
# Coordination Sequence:
#
# PCOD9081687 Si02
#       8
#     2   2   2   2   2   2   2   2
#     4  10  19  32  53  89 119 157 190 232 283 356
#     4  10  20  32  55  85 129 157 191 227 292 354
#     4  11  22  37  59  85 119 158 198 248 293 348
#     4  10  22  36  57  90 126 164 191 228 291 362
#     4  11  25  44  65  87 110 149 207 266 309 344
#     4  10  23  40  60  88 124 158 202 244 290 355
#     4  11  20  37  61  85 121 155 198 238 291 345
#     4   9  20  35  54  88 129 168 196 222 278 358
#
# _framework density 19.226115
#
# number of rings (size 3 to 8) (size 9 to 14) (size 15 to 20)
#    0.000    1.750    3.750    0.375    1.750    5.500 
#    0.000    0.625    0.000    1.500    0.000    0.000 
#    0.000    0.000    0.000    0.000    0.000    0.000 
#
# Total GULP energy -89220.607521 kJ/mol
# GULP energy per Si atom -5576.287970 kJ/mol
# Density = 1.918236 g / cm^3
# Si number density = 19.226115 Si / 1000 Ang^3
#
#
#
# Elastic Constant Matrix: (Units=GPa)
#
#
# Indices 1 2 3 4 5 6 
#
# 1 54.1839 35.1096 43.0512 6.7452 -5.5592 8.4244
# 2 35.1096 87.8480 44.0952 -6.4119 -13.4328 6.4983
# 3 43.0512 44.0952 104.6810 -6.8203 -10.0815 -6.4296
# 4 6.7452 -6.4119 -6.8203 29.0753 1.1394 -0.9138
# 5 -5.5592 -13.4328 -10.0815 1.1394 35.5434 6.5510
# 6 8.4244 6.4983 -6.4296 -0.9138 6.5510 27.8098
#
#
#
# Elastic Compliance Matrix: (Units=1/GPa)
#
#
# Indices 1 2 3 4 5 6 
#
# 1 0.039632 -0.008283 -0.014466 -0.014949 0.002098 -0.014400
# 2 -0.008283 0.017822 -0.003532 0.004721 0.004928 -0.003477
# 3 -0.014466 -0.003532 0.018002 0.007126 -0.000512 0.009725
# 4 -0.014949 0.004721 0.007126 0.040826 -0.001070 0.006667
# 5 0.002098 0.004928 -0.000512 -0.001070 0.031959 -0.009469
# 6 -0.014400 -0.003477 0.009725 0.006667 -0.009469 0.045831
#
#
# Mechanical properties :
#
#
# Convention : Reuss Voigt Hill
#
# Bulk Modulus (GPa) = 43.68108 54.58056 49.13082
# Shear Modulus (GPa) = 19.66427 26.78280 23.22354
#
# Velocity S-wave (km/s) = 3.20158 3.73640 3.47928
# Velocity P-wave (km/s) = 6.03621 6.86037 6.46144
#
# Compressibility (1/GPa) = 0.02289321
#
# Stress axis : x y z
#
# Youngs Moduli (GPa) = 25.23185 56.11030 55.54810
#
# Poissons Ratio (x) = 0.46478 0.80359
# Poissons Ratio (y) = 0.20900 0.19620
# Poissons Ratio (z) = 0.36502 0.19819
#
# Static dielectric constant tensor:
#      x y z
#    x 1.686850 0.034180 0.056110 
#    y 0.034180 1.694630 -0.019340 
#    z 0.056110 -0.019340 1.788150 
# 
# From -- ./inp_files/77463.got.cif
#   From: 2010.05.17/outbox.cif.g08.bks.cpg/sg2_39_cif.got.tgz:77463.got - 2010.06.03 11:33:40.
