data_PCOD9081971
_publ_section_title
;
Structure prediction by ZEFSAII (Michael W. Deem and Ramdas Pophale) SiO2 
 PCOD9081971
Probable space group: P -1
;
_chemical_formula_sum "Si O2"
_cell_formula_units_Z 12
_cell_length_a 5.251761
_cell_length_b 27.080095
_cell_length_c 16.910730
_cell_angle_alpha 162.137559
_cell_angle_beta 75.015446
_cell_angle_gamma 111.388110
_cell_volume 653.048203
_symmetry_space_group_name_H-M "P -1"
_symmetry_group_IT_number 2
_symmetry_cell_setting 'triclinic'
loop_
_space_group_symop_operation_xyz
x,y,z
-x,-y,-z
loop_
_atom_site_type_symbol
_atom_site_label
_atom_site_fract_x
_atom_site_fract_y
_atom_site_fract_z
Si Si1 0.841203 0.602317 0.121817
Si Si2 0.348520 0.193390 0.845626
Si Si3 0.000295 0.686033 0.055833
Si Si4 0.163030 0.481863 0.342275
Si Si5 0.926138 0.993486 0.263787
Si Si6 0.320730 0.781375 0.907867
O O1 0.925411 0.622413 0.053286
O O2 0.500000 0.500000 0.000000
O O3 0.945848 0.800298 0.447720
O O4 0.000000 0.500000 0.000000
O O5 0.661244 0.206164 0.819709
O O6 0.176761 0.041500 0.689409
O O7 0.175273 0.204207 0.797677
O O8 0.363129 0.370947 0.160536
O O9 0.908356 0.523812 0.753333
O O10 0.297584 0.665387 0.655285
O O11 0.871749 0.358279 0.223297
O O12 0.642051 0.886386 0.072619
O O13 0.162073 0.912733 0.109510
#
# Coordination Sequence:
#
# PCOD9081971 Si02
#       6
#     2   2   2   2   2   2
#     4  12  27  44  61  76 109 163 205 243 276 327
#     4   9  18  33  57  95 114 143 175 231 300 340
#     4  10  20  37  58  87 115 151 187 232 285 348
#     4   8  19  31  58  90 127 149 170 217 298 359
#     4  11  21  37  57  89 118 148 191 235 285 340
#     4  10  19  32  58  91 128 146 173 223 291 366
#
# _framework density 18.375367000000001
#
# number of rings (size 3 to 8) (size 9 to 14) (size 15 to 20)
#    1.000    1.000    1.667    2.000    2.333    3.333 
#    0.000    0.000    0.000    6.000    0.000    0.000 
#    0.000    0.000    0.000    0.000    0.000    0.000 
#
# Total GULP energy -66939.915202 kJ/mol
# GULP energy per Si atom -5578.326267 kJ/mol
# Density = 1.833354 g / cm^3
# Si number density = 18.375367 Si / 1000 Ang^3
#
#
#
# Elastic Constant Matrix: (Units=GPa)
#
#
# Indices 1 2 3 4 5 6 
#
# 1 118.1013 21.2168 36.2417 9.5945 16.4291 -25.2344
# 2 21.2168 60.1815 52.4508 -0.9076 6.8752 -16.5682
# 3 36.2417 52.4508 118.9731 -2.3688 8.9419 -18.5305
# 4 9.5945 -0.9076 -2.3688 30.1421 -3.4922 0.1414
# 5 16.4291 6.8752 8.9419 -3.4922 22.2035 2.5099
# 6 -25.2344 -16.5682 -18.5305 0.1414 2.5099 26.0034
#
#
#
# Elastic Compliance Matrix: (Units=1/GPa)
#
#
# Indices 1 2 3 4 5 6 
#
# 1 0.014273 0.002478 -0.002218 -0.006235 -0.013128 0.015150
# 2 0.002478 0.030659 -0.011366 -0.001835 -0.008698 0.014689
# 3 -0.002218 -0.011366 0.014282 0.001429 -0.000459 0.000820
# 4 -0.006235 -0.001835 0.001429 0.036551 0.011201 -0.007481
# 5 -0.013128 -0.008698 -0.000459 0.011201 0.062181 -0.024672
# 6 0.015150 0.014689 0.000820 -0.007481 -0.024672 0.065524
#
#
# Mechanical properties :
#
#
# Convention : Reuss Voigt Hill
#
# Bulk Modulus (GPa) = 27.02599 57.45270 42.23934
# Shear Modulus (GPa) = 19.37873 28.15958 23.76915
#
# Velocity S-wave (km/s) = 3.25099 3.91892 3.60047
# Velocity P-wave (km/s) = 5.36950 7.19800 6.34991
#
# Compressibility (1/GPa) = 0.03700143
#
# Stress axis : x y z
#
# Youngs Moduli (GPa) = 70.06471 32.61711 70.01593
#
# Poissons Ratio (x) = -0.08082 0.15529
# Poissons Ratio (y) = -0.17360 0.79580
# Poissons Ratio (z) = 0.15540 0.37073
#
# Static dielectric constant tensor:
#      x y z
#    x 1.624100 -0.007790 -0.001880 
#    y -0.007790 1.617330 -0.035600 
#    z -0.001880 -0.035600 1.652680 
# 
# From -- ./inp_files/74171.got.cif
#   From: 2010.05.17/outbox.cif.g08.bks.cpg/sg2_38_cif.got.tgz:74171.got - 2010.06.03 11:33:40.
