data_PCOD9081079
_publ_section_title
;
Structure prediction by ZEFSAII (Michael W. Deem and Ramdas Pophale) SiO2 
 PCOD9081079
Probable space group: P -1
;
_chemical_formula_sum "Si O2"
_cell_formula_units_Z 16
_cell_length_a 11.742732
_cell_length_b 30.098433
_cell_length_c 6.395864
_cell_angle_alpha 111.283411
_cell_angle_beta 101.911835
_cell_angle_gamma 28.339001
_cell_volume 966.640249
_symmetry_space_group_name_H-M "P -1"
_symmetry_group_IT_number 2
_symmetry_cell_setting 'triclinic'
loop_
_space_group_symop_operation_xyz
x,y,z
-x,-y,-z
loop_
_atom_site_type_symbol
_atom_site_label
_atom_site_fract_x
_atom_site_fract_y
_atom_site_fract_z
Si Si1 0.956175 0.596456 0.665128
Si Si2 0.474082 0.471685 0.129695
Si Si3 0.286612 0.884017 0.900586
Si Si4 0.486329 0.287186 0.542252
Si Si5 0.284602 0.230452 0.370534
Si Si6 0.381926 0.265128 0.846990
Si Si7 0.494895 0.611858 0.352430
Si Si8 0.169784 0.656559 0.569961
O O1 0.789115 0.620719 0.506276
O O2 0.879810 0.675692 0.681277
O O3 0.248380 0.483622 0.583196
O O4 0.846503 0.636266 0.925793
O O5 0.259986 0.573303 0.361501
O O6 0.706986 0.384587 0.225131
O O7 0.500000 0.500000 0.000000
O O8 0.444644 0.433347 0.928216
O O9 0.344978 0.813999 0.677481
O O10 0.449604 0.864902 0.806700
O O11 0.407645 0.830657 0.081434
O O12 0.000000 0.000000 0.000000
O O13 0.468504 0.278126 0.760770
O O14 0.574510 0.308274 0.568719
O O15 0.312884 0.248544 0.629576
O O16 0.126606 0.239922 0.355131
O O17 0.289855 0.654351 0.467834
#
# Coordination Sequence:
#
# PCOD9081079 Si02
#       8
#     2   2   2   2   2   2   2   2
#     4   9  17  29  45  67  99 132 161 192 225 269
#     4   9  18  28  43  64  92 134 174 194 218 259
#     4   9  19  35  55  75  91 112 150 202 251 292
#     4   9  20  32  46  72  98 126 161 193 236 285
#     4   9  17  30  49  72  94 122 160 197 235 276
#     4   8  17  32  50  70  96 120 151 195 239 282
#     4  11  20  29  45  69 101 138 165 187 224 275
#     4  10  19  31  44  66  99 130 164 200 224 263
#
# _framework density 16.552175999999999
#
# number of rings (size 3 to 8) (size 9 to 14) (size 15 to 20)
#    0.000    3.250    0.000    3.375    0.000    8.500 
#    0.000    0.000    0.000    0.750    0.000    2.625 
#    0.000    0.000    0.000    0.000    0.000    0.000 
#
# Total GULP energy -89077.723349 kJ/mol
# GULP energy per Si atom -5567.357709 kJ/mol
# Density = 1.651450 g / cm^3
# Si number density = 16.552176 Si / 1000 Ang^3
#
#
#
# Elastic Constant Matrix: (Units=GPa)
#
#
# Indices 1 2 3 4 5 6 
#
# 1 115.8424 46.1688 37.1993 6.6985 -14.3923 -12.4679
# 2 46.1688 59.2080 26.1561 6.2179 -12.3369 -12.4200
# 3 37.1993 26.1561 64.7970 -13.4758 -12.4272 1.2577
# 4 6.6985 6.2179 -13.4758 19.2900 2.0850 -6.3815
# 5 -14.3923 -12.3369 -12.4272 2.0850 22.1424 3.7585
# 6 -12.4679 -12.4200 1.2577 -6.3815 3.7585 16.0581
#
#
#
# Elastic Compliance Matrix: (Units=1/GPa)
#
#
# Indices 1 2 3 4 5 6 
#
# 1 0.014352 -0.006311 -0.006764 -0.006682 0.002023 0.003663
# 2 -0.006311 0.032267 -0.010884 -0.011598 0.006344 0.014815
# 3 -0.006764 -0.010884 0.029774 0.023446 0.005390 -0.007947
# 4 -0.006682 -0.011598 0.023446 0.081221 -0.008392 0.018247
# 5 0.002023 0.006344 0.005390 -0.008392 0.055573 -0.010287
# 6 0.003663 0.014815 -0.007947 0.018247 -0.010287 0.086858
#
#
# Mechanical properties :
#
#
# Convention : Reuss Voigt Hill
#
# Bulk Modulus (GPa) = 35.12172 50.98840 43.05506
# Shear Modulus (GPa) = 13.98770 20.18631 17.08701
#
# Velocity S-wave (km/s) = 2.91016 3.49600 3.21645
# Velocity P-wave (km/s) = 5.70586 6.86787 6.31365
#
# Compressibility (1/GPa) = 0.02847241
#
# Stress axis : x y z
#
# Youngs Moduli (GPa) = 69.67723 30.99129 33.58661
#
# Poissons Ratio (x) = 0.19560 0.22719
# Poissons Ratio (y) = 0.43976 0.36557
# Poissons Ratio (z) = 0.47132 0.33732
#
# Static dielectric constant tensor:
#      x y z
#    x 1.600130 -0.019700 -0.014290 
#    y -0.019700 1.545830 -0.008020 
#    z -0.014290 -0.008020 1.585210 
# 
# From -- ./inp_files/79633.got.cif
#   From: 2010.05.17/outbox.cif.g08.bks.cpg/sg2_40_cif.got.tgz:79633.got - 2010.06.03 11:33:40.
