data_PCOD9081387
_publ_section_title
;
Structure prediction by ZEFSAII (Michael W. Deem and Ramdas Pophale) SiO2 
 PCOD9081387
Probable space group: P -1
;
_chemical_formula_sum "Si O2"
_cell_formula_units_Z 16
_cell_length_a 9.027994
_cell_length_b 11.593286
_cell_length_c 8.733876
_cell_angle_alpha 78.839450
_cell_angle_beta 116.438830
_cell_angle_gamma 129.399756
_cell_volume 627.236609
_symmetry_space_group_name_H-M "P -1"
_symmetry_group_IT_number 2
_symmetry_cell_setting 'triclinic'
loop_
_space_group_symop_operation_xyz
x,y,z
-x,-y,-z
loop_
_atom_site_type_symbol
_atom_site_label
_atom_site_fract_x
_atom_site_fract_y
_atom_site_fract_z
Si Si1 0.513220 0.159610 0.129802
Si Si2 0.726051 0.568018 0.155192
Si Si3 0.081945 0.894256 0.507739
Si Si4 0.933020 0.423625 0.151170
Si Si5 0.543046 0.089305 0.658465
Si Si6 0.194376 0.676349 0.507182
Si Si7 0.736017 0.597986 0.519751
Si Si8 0.108888 0.113872 0.881199
O O1 0.728819 0.245280 0.109343
O O2 0.287258 0.739561 0.363206
O O3 0.405936 0.989949 0.176255
O O4 0.344164 0.165649 0.968334
O O5 0.829840 0.494958 0.161481
O O6 0.601968 0.255225 0.306677
O O7 0.873925 0.739666 0.121128
O O8 0.500000 0.500000 0.000000
O O9 0.316692 0.037296 0.625407
O O10 0.121136 0.774508 0.502418
O O11 0.879742 0.780020 0.550641
O O12 0.010658 0.941865 0.320724
O O13 0.125943 0.438609 0.316171
O O14 0.000000 0.500000 0.000000
O O15 0.500000 0.000000 0.500000
O O16 0.293866 0.436750 0.668147
O O17 0.000000 0.500000 0.500000
O O18 0.500000 0.500000 0.500000
O O19 0.000000 0.000000 0.000000
#
# Coordination Sequence:
#
# PCOD9081387 Si02
#       8
#     2   2   2   2   2   2   2   2
#     4  10  20  36  56  86 127 173 222 268 342 411
#     4  11  24  42  66 105 139 179 236 287 345 428
#     4   9  19  33  55  83 125 169 219 261 335 412
#     4  12  24  42  67 101 142 184 235 295 354 407
#     4   8  15  34  52  82 122 165 217 261 337 411
#     4  10  19  31  56  90 125 158 215 284 328 401
#     4  11  23  40  67 102 140 185 232 294 352 412
#     4  11  21  35  59  95 135 175 220 282 343 410
#
# _framework density 25.508711999999999
#
# number of rings (size 3 to 8) (size 9 to 14) (size 15 to 20)
#    0.000    2.000    3.750    3.375    5.250    0.000 
#    0.000    0.000    0.000    0.750    6.500    7.875 
#    0.000    0.000    0.000    0.000    0.000    0.000 
#
# Total GULP energy -89297.795206 kJ/mol
# GULP energy per Si atom -5581.112200 kJ/mol
# Density = 2.545065 g / cm^3
# Si number density = 25.508712 Si / 1000 Ang^3
#
#
#
# Elastic Constant Matrix: (Units=GPa)
#
#
# Indices 1 2 3 4 5 6 
#
# 1 99.2041 55.0228 54.0487 -6.9377 15.6918 14.4230
# 2 55.0228 178.5368 48.5862 -41.2005 -2.5693 23.1947
# 3 54.0487 48.5862 176.1185 -24.6173 29.8528 11.2130
# 4 -6.9377 -41.2005 -24.6173 60.1518 20.4687 -0.4603
# 5 15.6918 -2.5693 29.8528 20.4687 42.0718 -0.3167
# 6 14.4230 23.1947 11.2130 -0.4603 -0.3167 52.2356
#
#
#
# Elastic Compliance Matrix: (Units=1/GPa)
#
#
# Indices 1 2 3 4 5 6 
#
# 1 0.014376 -0.003699 -0.002918 -0.001056 -0.003017 -0.001728
# 2 -0.003699 0.008369 -0.000121 0.005477 -0.000708 -0.002625
# 3 -0.002918 -0.000121 0.008890 0.005983 -0.008146 -0.001046
# 4 -0.001056 0.005477 0.005983 0.028621 -0.017466 -0.003278
# 5 -0.003017 -0.000708 -0.008146 -0.017466 0.039151 0.002979
# 6 -0.001728 -0.002625 -0.001046 -0.003278 0.002979 0.021000
#
#
# Mechanical properties :
#
#
# Convention : Reuss Voigt Hill
#
# Bulk Modulus (GPa) = 55.06667 85.46388 70.26527
# Shear Modulus (GPa) = 35.73038 50.63862 43.18450
#
# Velocity S-wave (km/s) = 3.74667 4.46034 4.11899
# Velocity P-wave (km/s) = 6.35224 7.75259 7.08709
#
# Compressibility (1/GPa) = 0.01815981
#
# Stress axis : x y z
#
# Youngs Moduli (GPa) = 69.55990 119.49329 112.47978
#
# Poissons Ratio (x) = 0.44203 0.32818
# Poissons Ratio (y) = 0.25732 0.01359
# Poissons Ratio (z) = 0.20295 0.01444
#
# Static dielectric constant tensor:
#      x y z
#    x 2.140080 -0.048310 -0.064240 
#    y -0.048310 2.178790 0.062150 
#    z -0.064240 0.062150 2.067000 
# 
# From -- ./inp_files/398827.got.cif
#   From: 2010.05.17/outbox.cif.g08.bks.cpg/sg2_200_cif.got.tgz:398827.got - 2010.06.03 11:33:40.
