data_PCOD9081128
_publ_section_title
;
Structure prediction by ZEFSAII (Michael W. Deem and Ramdas Pophale) SiO2 
 PCOD9081128
Probable space group: P -1
;
_chemical_formula_sum "Si O2"
_cell_formula_units_Z 14
_cell_length_a 16.920650
_cell_length_b 14.289592
_cell_length_c 8.082272
_cell_angle_alpha 134.178338
_cell_angle_beta 39.503142
_cell_angle_gamma 153.338833
_cell_volume 557.615747
_symmetry_space_group_name_H-M "P -1"
_symmetry_group_IT_number 2
_symmetry_cell_setting 'triclinic'
loop_
_space_group_symop_operation_xyz
x,y,z
-x,-y,-z
loop_
_atom_site_type_symbol
_atom_site_label
_atom_site_fract_x
_atom_site_fract_y
_atom_site_fract_z
Si Si1 0.216682 0.961569 0.643953
Si Si2 0.646020 0.504371 0.130534
Si Si3 0.006270 0.063742 0.790702
Si Si4 0.268100 0.825231 0.707350
Si Si5 0.752271 0.951514 0.764900
Si Si6 0.447988 0.558599 0.307443
Si Si7 0.880627 0.586581 0.531072
O O1 0.193915 0.842012 0.685838
O O2 0.110938 0.802103 0.467106
O O3 0.431854 0.204989 0.588227
O O4 0.091842 0.984150 0.936178
O O5 0.818005 0.685755 0.202901
O O6 0.526814 0.536790 0.306013
O O7 0.478571 0.266173 0.160873
O O8 0.758288 0.538232 0.830451
O O9 0.833064 0.938413 0.781764
O O10 0.118822 0.020291 0.542269
O O11 0.165537 0.603996 0.633583
O O12 0.500000 0.000000 0.500000
O O13 0.232682 0.888816 0.001241
O O14 0.223777 0.422277 0.463249
O O15 0.500000 0.500000 0.000000
#
# Coordination Sequence:
#
# PCOD9081128 Si02
#       7
#     2   2   2   2   2   2   2
#     4  10  20  32  51  78 103 126 165 203 251 296
#     4  10  19  31  51  75 101 129 164 201 250 290
#     4   9  19  32  49  74 101 130 161 202 247 292
#     4  11  17  32  52  72 104 131 161 207 248 289
#     4  10  19  33  51  74 103 128 162 203 246 295
#     4  10  19  31  49  77 103 131 160 203 254 288
#     4  10  19  31  48  75 102 130 160 204 252 289
#
# _framework density 25.106895999999999
#
# number of rings (size 3 to 8) (size 9 to 14) (size 15 to 20)
#    0.000    2.000    2.857    3.429    0.000    6.286 
#    0.000    0.000    0.000    0.857    0.000   28.000 
#    0.000    0.000    0.000    0.000    0.000    0.000 
#
# Total GULP energy -78223.599565 kJ/mol
# GULP energy per Si atom -5587.399969 kJ/mol
# Density = 2.504975 g / cm^3
# Si number density = 25.106896 Si / 1000 Ang^3
#
#
#
# Elastic Constant Matrix: (Units=GPa)
#
#
# Indices 1 2 3 4 5 6 
#
# 1 88.0889 14.1180 17.3558 17.6103 -12.5255 11.8776
# 2 14.1180 152.9049 23.0432 36.4799 -1.6977 37.6228
# 3 17.3558 23.0432 108.5895 20.8511 2.5068 8.6182
# 4 17.6103 36.4799 20.8511 45.1836 -2.4798 -3.6685
# 5 -12.5255 -1.6977 2.5068 -2.4798 31.6574 3.6598
# 6 11.8776 37.6228 8.6182 -3.6685 3.6598 32.6429
#
#
#
# Elastic Compliance Matrix: (Units=1/GPa)
#
#
# Indices 1 2 3 4 5 6 
#
# 1 0.015292 0.003861 -0.000710 -0.009315 0.006931 -0.011651
# 2 0.003861 0.014946 0.000757 -0.015431 0.003483 -0.020956
# 3 -0.000710 0.000757 0.010570 -0.005588 -0.001063 -0.003914
# 4 -0.009315 -0.015431 -0.005588 0.042850 -0.003940 0.027908
# 5 0.006931 0.003483 -0.001063 -0.003940 0.035528 -0.010682
# 6 -0.011651 -0.020956 -0.003914 0.027908 -0.010682 0.064394
#
#
# Mechanical properties :
#
#
# Convention : Reuss Voigt Hill
#
# Bulk Modulus (GPa) = 20.56572 50.95749 35.76160
# Shear Modulus (GPa) = 26.04560 41.56787 33.80673
#
# Velocity S-wave (km/s) = 3.22435 4.07336 3.67347
# Velocity P-wave (km/s) = 4.69797 6.51639 5.68042
#
# Compressibility (1/GPa) = 0.04862461
#
# Stress axis : x y z
#
# Youngs Moduli (GPa) = 65.39351 66.90806 94.60697
#
# Poissons Ratio (x) = -0.25835 0.06718
# Poissons Ratio (y) = -0.25250 -0.07163
# Poissons Ratio (z) = 0.04643 -0.05066
#
# Static dielectric constant tensor:
#      x y z
#    x 2.053590 -0.016570 0.060850 
#    y -0.016570 2.061840 -0.022550 
#    z 0.060850 -0.022550 1.987770 
# 
# From -- ./inp_files/240695.got.cif
#   From: 2010.05.17/outbox.cif.g08.bks.cpg/sg2_121_cif.got.tgz:240695.got - 2010.06.03 11:33:40.
