data_PCOD9081874
_publ_section_title
;
Structure prediction by ZEFSAII (Michael W. Deem and Ramdas Pophale) SiO2 
 PCOD9081874
Probable space group: P -1
;
_chemical_formula_sum "Si O2"
_cell_formula_units_Z 16
_cell_length_a 19.013508
_cell_length_b 19.207345
_cell_length_c 12.070609
_cell_angle_alpha 153.902061
_cell_angle_beta 155.086876
_cell_angle_gamma 21.368812
_cell_volume 634.262473
_symmetry_space_group_name_H-M "P -1"
_symmetry_group_IT_number 2
_symmetry_cell_setting 'triclinic'
loop_
_space_group_symop_operation_xyz
x,y,z
-x,-y,-z
loop_
_atom_site_type_symbol
_atom_site_label
_atom_site_fract_x
_atom_site_fract_y
_atom_site_fract_z
Si Si1 0.245884 0.879492 0.331240
Si Si2 0.172851 0.474319 0.792787
Si Si3 0.937961 0.799362 0.281792
Si Si4 0.266897 0.414433 0.339744
Si Si5 0.754074 0.352206 0.176855
Si Si6 0.353585 0.812543 0.020705
Si Si7 0.374757 0.053606 0.577298
Si Si8 0.151570 0.098585 0.946884
O O1 0.482963 0.698857 0.456681
O O2 0.136072 0.028684 0.489780
O O3 0.279269 0.994965 0.449942
O O4 0.149508 0.785472 0.992382
O O5 0.397015 0.382413 0.920203
O O6 0.253442 0.292850 0.735845
O O7 0.000000 0.500000 0.500000
O O8 0.046035 0.694573 0.980827
O O9 0.155593 0.584272 0.327512
O O10 0.778327 0.741549 0.970388
O O11 0.922168 0.881524 0.255191
O O12 0.180195 0.522457 0.492791
O O13 0.500000 0.500000 0.000000
O O14 0.764610 0.228569 0.119608
O O15 0.353708 0.979963 0.323768
O O16 0.236696 0.905042 0.868938
O O17 0.628184 0.928185 0.781523
#
# Coordination Sequence:
#
# PCOD9081874 Si02
#       8
#     2   2   2   2   2   2   2   2
#     4  10  21  39  63  91 124 167 200 257 312 363
#     4  11  19  31  55  88 125 158 197 256 309 352
#     4  11  24  37  63  97 125 162 207 259 307 369
#     4  10  22  40  60  91 126 161 208 255 305 366
#     4   9  21  43  67  89 124 164 204 258 310 371
#     4  10  20  38  58  88 122 162 206 253 308 367
#     4  10  19  32  56  88 123 155 203 254 311 355
#     4  11  21  35  56  91 125 161 201 256 304 366
#
# _framework density 25.226147999999998
#
# number of rings (size 3 to 8) (size 9 to 14) (size 15 to 20)
#    0.000    1.750    3.750    1.125    3.500    1.500 
#    0.000    3.125    0.000    3.750    0.000    0.000 
#    0.000    0.000    0.000    0.000    0.000    0.000 
#
# Total GULP energy -89586.783274 kJ/mol
# GULP energy per Si atom -5599.173955 kJ/mol
# Density = 2.516873 g / cm^3
# Si number density = 25.226148 Si / 1000 Ang^3
#
#
#
# Elastic Constant Matrix: (Units=GPa)
#
#
# Indices 1 2 3 4 5 6 
#
# 1 115.3990 48.6290 51.9937 0.8860 -29.4294 3.3542
# 2 48.6290 162.1378 46.8340 -16.2575 -21.3759 -2.4002
# 3 51.9937 46.8340 123.2092 -14.5405 -29.3474 -5.9139
# 4 0.8860 -16.2575 -14.5405 40.9411 8.6815 -9.1552
# 5 -29.4294 -21.3759 -29.3474 8.6815 45.3487 -2.1352
# 6 3.3542 -2.4002 -5.9139 -9.1552 -2.1352 52.3265
#
#
#
# Elastic Compliance Matrix: (Units=1/GPa)
#
#
# Indices 1 2 3 4 5 6 
#
# 1 0.012904 -0.002508 -0.003776 -0.004195 0.005463 -0.001880
# 2 -0.002508 0.007675 -0.001349 0.002678 0.000646 0.000855
# 3 -0.003776 -0.001349 0.011661 0.003358 0.003923 0.002246
# 4 -0.004195 0.002678 0.003358 0.029007 -0.004574 0.005660
# 5 0.005463 0.000646 0.003923 -0.004574 0.029340 0.000520
# 6 -0.001880 0.000855 0.002246 0.005660 0.000520 0.020536
#
#
# Mechanical properties :
#
#
# Convention : Reuss Voigt Hill
#
# Bulk Modulus (GPa) = 58.90922 77.29550 68.10236
# Shear Modulus (GPa) = 37.86555 44.60921 41.23738
#
# Velocity S-wave (km/s) = 3.87853 4.20976 4.04754
# Velocity P-wave (km/s) = 6.59246 7.37136 6.99276
#
# Compressibility (1/GPa) = 0.01697527
#
# Stress axis : x y z
#
# Youngs Moduli (GPa) = 77.49740 130.28516 85.75631
#
# Poissons Ratio (x) = 0.32670 0.32384
# Poissons Ratio (y) = 0.19433 0.11565
# Poissons Ratio (z) = 0.29265 0.17570
#
# Static dielectric constant tensor:
#      x y z
#    x 2.012950 -0.016700 0.067110 
#    y -0.016700 2.083260 -0.001830 
#    z 0.067110 -0.001830 2.038120 
# 
# From -- ./inp_files/472657.got.cif
#   From: 2010.05.17/outbox.cif.g08.bks.cpg/sg2_237_cif.got.tgz:472657.got - 2010.06.03 11:33:40.
