data_PCOD9081109
_publ_section_title
;
Structure prediction by ZEFSAII (Michael W. Deem and Ramdas Pophale) SiO2 
 PCOD9081109
Probable space group: P -1
;
_chemical_formula_sum "Si O2"
_cell_formula_units_Z 16
_cell_length_a 19.095042
_cell_length_b 5.538709
_cell_length_c 10.526759
_cell_angle_alpha 85.212609
_cell_angle_beta 130.264374
_cell_angle_gamma 77.067995
_cell_volume 788.095839
_symmetry_space_group_name_H-M "P -1"
_symmetry_group_IT_number 2
_symmetry_cell_setting 'triclinic'
loop_
_space_group_symop_operation_xyz
x,y,z
-x,-y,-z
loop_
_atom_site_type_symbol
_atom_site_label
_atom_site_fract_x
_atom_site_fract_y
_atom_site_fract_z
Si Si1 0.817848 0.736214 0.117688
Si Si2 0.626906 0.779314 0.782531
Si Si3 0.863200 0.429604 0.651274
Si Si4 0.908537 0.884091 0.671394
Si Si5 0.256500 0.620499 0.270037
Si Si6 0.088091 0.168125 0.022129
Si Si7 0.439090 0.739738 0.508806
Si Si8 0.083184 0.854365 0.705810
O O1 0.858139 0.450102 0.240787
O O2 0.855351 0.957684 0.206969
O O3 0.699877 0.827673 0.966898
O O4 0.859571 0.701354 0.021690
O O5 0.692583 0.524133 0.791397
O O6 0.522484 0.762699 0.700346
O O7 0.599188 0.006093 0.635262
O O8 0.869374 0.674024 0.571237
O O9 0.784281 0.527539 0.667929
O O10 0.844564 0.190567 0.570220
O O11 0.974083 0.272174 0.842246
O O12 0.914401 0.800790 0.830024
O O13 0.015181 0.847274 0.745742
O O14 0.340614 0.697492 0.436251
O O15 0.161493 0.868720 0.111100
O O16 0.500000 0.500000 0.500000
O O17 0.000000 0.000000 0.500000
#
# Coordination Sequence:
#
# PCOD9081109 Si02
#       8
#     2   2   2   2   2   2   2   2
#     4  12  23  36  61  79 112 153 194 232 281 339
#     4  10  20  32  52  78 107 160 192 225 281 338
#     4  11  22  30  51  80 116 141 187 221 273 341
#     4  11  21  35  50  77 111 146 180 230 276 333
#     4  10  19  31  47  76 120 155 179 220 278 342
#     4  11  20  32  52  86 112 146 184 226 277 348
#     4   9  19  33  48  74 118 151 186 229 274 348
#     4  12  26  41  55  77 112 158 202 239 272 323
#
# _framework density 20.302097
#
# number of rings (size 3 to 8) (size 9 to 14) (size 15 to 20)
#    0.000    1.250    3.750    3.750    5.250    0.000 
#    0.000    0.000    0.000    0.000    0.000    0.000 
#    0.000   14.000    0.000    0.000    0.000    0.000 
#
# Total GULP energy -89155.069218 kJ/mol
# GULP energy per Si atom -5572.191826 kJ/mol
# Density = 2.025589 g / cm^3
# Si number density = 20.302097 Si / 1000 Ang^3
#
#
#
# Elastic Constant Matrix: (Units=GPa)
#
#
# Indices 1 2 3 4 5 6 
#
# 1 44.6472 18.6387 26.3415 9.4155 22.9559 21.1858
# 2 18.6387 126.0151 34.5572 -0.9967 2.5924 28.5005
# 3 26.3415 34.5572 82.9481 9.3202 18.4220 24.0427
# 4 9.4155 -0.9967 9.3202 29.5603 11.4699 14.5559
# 5 22.9559 2.5924 18.4220 11.4699 19.0502 10.3648
# 6 21.1858 28.5005 24.0427 14.5559 10.3648 34.8112
#
#
#
# Elastic Compliance Matrix: (Units=1/GPa)
#
#
# Indices 1 2 3 4 5 6 
#
# 1 0.085027 -0.004233 0.004189 0.027906 -0.105661 -0.031383
# 2 -0.004233 0.011233 -0.003337 0.003307 0.009437 -0.008509
# 3 0.004189 -0.003337 0.018714 0.005052 -0.021062 -0.008584
# 4 0.027906 0.003307 0.005052 0.061884 -0.059106 -0.031457
# 5 -0.105661 0.009437 -0.021062 -0.059106 0.217591 0.031053
# 6 -0.031383 -0.008509 -0.008584 -0.031457 0.031053 0.064628
#
#
# Mechanical properties :
#
#
# Convention : Reuss Voigt Hill
#
# Bulk Modulus (GPa) = 9.24105 45.85390 27.54747
# Shear Modulus (GPa) = 9.96196 28.28921 19.12559
#
# Velocity S-wave (km/s) = 2.21755 3.73689 3.07261
# Velocity P-wave (km/s) = 3.33442 6.42293 5.11724
#
# Compressibility (1/GPa) = 0.10821282
#
# Stress axis : x y z
#
# Youngs Moduli (GPa) = 11.76093 89.02274 53.43713
#
# Poissons Ratio (x) = 0.37681 -0.22385
# Poissons Ratio (y) = 0.04978 0.17831
# Poissons Ratio (z) = -0.04927 0.29706
#
# Static dielectric constant tensor:
#      x y z
#    x 1.774620 -0.008270 -0.003350 
#    y -0.008270 1.959950 0.042540 
#    z -0.003350 0.042540 1.763320 
# 
# From -- ./inp_files/468349.got.cif
#   From: 2010.05.17/outbox.cif.g08.bks.cpg/sg2_235_cif.got.tgz:468349.got - 2010.06.03 11:33:40.
