data_PCOD9081833
_publ_section_title
;
Structure prediction by ZEFSAII (Michael W. Deem and Ramdas Pophale) SiO2 
 PCOD9081833
Probable space group: P -1
;
_chemical_formula_sum "Si O2"
_cell_formula_units_Z 16
_cell_length_a 12.856504
_cell_length_b 13.617234
_cell_length_c 7.072048
_cell_angle_alpha 56.445300
_cell_angle_beta 134.065079
_cell_angle_gamma 99.910791
_cell_volume 693.231144
_symmetry_space_group_name_H-M "P -1"
_symmetry_group_IT_number 2
_symmetry_cell_setting 'triclinic'
loop_
_space_group_symop_operation_xyz
x,y,z
-x,-y,-z
loop_
_atom_site_type_symbol
_atom_site_label
_atom_site_fract_x
_atom_site_fract_y
_atom_site_fract_z
Si Si1 0.767026 0.048673 0.011719
Si Si2 0.590623 0.712516 0.106141
Si Si3 0.280043 0.715891 0.548077
Si Si4 0.595822 0.880638 0.599036
Si Si5 0.863671 0.682920 0.036752
Si Si6 0.997309 0.130297 0.765458
Si Si7 0.389730 0.931485 0.841832
Si Si8 0.845230 0.490714 0.542948
O O1 0.782014 0.173918 0.805989
O O2 0.588900 0.069471 0.706816
O O3 0.753079 0.049744 0.220077
O O4 0.898328 0.923089 0.231903
O O5 0.461006 0.682148 0.850731
O O6 0.635182 0.812291 0.924587
O O7 0.495233 0.790089 0.077959
O O8 0.738547 0.587354 0.457797
O O9 0.243872 0.596347 0.558921
O O10 0.182821 0.777714 0.549494
O O11 0.653754 0.993838 0.491384
O O12 0.687077 0.769415 0.686779
O O13 0.931252 0.782647 0.113183
O O14 0.858325 0.582595 0.293886
O O15 0.979899 0.606667 0.101413
O O16 0.000000 0.000000 0.000000
O O17 0.500000 0.000000 0.000000
#
# Coordination Sequence:
#
# PCOD9081833 Si02
#       8
#     2   2   2   2   2   2   2   2
#     4   9  19  33  50  78 111 139 165 213 270 308
#     4  10  19  32  56  79 101 140 179 212 258 311
#     4   9  18  34  54  77 104 136 181 215 253 307
#     4   9  19  30  54  79 104 131 176 214 259 308
#     4   9  18  30  53  82 103 130 177 222 255 303
#     4   9  18  30  51  77 108 135 166 214 263 307
#     4  10  21  32  49  81 111 135 170 215 267 314
#     4   9  18  32  52  82 102 133 177 225 254 291
#
# _framework density 23.080327
#
# number of rings (size 3 to 8) (size 9 to 14) (size 15 to 20)
#    0.000    2.750    0.000    0.750   12.250    0.000 
#    0.000    1.250    0.000    3.000    3.250    0.000 
#    0.000    0.000    0.000    0.000    0.000    0.000 
#
# Total GULP energy -89117.334685 kJ/mol
# GULP energy per Si atom -5569.833418 kJ/mol
# Density = 2.302779 g / cm^3
# Si number density = 23.080327 Si / 1000 Ang^3
#
#
#
# Elastic Constant Matrix: (Units=GPa)
#
#
# Indices 1 2 3 4 5 6 
#
# 1 126.4993 44.6255 42.9531 -21.1322 26.9764 -13.6571
# 2 44.6255 83.9282 36.4059 -28.9248 0.3239 7.6519
# 3 42.9531 36.4059 79.4820 -31.8245 32.7121 -15.7904
# 4 -21.1322 -28.9248 -31.8245 40.5708 -14.1463 9.6954
# 5 26.9764 0.3239 32.7121 -14.1463 40.9399 -19.2043
# 6 -13.6571 7.6519 -15.7904 9.6954 -19.2043 42.9497
#
#
#
# Elastic Compliance Matrix: (Units=1/GPa)
#
#
# Indices 1 2 3 4 5 6 
#
# 1 0.011987 -0.006927 -0.001018 -0.002396 -0.006850 0.002150
# 2 -0.006927 0.024553 -0.008909 0.013021 0.012639 -0.007141
# 3 -0.001018 -0.008909 0.028577 0.008767 -0.018311 0.001603
# 4 -0.002396 0.013021 0.008767 0.043376 0.006241 -0.006860
# 5 -0.006850 0.012639 -0.018311 0.006241 0.050276 0.009909
# 6 0.002150 -0.007141 0.001603 -0.006860 0.009909 0.031807
#
#
# Mechanical properties :
#
#
# Convention : Reuss Voigt Hill
#
# Bulk Modulus (GPa) = 31.83839 59.76428 45.80134
# Shear Modulus (GPa) = 21.29879 35.95375 28.62627
#
# Velocity S-wave (km/s) = 3.04108 3.95114 3.52559
# Velocity P-wave (km/s) = 5.11424 6.83853 6.03825
#
# Compressibility (1/GPa) = 0.03140862
#
# Stress axis : x y z
#
# Youngs Moduli (GPa) = 83.42175 40.72871 34.99266
#
# Poissons Ratio (x) = 0.28214 0.03563
# Poissons Ratio (y) = 0.57789 0.31175
# Poissons Ratio (z) = 0.08493 0.36285
#
# Static dielectric constant tensor:
#      x y z
#    x 1.970340 -0.050580 0.041750 
#    y -0.050580 1.920560 0.037490 
#    z 0.041750 0.037490 1.941980 
# 
# From -- ./inp_files/266692.got.cif
#   From: 2010.05.17/outbox.cif.g08.bks.cpg/sg2_134_cif.got.tgz:266692.got - 2010.06.03 11:33:40.
