data_PCOD9081902
_publ_section_title
;
Structure prediction by ZEFSAII (Michael W. Deem and Ramdas Pophale) SiO2 
 PCOD9081902
Probable space group: P -1
;
_chemical_formula_sum "Si O2"
_cell_formula_units_Z 14
_cell_length_a 12.339714
_cell_length_b 11.060292
_cell_length_c 11.291943
_cell_angle_alpha 89.203360
_cell_angle_beta 52.369684
_cell_angle_gamma 48.882512
_cell_volume 699.033152
_symmetry_space_group_name_H-M "P -1"
_symmetry_group_IT_number 2
_symmetry_cell_setting 'triclinic'
loop_
_space_group_symop_operation_xyz
x,y,z
-x,-y,-z
loop_
_atom_site_type_symbol
_atom_site_label
_atom_site_fract_x
_atom_site_fract_y
_atom_site_fract_z
Si Si1 0.593872 0.743015 0.629618
Si Si2 0.289131 0.053513 0.638348
Si Si3 0.352918 0.068331 0.981680
Si Si4 0.195949 0.943507 0.210824
Si Si5 0.871937 0.972221 0.478544
Si Si6 0.939145 0.496453 0.806916
Si Si7 0.326128 0.474529 0.206317
O O1 0.833008 0.604772 0.403784
O O2 0.642098 0.592453 0.679828
O O3 0.369813 0.902270 0.687881
O O4 0.526871 0.896731 0.765522
O O5 0.266136 0.002685 0.529174
O O6 0.045734 0.307086 0.813120
O O7 0.500000 0.000000 0.500000
O O8 0.204128 0.292832 0.037848
O O9 0.200379 0.062167 0.127790
O O10 0.500000 0.000000 0.000000
O O11 0.949004 0.048453 0.379127
O O12 0.250572 0.933470 0.312616
O O13 0.407391 0.706253 0.020268
O O14 0.127106 0.721209 0.331670
O O15 0.783952 0.551567 0.803419
#
# Coordination Sequence:
#
# PCOD9081902 Si02
#       7
#     2   2   2   2   2   2   2
#     4  10  20  34  52  83 111 144 179 225 279 314
#     4   9  21  35  56  81 111 148 181 220 278 328
#     4  11  21  32  56  86 111 137 186 231 263 325
#     4  10  21  35  56  85 107 143 184 230 271 312
#     4  10  21  38  58  78 111 146 183 225 272 327
#     4  10  19  33  54  83 110 148 178 228 273 316
#     4  10  19  32  57  81 106 140 189 226 267 320
#
# _framework density 20.027663
#
# number of rings (size 3 to 8) (size 9 to 14) (size 15 to 20)
#    0.000    2.000    2.857    1.714    6.000    0.571 
#    0.000    7.143    0.000   13.714    0.000    0.000 
#    0.000    0.000    0.000    0.000    0.000    0.000 
#
# Total GULP energy -78070.159042 kJ/mol
# GULP energy per Si atom -5576.439932 kJ/mol
# Density = 1.998208 g / cm^3
# Si number density = 20.027663 Si / 1000 Ang^3
#
#
#
# Elastic Constant Matrix: (Units=GPa)
#
#
# Indices 1 2 3 4 5 6 
#
# 1 58.0470 9.0126 -10.2903 -3.3059 -5.2746 -6.2917
# 2 9.0126 71.5772 -7.7941 -2.4221 -16.5338 -11.3908
# 3 -10.2903 -7.7941 34.4255 1.4789 -1.3884 1.6096
# 4 -3.3059 -2.4221 1.4789 14.7045 5.2173 1.5780
# 5 -5.2746 -16.5338 -1.3884 5.2173 17.9037 3.8912
# 6 -6.2917 -11.3908 1.6096 1.5780 3.8912 30.7689
#
#
#
# Elastic Compliance Matrix: (Units=1/GPa)
#
#
# Indices 1 2 3 4 5 6 
#
# 1 0.019098 -0.000169 0.005658 0.001689 0.004797 0.002853
# 2 -0.000169 0.019439 0.005066 -0.004440 0.018550 0.004779
# 3 0.005658 0.005066 0.032491 -0.004813 0.010205 0.000289
# 4 0.001689 -0.004440 -0.004813 0.077628 -0.026226 -0.001711
# 5 0.004797 0.018550 0.010205 -0.026226 0.083238 -0.001867
# 6 0.002853 0.004779 0.000289 -0.001711 -0.001867 0.035162
#
#
# Mechanical properties :
#
#
# Convention : Reuss Voigt Hill
#
# Bulk Modulus (GPa) = 10.85344 16.21180 13.53262
# Shear Modulus (GPa) = 18.07279 24.21685 21.14482
#
# Velocity S-wave (km/s) = 3.00724 3.48108 3.25280
# Velocity P-wave (km/s) = 4.18198 4.92641 4.56938
#
# Compressibility (1/GPa) = 0.09213667
#
# Stress axis : x y z
#
# Youngs Moduli (GPa) = 52.36143 51.44302 30.77759
#
# Poissons Ratio (x) = 0.00872 -0.17413
# Poissons Ratio (y) = 0.00887 -0.15592
# Poissons Ratio (z) = -0.29625 -0.26061
#
# Static dielectric constant tensor:
#      x y z
#    x 1.699450 0.022410 -0.004300 
#    y 0.022410 1.800210 -0.003840 
#    z -0.004300 -0.003840 1.716830 
# 
# From -- ./inp_files/280454.got.cif
#   From: 2010.05.17/outbox.cif.g08.bks.cpg/sg2_141_cif.got.tgz:280454.got - 2010.06.03 11:33:40.
