data_PCOD9081793
_publ_section_title
;
Structure prediction by ZEFSAII (Michael W. Deem and Ramdas Pophale) SiO2 
 PCOD9081793
Probable space group: P -1
;
_chemical_formula_sum "Si O2"
_cell_formula_units_Z 14
_cell_length_a 12.574844
_cell_length_b 19.434967
_cell_length_c 17.996482
_cell_angle_alpha 160.407097
_cell_angle_beta 25.416510
_cell_angle_gamma 145.770251
_cell_volume 624.048836
_symmetry_space_group_name_H-M "P -1"
_symmetry_group_IT_number 2
_symmetry_cell_setting 'triclinic'
loop_
_space_group_symop_operation_xyz
x,y,z
-x,-y,-z
loop_
_atom_site_type_symbol
_atom_site_label
_atom_site_fract_x
_atom_site_fract_y
_atom_site_fract_z
Si Si1 0.869908 0.155312 0.132783
Si Si2 0.475206 0.184233 0.642362
Si Si3 0.576122 0.570481 0.719406
Si Si4 0.325110 0.133651 0.922493
Si Si5 0.869698 0.959787 0.773081
Si Si6 0.111233 0.593712 0.325138
Si Si7 0.599505 0.286213 0.173889
O O1 0.623533 0.329898 0.465832
O O2 0.819124 0.967143 0.024265
O O3 0.114324 0.226856 0.089238
O O4 0.903920 0.074486 0.945596
O O5 0.709127 0.307056 0.631067
O O6 0.500000 0.000000 0.500000
O O7 0.496015 0.055302 0.422308
O O8 0.241575 0.366460 0.986557
O O9 0.376541 0.647447 0.859333
O O10 0.845499 0.584468 0.522838
O O11 0.546140 0.700806 0.946352
O O12 0.616808 0.857937 0.833531
O O13 0.077207 0.751525 0.436440
O O14 0.832295 0.135587 0.912149
O O15 0.500000 0.500000 0.500000
#
# Coordination Sequence:
#
# PCOD9081793 Si02
#       7
#     2   2   2   2   2   2   2
#     4  11  19  33  57  81 117 147 175 232 285 329
#     4  11  23  37  56  77 115 155 190 224 275 335
#     4  11  21  35  58  87 113 147 186 228 285 327
#     4  11  21  35  52  84 117 146 181 230 279 340
#     4  10  19  34  55  84 113 142 185 234 275 326
#     4  10  21  36  54  84 111 146 192 224 273 337
#     4  10  19  32  55  84 114 144 184 233 278 324
#
# _framework density 22.434142999999999
#
# number of rings (size 3 to 8) (size 9 to 14) (size 15 to 20)
#    0.000    1.429    5.714    2.143    0.000    2.286 
#    0.000    0.000    0.000    0.857    0.000    6.000 
#    0.000    0.000    0.000    0.000    0.000    0.000 
#
# Total GULP energy -78141.766438 kJ/mol
# GULP energy per Si atom -5581.554746 kJ/mol
# Density = 2.238308 g / cm^3
# Si number density = 22.434143 Si / 1000 Ang^3
#
#
#
# Elastic Constant Matrix: (Units=GPa)
#
#
# Indices 1 2 3 4 5 6 
#
# 1 148.9504 14.0043 68.6864 25.4469 -4.2131 -11.0931
# 2 14.0043 26.3118 1.9364 5.3492 -6.6316 1.3673
# 3 68.6864 1.9364 160.1720 28.7576 -1.2632 -16.6454
# 4 25.4469 5.3492 28.7576 30.2076 -8.4697 -4.4267
# 5 -4.2131 -6.6316 -1.2632 -8.4697 34.5392 12.1140
# 6 -11.0931 1.3673 -16.6454 -4.4267 12.1140 20.7888
#
#
#
# Elastic Compliance Matrix: (Units=1/GPa)
#
#
# Indices 1 2 3 4 5 6 
#
# 1 0.009415 -0.004587 -0.002843 -0.004517 -0.002107 0.003315
# 2 -0.004587 0.044586 0.000881 -0.003436 0.011421 -0.012061
# 3 -0.002843 0.000881 0.009326 -0.006734 -0.003835 0.006693
# 4 -0.004517 -0.003436 -0.006734 0.046508 0.011477 -0.004361
# 5 -0.002107 0.011421 -0.003835 0.011477 0.043287 -0.027727
# 6 0.003315 -0.012061 0.006693 -0.004361 -0.027727 0.071252
#
#
# Mechanical properties :
#
#
# Convention : Reuss Voigt Hill
#
# Bulk Modulus (GPa) = 19.90820 56.07649 37.99235
# Shear Modulus (GPa) = 19.66843 33.82760 26.74801
#
# Velocity S-wave (km/s) = 2.96416 3.88733 3.45670
# Velocity P-wave (km/s) = 4.53963 6.72300 5.73616
#
# Compressibility (1/GPa) = 0.05023055
#
# Stress axis : x y z
#
# Youngs Moduli (GPa) = 106.21444 22.42860 107.22464
#
# Poissons Ratio (x) = 0.10287 0.30484
# Poissons Ratio (y) = 0.48716 -0.09451
# Poissons Ratio (z) = 0.30197 -0.01977
#
# Static dielectric constant tensor:
#      x y z
#    x 1.879460 0.010140 -0.049180 
#    y 0.010140 1.886550 -0.009150 
#    z -0.049180 -0.009150 1.871090 
# 
# From -- ./inp_files/187073.got.cif
#   From: 2010.05.17/outbox.cif.g08.bks.cpg/sg2_94_cif.got.tgz:187073.got - 2010.06.03 11:33:40.
