data_PCOD9081531
_publ_section_title
;
Structure prediction by ZEFSAII (Michael W. Deem and Ramdas Pophale) SiO2 
 PCOD9081531
Probable space group: P -1
;
_chemical_formula_sum "Si O2"
_cell_formula_units_Z 14
_cell_length_a 7.894004
_cell_length_b 15.033936
_cell_length_c 8.078620
_cell_angle_alpha 48.415788
_cell_angle_beta 130.035030
_cell_angle_gamma 128.845602
_cell_volume 514.399890
_symmetry_space_group_name_H-M "P -1"
_symmetry_group_IT_number 2
_symmetry_cell_setting 'triclinic'
loop_
_space_group_symop_operation_xyz
x,y,z
-x,-y,-z
loop_
_atom_site_type_symbol
_atom_site_label
_atom_site_fract_x
_atom_site_fract_y
_atom_site_fract_z
Si Si1 0.784487 0.121385 0.461303
Si Si2 0.564038 0.662958 0.180513
Si Si3 0.098953 0.128526 0.078161
Si Si4 0.751511 0.427175 0.602576
Si Si5 0.417484 0.920296 0.278254
Si Si6 0.831794 0.851867 0.548592
Si Si7 0.293499 0.558970 0.816726
O O1 0.669522 0.155933 0.508367
O O2 0.027723 0.203359 0.423714
O O3 0.840887 0.998857 0.717760
O O4 0.585092 0.060321 0.272574
O O5 0.684033 0.555150 0.400252
O O6 0.425799 0.659676 0.266836
O O7 0.772695 0.788727 0.098130
O O8 0.369537 0.631288 0.949763
O O9 0.187391 0.205508 0.208937
O O10 0.819970 0.090182 0.947236
O O11 0.720348 0.382807 0.446576
O O12 0.023630 0.461954 0.782503
O O13 0.584528 0.867823 0.340489
O O14 0.000000 0.000000 0.500000
O O15 0.500000 0.500000 0.000000
#
# Coordination Sequence:
#
# PCOD9081531 Si02
#       7
#     2   2   2   2   2   2   2
#     4   9  19  34  54  75 102 143 185 220 266 321
#     4  10  20  34  56  84 109 143 180 225 276 322
#     4  10  19  32  51  78 106 132 176 219 267 319
#     4   9  19  36  59  80 106 148 181 215 276 331
#     4   9  17  33  54  71 104 143 174 223 269 313
#     4   8  18  33  51  74 100 138 180 219 265 318
#     4   9  18  36  60  78 108 142 183 222 264 337
#
# _framework density 27.216180000000001
#
# number of rings (size 3 to 8) (size 9 to 14) (size 15 to 20)
#    0.000    3.143    0.000    0.857    0.000    7.429 
#    2.571    0.000   40.857    0.000    0.000    0.000 
#    0.000    0.000    0.000    0.000    0.000    0.000 
#
# Total GULP energy -78354.326243 kJ/mol
# GULP energy per Si atom -5596.737589 kJ/mol
# Density = 2.715423 g / cm^3
# Si number density = 27.216180 Si / 1000 Ang^3
#
#
#
# Elastic Constant Matrix: (Units=GPa)
#
#
# Indices 1 2 3 4 5 6 
#
# 1 192.0918 61.5214 46.5808 9.7257 -18.4368 41.1084
# 2 61.5214 98.0805 54.3583 13.6011 6.9402 16.9710
# 3 46.5808 54.3583 115.1795 14.4251 4.6478 19.8209
# 4 9.7257 13.6011 14.4251 49.8671 20.1175 -2.6446
# 5 -18.4368 6.9402 4.6478 20.1175 59.0745 13.8394
# 6 41.1084 16.9710 19.8209 -2.6446 13.8394 52.6094
#
#
#
# Elastic Compliance Matrix: (Units=1/GPa)
#
#
# Indices 1 2 3 4 5 6 
#
# 1 0.008937 -0.004188 -0.000191 -0.003433 0.006190 -0.007361
# 2 -0.004188 0.016243 -0.005930 -0.000753 -0.002713 0.000943
# 3 -0.000191 -0.005930 0.012358 -0.002592 0.001264 -0.003056
# 4 -0.003433 -0.000753 -0.002592 0.026930 -0.011915 0.008390
# 5 0.006190 -0.002713 0.001264 -0.011915 0.025913 -0.011853
# 6 -0.007361 0.000943 -0.003056 0.008390 -0.011853 0.029147
#
#
# Mechanical properties :
#
#
# Convention : Reuss Voigt Hill
#
# Bulk Modulus (GPa) = 59.10666 81.14143 70.12405
# Shear Modulus (GPa) = 34.29718 48.50297 41.40008
#
# Velocity S-wave (km/s) = 3.55375 4.22612 3.90443
# Velocity P-wave (km/s) = 6.21317 7.32747 6.79320
#
# Compressibility (1/GPa) = 0.01691857
#
# Stress axis : x y z
#
# Youngs Moduli (GPa) = 111.90045 61.56616 80.92178
#
# Poissons Ratio (x) = 0.25784 0.01543
# Poissons Ratio (y) = 0.46864 0.47990
# Poissons Ratio (z) = 0.02134 0.36511
#
# Static dielectric constant tensor:
#      x y z
#    x 2.197430 -0.047050 -0.053710 
#    y -0.047050 2.190860 0.004760 
#    z -0.053710 0.004760 2.142760 
# 
# From -- ./inp_files/219377.got.cif
#   From: 2010.05.17/outbox.cif.g08.bks.cpg/sg2_110_cif.got.tgz:219377.got - 2010.06.03 11:33:40.
