data_PCOD9081327
_publ_section_title
;
Structure prediction by ZEFSAII (Michael W. Deem and Ramdas Pophale) SiO2 
 PCOD9081327
Probable space group: P -1
;
_chemical_formula_sum "Si O2"
_cell_formula_units_Z 13
_cell_length_a 7.483856
_cell_length_b 12.854547
_cell_length_c 5.366469
_cell_angle_alpha 93.667284
_cell_angle_beta 95.588171
_cell_angle_gamma 79.842036
_cell_volume 505.178272
_symmetry_space_group_name_H-M "P -1"
_symmetry_group_IT_number 2
_symmetry_cell_setting 'triclinic'
loop_
_space_group_symop_operation_xyz
x,y,z
-x,-y,-z
loop_
_atom_site_type_symbol
_atom_site_label
_atom_site_fract_x
_atom_site_fract_y
_atom_site_fract_z
Si Si1 0.431925 0.835363 0.325109
Si Si2 0.219452 0.502981 0.060088
Si Si3 0.942300 0.803250 0.771191
Si Si4 0.000000 0.000000 0.000000
Si Si5 0.568657 0.729197 0.828806
Si Si6 0.238079 0.031819 0.599219
Si Si7 0.854926 0.418674 0.437351
O O1 0.467314 0.756276 0.556150
O O2 0.276131 0.931078 0.404811
O O3 0.598321 0.903029 0.347076
O O4 0.448814 0.772959 0.057856
O O5 0.276121 0.536235 0.800059
O O6 0.335172 0.391384 0.135355
O O7 0.229725 0.582421 0.301382
O O8 0.000000 0.500000 0.000000
O O9 0.745037 0.787236 0.839548
O O10 0.043931 0.693695 0.662003
O O11 0.913136 0.889948 0.561299
O O12 0.031365 0.867055 0.997706
O O13 0.818128 0.003822 0.147843
O O14 0.000000 0.500000 0.500000
#
# Coordination Sequence:
#
# PCOD9081327 Si02
#       7
#     2   2   2   1   2   2   2
#     4  10  23  38  62  87 125 162 201 255 307 367
#     4  10  19  31  54  91 122 151 190 256 315 356
#     4  11  23  36  59  88 130 160 202 253 305 372
#     4  12  24  40  60  86 128 172 206 246 302 368
#     4  11  20  36  62  90 126 155 198 257 314 360
#     4  10  24  39  58  87 124 162 211 247 306 361
#     4  10  20  32  56  86 124 151 194 252 320 342
#
# _framework density 25.733488999999999
#
# number of rings (size 3 to 8) (size 9 to 14) (size 15 to 20)
#    0.000    1.538    4.615    1.385   10.769    1.846 
#    0.000    0.000    0.000    0.000    0.000    6.462 
#    0.000    0.000    0.000    0.000    0.000    0.000 
#
# Total GULP energy -72503.027934 kJ/mol
# GULP energy per Si atom -5577.155995 kJ/mol
# Density = 2.567492 g / cm^3
# Si number density = 25.733489 Si / 1000 Ang^3
#
#
#
# Elastic Constant Matrix: (Units=GPa)
#
#
# Indices 1 2 3 4 5 6 
#
# 1 157.1768 31.0557 21.7969 -7.6990 9.7346 -196.0864
# 2 31.0557 178.3868 59.1341 22.3931 5.6669 -27.3316
# 3 21.7969 59.1341 213.4311 9.4284 -17.8410 -4.1668
# 4 -7.6990 22.3931 9.4284 56.9186 -3.6611 30.1383
# 5 9.7346 5.6669 -17.8410 -3.6611 21.8219 -23.7150
# 6 -196.0864 -27.3316 -4.1668 30.1383 -23.7150 494.2700
#
#
#
# Elastic Compliance Matrix: (Units=1/GPa)
#
#
# Indices 1 2 3 4 5 6 
#
# 1 0.013153 -0.001095 -0.000996 -0.000399 -0.000889 0.005131
# 2 -0.001095 0.006887 -0.001965 -0.002717 -0.003438 -0.000069
# 3 -0.000996 -0.001965 0.005780 0.000140 0.005486 -0.000201
# 4 -0.000399 -0.002717 0.000140 0.019460 0.002784 -0.001360
# 5 -0.000889 -0.003438 0.005486 0.002784 0.054168 0.001933
# 6 0.005131 -0.000069 -0.000201 -0.001360 0.001933 0.004229
#
#
# Mechanical properties :
#
#
# Convention : Reuss Voigt Hill
#
# Bulk Modulus (GPa) = 56.47295 85.88533 71.17914
# Shear Modulus (GPa) = 42.48327 143.73598 93.10963
#
# Velocity S-wave (km/s) = 4.06753 7.48177 6.02170
# Velocity P-wave (km/s) = 6.63722 10.39631 8.72169
#
# Compressibility (1/GPa) = 0.01770759
#
# Stress axis : x y z
#
# Youngs Moduli (GPa) = 76.02564 145.19072 173.00838
#
# Poissons Ratio (x) = 0.15901 0.17238
# Poissons Ratio (y) = 0.08326 0.33999
# Poissons Ratio (z) = 0.07575 0.28532
#
# Static dielectric constant tensor:
#      x y z
#    x 2.202380 0.087090 0.102560 
#    y 0.087090 2.057850 -0.067630 
#    z 0.102560 -0.067630 2.444710 
# 
# From -- ./inp_files/24643.got.cif
#   From: 2010.05.17/outbox.cif.g08.bks.cpg/sg2_13_cif.got.tgz:24643.got - 2010.06.03 11:33:40.
