data_PCOD9081856
_publ_section_title
;
Structure prediction by ZEFSAII (Michael W. Deem and Ramdas Pophale) SiO2 
 PCOD9081856
Probable space group: P -1
;
_chemical_formula_sum "Si O2"
_cell_formula_units_Z 16
_cell_length_a 14.711224
_cell_length_b 18.272303
_cell_length_c 11.509698
_cell_angle_alpha 38.813048
_cell_angle_beta 30.926308
_cell_angle_gamma 31.924407
_cell_volume 825.818757
_symmetry_space_group_name_H-M "P -1"
_symmetry_group_IT_number 2
_symmetry_cell_setting 'triclinic'
loop_
_space_group_symop_operation_xyz
x,y,z
-x,-y,-z
loop_
_atom_site_type_symbol
_atom_site_label
_atom_site_fract_x
_atom_site_fract_y
_atom_site_fract_z
Si Si1 0.676334 0.701075 0.278211
Si Si2 0.875317 0.641464 0.614210
Si Si3 0.249666 0.582579 0.441130
Si Si4 0.308175 0.913827 0.264674
Si Si5 0.958526 0.177628 0.218191
Si Si6 0.863358 0.418307 0.178973
Si Si7 0.902168 0.689650 0.263729
Si Si8 0.507147 0.700965 0.103820
O O1 0.611670 0.588682 0.500841
O O2 0.528137 0.829582 0.196994
O O3 0.708225 0.739820 0.324380
O O4 0.914131 0.611260 0.072716
O O5 0.842928 0.706387 0.442025
O O6 0.074850 0.631198 0.471453
O O7 0.942778 0.479552 0.722024
O O8 0.664851 0.719442 0.828100
O O9 0.127154 0.622437 0.648837
O O10 0.388375 0.648684 0.218312
O O11 0.156233 0.902342 0.537869
O O12 0.349387 0.830405 0.200851
O O13 0.185844 0.074668 0.160543
O O14 0.828216 0.317447 0.264718
O O15 0.992604 0.228026 0.995976
O O16 0.666851 0.574645 0.172979
#
# Coordination Sequence:
#
# PCOD9081856 Si02
#       8
#     2   2   2   2   2   2   2   2
#     4  10  19  32  56  84 113 146 184 231 285 339
#     4  10  21  38  55  86 112 151 193 235 265 334
#     4  11  19  31  56  85 115 145 183 231 292 322
#     4  11  22  34  56  89 114 144 187 230 294 338
#     4  10  21  38  55  79 121 148 179 239 281 337
#     4  11  18  33  55  84 118 140 182 239 288 329
#     4   9  20  39  55  75 119 151 185 233 276 326
#     4  12  20  34  59  88 115 144 185 240 277 337
#
# _framework density 19.374711999999999
#
# number of rings (size 3 to 8) (size 9 to 14) (size 15 to 20)
#    0.000    1.500    6.250    2.250    0.000    2.000 
#    2.250    2.500    0.000    0.750    0.000    0.000 
#    0.000    0.000    0.000    0.000    0.000    0.000 
#
# Total GULP energy -89204.822184 kJ/mol
# GULP energy per Si atom -5575.301386 kJ/mol
# Density = 1.933061 g / cm^3
# Si number density = 19.374712 Si / 1000 Ang^3
#
#
#
# Elastic Constant Matrix: (Units=GPa)
#
#
# Indices 1 2 3 4 5 6 
#
# 1 83.2926 14.3574 43.6496 2.9522 6.2926 -12.0260
# 2 14.3574 34.0725 20.8451 1.5869 9.2254 -11.6366
# 3 43.6496 20.8451 89.0796 -7.5051 8.1813 -10.5637
# 4 2.9522 1.5869 -7.5051 21.1452 -6.9221 1.9743
# 5 6.2926 9.2254 8.1813 -6.9221 39.1349 -0.7233
# 6 -12.0260 -11.6366 -10.5637 1.9743 -0.7233 13.7537
#
#
#
# Elastic Compliance Matrix: (Units=1/GPa)
#
#
# Indices 1 2 3 4 5 6 
#
# 1 0.018384 0.003252 -0.008599 -0.008117 -0.003116 0.013223
# 2 0.003252 0.051770 -0.008938 -0.015578 -0.012850 0.041340
# 3 -0.008599 -0.008938 0.017856 0.008867 0.001278 -0.002572
# 4 -0.008117 -0.015578 0.008867 0.059038 0.013174 -0.021249
# 5 -0.003116 -0.012850 0.001278 0.013174 0.030908 -0.012881
# 6 0.013223 0.041340 -0.002572 -0.021249 -0.012881 0.119643
#
#
# Mechanical properties :
#
#
# Convention : Reuss Voigt Hill
#
# Bulk Modulus (GPa) = 16.82367 40.46098 28.64233
# Shear Modulus (GPa) = 14.45162 23.31292 18.88227
#
# Velocity S-wave (km/s) = 2.73408 3.47258 3.12522
# Velocity P-wave (km/s) = 4.32078 6.08335 5.27618
#
# Compressibility (1/GPa) = 0.05944005
#
# Stress axis : x y z
#
# Youngs Moduli (GPa) = 54.39568 19.31606 56.00477
#
# Poissons Ratio (x) = -0.06281 0.48157
# Poissons Ratio (y) = -0.17688 0.50056
# Poissons Ratio (z) = 0.46774 0.17264
#
# Static dielectric constant tensor:
#      x y z
#    x 1.712440 0.005570 -0.066790 
#    y 0.005570 1.696190 -0.003080 
#    z -0.066790 -0.003080 1.729100 
# 
# From -- ./inp_files/348005.got.cif
#   From: 2010.05.17/outbox.cif.g08.bks.cpg/sg2_175_cif.got.tgz:348005.got - 2010.06.03 11:33:40.
