data_PCOD9081350
_publ_section_title
;
Structure prediction by ZEFSAII (Michael W. Deem and Ramdas Pophale) SiO2 
 PCOD9081350
Probable space group: P -1
;
_chemical_formula_sum "Si O2"
_cell_formula_units_Z 16
_cell_length_a 20.354013
_cell_length_b 5.670516
_cell_length_c 9.559280
_cell_angle_alpha 73.890585
_cell_angle_beta 115.115073
_cell_angle_gamma 125.374012
_cell_volume 813.821432
_symmetry_space_group_name_H-M "P -1"
_symmetry_group_IT_number 2
_symmetry_cell_setting 'triclinic'
loop_
_space_group_symop_operation_xyz
x,y,z
-x,-y,-z
loop_
_atom_site_type_symbol
_atom_site_label
_atom_site_fract_x
_atom_site_fract_y
_atom_site_fract_z
Si Si1 0.210321 0.717365 0.261153
Si Si2 0.661060 0.642064 0.843245
Si Si3 0.490534 0.350640 0.366613
Si Si4 0.813269 0.740441 0.112680
Si Si5 0.886476 0.311140 0.277481
Si Si6 0.913425 0.253171 0.635435
Si Si7 0.637341 0.327597 0.578977
Si Si8 0.097788 0.172996 0.100193
O O1 0.150383 0.709925 0.329953
O O2 0.272548 0.618322 0.396215
O O3 0.147981 0.512598 0.115697
O O4 0.277968 0.021990 0.200589
O O5 0.565207 0.572187 0.795923
O O6 0.655250 0.478257 0.721596
O O7 0.711652 0.584685 0.017317
O O8 0.500000 0.500000 0.500000
O O9 0.586113 0.420797 0.414925
O O10 0.428801 0.010022 0.395152
O O11 0.844275 0.511877 0.202157
O O12 0.843097 0.006286 0.203978
O O13 0.855726 0.877151 0.977327
O O14 0.891819 0.250060 0.455541
O O15 0.986242 0.508315 0.287203
O O16 0.898410 0.952633 0.726695
O O17 0.000000 0.000000 0.000000
#
# Coordination Sequence:
#
# PCOD9081350 Si02
#       8
#     2   2   2   2   2   2   2   2
#     4  11  20  34  57  86 117 155 204 251 303 356
#     4  10  19  31  55  87 119 151 195 252 303 357
#     4   8  16  28  48  81 123 154 179 233 314 360
#     4  12  23  41  60  89 116 159 203 255 300 359
#     4  11  28  42  59  82 124 162 209 252 310 364
#     4  11  25  40  58  82 117 164 204 257 306 362
#     4   9  16  30  50  82 123 149 189 243 305 361
#     4  12  23  36  61  85 117 154 209 257 308 350
#
# _framework density 19.660333000000001
#
# number of rings (size 3 to 8) (size 9 to 14) (size 15 to 20)
#    0.000    1.500    3.750    1.500    3.500    2.000 
#    0.000    0.000    0.000    0.000    0.000    1.750 
#    0.000    0.000    0.000    0.000    0.000    0.000 
#
# Total GULP energy -89092.028915 kJ/mol
# GULP energy per Si atom -5568.251807 kJ/mol
# Density = 1.961559 g / cm^3
# Si number density = 19.660333 Si / 1000 Ang^3
#
#
#
# Elastic Constant Matrix: (Units=GPa)
#
#
# Indices 1 2 3 4 5 6 
#
# 1 157.2463 36.5457 105.5315 18.1237 78.6060 -57.8624
# 2 36.5457 106.2501 65.5207 32.9641 18.2911 -28.7898
# 3 105.5315 65.5207 160.6154 20.1614 63.9138 -45.9356
# 4 18.1237 32.9641 20.1614 42.4951 7.3107 -6.3393
# 5 78.6060 18.2911 63.9138 7.3107 61.7987 -23.6870
# 6 -57.8624 -28.7898 -45.9356 -6.3393 -23.6870 42.9998
#
#
#
# Elastic Compliance Matrix: (Units=1/GPa)
#
#
# Indices 1 2 3 4 5 6 
#
# 1 0.031679 0.005577 -0.003936 -0.007423 -0.026946 0.026220
# 2 0.005577 0.018013 -0.006273 -0.011681 -0.000362 0.010943
# 3 -0.003936 -0.006273 0.015078 0.001115 -0.007943 0.002400
# 4 -0.007423 -0.011681 0.001115 0.033099 0.004222 -0.009412
# 5 -0.026946 -0.000362 -0.007943 0.004222 0.052321 -0.015544
# 6 0.026220 0.010943 0.002400 -0.009412 -0.015544 0.058479
#
#
# Mechanical properties :
#
#
# Convention : Reuss Voigt Hill
#
# Bulk Modulus (GPa) = 18.01577 93.25640 55.63608
# Shear Modulus (GPa) = 21.14741 43.89296 32.52019
#
# Velocity S-wave (km/s) = 3.28325 4.73013 4.07148
# Velocity P-wave (km/s) = 4.85349 8.79596 7.10371
#
# Compressibility (1/GPa) = 0.05550693
#
# Stress axis : x y z
#
# Youngs Moduli (GPa) = 31.56677 55.51544 66.31961
#
# Poissons Ratio (x) = -0.30964 0.26107
# Poissons Ratio (y) = -0.17606 0.41600
# Poissons Ratio (z) = 0.12426 0.34823
#
# Static dielectric constant tensor:
#      x y z
#    x 1.905790 0.027830 0.012460 
#    y 0.027830 1.779800 -0.074540 
#    z 0.012460 -0.074540 1.777520 
# 
# From -- ./inp_files/52952.got.cif
#   From: 2010.05.17/outbox.cif.g08.bks.cpg/sg2_27_cif.got.tgz:52952.got - 2010.06.03 11:33:40.
