data_PCOD9081955
_publ_section_title
;
Structure prediction by ZEFSAII (Michael W. Deem and Ramdas Pophale) SiO2 
 PCOD9081955
Probable space group: P -1
;
_chemical_formula_sum "Si O2"
_cell_formula_units_Z 16
_cell_length_a 11.966226
_cell_length_b 12.003307
_cell_length_c 12.569169
_cell_angle_alpha 49.123793
_cell_angle_beta 143.040346
_cell_angle_gamma 123.331962
_cell_volume 819.356188
_symmetry_space_group_name_H-M "P -1"
_symmetry_group_IT_number 2
_symmetry_cell_setting 'triclinic'
loop_
_space_group_symop_operation_xyz
x,y,z
-x,-y,-z
loop_
_atom_site_type_symbol
_atom_site_label
_atom_site_fract_x
_atom_site_fract_y
_atom_site_fract_z
Si Si1 0.815697 0.771087 0.553999
Si Si2 0.427932 0.448159 0.361975
Si Si3 0.651754 0.055965 0.231376
Si Si4 0.551797 0.483020 0.211247
Si Si5 0.121439 0.651130 0.972096
Si Si6 0.164363 0.272999 0.641380
Si Si7 0.743215 0.054698 0.052864
Si Si8 0.741404 0.352768 0.238517
O O1 0.704318 0.691916 0.615101
O O2 0.749359 0.728778 0.411742
O O3 0.021132 0.714556 0.754367
O O4 0.806464 0.944114 0.451137
O O5 0.500000 0.500000 0.500000
O O6 0.544941 0.414722 0.367793
O O7 0.321132 0.588833 0.152493
O O8 0.679335 0.080827 0.110535
O O9 0.671661 0.199676 0.226961
O O10 0.448631 0.971276 0.141300
O O11 0.691324 0.629747 0.237477
O O12 0.643434 0.379390 0.260088
O O13 0.350138 0.524587 0.984328
O O14 0.139727 0.791375 0.978430
O O15 0.000000 0.500000 0.000000
O O16 0.963306 0.343180 0.434837
O O17 0.156475 0.099999 0.777357
#
# Coordination Sequence:
#
# PCOD9081955 Si02
#       8
#     2   2   2   2   2   2   2   2
#     4  10  20  33  57  88 112 149 191 243 298 343
#     4  11  20  36  57  80 118 152 194 239 293 348
#     4  10  19  34  57  85 115 151 193 241 296 344
#     4  11  23  39  57  85 120 159 198 237 294 350
#     4  10  21  33  52  87 120 145 188 242 295 353
#     4  11  20  36  60  88 117 151 196 246 294 344
#     4  10  19  32  58  86 115 149 192 245 296 343
#     4  11  23  38  58  85 121 157 194 244 290 354
#
# _framework density 19.527529000000001
#
# number of rings (size 3 to 8) (size 9 to 14) (size 15 to 20)
#    0.000    1.500    2.500    4.125    1.750    2.000 
#    0.000    0.625    0.000    0.000    0.000    4.375 
#    0.000    0.000    0.000    0.000    0.000    0.000 
#
# Total GULP energy -89098.742493 kJ/mol
# GULP energy per Si atom -5568.671406 kJ/mol
# Density = 1.948308 g / cm^3
# Si number density = 19.527529 Si / 1000 Ang^3
#
#
#
# Elastic Constant Matrix: (Units=GPa)
#
#
# Indices 1 2 3 4 5 6 
#
# 1 86.5517 34.0102 30.2844 -5.2896 -6.6071 -16.5270
# 2 34.0102 96.5509 18.1131 -2.8982 3.7849 -2.8471
# 3 30.2844 18.1131 81.3597 -3.1718 11.7798 -3.7092
# 4 -5.2896 -2.8982 -3.1718 31.3340 -1.3781 3.6311
# 5 -6.6071 3.7849 11.7798 -1.3781 25.7283 4.6091
# 6 -16.5270 -2.8471 -3.7092 3.6311 4.6091 33.3711
#
#
#
# Elastic Compliance Matrix: (Units=1/GPa)
#
#
# Indices 1 2 3 4 5 6 
#
# 1 0.017510 -0.005073 -0.006042 0.001432 0.006929 0.006455
# 2 -0.005073 0.012317 -0.000514 0.000251 -0.002655 -0.001179
# 3 -0.006042 -0.000514 0.015923 0.000169 -0.008744 -0.000077
# 4 0.001432 0.000251 0.000169 0.032676 0.002570 -0.003161
# 5 0.006929 -0.002655 -0.008744 0.002570 0.045966 -0.004395
# 6 0.006455 -0.001179 -0.000077 -0.003161 -0.004395 0.034005
#
#
# Mechanical properties :
#
#
# Convention : Reuss Voigt Hill
#
# Bulk Modulus (GPa) = 44.45471 47.69751 46.07611
# Shear Modulus (GPa) = 26.43389 30.22366 28.32877
#
# Velocity S-wave (km/s) = 3.68322 3.93841 3.81295
# Velocity P-wave (km/s) = 6.39552 6.72014 6.55984
#
# Compressibility (1/GPa) = 0.02249481
#
# Stress axis : x y z
#
# Youngs Moduli (GPa) = 57.10997 81.18651 62.80094
#
# Poissons Ratio (x) = 0.41185 0.37942
# Poissons Ratio (y) = 0.28971 0.03225
# Poissons Ratio (z) = 0.34503 0.04169
#
# Static dielectric constant tensor:
#      x y z
#    x 1.758940 0.055540 0.029680 
#    y 0.055540 1.763500 0.017720 
#    z 0.029680 0.017720 1.748360 
# 
# From -- ./inp_files/388192.got.cif
#   From: 2010.05.17/outbox.cif.g08.bks.cpg/sg2_195_cif.got.tgz:388192.got - 2010.06.03 11:33:40.
