data_PCOD9081508
_publ_section_title
;
Structure prediction by ZEFSAII (Michael W. Deem and Ramdas Pophale) SiO2 
 PCOD9081508
Probable space group: P -1
;
_chemical_formula_sum "Si O2"
_cell_formula_units_Z 16
_cell_length_a 14.827236
_cell_length_b 12.512396
_cell_length_c 5.417817
_cell_angle_alpha 81.460101
_cell_angle_beta 132.893877
_cell_angle_gamma 114.580512
_cell_volume 655.831000
_symmetry_space_group_name_H-M "P -1"
_symmetry_group_IT_number 2
_symmetry_cell_setting 'triclinic'
loop_
_space_group_symop_operation_xyz
x,y,z
-x,-y,-z
loop_
_atom_site_type_symbol
_atom_site_label
_atom_site_fract_x
_atom_site_fract_y
_atom_site_fract_z
Si Si1 0.232439 0.310777 0.328678
Si Si2 0.666765 0.444600 0.374665
Si Si3 0.795447 0.266832 0.637998
Si Si4 0.095909 0.764184 0.649419
Si Si5 0.296456 0.006478 0.386603
Si Si6 0.733403 0.955881 0.174330
Si Si7 0.025078 0.117007 0.276619
Si Si8 0.386014 0.373623 0.085912
O O1 0.223137 0.434966 0.327659
O O2 0.090899 0.195407 0.128856
O O3 0.125304 0.058280 0.554309
O O4 0.312061 0.323310 0.220845
O O5 0.715948 0.346919 0.426355
O O6 0.618559 0.499833 0.033029
O O7 0.540219 0.394115 0.344310
O O8 0.896677 0.289401 0.583923
O O9 0.700456 0.122281 0.536319
O O10 0.868473 0.298876 0.030999
O O11 0.976338 0.792071 0.541225
O O12 0.214484 0.899982 0.794114
O O13 0.342583 0.080248 0.696673
O O14 0.131379 0.965346 0.063142
O O15 0.645899 0.914913 0.777198
O O16 0.688130 0.701043 0.272290
#
# Coordination Sequence:
#
# PCOD9081508 Si02
#       8
#     2   2   2   2   2   2   2   2
#     4  10  21  33  49  79  98 123 162 203 245 295
#     4   9  20  36  57  69  97 124 160 210 254 278
#     4   9  18  30  52  70  96 127 163 200 236 281
#     4   9  19  31  45  77 100 126 171 190 220 297
#     4   9  18  31  45  76  99 127 171 190 221 296
#     4   9  17  30  49  69  98 135 163 197 232 265
#     4  10  19  32  51  70 107 135 155 202 240 274
#     4   9  21  35  54  72  97 115 170 212 241 293
#
# _framework density 24.396529000000001
#
# number of rings (size 3 to 8) (size 9 to 14) (size 15 to 20)
#    0.750    2.250    0.000    2.250    1.750    7.000 
#    0.000    3.750    0.000    0.000    0.000   21.000 
#    0.000    0.000    0.000    0.000    0.000    0.000 
#
# Total GULP energy -89213.792635 kJ/mol
# GULP energy per Si atom -5575.862040 kJ/mol
# Density = 2.434100 g / cm^3
# Si number density = 24.396529 Si / 1000 Ang^3
#
#
#
# Elastic Constant Matrix: (Units=GPa)
#
#
# Indices 1 2 3 4 5 6 
#
# 1 113.3627 -18.3586 45.5713 33.3881 -54.8416 73.3231
# 2 -18.3586 194.0590 58.5353 -96.5043 5.3376 -181.3583
# 3 45.5713 58.5353 99.2641 -36.1776 -45.1796 -56.8219
# 4 33.3881 -96.5043 -36.1776 95.0638 -4.7463 139.7134
# 5 -54.8416 5.3376 -45.1796 -4.7463 48.0864 -20.0218
# 6 73.3231 -181.3583 -56.8219 139.7134 -20.0218 251.5961
#
#
#
# Elastic Compliance Matrix: (Units=1/GPa)
#
#
# Indices 1 2 3 4 5 6 
#
# 1 0.035315 -0.013943 -0.007495 0.006867 0.025543 -0.023816
# 2 -0.013943 0.022682 -0.000754 -0.007861 -0.009988 0.023813
# 3 -0.007495 -0.000754 0.032685 -0.004335 0.027488 0.013617
# 4 0.006867 -0.007861 -0.004335 0.063622 -0.007653 -0.044586
# 5 0.025543 -0.009988 0.027488 -0.007653 0.076913 0.001934
# 6 -0.023816 0.023813 0.013617 -0.044586 0.001934 0.056069
#
#
# Mechanical properties :
#
#
# Convention : Reuss Voigt Hill
#
# Bulk Modulus (GPa) = 21.59891 64.24243 42.92067
# Shear Modulus (GPa) = 14.40501 100.34511 57.37506
#
# Velocity S-wave (km/s) = 2.43256 6.42029 4.85477
# Velocity P-wave (km/s) = 4.09418 9.01943 7.00401
#
# Compressibility (1/GPa) = 0.04629864
#
# Stress axis : x y z
#
# Youngs Moduli (GPa) = 28.31683 44.08869 30.59467
#
# Poissons Ratio (x) = 0.61473 0.22930
# Poissons Ratio (y) = 0.39482 0.02306
# Poissons Ratio (z) = 0.21223 0.03323
#
# Static dielectric constant tensor:
#      x y z
#    x 1.980550 0.033440 -0.058500 
#    y 0.033440 2.007430 0.035160 
#    z -0.058500 0.035160 2.095110 
# 
# From -- ./inp_files/93801.got.cif
#   From: 2010.05.17/outbox.cif.g08.bks.cpg/sg2_47_cif.got.tgz:93801.got - 2010.06.03 11:33:40.
