data_PCOD9081625
_publ_section_title
;
Structure prediction by ZEFSAII (Michael W. Deem and Ramdas Pophale) SiO2 
 PCOD9081625
Probable space group: P -1
;
_chemical_formula_sum "Si O2"
_cell_formula_units_Z 16
_cell_length_a 13.191780
_cell_length_b 10.570793
_cell_length_c 9.355775
_cell_angle_alpha 63.784804
_cell_angle_beta 123.994742
_cell_angle_gamma 70.302060
_cell_volume 600.901489
_symmetry_space_group_name_H-M "P -1"
_symmetry_group_IT_number 2
_symmetry_cell_setting 'triclinic'
loop_
_space_group_symop_operation_xyz
x,y,z
-x,-y,-z
loop_
_atom_site_type_symbol
_atom_site_label
_atom_site_fract_x
_atom_site_fract_y
_atom_site_fract_z
Si Si1 0.322563 0.474985 0.435733
Si Si2 0.390641 0.681254 0.026412
Si Si3 0.676007 0.746158 0.024298
Si Si4 0.513539 0.721548 0.652399
Si Si5 0.960160 0.723488 0.344971
Si Si6 0.252008 0.083776 0.607927
Si Si7 0.101872 0.907653 0.925554
Si Si8 0.093916 0.195567 0.134950
O O1 0.483631 0.334862 0.755662
O O2 0.407292 0.357917 0.406587
O O3 0.265947 0.692832 0.265425
O O4 0.111133 0.585006 0.218182
O O5 0.487405 0.439623 0.205619
O O6 0.188320 0.824156 0.876541
O O7 0.330228 0.849462 0.775845
O O8 0.824301 0.742302 0.139134
O O9 0.810353 0.522053 0.339888
O O10 0.647662 0.691114 0.880961
O O11 0.460553 0.976897 0.805097
O O12 0.314511 0.993924 0.352871
O O13 0.862084 0.802967 0.387992
O O14 0.947407 0.889156 0.187207
O O15 0.110359 0.245694 0.282032
O O16 0.933590 0.947892 0.790310
#
# Coordination Sequence:
#
# PCOD9081625 Si02
#       8
#     2   2   2   2   2   2   2   2
#     4   9  19  37  52  81 111 141 175 214 272 327
#     4  10  20  33  55  81 112 143 169 216 281 317
#     4  10  22  34  53  80 108 143 182 217 270 309
#     4  10  19  32  53  77 108 136 176 223 258 320
#     4  10  20  35  52  77 109 146 177 220 263 316
#     4  10  21  35  55  82 111 137 173 227 269 318
#     4   8  18  32  53  75 107 136 175 214 261 318
#     4   9  20  31  53  85 105 140 171 217 281 307
#
# _framework density 26.626660999999999
#
# number of rings (size 3 to 8) (size 9 to 14) (size 15 to 20)
#    0.750    1.750    0.000    2.625    3.500    2.500 
#    0.000    0.000    0.000    6.750    0.000   34.125 
#    0.000    0.000    0.000    0.000    0.000    0.000 
#
# Total GULP energy -89421.974237 kJ/mol
# GULP energy per Si atom -5588.873390 kJ/mol
# Density = 2.656606 g / cm^3
# Si number density = 26.626661 Si / 1000 Ang^3
#
#
#
# Elastic Constant Matrix: (Units=GPa)
#
#
# Indices 1 2 3 4 5 6 
#
# 1 40.4085 25.8521 4.2240 2.5876 3.3971 -23.9075
# 2 25.8521 30.2707 61.1573 50.3366 15.4169 39.0372
# 3 4.2240 61.1573 121.1214 16.8026 -12.8377 -40.5099
# 4 2.5876 50.3366 16.8026 27.0600 -2.1992 -15.9108
# 5 3.3971 15.4169 -12.8377 -2.1992 31.6615 -19.4679
# 6 -23.9075 39.0372 -40.5099 -15.9108 -19.4679 -12.9621
#
#
#
# Elastic Compliance Matrix: (Units=1/GPa)
#
#
# Indices 1 2 3 4 5 6 
#
# 1 0.023231 0.004532 -0.002451 -0.009680 -0.006397 -0.000051
# 2 0.004532 0.011709 0.003162 -0.011480 0.006981 0.020629
# 3 -0.002451 0.003162 0.008284 -0.010855 0.001163 -0.000269
# 4 -0.009680 -0.011480 -0.010855 0.049269 -0.010896 -0.026908
# 5 -0.006397 0.006981 0.001163 -0.010896 0.028468 -0.000192
# 6 -0.000051 0.020629 -0.000269 -0.026908 -0.000192 0.019233
#
#
# Mechanical properties :
#
#
# Convention : Reuss Voigt Hill
#
# Bulk Modulus (GPa) = 18.61845 41.58525 30.10185
# Shear Modulus (GPa) = 33.87274 15.85637 24.86456
#
# Velocity S-wave (km/s) = 3.57057 2.44295 3.05917
# Velocity P-wave (km/s) = 4.89962 4.85892 4.87931
#
# Compressibility (1/GPa) = 0.05371016
#
# Stress axis : x y z
#
# Youngs Moduli (GPa) = 43.04528 85.40649 120.71152
#
# Poissons Ratio (x) = -0.38704 0.29584
# Poissons Ratio (y) = -0.19507 -0.38168
# Poissons Ratio (z) = 0.10549 -0.27005
#
# Static dielectric constant tensor:
#      x y z
#    x 2.155450 -0.015890 -0.031430 
#    y -0.015890 2.100780 -0.005550 
#    z -0.031430 -0.005550 2.018410 
# 
# From -- ./inp_files/463015.got.cif
#   From: 2010.05.17/outbox.cif.g08.bks.cpg/sg2_232_cif.got.tgz:463015.got - 2010.06.03 11:33:40.
