data_PCOD9081772
_publ_section_title
;
Structure prediction by ZEFSAII (Michael W. Deem and Ramdas Pophale) SiO2 
 PCOD9081772
Probable space group: P -1
;
_chemical_formula_sum "Si O2"
_cell_formula_units_Z 16
_cell_length_a 10.765270
_cell_length_b 20.719521
_cell_length_c 20.503691
_cell_angle_alpha 158.328530
_cell_angle_beta 31.860338
_cell_angle_gamma 148.516023
_cell_volume 842.871084
_symmetry_space_group_name_H-M "P -1"
_symmetry_group_IT_number 2
_symmetry_cell_setting 'triclinic'
loop_
_space_group_symop_operation_xyz
x,y,z
-x,-y,-z
loop_
_atom_site_type_symbol
_atom_site_label
_atom_site_fract_x
_atom_site_fract_y
_atom_site_fract_z
Si Si1 0.815663 0.924928 0.323110
Si Si2 0.416621 0.374839 0.322374
Si Si3 0.673767 0.301563 0.737963
Si Si4 0.665232 0.542057 0.235110
Si Si5 0.254359 0.082503 0.503353
Si Si6 0.854674 0.417191 0.273187
Si Si7 0.261031 0.687211 0.133629
Si Si8 0.220662 0.977967 0.084326
O O1 0.597873 0.765462 0.235065
O O2 0.818302 0.878100 0.353892
O O3 0.063540 0.960805 0.204499
O O4 0.754704 0.116736 0.529079
O O5 0.509629 0.436850 0.266891
O O6 0.661273 0.400623 0.283168
O O7 0.267020 0.500743 0.537805
O O8 0.240718 0.162506 0.209247
O O9 0.676439 0.364538 0.870593
O O10 0.879096 0.448933 0.742384
O O11 0.598731 0.723649 0.413567
O O12 0.958805 0.616629 0.194961
O O13 0.643167 0.409081 0.058122
O O14 0.361567 0.911785 0.295931
O O15 0.000000 0.000000 0.500000
O O16 0.875011 0.217590 0.092649
O O17 0.500000 0.000000 0.000000
#
# Coordination Sequence:
#
# PCOD9081772 Si02
#       8
#     2   2   2   2   2   2   2   2
#     4  10  21  37  58  89 115 144 189 238 287 331
#     4  10  20  35  53  82 119 144 192 228 279 337
#     4  10  19  37  61  83 118 148 184 239 287 337
#     4  10  19  32  55  80 113 147 184 228 278 334
#     4   9  20  33  53  81 113 142 181 236 279 329
#     4  10  20  33  56  83 110 154 182 233 289 324
#     4   9  19  33  52  84 109 144 187 230 282 324
#     4  10  22  34  54  85 115 144 187 239 278 330
#
# _framework density 18.982735999999999
#
# number of rings (size 3 to 8) (size 9 to 14) (size 15 to 20)
#    0.000    2.250    2.500    0.000    1.750    4.500 
#    0.000    0.000    0.000    1.500    3.250    0.000 
#    0.000    0.000    0.000    0.000    0.000    0.000 
#
# Total GULP energy -89270.059701 kJ/mol
# GULP energy per Si atom -5579.378731 kJ/mol
# Density = 1.893953 g / cm^3
# Si number density = 18.982736 Si / 1000 Ang^3
#
#
#
# Elastic Constant Matrix: (Units=GPa)
#
#
# Indices 1 2 3 4 5 6 
#
# 1 68.7935 47.1516 37.5358 -12.4134 26.2942 -7.5489
# 2 47.1516 111.3521 45.1105 1.0690 26.4179 -17.2596
# 3 37.5358 45.1105 94.9809 5.4097 27.8536 -21.4374
# 4 -12.4134 1.0690 5.4097 28.8830 -4.0276 0.7298
# 5 26.2942 26.4179 27.8536 -4.0276 22.6034 -4.7320
# 6 -7.5489 -17.2596 -21.4374 0.7298 -4.7320 22.7182
#
#
#
# Elastic Compliance Matrix: (Units=1/GPa)
#
#
# Indices 1 2 3 4 5 6 
#
# 1 0.032066 -0.007301 -0.004231 0.011838 -0.022263 -0.003901
# 2 -0.007301 0.015381 0.000350 -0.005255 -0.009210 0.007840
# 3 -0.004231 0.000350 0.022473 -0.009445 -0.021538 0.015884
# 4 0.011838 -0.005255 -0.009445 0.043276 0.009987 -0.008281
# 5 -0.022263 -0.009210 -0.021538 0.009987 0.106534 -0.012849
# 6 -0.003901 0.007840 0.015884 -0.008281 -0.012849 0.061255
#
#
# Mechanical properties :
#
#
# Convention : Reuss Voigt Hill
#
# Bulk Modulus (GPa) = 21.02767 59.41359 40.22063
# Shear Modulus (GPa) = 15.66409 24.52948 20.09678
#
# Velocity S-wave (km/s) = 2.87570 3.59862 3.25728
# Velocity P-wave (km/s) = 4.70399 6.97377 5.94815
#
# Compressibility (1/GPa) = 0.04755639
#
# Stress axis : x y z
#
# Youngs Moduli (GPa) = 31.18553 65.01528 44.49695
#
# Poissons Ratio (x) = 0.47467 0.18827
# Poissons Ratio (y) = 0.22768 -0.01556
# Poissons Ratio (z) = 0.13195 -0.02274
#
# Static dielectric constant tensor:
#      x y z
#    x 1.663420 0.006880 -0.025980 
#    y 0.006880 1.649550 0.044870 
#    z -0.025980 0.044870 1.710190 
# 
# From -- ./inp_files/257424.got.cif
#   From: 2010.05.17/outbox.cif.g08.bks.cpg/sg2_129_cif.got.tgz:257424.got - 2010.06.03 11:33:40.
