data_PCOD9081328
_publ_section_title
;
Structure prediction by ZEFSAII (Michael W. Deem and Ramdas Pophale) SiO2 
 PCOD9081328
Probable space group: P -1
;
_chemical_formula_sum "Si O2"
_cell_formula_units_Z 14
_cell_length_a 13.404892
_cell_length_b 17.961345
_cell_length_c 12.123470
_cell_angle_alpha 150.469650
_cell_angle_beta 126.822973
_cell_angle_gamma 32.013595
_cell_volume 646.860099
_symmetry_space_group_name_H-M "P -1"
_symmetry_group_IT_number 2
_symmetry_cell_setting 'triclinic'
loop_
_space_group_symop_operation_xyz
x,y,z
-x,-y,-z
loop_
_atom_site_type_symbol
_atom_site_label
_atom_site_fract_x
_atom_site_fract_y
_atom_site_fract_z
Si Si1 0.354267 0.287886 0.682178
Si Si2 0.779057 0.121373 0.470537
Si Si3 0.321402 0.558510 0.352555
Si Si4 0.973261 0.380272 0.903059
Si Si5 0.347418 0.579208 0.909475
Si Si6 0.971744 0.135251 0.260100
Si Si7 0.656885 0.037249 0.763351
O O1 0.289436 0.474592 0.788198
O O2 0.551039 0.152549 0.717744
O O3 0.397703 0.080303 0.391873
O O4 0.170434 0.445574 0.858030
O O5 0.749744 0.204266 0.432464
O O6 0.526108 0.404579 0.705486
O O7 0.822414 0.915551 0.289341
O O8 0.000000 0.000000 0.500000
O O9 0.151561 0.612904 0.249999
O O10 0.547400 0.263129 0.069718
O O11 0.266356 0.608849 0.510262
O O12 0.000000 0.500000 0.000000
O O13 0.500000 0.500000 0.000000
O O14 0.135629 0.890440 0.141098
O O15 0.086597 0.177826 0.357956
O O16 0.000000 0.000000 0.000000
#
# Coordination Sequence:
#
# PCOD9081328 Si02
#       7
#     2   2   2   2   2   2   2
#     4  10  21  34  62  92 128 154 202 256 318 356
#     4  10  20  32  54  88 119 157 199 250 308 360
#     4  10  20  38  57  80 125 156 205 248 306 363
#     4  10  19  31  54  92 124 153 192 254 316 365
#     4  12  20  38  63  90 127 158 209 259 302 369
#     4  12  25  41  64  91 122 166 211 256 307 369
#     4  10  21  39  57  97 121 160 203 256 307 369
#
# _framework density 21.643011000000001
#
# number of rings (size 3 to 8) (size 9 to 14) (size 15 to 20)
#    0.000    1.429    2.857    5.143    6.000    0.571 
#    0.000    0.714    0.000    0.857    0.000    0.000 
#    0.000    0.000    0.000    0.000    0.000    0.000 
#
# Total GULP energy -77938.499563 kJ/mol
# GULP energy per Si atom -5567.035683 kJ/mol
# Density = 2.159375 g / cm^3
# Si number density = 21.643011 Si / 1000 Ang^3
#
#
#
# Elastic Constant Matrix: (Units=GPa)
#
#
# Indices 1 2 3 4 5 6 
#
# 1 135.2827 10.0888 32.7974 7.4785 2.2608 6.0193
# 2 10.0888 21.6138 7.9748 -1.0809 0.8837 0.7936
# 3 32.7974 7.9748 78.6832 -0.8692 -10.0450 6.9330
# 4 7.4785 -1.0809 -0.8692 26.4550 4.0120 1.7091
# 5 2.2608 0.8837 -10.0450 4.0120 46.9332 6.5211
# 6 6.0193 0.7936 6.9330 1.7091 6.5211 11.6275
#
#
#
# Elastic Compliance Matrix: (Units=1/GPa)
#
#
# Indices 1 2 3 4 5 6 
#
# 1 0.008615 -0.002854 -0.003268 -0.002461 -0.000628 -0.001603
# 2 -0.002854 0.049319 -0.004167 0.002919 -0.002121 0.001356
# 3 -0.003268 -0.004167 0.016088 0.001202 0.005053 -0.010627
# 4 -0.002461 0.002919 0.001202 0.039290 -0.002478 -0.004028
# 5 -0.000628 -0.002121 0.005053 -0.002478 0.024915 -0.016152
# 6 -0.001603 0.001356 -0.010627 -0.004028 -0.016152 0.102727
#
#
# Mechanical properties :
#
#
# Convention : Reuss Voigt Hill
#
# Bulk Modulus (GPa) = 18.71084 37.47798 28.09441
# Shear Modulus (GPa) = 17.89886 29.31773 23.60829
#
# Velocity S-wave (km/s) = 2.87889 3.68449 3.30632
# Velocity P-wave (km/s) = 4.44012 5.95438 5.25211
#
# Compressibility (1/GPa) = 0.05344495
#
# Stress axis : x y z
#
# Youngs Moduli (GPa) = 116.07925 20.27600 62.15656
#
# Poissons Ratio (x) = 0.05787 0.20311
# Poissons Ratio (y) = 0.33130 0.25901
# Poissons Ratio (z) = 0.37931 0.08449
#
# Static dielectric constant tensor:
#      x y z
#    x 1.784450 -0.008010 0.086230 
#    y -0.008010 1.805190 -0.007720 
#    z 0.086230 -0.007720 1.767390 
# 
# From -- ./inp_files/239510.got.cif
#   From: 2010.05.17/outbox.cif.g08.bks.cpg/sg2_120_cif.got.tgz:239510.got - 2010.06.03 11:33:40.
