data_PCOD9081163
_publ_section_title
;
Structure prediction by ZEFSAII (Michael W. Deem and Ramdas Pophale) SiO2 
 PCOD9081163
Probable space group: P -1
;
_chemical_formula_sum "Si O2"
_cell_formula_units_Z 16
_cell_length_a 8.894822
_cell_length_b 13.867773
_cell_length_c 9.078974
_cell_angle_alpha 47.906287
_cell_angle_beta 86.272135
_cell_angle_gamma 119.363663
_cell_volume 574.569224
_symmetry_space_group_name_H-M "P -1"
_symmetry_group_IT_number 2
_symmetry_cell_setting 'triclinic'
loop_
_space_group_symop_operation_xyz
x,y,z
-x,-y,-z
loop_
_atom_site_type_symbol
_atom_site_label
_atom_site_fract_x
_atom_site_fract_y
_atom_site_fract_z
Si Si1 0.802033 0.995425 0.242166
Si Si2 0.833390 0.268336 0.601812
Si Si3 0.572863 0.754102 0.797578
Si Si4 0.947874 0.823676 0.400915
Si Si5 0.086426 0.430037 0.155692
Si Si6 0.562960 0.558041 0.227798
Si Si7 0.540477 0.054828 0.267837
Si Si8 0.436658 0.677086 0.365952
O O1 0.711795 0.887733 0.516409
O O2 0.989578 0.002977 0.200822
O O3 0.769122 0.129949 0.131136
O O4 0.632259 0.855706 0.266915
O O5 0.640563 0.123084 0.642933
O O6 0.726998 0.307079 0.675069
O O7 0.923793 0.181780 0.724610
O O8 0.035767 0.445017 0.311587
O O9 0.514633 0.827995 0.846518
O O10 0.332192 0.571129 0.944203
O O11 0.660521 0.684813 0.948424
O O12 0.998255 0.772814 0.601879
O O13 0.689279 0.638713 0.588189
O O14 0.000000 0.500000 0.000000
O O15 0.531927 0.647404 0.262863
O O16 0.680238 0.503702 0.337426
O O17 0.500000 0.000000 0.500000
#
# Coordination Sequence:
#
# PCOD9081163 Si02
#       8
#     2   2   2   2   2   2   2   2
#     4   9  17  32  50  71  94 136 165 194 238 294
#     4   9  18  31  47  70  95 131 161 192 240 295
#     4  10  19  31  50  74 101 124 163 207 238 280
#     4   8  18  29  46  72  95 124 164 198 237 287
#     4   9  16  27  45  69  98 122 150 203 242 280
#     4   9  18  32  49  78 100 121 161 209 237 287
#     4   9  17  31  51  67  96 134 165 196 237 290
#     4   9  17  31  53  73  97 130 162 194 246 291
#
# _framework density 27.846948000000001
#
# number of rings (size 3 to 8) (size 9 to 14) (size 15 to 20)
#    0.750    2.250    0.000    2.250    0.000    6.000 
#    0.000    5.000    2.750    0.000    0.000    3.500 
#    0.000    0.000    0.000    0.000    0.000    0.000 
#
# Total GULP energy -89166.886050 kJ/mol
# GULP energy per Si atom -5572.930378 kJ/mol
# Density = 2.778357 g / cm^3
# Si number density = 27.846948 Si / 1000 Ang^3
#
#
#
# Elastic Constant Matrix: (Units=GPa)
#
#
# Indices 1 2 3 4 5 6 
#
# 1 139.1815 42.9138 22.0985 -13.9285 9.3712 -46.5607
# 2 42.9138 129.3633 9.5886 2.3474 1.3680 -30.8591
# 3 22.0985 9.5886 51.7926 -0.4909 10.2005 -11.8230
# 4 -13.9285 2.3474 -0.4909 12.3429 -8.9094 2.7725
# 5 9.3712 1.3680 10.2005 -8.9094 43.4990 -7.0694
# 6 -46.5607 -30.8591 -11.8230 2.7725 -7.0694 57.6440
#
#
#
# Elastic Compliance Matrix: (Units=1/GPa)
#
#
# Indices 1 2 3 4 5 6 
#
# 1 0.012200 -0.002274 -0.003389 0.014062 0.002346 0.007553
# 2 -0.002274 0.009398 0.000030 -0.005379 -0.000359 0.003415
# 3 -0.003389 0.000030 0.022146 -0.007428 -0.005746 0.001473
# 4 0.014062 -0.005379 -0.007428 0.113059 0.022738 0.004306
# 5 0.002346 -0.000359 -0.005746 0.022738 0.028985 0.002985
# 6 0.007553 0.003415 0.001473 0.004306 0.002985 0.025738
#
#
# Mechanical properties :
#
#
# Convention : Reuss Voigt Hill
#
# Bulk Modulus (GPa) = 30.79022 52.17100 41.48061
# Shear Modulus (GPa) = 21.40233 39.07960 30.24097
#
# Velocity S-wave (km/s) = 2.77532 3.75022 3.29898
# Velocity P-wave (km/s) = 4.62069 6.12599 5.42580
#
# Compressibility (1/GPa) = 0.03247785
#
# Stress axis : x y z
#
# Youngs Moduli (GPa) = 81.96563 106.40032 45.15525
#
# Poissons Ratio (x) = 0.24197 0.15303
# Poissons Ratio (y) = 0.18640 -0.00134
# Poissons Ratio (z) = 0.27777 -0.00316
#
# Static dielectric constant tensor:
#      x y z
#    x 0.000000 0.000000 0.000000 
#    y 0.000000 0.000000 0.000000 
#    z 0.000000 0.000000 0.000000 
# 
# From -- ./inp_files/393797.got.cif
#   From: 2010.05.17/outbox.cif.g08.bks.cpg/sg2_197_cif.got.tgz:393797.got - 2010.06.03 11:33:40.
