data_PCOD9081208
_publ_section_title
;
Structure prediction by ZEFSAII (Michael W. Deem and Ramdas Pophale) SiO2 
 PCOD9081208
Probable space group: P -1
;
_chemical_formula_sum "Si O2"
_cell_formula_units_Z 16
_cell_length_a 7.920159
_cell_length_b 7.003512
_cell_length_c 13.950029
_cell_angle_alpha 76.291388
_cell_angle_beta 77.081438
_cell_angle_gamma 119.111389
_cell_volume 602.175014
_symmetry_space_group_name_H-M "P -1"
_symmetry_group_IT_number 2
_symmetry_cell_setting 'triclinic'
loop_
_space_group_symop_operation_xyz
x,y,z
-x,-y,-z
loop_
_atom_site_type_symbol
_atom_site_label
_atom_site_fract_x
_atom_site_fract_y
_atom_site_fract_z
Si Si1 0.238806 0.912542 0.145146
Si Si2 0.891529 0.211265 0.285993
Si Si3 0.554196 0.068280 0.696618
Si Si4 0.368145 0.425996 0.384445
Si Si5 0.248117 0.113699 0.938550
Si Si6 0.069061 0.756832 0.498543
Si Si7 0.197413 0.261297 0.719242
Si Si8 0.675627 0.603862 0.834626
O O1 0.386821 0.894258 0.202623
O O2 0.280050 0.165742 0.143349
O O3 0.269658 0.932880 0.024420
O O4 0.995641 0.723726 0.229587
O O5 0.682146 0.155223 0.267185
O O6 0.883784 0.244498 0.395605
O O7 0.115433 0.398552 0.182839
O O8 0.878536 0.964164 0.310819
O O9 0.582233 0.311408 0.632270
O O10 0.726664 0.061681 0.612529
O O11 0.597605 0.489371 0.373448
O O12 0.335981 0.377706 0.280873
O O13 0.141675 0.245717 0.481226
O O14 0.255325 0.169920 0.818143
O O15 0.447918 0.371713 0.917910
O O16 0.000000 0.000000 0.000000
O O17 0.000000 0.500000 0.500000
#
# Coordination Sequence:
#
# PCOD9081208 Si02
#       8
#     2   2   2   2   2   2   2   2
#     4  10  19  31  51  79 104 126 166 219 249 277
#     4   9  17  32  52  71  99 135 166 198 246 308
#     4  10  19  32  50  78 104 129 167 214 249 281
#     4   8  16  33  52  69  97 138 171 195 241 309
#     4   9  17  32  54  74  97 134 170 199 245 307
#     4   9  17  31  53  74  96 134 173 201 243 306
#     4   8  16  32  52  72  97 135 169 197 246 307
#     4   9  17  33  52  71  96 135 170 197 242 309
#
# _framework density 26.570347999999999
#
# number of rings (size 3 to 8) (size 9 to 14) (size 15 to 20)
#    0.000    3.000    0.000    0.750    0.000    0.000 
#    0.000   23.750    0.000    0.000    0.000    0.000 
#    0.000    0.000    0.000    0.000    0.000    0.000 
#
# Total GULP energy -89323.644565 kJ/mol
# GULP energy per Si atom -5582.727785 kJ/mol
# Density = 2.650987 g / cm^3
# Si number density = 26.570348 Si / 1000 Ang^3
#
#
#
# Elastic Constant Matrix: (Units=GPa)
#
#
# Indices 1 2 3 4 5 6 
#
# 1 108.3188 36.3737 36.9842 -22.5805 -4.5833 35.4177
# 2 36.3737 94.5243 32.4652 -12.2725 -15.9583 32.8155
# 3 36.9842 32.4652 96.8783 -8.3773 -0.1373 16.3689
# 4 -22.5805 -12.2725 -8.3773 47.2207 18.5447 -12.3117
# 5 -4.5833 -15.9583 -0.1373 18.5447 51.1449 -2.8757
# 6 35.4177 32.8155 16.3689 -12.3117 -2.8757 51.0068
#
#
#
# Elastic Compliance Matrix: (Units=1/GPa)
#
#
# Indices 1 2 3 4 5 6 
#
# 1 0.013907 -0.001564 -0.003290 0.004421 -0.001225 -0.006597
# 2 -0.001564 0.015783 -0.003440 -0.001210 0.004765 -0.007987
# 3 -0.003290 -0.003440 0.012694 0.000487 -0.001485 0.000458
# 4 0.004421 -0.001210 0.000487 0.027923 -0.009895 0.003734
# 5 -0.001225 0.004765 -0.001485 -0.009895 0.024358 -0.002754
# 6 -0.006597 -0.007987 0.000458 0.003734 -0.002754 0.029924
#
#
# Mechanical properties :
#
#
# Convention : Reuss Voigt Hill
#
# Bulk Modulus (GPa) = 38.76691 56.81863 47.79277
# Shear Modulus (GPa) = 33.38319 42.80103 38.09211
#
# Velocity S-wave (km/s) = 3.54843 4.01790 3.79044
# Velocity P-wave (km/s) = 5.60450 6.55403 6.09778
#
# Compressibility (1/GPa) = 0.02579519
#
# Stress axis : x y z
#
# Youngs Moduli (GPa) = 71.90440 63.35896 78.77930
#
# Poissons Ratio (x) = 0.09912 0.25917
# Poissons Ratio (y) = 0.11248 0.27102
# Poissons Ratio (z) = 0.23656 0.21797
#
# Static dielectric constant tensor:
#      x y z
#    x 2.169360 0.027950 -0.083510 
#    y 0.027950 2.126950 -0.014030 
#    z -0.083510 -0.014030 2.108810 
# 
# From -- ./inp_files/353644.got.cif
#   From: 2010.05.17/outbox.cif.g08.bks.cpg/sg2_177_cif.got.tgz:353644.got - 2010.06.03 11:33:40.
