data_PCOD9081145
_publ_section_title
;
Structure prediction by ZEFSAII (Michael W. Deem and Ramdas Pophale) SiO2 
 PCOD9081145
Probable space group: P -1
;
_chemical_formula_sum "Si O2"
_cell_formula_units_Z 16
_cell_length_a 13.711665
_cell_length_b 13.296177
_cell_length_c 10.674996
_cell_angle_alpha 148.677687
_cell_angle_beta 137.163046
_cell_angle_gamma 40.414056
_cell_volume 635.769099
_symmetry_space_group_name_H-M "P -1"
_symmetry_group_IT_number 2
_symmetry_cell_setting 'triclinic'
loop_
_space_group_symop_operation_xyz
x,y,z
-x,-y,-z
loop_
_atom_site_type_symbol
_atom_site_label
_atom_site_fract_x
_atom_site_fract_y
_atom_site_fract_z
Si Si1 0.653921 0.866860 0.127979
Si Si2 0.568082 0.600030 0.937252
Si Si3 0.529739 0.655953 0.592956
Si Si4 0.864436 0.124652 0.101093
Si Si5 0.984298 0.812685 0.454014
Si Si6 0.099192 0.701978 0.177969
Si Si7 0.904725 0.699559 0.783527
Si Si8 0.754974 0.488696 0.234879
O O1 0.822344 0.786060 0.262631
O O2 0.602359 0.112774 0.311408
O O3 0.541316 0.813575 0.063671
O O4 0.650028 0.739283 0.862738
O O5 0.452737 0.486223 0.665622
O O6 0.731390 0.439451 0.860318
O O7 0.618794 0.603458 0.131825
O O8 0.500000 0.500000 0.500000
O O9 0.737198 0.287220 0.066504
O O10 0.934608 0.236244 0.387638
O O11 0.828713 0.949282 0.955026
O O12 0.000000 0.000000 0.000000
O O13 0.088905 0.703048 0.318278
O O14 0.938920 0.061106 0.652142
O O15 0.960699 0.651752 0.928407
O O16 0.787920 0.621500 0.517901
O O17 0.076231 0.602345 0.774425
#
# Coordination Sequence:
#
# PCOD9081145 Si02
#       8
#     2   2   2   2   2   2   2   2
#     4  10  20  31  52  73  96 131 169 203 249 302
#     4  10  19  31  51  74 104 134 159 206 246 289
#     4   9  19  36  50  71  99 123 166 216 257 284
#     4   9  18  28  43  64  99 133 163 197 231 285
#     4  10  19  31  49  73 104 140 167 191 242 301
#     4   9  18  32  46  70 109 138 162 196 239 295
#     4   8  16  28  40  61  95 132 163 193 227 279
#     4   9  17  27  44  67  96 131 165 193 237 286
#
# _framework density 25.166370000000001
#
# number of rings (size 3 to 8) (size 9 to 14) (size 15 to 20)
#    0.000    2.750    1.250    0.750    7.000    0.500 
#    0.000    0.000    0.000    0.000    0.000    0.875 
#    0.000   10.000    0.000    0.125    0.000    0.000 
#
# Total GULP energy -89343.170954 kJ/mol
# GULP energy per Si atom -5583.948185 kJ/mol
# Density = 2.510909 g / cm^3
# Si number density = 25.166370 Si / 1000 Ang^3
#
#
#
# Elastic Constant Matrix: (Units=GPa)
#
#
# Indices 1 2 3 4 5 6 
#
# 1 62.2170 32.0597 25.6460 -8.8383 -3.9457 -7.7333
# 2 32.0597 111.8112 41.7988 -10.1240 10.2579 24.8943
# 3 25.6460 41.7988 153.7471 -26.5079 8.6625 14.6200
# 4 -8.8383 -10.1240 -26.5079 49.9035 12.8361 -3.2182
# 5 -3.9457 10.2579 8.6625 12.8361 26.4264 -4.0879
# 6 -7.7333 24.8943 14.6200 -3.2182 -4.0879 24.1135
#
#
#
# Elastic Compliance Matrix: (Units=1/GPa)
#
#
# Indices 1 2 3 4 5 6 
#
# 1 0.032220 -0.016920 -0.005866 -0.003903 0.020505 0.034312
# 2 -0.016920 0.022653 0.001809 0.005510 -0.019617 -0.032500
# 3 -0.005866 0.001809 0.009547 0.006121 -0.009273 -0.010293
# 4 -0.003903 0.005510 0.006121 0.028202 -0.020017 -0.010281
# 5 0.020505 -0.019617 -0.009273 -0.020017 0.067661 0.041249
# 6 0.034312 -0.032500 -0.010293 -0.010281 0.041249 0.097889
#
#
# Mechanical properties :
#
#
# Convention : Reuss Voigt Hill
#
# Bulk Modulus (GPa) = 44.50693 58.53158 51.51926
# Shear Modulus (GPa) = 16.25411 35.30672 25.78042
#
# Velocity S-wave (km/s) = 2.54415 3.74964 3.20410
# Velocity P-wave (km/s) = 5.13359 6.48496 5.84844
#
# Compressibility (1/GPa) = 0.02246841
#
# Stress axis : x y z
#
# Youngs Moduli (GPa) = 31.03659 44.14350 104.74200
#
# Poissons Ratio (x) = 0.74690 0.61438
# Poissons Ratio (y) = 0.52513 -0.18952
# Poissons Ratio (z) = 0.18205 -0.07987
#
# Static dielectric constant tensor:
#      x y z
#    x 2.086590 0.016790 0.011690 
#    y 0.016790 1.993490 0.013160 
#    z 0.011690 0.013160 2.035680 
# 
# From -- ./inp_files/453403.got.cif
#   From: 2010.05.17/outbox.cif.g08.bks.cpg/sg2_227_cif.got.tgz:453403.got - 2010.06.03 11:33:40.
