data_PCOD9081151
_publ_section_title
;
Structure prediction by ZEFSAII (Michael W. Deem and Ramdas Pophale) SiO2 
 PCOD9081151
Probable space group: P -1
;
_chemical_formula_sum "Si O2"
_cell_formula_units_Z 16
_cell_length_a 13.634856
_cell_length_b 8.425079
_cell_length_c 7.832600
_cell_angle_alpha 105.930285
_cell_angle_beta 87.446278
_cell_angle_gamma 51.132995
_cell_volume 644.801255
_symmetry_space_group_name_H-M "P -1"
_symmetry_group_IT_number 2
_symmetry_cell_setting 'triclinic'
loop_
_space_group_symop_operation_xyz
x,y,z
-x,-y,-z
loop_
_atom_site_type_symbol
_atom_site_label
_atom_site_fract_x
_atom_site_fract_y
_atom_site_fract_z
Si Si1 0.238103 0.447788 0.749562
Si Si2 0.494632 0.701509 0.346862
Si Si3 0.613451 0.234447 0.264676
Si Si4 0.965160 0.163322 0.900280
Si Si5 0.209518 0.947200 0.333077
Si Si6 0.833258 0.829077 0.952368
Si Si7 0.172354 0.776608 0.564803
Si Si8 0.960894 0.606175 0.346487
O O1 0.394672 0.289231 0.705394
O O2 0.199854 0.578221 0.608952
O O3 0.156806 0.369822 0.720454
O O4 0.177618 0.615531 0.964892
O O5 0.544185 0.458394 0.229487
O O6 0.477177 0.723376 0.560849
O O7 0.350807 0.877014 0.329908
O O8 0.730477 0.206759 0.337753
O O9 0.687395 0.006266 0.091670
O O10 0.023172 0.994849 0.688493
O O11 0.061296 0.212181 0.936249
O O12 0.000000 0.000000 0.000000
O O13 0.217791 0.754270 0.359045
O O14 0.170945 0.040160 0.171773
O O15 0.104652 0.148795 0.528027
O O16 0.901272 0.582389 0.817012
O O17 0.000000 0.500000 0.500000
#
# Coordination Sequence:
#
# PCOD9081151 Si02
#       8
#     2   2   2   2   2   2   2   2
#     4   9  16  30  51  68  93 132 163 188 239 297
#     4   9  17  29  49  75  99 124 158 199 240 283
#     4   8  15  30  49  72 100 128 158 194 239 291
#     4   8  14  28  48  68  91 122 160 198 236 278
#     4  10  19  31  49  75 103 124 157 203 238 282
#     4   9  17  31  50  68  94 134 163 189 243 290
#     4   8  15  29  50  74  94 120 163 207 235 271
#     4   9  19  34  49  68  98 133 161 194 243 289
#
# _framework density 24.813849000000001
#
# number of rings (size 3 to 8) (size 9 to 14) (size 15 to 20)
#    0.000    3.250    0.000    1.500    0.000    1.000 
#    0.000   20.000    0.000    7.500    0.000    0.000 
#    0.000    0.000    0.000    0.000    0.000    0.000 
#
# Total GULP energy -89165.157859 kJ/mol
# GULP energy per Si atom -5572.822366 kJ/mol
# Density = 2.475737 g / cm^3
# Si number density = 24.813849 Si / 1000 Ang^3
#
#
#
# Elastic Constant Matrix: (Units=GPa)
#
#
# Indices 1 2 3 4 5 6 
#
# 1 71.5664 17.1134 29.4248 -1.1218 -13.7511 0.2068
# 2 17.1134 76.6557 35.2655 -0.5447 -6.6114 -10.1900
# 3 29.4248 35.2655 98.3659 22.5257 -15.9838 -2.5734
# 4 -1.1218 -0.5447 22.5257 47.5114 -2.4323 -8.0643
# 5 -13.7511 -6.6114 -15.9838 -2.4323 37.8067 -5.4433
# 6 0.2068 -10.1900 -2.5734 -8.0643 -5.4433 24.2258
#
#
#
# Elastic Compliance Matrix: (Units=1/GPa)
#
#
# Indices 1 2 3 4 5 6 
#
# 1 0.017032 -0.001171 -0.004621 0.002942 0.004345 0.000827
# 2 -0.001171 0.017674 -0.006644 0.004871 0.001419 0.008679
# 3 -0.004621 -0.006644 0.016234 -0.008251 0.003044 -0.003093
# 4 0.002942 0.004871 -0.008251 0.026952 0.001679 0.010496
# 5 0.004345 0.001419 0.003044 0.001679 0.030880 0.008380
# 6 0.000827 0.008679 -0.003093 0.010496 0.008380 0.049970
#
#
# Mechanical properties :
#
#
# Convention : Reuss Voigt Hill
#
# Bulk Modulus (GPa) = 38.36213 45.57727 41.96970
# Shear Modulus (GPa) = 26.00067 32.89440 29.44753
#
# Velocity S-wave (km/s) = 3.24053 3.64489 3.44864
# Velocity P-wave (km/s) = 5.43092 6.01009 5.72783
#
# Compressibility (1/GPa) = 0.02606737
#
# Stress axis : x y z
#
# Youngs Moduli (GPa) = 58.71447 56.58064 61.60035
#
# Poissons Ratio (x) = 0.06624 0.28467
# Poissons Ratio (y) = 0.06874 0.40927
# Poissons Ratio (z) = 0.27133 0.37592
#
# Static dielectric constant tensor:
#      x y z
#    x 2.021870 0.055770 0.015850 
#    y 0.055770 2.047660 -0.025040 
#    z 0.015850 -0.025040 2.048630 
# 
# From -- ./inp_files/239572.got.cif
#   From: 2010.05.17/outbox.cif.g08.bks.cpg/sg2_120_cif.got.tgz:239572.got - 2010.06.03 11:33:40.
