data_PCOD9081211
_publ_section_title
;
Structure prediction by ZEFSAII (Michael W. Deem and Ramdas Pophale) SiO2 
 PCOD9081211
Probable space group: P -1
;
_chemical_formula_sum "Si O2"
_cell_formula_units_Z 16
_cell_length_a 20.992289
_cell_length_b 7.996909
_cell_length_c 17.473525
_cell_angle_alpha 51.522752
_cell_angle_beta 18.820772
_cell_angle_gamma 46.724332
_cell_volume 684.532488
_symmetry_space_group_name_H-M "P -1"
_symmetry_group_IT_number 2
_symmetry_cell_setting 'triclinic'
loop_
_space_group_symop_operation_xyz
x,y,z
-x,-y,-z
loop_
_atom_site_type_symbol
_atom_site_label
_atom_site_fract_x
_atom_site_fract_y
_atom_site_fract_z
Si Si1 0.993644 0.938134 0.694971
Si Si2 0.973221 0.488964 0.407992
Si Si3 0.702732 0.705308 0.347832
Si Si4 0.976865 0.580037 0.208455
Si Si5 0.046600 0.832511 0.832282
Si Si6 0.325792 0.714008 0.682881
Si Si7 0.326100 0.746518 0.152734
Si Si8 0.709844 0.826832 0.747592
O O1 0.979253 0.691057 0.772531
O O2 0.987429 0.980985 0.780839
O O3 0.798571 0.118955 0.818139
O O4 0.207570 0.964754 0.412461
O O5 0.850482 0.313977 0.582617
O O6 0.836325 0.667606 0.577061
O O7 0.982759 0.609751 0.283734
O O8 0.193824 0.334361 0.242360
O O9 0.809347 0.429443 0.284764
O O10 0.462945 0.793645 0.564225
O O11 0.758511 0.709324 0.372510
O O12 0.839260 0.815626 0.111681
O O13 0.161315 0.633111 0.939318
O O14 0.183530 0.883693 0.730097
O O15 0.500000 0.500000 0.500000
O O16 0.500000 0.500000 0.000000
O O17 0.462325 0.874726 0.002518
#
# Coordination Sequence:
#
# PCOD9081211 Si02
#       8
#     2   2   2   2   2   2   2   2
#     4  10  19  31  51  80 104 128 170 216 255 296
#     4   9  19  37  53  70 101 136 171 210 256 307
#     4   8  15  28  44  69 106 138 159 193 250 305
#     4  10  20  31  50  82 109 129 164 216 259 293
#     4   8  15  27  45  71 102 132 164 204 244 293
#     4   9  16  29  49  75 109 141 164 195 252 314
#     4   9  19  35  52  70  96 133 174 210 248 300
#     4   9  19  35  54  70  94 138 178 207 249 308
#
# _framework density 23.373618
#
# number of rings (size 3 to 8) (size 9 to 14) (size 15 to 20)
#    0.000    3.000    0.000    3.000    0.000    7.000 
#    0.000    1.250    0.000    3.000    0.000   18.375 
#    0.000    0.000    0.000    0.000    0.000    0.000 
#
# Total GULP energy -89411.845165 kJ/mol
# GULP energy per Si atom -5588.240323 kJ/mol
# Density = 2.332042 g / cm^3
# Si number density = 23.373618 Si / 1000 Ang^3
#
#
#
# Elastic Constant Matrix: (Units=GPa)
#
#
# Indices 1 2 3 4 5 6 
#
# 1 209.9150 49.6212 94.4872 -4.5150 -6.7818 -36.5490
# 2 49.6212 74.3987 30.9322 1.8380 -2.0618 -12.2719
# 3 94.4872 30.9322 98.5202 -6.9629 -28.0065 -27.7750
# 4 -4.5150 1.8380 -6.9629 17.9662 4.0548 2.7692
# 5 -6.7818 -2.0618 -28.0065 4.0548 46.4803 -7.1320
# 6 -36.5490 -12.2719 -27.7750 2.7692 -7.1320 50.9032
#
#
#
# Elastic Compliance Matrix: (Units=1/GPa)
#
#
# Indices 1 2 3 4 5 6 
#
# 1 0.009571 -0.002465 -0.009520 -0.000121 -0.004365 0.000478
# 2 -0.002465 0.016585 -0.003324 -0.003383 -0.001267 0.000422
# 3 -0.009520 -0.003324 0.028041 0.003571 0.016550 0.009788
# 4 -0.000121 -0.003383 0.003571 0.058562 -0.003529 -0.002634
# 5 -0.004365 -0.001267 0.016550 -0.003529 0.032691 0.010363
# 6 0.000478 0.000422 0.009788 -0.002634 0.010363 0.027026
#
#
# Mechanical properties :
#
#
# Convention : Reuss Voigt Hill
#
# Bulk Modulus (GPa) = 42.40962 81.43501 61.92232
# Shear Modulus (GPa) = 23.70186 36.92282 30.31234
#
# Velocity S-wave (km/s) = 3.18786 3.97883 3.60510
# Velocity P-wave (km/s) = 5.63325 7.48494 6.62412
#
# Compressibility (1/GPa) = 0.02357956
#
# Stress axis : x y z
#
# Youngs Moduli (GPa) = 104.47730 60.29609 35.66236
#
# Poissons Ratio (x) = 0.14861 0.33952
# Poissons Ratio (y) = 0.25750 0.11853
# Poissons Ratio (z) = 0.99467 0.20040
#
# Static dielectric constant tensor:
#      x y z
#    x 1.945020 0.095780 -0.031040 
#    y 0.095780 1.936560 -0.016650 
#    z -0.031040 -0.016650 1.825630 
# 
# From -- ./inp_files/456659.got.cif
#   From: 2010.05.17/outbox.cif.g08.bks.cpg/sg2_229_cif.got.tgz:456659.got - 2010.06.03 11:33:40.
