data_PCOD9081438
_publ_section_title
;
Structure prediction by ZEFSAII (Michael W. Deem and Ramdas Pophale) SiO2 
 PCOD9081438
Probable space group: P -1
;
_chemical_formula_sum "Si O2"
_cell_formula_units_Z 16
_cell_length_a 18.884737
_cell_length_b 5.994427
_cell_length_c 11.829007
_cell_angle_alpha 70.599314
_cell_angle_beta 31.681949
_cell_angle_gamma 59.603309
_cell_volume 592.132043
_symmetry_space_group_name_H-M "P -1"
_symmetry_group_IT_number 2
_symmetry_cell_setting 'triclinic'
loop_
_space_group_symop_operation_xyz
x,y,z
-x,-y,-z
loop_
_atom_site_type_symbol
_atom_site_label
_atom_site_fract_x
_atom_site_fract_y
_atom_site_fract_z
Si Si1 0.484297 0.186545 0.686536
Si Si2 0.685443 0.112910 0.618274
Si Si3 0.848558 0.353853 0.692949
Si Si4 0.747844 0.248031 0.184918
Si Si5 0.198486 0.545449 0.714915
Si Si6 0.203647 0.083871 0.264458
Si Si7 0.925881 0.546737 0.327321
Si Si8 0.240645 0.150954 0.913039
O O1 0.549357 0.100599 0.737307
O O2 0.624679 0.184059 0.427761
O O3 0.354610 0.481629 0.787378
O O4 0.400208 0.022268 0.781118
O O5 0.691956 0.374931 0.520090
O O6 0.688655 0.085317 0.751832
O O7 0.840102 0.859880 0.410795
O O8 0.779048 0.639924 0.803005
O O9 0.854573 0.433702 0.539126
O O10 0.024007 0.200982 0.519004
O O11 0.783232 0.136856 0.811635
O O12 0.854677 0.254123 0.139560
O O13 0.824057 0.037494 0.019627
O O14 0.097417 0.509434 0.762033
O O15 0.271788 0.287346 0.736446
O O16 0.104753 0.378127 0.129088
#
# Coordination Sequence:
#
# PCOD9081438 Si02
#       8
#     2   2   2   2   2   2   2   2
#     4   9  19  34  51  70  98 140 186 221 263 313
#     4  10  20  34  54  79 102 133 182 232 265 322
#     4   9  18  34  55  83 111 143 174 225 285 335
#     4   9  19  34  50  68  97 141 189 222 258 311
#     4  10  19  32  47  72 101 137 175 220 264 313
#     4   9  17  34  57  82 112 137 179 229 280 328
#     4  11  22  33  50  80 108 136 176 223 281 327
#     4  11  22  34  49  72 108 147 176 217 273 326
#
# _framework density 27.020997999999999
#
# number of rings (size 3 to 8) (size 9 to 14) (size 15 to 20)
#    0.000    2.250    1.250    3.000    0.000    6.000 
#    0.000    0.000    0.000    0.750    0.000    0.875 
#    0.000    0.000    0.000    0.000    0.000    0.000 
#
# Total GULP energy -89291.722920 kJ/mol
# GULP energy per Si atom -5580.732683 kJ/mol
# Density = 2.695950 g / cm^3
# Si number density = 27.020998 Si / 1000 Ang^3
#
#
#
# Elastic Constant Matrix: (Units=GPa)
#
#
# Indices 1 2 3 4 5 6 
#
# 1 222.0772 33.7554 20.7773 -3.4044 -3.4302 21.6421
# 2 33.7554 111.6965 31.1527 7.9644 10.9807 19.8323
# 3 20.7773 31.1527 66.1768 -8.7084 -0.5249 10.4375
# 4 -3.4044 7.9644 -8.7084 23.5410 -11.5957 2.5768
# 5 -3.4302 10.9807 -0.5249 -11.5957 20.4730 -5.7382
# 6 21.6421 19.8323 10.4375 2.5768 -5.7382 42.1942
#
#
#
# Elastic Compliance Matrix: (Units=1/GPa)
#
#
# Indices 1 2 3 4 5 6 
#
# 1 0.005011 -0.001705 -0.000131 0.002875 0.002956 -0.001510
# 2 -0.001705 0.016798 -0.009092 -0.019662 -0.022525 -0.006634
# 3 -0.000131 -0.009092 0.022113 0.019286 0.016320 -0.000088
# 4 0.002875 -0.019662 0.019286 0.086731 0.062379 0.006183
# 5 0.002956 -0.022525 0.016320 0.062379 0.101378 0.015011
# 6 -0.001510 -0.006634 -0.000088 0.006183 0.015011 0.029278
#
#
# Mechanical properties :
#
#
# Convention : Reuss Voigt Hill
#
# Bulk Modulus (GPa) = 45.31721 63.48017 54.39869
# Shear Modulus (GPa) = 17.21038 38.19263 27.70150
#
# Velocity S-wave (km/s) = 2.52648 3.76366 3.20532
# Velocity P-wave (km/s) = 5.03173 6.51389 5.82018
#
# Compressibility (1/GPa) = 0.02206667
#
# Stress axis : x y z
#
# Youngs Moduli (GPa) = 199.55010 59.52962 45.22147
#
# Poissons Ratio (x) = 0.10153 0.00591
# Poissons Ratio (y) = 0.34033 0.41116
# Poissons Ratio (z) = 0.02606 0.54125
#
# Static dielectric constant tensor:
#      x y z
#    x 2.150790 0.088930 0.052050 
#    y 0.088930 2.313970 -0.040680 
#    z 0.052050 -0.040680 2.044850 
# 
# From -- ./inp_files/74143.got.cif
#   From: 2010.05.17/outbox.cif.g08.bks.cpg/sg2_38_cif.got.tgz:74143.got - 2010.06.03 11:33:40.
