data_PCOD9081184
_publ_section_title
;
Structure prediction by ZEFSAII (Michael W. Deem and Ramdas Pophale) SiO2 
 PCOD9081184
Probable space group: P -1
;
_chemical_formula_sum "Si O2"
_cell_formula_units_Z 16
_cell_length_a 13.173441
_cell_length_b 11.714449
_cell_length_c 10.757808
_cell_angle_alpha 137.668496
_cell_angle_beta 147.216747
_cell_angle_gamma 49.860109
_cell_volume 604.118770
_symmetry_space_group_name_H-M "P -1"
_symmetry_group_IT_number 2
_symmetry_cell_setting 'triclinic'
loop_
_space_group_symop_operation_xyz
x,y,z
-x,-y,-z
loop_
_atom_site_type_symbol
_atom_site_label
_atom_site_fract_x
_atom_site_fract_y
_atom_site_fract_z
Si Si1 0.209502 0.668794 0.632167
Si Si2 0.272385 0.106845 0.278974
Si Si3 0.779661 0.552935 0.777523
Si Si4 0.166511 0.191875 0.632540
Si Si5 0.712402 0.048582 0.246146
Si Si6 0.872748 0.124136 0.845872
Si Si7 0.499354 0.209905 0.820020
Si Si8 0.404636 0.694916 0.457463
O O1 0.255852 0.544190 0.466667
O O2 0.231101 0.857498 0.744351
O O3 0.991765 0.661306 0.430859
O O4 0.335885 0.667719 0.883611
O O5 0.377267 0.221349 0.577780
O O6 0.183341 0.953653 0.143217
O O7 0.421758 0.989007 0.259922
O O8 0.077954 0.197471 0.102804
O O9 0.628630 0.714739 0.718383
O O10 0.662910 0.489061 0.724215
O O11 0.000000 0.500000 0.000000
O O12 0.366407 0.238484 0.826190
O O13 0.168443 0.118217 0.715653
O O14 0.120415 0.037835 0.369620
O O15 0.711970 0.189763 0.467945
O O16 0.500000 0.000000 0.000000
O O17 0.699759 0.252288 0.733419
#
# Coordination Sequence:
#
# PCOD9081184 Si02
#       8
#     2   2   2   2   2   2   2   2
#     4  11  21  34  55  79 115 152 189 231 283 343
#     4   9  18  33  55  88 123 142 182 229 295 353
#     4  10  23  41  58  81 111 157 200 235 269 330
#     4  10  19  31  50  83 117 145 177 222 290 347
#     4  10  19  32  52  85 116 143 173 235 291 354
#     4   9  17  35  58  85 116 149 178 233 289 344
#     4  10  19  33  52  83 112 153 176 226 286 343
#     4   9  21  40  59  82 115 149 193 233 278 343
#
# _framework density 26.484859
#
# number of rings (size 3 to 8) (size 9 to 14) (size 15 to 20)
#    0.000    2.250    2.500    0.375    1.750    1.000 
#    9.000    0.000    0.000    1.500    0.000    0.000 
#    0.000    0.000    0.000    0.000    0.000    0.000 
#
# Total GULP energy -89217.277717 kJ/mol
# GULP energy per Si atom -5576.079857 kJ/mol
# Density = 2.642458 g / cm^3
# Si number density = 26.484859 Si / 1000 Ang^3
#
#
#
# Elastic Constant Matrix: (Units=GPa)
#
#
# Indices 1 2 3 4 5 6 
#
# 1 56.9118 3.5673 -4.6272 -5.2371 22.3417 -26.0758
# 2 3.5673 55.3178 18.2440 -23.9463 10.5484 -18.3672
# 3 -4.6272 18.2440 120.9658 -37.4663 2.0849 -14.3198
# 4 -5.2371 -23.9463 -37.4663 40.9433 -14.9534 8.5204
# 5 22.3417 10.5484 2.0849 -14.9534 34.5827 -0.5838
# 6 -26.0758 -18.3672 -14.3198 8.5204 -0.5838 25.0325
#
#
#
# Elastic Compliance Matrix: (Units=1/GPa)
#
#
# Indices 1 2 3 4 5 6 
#
# 1 0.833330 0.434271 0.112672 -0.043020 -0.675115 1.250052
# 2 0.434271 0.256828 0.061057 -0.007213 -0.354383 0.669931
# 3 0.112672 0.061057 0.027799 0.007774 -0.086801 0.173400
# 4 -0.043020 -0.007213 0.007774 0.053760 0.051710 -0.062751
# 5 -0.675115 -0.354383 -0.086801 0.051710 0.583585 -1.016921
# 6 1.250052 0.669931 0.173400 -0.062751 -1.016921 1.930486
#
#
# Mechanical properties :
#
#
# Convention : Reuss Voigt Hill
#
# Bulk Modulus (GPa) = 0.42846 29.72926 15.07886
# Shear Modulus (GPa) = 1.53952 34.51245 18.02598
#
# Velocity S-wave (km/s) = 0.76325 3.61377 2.61169
# Velocity P-wave (km/s) = 0.96894 5.35367 3.84712
#
# Compressibility (1/GPa) = 2.33395659
#
# Stress axis : x y z
#
# Youngs Moduli (GPa) = 1.20001 3.89366 35.97272
#
# Poissons Ratio (x) = -1.69090 -4.05312
# Poissons Ratio (y) = -0.52113 -2.19639
# Poissons Ratio (z) = -0.13521 -0.23774
#
# Static dielectric constant tensor:
#      x y z
#    x 2.148050 0.062620 0.018870 
#    y 0.062620 2.231480 -0.079370 
#    z 0.018870 -0.079370 2.147910 
# 
# From -- ./inp_files/455125.got.cif
#   From: 2010.05.17/outbox.cif.g08.bks.cpg/sg2_228_cif.got.tgz:455125.got - 2010.06.03 11:33:40.
