data_PCOD9081968
_publ_section_title
;
Structure prediction by ZEFSAII (Michael W. Deem and Ramdas Pophale) SiO2 
 PCOD9081968
Probable space group: P -1
;
_chemical_formula_sum "Si O2"
_cell_formula_units_Z 12
_cell_length_a 8.788540
_cell_length_b 7.222128
_cell_length_c 8.882491
_cell_angle_alpha 62.796270
_cell_angle_beta 80.768835
_cell_angle_gamma 109.197718
_cell_volume 439.941956
_symmetry_space_group_name_H-M "P -1"
_symmetry_group_IT_number 2
_symmetry_cell_setting 'triclinic'
loop_
_space_group_symop_operation_xyz
x,y,z
-x,-y,-z
loop_
_atom_site_type_symbol
_atom_site_label
_atom_site_fract_x
_atom_site_fract_y
_atom_site_fract_z
Si Si1 0.033812 0.235906 0.009735
Si Si2 0.676315 0.991452 0.143217
Si Si3 0.294639 0.365591 0.488257
Si Si4 0.577364 0.551641 0.133467
Si Si5 0.995868 0.239150 0.375996
Si Si6 0.615737 0.151344 0.561416
O O1 0.031494 0.258938 0.183874
O O2 0.231239 0.430944 0.874788
O O3 0.850547 0.230042 0.996128
O O4 0.000000 0.000000 0.000000
O O5 0.619843 0.813526 0.080908
O O6 0.733206 0.853214 0.317552
O O7 0.507786 0.005646 0.224183
O O8 0.419451 0.380915 0.325928
O O9 0.375002 0.599036 0.488559
O O10 0.140572 0.394429 0.416332
O O11 0.500000 0.500000 0.000000
O O12 0.810171 0.206949 0.470647
O O13 0.000000 0.000000 0.500000
O O14 0.500000 0.000000 0.500000
#
# Coordination Sequence:
#
# PCOD9081968 Si02
#       6
#     2   2   2   2   2   2
#     4  10  20  36  59  87 118 157 191 235 301 354
#     4  10  21  40  63  87 116 156 199 240 290 350
#     4  11  22  39  62  92 116 155 201 243 289 349
#     4  10  19  32  58  90 118 152 193 237 296 351
#     4  12  22  38  63  91 116 156 201 246 289 347
#     4  11  21  36  59  91 119 151 198 251 288 340
#
# _framework density 27.276325
#
# number of rings (size 3 to 8) (size 9 to 14) (size 15 to 20)
#    0.000    1.333    5.000    2.500    0.000    0.000 
#    0.000    0.000    0.000   26.000    0.000    0.000 
#    0.000    0.000    0.000    0.000    0.000    0.000 
#
# Total GULP energy -66922.544561 kJ/mol
# GULP energy per Si atom -5576.878713 kJ/mol
# Density = 2.721424 g / cm^3
# Si number density = 27.276325 Si / 1000 Ang^3
#
#
#
# Elastic Constant Matrix: (Units=GPa)
#
#
# Indices 1 2 3 4 5 6 
#
# 1 141.6203 49.6412 97.6296 -1.9079 -24.6281 27.4092
# 2 49.6412 125.8289 55.0716 23.9698 11.7497 21.5759
# 3 97.6296 55.0716 161.7020 26.2760 -27.6465 22.7125
# 4 -1.9079 23.9698 26.2760 44.1748 14.4572 -4.5919
# 5 -24.6281 11.7497 -27.6465 14.4572 59.9860 0.3760
# 6 27.4092 21.5759 22.7125 -4.5919 0.3760 68.5217
#
#
#
# Elastic Compliance Matrix: (Units=1/GPa)
#
#
# Indices 1 2 3 4 5 6 
#
# 1 0.014569 -0.003203 -0.008410 0.006848 0.001093 -0.001579
# 2 -0.003203 0.011366 -0.001391 -0.004707 -0.003035 -0.002135
# 3 -0.008410 -0.001391 0.014781 -0.010622 0.006204 -0.001843
# 4 0.006848 -0.004707 -0.010622 0.035482 -0.009743 0.004695
# 5 0.001093 -0.003035 0.006204 -0.009743 0.022936 -0.002317
# 6 -0.001579 -0.002135 -0.001843 0.004695 -0.002317 0.016836
#
#
# Mechanical properties :
#
#
# Convention : Reuss Voigt Hill
#
# Bulk Modulus (GPa) = 67.98676 92.64844 80.31760
# Shear Modulus (GPa) = 34.04143 49.65707 41.84925
#
# Velocity S-wave (km/s) = 3.53657 4.27138 3.92123
# Velocity P-wave (km/s) = 6.45412 7.63981 7.07186
#
# Compressibility (1/GPa) = 0.01470875
#
# Stress axis : x y z
#
# Youngs Moduli (GPa) = 68.63935 87.98227 67.65405
#
# Poissons Ratio (x) = 0.28179 0.56894
# Poissons Ratio (y) = 0.21983 0.09413
# Poissons Ratio (z) = 0.57722 0.12241
#
# Static dielectric constant tensor:
#      x y z
#    x 1.952520 -0.176370 -0.040540 
#    y -0.176370 2.132560 -0.083940 
#    z -0.040540 -0.083940 2.195680 
# 
# From -- ./inp_files/239390.got.cif
#   From: 2010.05.17/outbox.cif.g08.bks.cpg/sg2_120_cif.got.tgz:239390.got - 2010.06.03 11:33:40.
