data_PCOD9081236
_publ_section_title
;
Structure prediction by ZEFSAII (Michael W. Deem and Ramdas Pophale) SiO2 
 PCOD9081236
Probable space group: P -1
;
_chemical_formula_sum "Si O2"
_cell_formula_units_Z 14
_cell_length_a 10.981111
_cell_length_b 17.417533
_cell_length_c 9.458790
_cell_angle_alpha 38.971578
_cell_angle_beta 135.569002
_cell_angle_gamma 147.795564
_cell_volume 597.793916
_symmetry_space_group_name_H-M "P -1"
_symmetry_group_IT_number 2
_symmetry_cell_setting 'triclinic'
loop_
_space_group_symop_operation_xyz
x,y,z
-x,-y,-z
loop_
_atom_site_type_symbol
_atom_site_label
_atom_site_fract_x
_atom_site_fract_y
_atom_site_fract_z
Si Si1 0.348463 0.696227 0.420130
Si Si2 0.195909 0.976702 0.285893
Si Si3 0.580730 0.570938 0.807390
Si Si4 0.868857 0.476100 0.210684
Si Si5 0.480571 0.985206 0.268938
Si Si6 0.700097 0.721475 0.203584
Si Si7 0.731707 0.339374 0.010379
O O1 0.571933 0.711506 0.570834
O O2 0.232820 0.598870 0.612028
O O3 0.144492 0.584573 0.295807
O O4 0.403692 0.863460 0.252353
O O5 0.364183 0.022159 0.486571
O O6 0.938513 0.815550 0.348268
O O7 0.270417 0.941261 0.253619
O O8 0.226061 0.133022 0.048483
O O9 0.381150 0.428003 0.743285
O O10 0.500000 0.500000 0.000000
O O11 0.801758 0.583881 0.954101
O O12 0.731223 0.326231 0.201370
O O13 0.641157 0.175801 0.096900
O O14 0.471507 0.656757 0.192012
O O15 0.000000 0.500000 0.000000
#
# Coordination Sequence:
#
# PCOD9081236 Si02
#       7
#     2   2   2   2   2   2   2
#     4  10  19  31  54  87 108 133 175 220 293 321
#     4   9  17  30  52  79 111 129 169 229 280 313
#     4   9  17  28  47  77 114 136 164 209 274 334
#     4   9  19  33  54  80 109 142 172 222 272 328
#     4  10  19  31  52  80 107 137 174 225 269 320
#     4   9  18  31  51  80 104 139 173 220 272 321
#     4  10  21  39  55  72 105 151 189 216 258 319
#
# _framework density 23.419443000000001
#
# number of rings (size 3 to 8) (size 9 to 14) (size 15 to 20)
#    0.000    2.571    0.000    4.286    8.000    0.000 
#    2.571    1.429    0.000    3.429    0.000    0.000 
#    0.000    0.000    0.000    0.000    0.000    0.000 
#
# Total GULP energy -78072.663739 kJ/mol
# GULP energy per Si atom -5576.618839 kJ/mol
# Density = 2.336614 g / cm^3
# Si number density = 23.419443 Si / 1000 Ang^3
#
#
#
# Elastic Constant Matrix: (Units=GPa)
#
#
# Indices 1 2 3 4 5 6 
#
# 1 30.1163 33.1080 16.2774 -5.3923 11.3975 14.4541
# 2 33.1080 117.9837 23.1309 5.9454 21.8069 6.9039
# 3 16.2774 23.1309 46.2215 4.4047 20.1725 -1.4225
# 4 -5.3923 5.9454 4.4047 28.4728 -5.3921 12.0236
# 5 11.3975 21.8069 20.1725 -5.3921 24.6332 -1.6405
# 6 14.4541 6.9039 -1.4225 12.0236 -1.6405 47.8509
#
#
#
# Elastic Compliance Matrix: (Units=1/GPa)
#
#
# Indices 1 2 3 4 5 6 
#
# 1 0.102315 -0.023896 -0.034199 0.048538 0.009758 -0.040336
# 2 -0.023896 0.016223 0.007124 -0.014802 -0.011821 0.008403
# 3 -0.034199 0.007124 0.049230 -0.029588 -0.036145 0.016961
# 4 0.048538 -0.014802 -0.029588 0.070003 0.028199 -0.030029
# 5 0.009758 -0.011821 -0.036145 0.028199 0.081878 -0.006595
# 6 -0.040336 0.008403 0.016961 -0.030029 -0.006595 0.039694
#
#
# Mechanical properties :
#
#
# Convention : Reuss Voigt Hill
#
# Bulk Modulus (GPa) = 15.19113 37.70601 26.44857
# Shear Modulus (GPa) = 10.34715 28.31171 19.32943
#
# Velocity S-wave (km/s) = 2.10423 3.48069 2.87602
# Velocity P-wave (km/s) = 3.52198 5.68233 4.72722
#
# Compressibility (1/GPa) = 0.06582788
#
# Stress axis : x y z
#
# Youngs Moduli (GPa) = 9.77377 61.63924 20.31295
#
# Poissons Ratio (x) = 1.47290 0.69468
# Poissons Ratio (y) = 0.23355 -0.14472
# Poissons Ratio (z) = 0.33425 -0.43914
#
# Static dielectric constant tensor:
#      x y z
#    x 2.031020 0.028670 -0.007450 
#    y 0.028670 1.845190 -0.019030 
#    z -0.007450 -0.019030 1.966210 
# 
# From -- ./inp_files/165057.got.cif
#   From: 2010.05.17/outbox.cif.g08.bks.cpg/sg2_83_cif.got.tgz:165057.got - 2010.06.03 11:33:40.
