data_PCOD9081572
_publ_section_title
;
Structure prediction by ZEFSAII (Michael W. Deem and Ramdas Pophale) SiO2 
 PCOD9081572
Probable space group: P -1
;
_chemical_formula_sum "Si O2"
_cell_formula_units_Z 12
_cell_length_a 6.089794
_cell_length_b 14.062480
_cell_length_c 9.249646
_cell_angle_alpha 42.133876
_cell_angle_beta 110.933983
_cell_angle_gamma 121.891161
_cell_volume 450.362458
_symmetry_space_group_name_H-M "P -1"
_symmetry_group_IT_number 2
_symmetry_cell_setting 'triclinic'
loop_
_space_group_symop_operation_xyz
x,y,z
-x,-y,-z
loop_
_atom_site_type_symbol
_atom_site_label
_atom_site_fract_x
_atom_site_fract_y
_atom_site_fract_z
Si Si1 0.933598 0.119357 0.195943
Si Si2 0.268227 0.618233 0.855366
Si Si3 0.972783 0.806104 0.551686
Si Si4 0.118832 0.251313 0.790958
Si Si5 0.455541 0.517661 0.723848
Si Si6 0.619914 0.990152 0.883272
O O1 0.090416 0.201008 0.282259
O O2 0.003764 0.977274 0.328144
O O3 0.626178 0.049167 0.232576
O O4 0.994775 0.227422 0.950049
O O5 0.317260 0.567358 0.765373
O O6 0.225115 0.772750 0.649013
O O7 0.465100 0.608343 0.032397
O O8 0.000000 0.500000 0.000000
O O9 0.719762 0.669234 0.576393
O O10 0.289904 0.435775 0.636101
O O11 0.870460 0.156654 0.738454
O O12 0.286117 0.149019 0.933412
O O13 0.500000 0.000000 0.000000
#
# Coordination Sequence:
#
# PCOD9081572 Si02
#       6
#     2   2   2   2   2   2
#     4  10  20  35  52  77 110 139 168 207 258 311
#     4   9  17  30  48  74 106 136 168 207 252 303
#     4  10  21  33  51  80 112 138 163 207 263 310
#     4  10  19  35  58  77  99 135 179 217 250 299
#     4  10  19  32  52  78 102 133 175 213 253 302
#     4   9  20  36  56  77  99 135 179 217 253 300
#
# _framework density 26.645204
#
# number of rings (size 3 to 8) (size 9 to 14) (size 15 to 20)
#    0.000    2.333    0.000    4.000    0.000    5.333 
#    0.000    5.000    0.000   10.000    0.000    0.000 
#    0.000    0.000    0.000    0.000    0.000    0.000 
#
# Total GULP energy -67124.229564 kJ/mol
# GULP energy per Si atom -5593.685797 kJ/mol
# Density = 2.658456 g / cm^3
# Si number density = 26.645204 Si / 1000 Ang^3
#
#
#
# Elastic Constant Matrix: (Units=GPa)
#
#
# Indices 1 2 3 4 5 6 
#
# 1 105.3149 22.9244 10.0988 -15.9956 8.0086 3.9599
# 2 22.9244 161.8598 -7.1816 -21.8762 11.8899 3.4245
# 3 10.0988 -7.1816 53.6693 -8.4704 9.0822 -0.5227
# 4 -15.9956 -21.8762 -8.4704 30.3109 -1.8216 -5.3369
# 5 8.0086 11.8899 9.0822 -1.8216 42.1170 0.6647
# 6 3.9599 3.4245 -0.5227 -5.3369 0.6647 34.9452
#
#
#
# Elastic Compliance Matrix: (Units=1/GPa)
#
#
# Indices 1 2 3 4 5 6 
#
# 1 0.010591 -0.000837 -0.001175 0.004502 -0.001323 -0.000423
# 2 -0.000837 0.007284 0.002354 0.005392 -0.002176 0.000281
# 3 -0.001175 0.002354 0.021071 0.006925 -0.004707 0.001365
# 4 0.004502 0.005392 0.006925 0.042038 -0.002140 0.005526
# 5 -0.001323 -0.002176 -0.004707 -0.002140 0.025540 -0.000520
# 6 -0.000423 0.000281 0.001365 0.005526 -0.000520 0.029511
#
#
# Mechanical properties :
#
#
# Convention : Reuss Voigt Hill
#
# Bulk Modulus (GPa) = 25.23337 41.39192 33.31265
# Shear Modulus (GPa) = 33.65633 41.14144 37.39888
#
# Velocity S-wave (km/s) = 3.55791 3.93370 3.75051
# Velocity P-wave (km/s) = 5.13507 6.01666 5.59326
#
# Compressibility (1/GPa) = 0.03963006
#
# Stress axis : x y z
#
# Youngs Moduli (GPa) = 94.42372 137.29014 47.45756
#
# Poissons Ratio (x) = 0.11497 0.05574
# Poissons Ratio (y) = 0.07908 -0.11172
# Poissons Ratio (z) = 0.11091 -0.32320
#
# Static dielectric constant tensor:
#      x y z
#    x 2.118160 0.046650 -0.045740 
#    y 0.046650 2.127930 0.001190 
#    z -0.045740 0.001190 2.067100 
# 
# From -- ./inp_files/57499.got.cif
#   From: 2010.05.17/outbox.cif.g08.bks.cpg/sg2_29_cif.got.tgz:57499.got - 2010.06.03 11:33:40.
