data_PCOD9081723
_publ_section_title
;
Structure prediction by ZEFSAII (Michael W. Deem and Ramdas Pophale) SiO2 
 PCOD9081723
Probable space group: P -1
;
_chemical_formula_sum "Si O2"
_cell_formula_units_Z 16
_cell_length_a 18.782130
_cell_length_b 13.962760
_cell_length_c 10.823106
_cell_angle_alpha 136.985430
_cell_angle_beta 150.068981
_cell_angle_gamma 36.611839
_cell_volume 838.574419
_symmetry_space_group_name_H-M "P -1"
_symmetry_group_IT_number 2
_symmetry_cell_setting 'triclinic'
loop_
_space_group_symop_operation_xyz
x,y,z
-x,-y,-z
loop_
_atom_site_type_symbol
_atom_site_label
_atom_site_fract_x
_atom_site_fract_y
_atom_site_fract_z
Si Si1 0.944116 0.468547 0.017290
Si Si2 0.187992 0.966592 0.747002
Si Si3 0.140313 0.599270 0.758653
Si Si4 0.239467 0.635641 0.510920
Si Si5 0.064069 0.242302 0.637655
Si Si6 0.661707 0.016949 0.751226
Si Si7 0.127532 0.299344 0.357581
Si Si8 0.553372 0.378963 0.849133
O O1 0.846792 0.375602 0.753827
O O2 0.856945 0.642970 0.114441
O O3 0.000000 0.500000 0.000000
O O4 0.099766 0.362137 0.235064
O O5 0.291285 0.772502 0.709164
O O6 0.182230 0.070082 0.716215
O O7 0.242623 0.016022 0.003286
O O8 0.000000 0.000000 0.500000
O O9 0.184103 0.414168 0.620047
O O10 0.003605 0.722575 0.570188
O O11 0.048295 0.648712 0.797175
O O12 0.299238 0.615640 0.994561
O O13 0.390024 0.459677 0.597661
O O14 0.105386 0.687409 0.469194
O O15 0.610791 0.199121 0.810125
O O16 0.500000 0.000000 0.500000
O O17 0.765784 0.891402 0.680083
O O18 0.500000 0.500000 0.000000
#
# Coordination Sequence:
#
# PCOD9081723 Si02
#       8
#     2   2   2   2   2   2   2   2
#     4   9  18  32  57  82 112 148 189 241 280 347
#     4  10  19  34  54  86 115 149 193 242 290 342
#     4  10  21  39  62  82 116 161 193 239 297 359
#     4  10  19  32  54  83 115 146 191 241 289 343
#     4   9  17  31  57  81 108 149 196 235 282 344
#     4  12  25  35  59  93 123 148 195 259 297 344
#     4  10  22  40  59  87 117 152 200 241 292 354
#     4  12  21  37  56  86 122 155 194 238 303 348
#
# _framework density 19.079999999999998
#
# number of rings (size 3 to 8) (size 9 to 14) (size 15 to 20)
#    0.000    1.750    2.500    3.750    5.250    0.500 
#    0.000    0.625    0.000    0.750    0.000    0.000 
#    0.000    0.000    0.000    0.000    0.000    0.000 
#
# Total GULP energy -89092.090234 kJ/mol
# GULP energy per Si atom -5568.255640 kJ/mol
# Density = 1.903657 g / cm^3
# Si number density = 19.080000 Si / 1000 Ang^3
#
#
#
# Elastic Constant Matrix: (Units=GPa)
#
#
# Indices 1 2 3 4 5 6 
#
# 1 46.5002 24.5524 10.0412 3.0403 12.6500 -2.6859
# 2 24.5524 118.3224 11.8670 15.8399 1.3350 6.3832
# 3 10.0412 11.8670 66.0921 7.0770 6.1874 -11.2115
# 4 3.0403 15.8399 7.0770 27.1296 8.4171 -0.9974
# 5 12.6500 1.3350 6.1874 8.4171 24.6529 0.7134
# 6 -2.6859 6.3832 -11.2115 -0.9974 0.7134 22.6553
#
#
#
# Elastic Compliance Matrix: (Units=1/GPa)
#
#
# Indices 1 2 3 4 5 6 
#
# 1 0.030137 -0.007118 -0.001443 0.006690 -0.017165 0.005699
# 2 -0.007118 0.011315 -0.001635 -0.007492 0.006163 -0.005365
# 3 -0.001443 -0.001635 0.017707 -0.002200 -0.003126 0.009054
# 4 0.006690 -0.007492 -0.002200 0.047011 -0.018655 0.004472
# 5 -0.017165 0.006163 -0.003126 -0.018655 0.056420 -0.007916
# 6 0.005699 -0.005365 0.009054 0.004472 -0.007916 0.051254
#
#
# Mechanical properties :
#
#
# Convention : Reuss Voigt Hill
#
# Bulk Modulus (GPa) = 25.79543 35.98179 30.88861
# Shear Modulus (GPa) = 20.22984 27.18450 23.70717
#
# Velocity S-wave (km/s) = 3.25970 3.77870 3.52876
# Velocity P-wave (km/s) = 5.26465 6.15934 5.72948
#
# Compressibility (1/GPa) = 0.03876655
#
# Stress axis : x y z
#
# Youngs Moduli (GPa) = 33.18196 88.37533 56.47377
#
# Poissons Ratio (x) = 0.62908 0.08150
# Poissons Ratio (y) = 0.23620 0.09234
# Poissons Ratio (z) = 0.04789 0.14451
#
# Static dielectric constant tensor:
#      x y z
#    x 4.735360 1.133980 -1.999100 
#    y 1.133980 2.165630 -0.721830 
#    z -1.999100 -0.721830 3.018600 
# 
# From -- ./inp_files/471770.got.cif
#   From: 2010.05.17/outbox.cif.g08.bks.cpg/sg2_236_cif.got.tgz:471770.got - 2010.06.03 11:33:40.
