data_PCOD9081229
_publ_section_title
;
Structure prediction by ZEFSAII (Michael W. Deem and Ramdas Pophale) SiO2 
 PCOD9081229
Probable space group: P -1
;
_chemical_formula_sum "Si O2"
_cell_formula_units_Z 16
_cell_length_a 11.784995
_cell_length_b 5.317813
_cell_length_c 14.912469
_cell_angle_alpha 69.056500
_cell_angle_beta 79.919292
_cell_angle_gamma 110.907590
_cell_volume 764.744266
_symmetry_space_group_name_H-M "P -1"
_symmetry_group_IT_number 2
_symmetry_cell_setting 'triclinic'
loop_
_space_group_symop_operation_xyz
x,y,z
-x,-y,-z
loop_
_atom_site_type_symbol
_atom_site_label
_atom_site_fract_x
_atom_site_fract_y
_atom_site_fract_z
Si Si1 0.402941 0.972862 0.353495
Si Si2 0.681272 0.596015 0.770768
Si Si3 0.414062 0.677466 0.005405
Si Si4 0.586671 0.946393 0.201627
Si Si5 0.256151 0.269605 0.680682
Si Si6 0.294645 0.909672 0.557925
Si Si7 0.047013 0.346473 0.615035
Si Si8 0.844904 0.559574 0.597582
O O1 0.537885 0.013660 0.294091
O O2 0.386458 0.080219 0.440222
O O3 0.294326 0.626702 0.407995
O O4 0.355473 0.132836 0.265411
O O5 0.547300 0.319353 0.786182
O O6 0.802520 0.666645 0.680012
O O7 0.693847 0.513608 0.881561
O O8 0.369390 0.770581 0.907635
O O9 0.500000 0.500000 0.000000
O O10 0.500000 0.000000 0.000000
O O11 0.693890 0.838276 0.225698
O O12 0.323551 0.632819 0.618416
O O13 0.104464 0.191763 0.697190
O O14 0.290179 0.123505 0.608578
O O15 0.149013 0.706147 0.565745
O O16 0.067239 0.256995 0.522637
O O17 0.910948 0.347181 0.644312
#
# Coordination Sequence:
#
# PCOD9081229 Si02
#       8
#     2   2   2   2   2   2   2   2
#     4  10  19  31  52  77 109 135 178 210 270 311
#     4  10  20  33  54  79 109 135 179 221 270 311
#     4  10  20  37  55  77 105 136 178 220 265 313
#     4  10  22  34  53  76 108 142 172 218 265 317
#     4  10  21  36  51  75 108 144 180 206 260 312
#     4   9  21  34  50  77 106 143 174 213 247 320
#     4   8  18  34  53  75 111 138 185 209 263 306
#     4   9  17  34  52  80 102 144 173 226 257 310
#
# _framework density 20.922025999999999
#
# number of rings (size 3 to 8) (size 9 to 14) (size 15 to 20)
#    0.750    1.750    1.250    0.750    3.500    2.000 
#    0.000    3.750    0.000    0.750    0.000    1.750 
#    0.000    0.000    0.000    0.000    0.000    0.000 
#
# Total GULP energy -89070.279709 kJ/mol
# GULP energy per Si atom -5566.892482 kJ/mol
# Density = 2.087441 g / cm^3
# Si number density = 20.922026 Si / 1000 Ang^3
#
#
#
# Elastic Constant Matrix: (Units=GPa)
#
#
# Indices 1 2 3 4 5 6 
#
# 1 108.9153 22.2705 38.4017 -5.2458 24.5068 -26.9728
# 2 22.2705 75.4021 17.5518 5.6065 4.3484 -13.4806
# 3 38.4017 17.5518 55.0747 -11.4891 16.7901 -12.6253
# 4 -5.2458 5.6065 -11.4891 25.3095 -10.1671 8.3066
# 5 24.5068 4.3484 16.7901 -10.1671 30.5432 -6.8948
# 6 -26.9728 -13.4806 -12.6253 8.3066 -6.8948 34.6966
#
#
#
# Elastic Compliance Matrix: (Units=1/GPa)
#
#
# Indices 1 2 3 4 5 6 
#
# 1 0.015831 -0.000257 -0.007578 -0.006616 -0.008597 0.009325
# 2 -0.000257 0.016275 -0.005129 -0.008255 -0.000662 0.006102
# 3 -0.007578 -0.005129 0.028795 0.010708 -0.005703 -0.001103
# 4 -0.006616 -0.008255 0.010708 0.056058 0.015938 -0.014708
# 5 -0.008597 -0.000662 -0.005703 0.015938 0.047403 -0.003412
# 6 0.009325 0.006102 -0.001103 -0.014708 -0.003412 0.040883
#
#
# Mechanical properties :
#
#
# Convention : Reuss Voigt Hill
#
# Bulk Modulus (GPa) = 28.59336 43.98223 36.28779
# Shear Modulus (GPa) = 20.59038 28.85441 24.72239
#
# Velocity S-wave (km/s) = 3.14052 3.71771 3.44123
# Velocity P-wave (km/s) = 5.18139 6.28459 5.75946
#
# Compressibility (1/GPa) = 0.03497316
#
# Stress axis : x y z
#
# Youngs Moduli (GPa) = 63.16727 61.44401 34.72787
#
# Poissons Ratio (x) = 0.01579 0.26317
# Poissons Ratio (y) = 0.01623 0.17812
# Poissons Ratio (z) = 0.47869 0.31515
#
# Static dielectric constant tensor:
#      x y z
#    x 1.788940 0.004740 0.028330 
#    y 0.004740 1.781720 -0.000160 
#    z 0.028330 -0.000160 1.778650 
# 
# From -- ./inp_files/76065.got.cif
#   From: 2010.05.17/outbox.cif.g08.bks.cpg/sg2_39_cif.got.tgz:76065.got - 2010.06.03 11:33:40.
