data_PCOD9081180
_publ_section_title
;
Structure prediction by ZEFSAII (Michael W. Deem and Ramdas Pophale) SiO2 
 PCOD9081180
Probable space group: P -1
;
_chemical_formula_sum "Si O2"
_cell_formula_units_Z 16
_cell_length_a 12.689931
_cell_length_b 11.106764
_cell_length_c 13.270054
_cell_angle_alpha 33.221988
_cell_angle_beta 49.207645
_cell_angle_gamma 38.366079
_cell_volume 636.013152
_symmetry_space_group_name_H-M "P -1"
_symmetry_group_IT_number 2
_symmetry_cell_setting 'triclinic'
loop_
_space_group_symop_operation_xyz
x,y,z
-x,-y,-z
loop_
_atom_site_type_symbol
_atom_site_label
_atom_site_fract_x
_atom_site_fract_y
_atom_site_fract_z
Si Si1 0.173573 0.757692 0.975060
Si Si2 0.308138 0.450757 0.293060
Si Si3 0.240237 0.746653 0.456302
Si Si4 0.771572 0.586295 0.128830
Si Si5 0.557759 0.184352 0.575581
Si Si6 0.062723 0.137912 0.122649
Si Si7 0.361924 0.020600 0.704141
Si Si8 0.440363 0.486986 0.821077
O O1 0.326455 0.559278 0.940886
O O2 0.006833 0.892701 0.916853
O O3 0.229259 0.945510 0.849651
O O4 0.177007 0.598818 0.181220
O O5 0.272688 0.301349 0.503578
O O6 0.370051 0.620471 0.188790
O O7 0.481893 0.214431 0.294942
O O8 0.185244 0.623602 0.661674
O O9 0.408432 0.487245 0.486393
O O10 0.297468 0.917121 0.360375
O O11 0.111585 0.910828 0.332797
O O12 0.596358 0.670499 0.126439
O O13 0.905470 0.414223 0.077093
O O14 0.790854 0.810766 0.003744
O O15 0.461373 0.043259 0.719071
O O16 0.622370 0.231785 0.396326
#
# Coordination Sequence:
#
# PCOD9081180 Si02
#       8
#     2   2   2   2   2   2   2   2
#     4  10  19  31  50  79 107 131 165 208 250 299
#     4   9  17  29  50  79 105 127 164 211 254 298
#     4  10  20  37  54  73 103 134 167 211 251 295
#     4   9  19  35  54  77 100 130 168 207 254 300
#     4   9  19  34  54  77 100 131 172 208 250 303
#     4  10  21  34  52  77 104 133 168 205 249 302
#     4   9  17  31  51  75 102 134 165 206 256 292
#     4   8  15  31  51  75 103 124 158 212 251 287
#
# _framework density 25.156711999999999
#
# number of rings (size 3 to 8) (size 9 to 14) (size 15 to 20)
#    0.000    2.750    0.000    2.625    0.000    5.000 
#    0.000   10.000    0.000    3.750    0.000    0.000 
#    0.000    0.000    0.000    0.000    0.000    0.000 
#
# Total GULP energy -89408.936946 kJ/mol
# GULP energy per Si atom -5588.058559 kJ/mol
# Density = 2.509945 g / cm^3
# Si number density = 25.156712 Si / 1000 Ang^3
#
#
#
# Elastic Constant Matrix: (Units=GPa)
#
#
# Indices 1 2 3 4 5 6 
#
# 1 165.0251 9.1495 75.0075 -0.3466 19.0494 18.9577
# 2 9.1495 44.6945 8.4986 -2.7885 -5.3398 1.5548
# 3 75.0075 8.4986 92.0655 2.6377 7.0220 6.7986
# 4 -0.3466 -2.7885 2.6377 12.7248 -0.8597 0.8938
# 5 19.0494 -5.3398 7.0220 -0.8597 43.5630 -6.6563
# 6 18.9577 1.5548 6.7986 0.8938 -6.6563 24.3620
#
#
#
# Elastic Compliance Matrix: (Units=1/GPa)
#
#
# Indices 1 2 3 4 5 6 
#
# 1 0.011338 -0.000937 -0.008254 0.002036 -0.004906 -0.007875
# 2 -0.000937 0.023732 -0.001929 0.005793 0.003834 0.000588
# 3 -0.008254 -0.001929 0.017689 -0.004403 0.000736 0.001972
# 4 0.002036 0.005793 -0.004403 0.081164 0.001633 -0.003257
# 5 -0.004906 0.003834 0.000736 0.001633 0.027122 0.010718
# 6 -0.007875 0.000588 0.001972 -0.003257 0.010718 0.049636
#
#
# Mechanical properties :
#
#
# Convention : Reuss Voigt Hill
#
# Bulk Modulus (GPa) = 32.76609 54.12181 43.44395
# Shear Modulus (GPa) = 20.56833 30.07192 25.32012
#
# Velocity S-wave (km/s) = 2.86249 3.46118 3.17597
# Velocity P-wave (km/s) = 4.89675 6.12647 5.54580
#
# Compressibility (1/GPa) = 0.03051936
#
# Stress axis : x y z
#
# Youngs Moduli (GPa) = 88.19654 42.13767 56.53303
#
# Poissons Ratio (x) = 0.03947 0.46661
# Poissons Ratio (y) = 0.08262 0.10907
# Poissons Ratio (z) = 0.72795 0.08129
#
# Static dielectric constant tensor:
#      x y z
#    x 2.036520 0.017820 -0.023600 
#    y 0.017820 2.031900 0.011950 
#    z -0.023600 0.011950 2.011530 
# 
# From -- ./inp_files/387725.got.cif
#   From: 2010.05.17/outbox.cif.g08.bks.cpg/sg2_194_cif.got.tgz:387725.got - 2010.06.03 11:33:40.
