data_PCOD9081919
_publ_section_title
;
Structure prediction by ZEFSAII (Michael W. Deem and Ramdas Pophale) SiO2 
 PCOD9081919
Probable space group: P -1
;
_chemical_formula_sum "Si O2"
_cell_formula_units_Z 16
_cell_length_a 14.267485
_cell_length_b 7.913525
_cell_length_c 9.777667
_cell_angle_alpha 77.287375
_cell_angle_beta 70.155440
_cell_angle_gamma 42.417138
_cell_volume 699.613620
_symmetry_space_group_name_H-M "P -1"
_symmetry_group_IT_number 2
_symmetry_cell_setting 'triclinic'
loop_
_space_group_symop_operation_xyz
x,y,z
-x,-y,-z
loop_
_atom_site_type_symbol
_atom_site_label
_atom_site_fract_x
_atom_site_fract_y
_atom_site_fract_z
Si Si1 0.557139 0.796315 0.311289
Si Si2 0.599089 0.003335 0.038235
Si Si3 0.882175 0.266894 0.201515
Si Si4 0.890091 0.856316 0.344618
Si Si5 0.076239 0.520438 0.070989
Si Si6 0.396292 0.726339 0.215552
Si Si7 0.934433 0.902490 0.608607
Si Si8 0.550179 0.286001 0.403867
O O1 0.570066 0.974241 0.212721
O O2 0.712405 0.517243 0.251770
O O3 0.438943 0.834541 0.275957
O O4 0.527714 0.785351 0.484695
O O5 0.761053 0.750568 0.959060
O O6 0.500000 0.000000 0.000000
O O7 0.577931 0.224355 0.955484
O O8 0.965326 0.264064 0.281955
O O9 0.909816 0.032278 0.259187
O O10 0.926896 0.284359 0.029660
O O11 0.928131 0.791348 0.496897
O O12 0.994914 0.620208 0.236160
O O13 0.720531 0.038715 0.370232
O O14 0.000000 0.500000 0.000000
O O15 0.494988 0.441881 0.264027
O O16 0.230685 0.879585 0.295858
O O17 0.000000 0.000000 0.500000
O O18 0.500000 0.500000 0.500000
#
# Coordination Sequence:
#
# PCOD9081919 Si02
#       8
#     2   2   2   2   2   2   2   2
#     4   9  16  31  58  88 116 162 203 243 315 372
#     4   9  20  36  61  80 116 172 205 244 316 378
#     4  10  19  36  60  92 123 157 204 266 314 372
#     4  11  20  36  63  96 118 162 213 260 313 379
#     4  11  24  41  61  85 127 171 211 256 314 378
#     4  10  16  31  56  88 120 160 201 246 316 373
#     4  10  19  31  58  93 125 152 195 262 318 362
#     4  10  15  30  61  91 114 151 209 254 306 361
#
# _framework density 22.869765999999998
#
# number of rings (size 3 to 8) (size 9 to 14) (size 15 to 20)
#    0.000    2.000    5.000    1.875    0.000    0.000 
#    0.000    2.500    8.250    3.000    0.000    0.000 
#    0.000    0.000    0.000    0.000    0.000    0.000 
#
# Total GULP energy -89312.366477 kJ/mol
# GULP energy per Si atom -5582.022905 kJ/mol
# Density = 2.281771 g / cm^3
# Si number density = 22.869766 Si / 1000 Ang^3
#
#
#
# Elastic Constant Matrix: (Units=GPa)
#
#
# Indices 1 2 3 4 5 6 
#
# 1 79.9003 46.2594 28.0796 11.8814 -20.3636 -20.6133
# 2 46.2594 59.5788 50.2273 -17.2309 -17.0804 3.0421
# 3 28.0796 50.2273 160.9610 -19.0119 -23.5011 2.4227
# 4 11.8814 -17.2309 -19.0119 36.0417 3.8860 -13.6718
# 5 -20.3636 -17.0804 -23.5011 3.8860 28.8511 -2.9961
# 6 -20.6133 3.0421 2.4227 -13.6718 -2.9961 44.3672
#
#
#
# Elastic Compliance Matrix: (Units=1/GPa)
#
#
# Indices 1 2 3 4 5 6 
#
# 1 0.061458 -0.059231 0.005764 -0.039605 0.020573 0.021485
# 2 -0.059231 0.084532 -0.011502 0.047847 -0.009505 -0.018585
# 3 0.005764 -0.011502 0.009300 -0.002054 0.005391 0.002690
# 4 -0.039605 0.047847 -0.002054 0.062547 -0.010034 -0.002973
# 5 0.020573 -0.009505 0.005391 -0.010034 0.050358 0.010224
# 6 0.021485 -0.018585 0.002690 -0.002973 0.010224 0.033423
#
#
# Mechanical properties :
#
#
# Convention : Reuss Voigt Hill
#
# Bulk Modulus (GPa) = 39.44338 61.06365 50.25352
# Shear Modulus (GPa) = 11.36347 33.57693 22.47020
#
# Velocity S-wave (km/s) = 2.23149 3.83584 3.13793
# Velocity P-wave (km/s) = 4.89120 6.81005 5.92877
#
# Compressibility (1/GPa) = 0.02535279
#
# Stress axis : x y z
#
# Youngs Moduli (GPa) = 16.27134 11.82986 107.52431
#
# Poissons Ratio (x) = 0.70069 -0.61976
# Poissons Ratio (y) = 0.96376 1.23671
# Poissons Ratio (z) = -0.09379 0.13606
#
# Static dielectric constant tensor:
#      x y z
#    x 1.876810 0.048670 -0.008510 
#    y 0.048670 1.838060 -0.047070 
#    z -0.008510 -0.047070 1.921400 
# 
# From -- ./inp_files/298202.got.cif
#   From: 2010.05.17/outbox.cif.g08.bks.cpg/sg2_150_cif.got.tgz:298202.got - 2010.06.03 11:33:40.
