data_PCOD9081672
_publ_section_title
;
Structure prediction by ZEFSAII (Michael W. Deem and Ramdas Pophale) SiO2 
 PCOD9081672
Probable space group: P -1
;
_chemical_formula_sum "Si O2"
_cell_formula_units_Z 16
_cell_length_a 12.331104
_cell_length_b 8.788014
_cell_length_c 18.715612
_cell_angle_alpha 76.244931
_cell_angle_beta 130.174506
_cell_angle_gamma 64.357862
_cell_volume 923.317198
_symmetry_space_group_name_H-M "P -1"
_symmetry_group_IT_number 2
_symmetry_cell_setting 'triclinic'
loop_
_space_group_symop_operation_xyz
x,y,z
-x,-y,-z
loop_
_atom_site_type_symbol
_atom_site_label
_atom_site_fract_x
_atom_site_fract_y
_atom_site_fract_z
Si Si1 0.209273 0.949019 0.846538
Si Si2 0.664954 0.780403 0.389514
Si Si3 0.377590 0.806947 0.342080
Si Si4 0.635654 0.721787 0.107667
Si Si5 0.555458 0.072860 0.451062
Si Si6 0.986378 0.802290 0.746643
Si Si7 0.805593 0.767176 0.302020
Si Si8 0.748968 0.435242 0.669857
O O1 0.117294 0.855650 0.799611
O O2 0.246619 0.024780 0.784124
O O3 0.442492 0.754970 0.013918
O O4 0.008078 0.212719 0.776152
O O5 0.478020 0.805962 0.316545
O O6 0.670370 0.865247 0.307576
O O7 0.920145 0.483702 0.539745
O O8 0.610161 0.938872 0.416065
O O9 0.582903 0.617218 0.510469
O O10 0.302947 0.694366 0.312194
O O11 0.159407 0.084246 0.254711
O O12 0.839717 0.488400 0.167578
O O13 0.742294 0.674640 0.234494
O O14 0.500000 0.000000 0.000000
O O15 0.330496 0.378192 0.323343
O O16 0.500000 0.000000 0.500000
O O17 0.781457 0.975679 0.581130
#
# Coordination Sequence:
#
# PCOD9081672 Si02
#       8
#     2   2   2   2   2   2   2   2
#     4  10  19  35  55  73 109 133 174 213 246 310
#     4  11  19  32  52  74 112 135 164 215 256 312
#     4   9  17  30  52  76 104 127 160 226 251 305
#     4  10  21  34  54  74 103 137 179 213 242 304
#     4  11  18  29  53  80 105 124 167 221 250 307
#     4  10  19  32  53  83  98 131 175 215 261 286
#     4  10  21  34  48  76 105 144 173 197 263 305
#     4   9  17  29  51  80  98 126 173 208 267 285
#
# _framework density 17.328821999999999
#
# number of rings (size 3 to 8) (size 9 to 14) (size 15 to 20)
#    0.000    2.000    5.000    1.125    1.750    0.000 
#    0.000    1.875    0.000    9.750    0.000    0.000 
#    0.000    0.000    0.000    0.000    0.000    0.000 
#
# Total GULP energy -89084.628501 kJ/mol
# GULP energy per Si atom -5567.789281 kJ/mol
# Density = 1.728938 g / cm^3
# Si number density = 17.328822 Si / 1000 Ang^3
#
#
#
# Elastic Constant Matrix: (Units=GPa)
#
#
# Indices 1 2 3 4 5 6 
#
# 1 119.3578 41.0468 19.3417 5.4566 12.6168 -16.1183
# 2 41.0468 93.8457 8.9390 -17.3110 3.6094 -14.3240
# 3 19.3417 8.9390 36.8847 -5.5499 16.1896 -3.4659
# 4 5.4566 -17.3110 -5.5499 29.0756 1.1503 11.7151
# 5 12.6168 3.6094 16.1896 1.1503 15.8064 -1.0054
# 6 -16.1183 -14.3240 -3.4659 11.7151 -1.0054 24.9733
#
#
#
# Elastic Compliance Matrix: (Units=1/GPa)
#
#
# Indices 1 2 3 4 5 6 
#
# 1 0.013179 -0.005686 -0.005051 -0.010485 -0.002690 0.009354
# 2 -0.005686 0.014972 0.001333 0.010152 -0.000965 0.000301
# 3 -0.005051 0.001333 0.055364 0.016347 -0.054465 -0.004673
# 4 -0.010485 0.010152 0.016347 0.056610 -0.016458 -0.025894
# 5 -0.002690 -0.000965 -0.054465 -0.016458 0.122794 0.002817
# 6 0.009354 0.000301 -0.004673 -0.025894 0.002817 0.057865
#
#
# Mechanical properties :
#
#
# Convention : Reuss Voigt Hill
#
# Bulk Modulus (GPa) = 15.45475 43.19369 29.32422
# Shear Modulus (GPa) = 13.84425 26.02177 19.93301
#
# Velocity S-wave (km/s) = 2.82957 3.87931 3.39526
# Velocity P-wave (km/s) = 4.42868 6.71159 5.68589
#
# Compressibility (1/GPa) = 0.06470503
#
# Stress axis : x y z
#
# Youngs Moduli (GPa) = 75.87839 66.79296 18.06243
#
# Poissons Ratio (x) = 0.37979 0.09123
# Poissons Ratio (y) = 0.43146 -0.02407
# Poissons Ratio (z) = 0.38326 -0.08900
#
# Static dielectric constant tensor:
#      x y z
#    x 1.596830 0.020280 0.021090 
#    y 0.020280 1.624020 0.005890 
#    z 0.021090 0.005890 1.615100 
# 
# From -- ./inp_files/253173.got.cif
#   From: 2010.05.17/outbox.cif.g08.bks.cpg/sg2_127_cif.got.tgz:253173.got - 2010.06.03 11:33:40.
