data_PCOD9081698
_publ_section_title
;
Structure prediction by ZEFSAII (Michael W. Deem and Ramdas Pophale) SiO2 
 PCOD9081698
Probable space group: P -1
;
_chemical_formula_sum "Si O2"
_cell_formula_units_Z 14
_cell_length_a 9.076910
_cell_length_b 7.770808
_cell_length_c 9.909406
_cell_angle_alpha 80.789934
_cell_angle_beta 83.319343
_cell_angle_gamma 50.179939
_cell_volume 529.832975
_symmetry_space_group_name_H-M "P -1"
_symmetry_group_IT_number 2
_symmetry_cell_setting 'triclinic'
loop_
_space_group_symop_operation_xyz
x,y,z
-x,-y,-z
loop_
_atom_site_type_symbol
_atom_site_label
_atom_site_fract_x
_atom_site_fract_y
_atom_site_fract_z
Si Si1 0.227280 0.809967 0.427237
Si Si2 0.387560 0.320839 0.519651
Si Si3 0.481005 0.248549 0.220596
Si Si4 0.402181 0.674674 0.125330
Si Si5 0.093501 0.928489 0.769797
Si Si6 0.667712 0.771033 0.181183
Si Si7 0.077229 0.166497 0.985652
O O1 0.287945 0.583271 0.518445
O O2 0.380576 0.840148 0.459905
O O3 0.314542 0.720185 0.278524
O O4 0.007208 0.002611 0.373628
O O5 0.366793 0.294565 0.366088
O O6 0.297249 0.272940 0.655200
O O7 0.413770 0.462343 0.108936
O O8 0.687536 0.175222 0.253236
O O9 0.509808 0.045905 0.164941
O O10 0.583408 0.657714 0.147005
O O11 0.261015 0.904205 0.028709
O O12 0.007277 0.140670 0.853489
O O13 0.050954 0.784698 0.877852
O O14 0.841925 0.707499 0.078916
#
# Coordination Sequence:
#
# PCOD9081698 Si02
#       7
#     2   2   2   2   2   2   2
#     4   8  16  32  54  75 101 139 170 205 255 303
#     4   9  17  32  53  77 102 131 173 212 249 301
#     4  10  20  33  54  80 102 133 172 212 253 298
#     4   9  18  34  55  76 101 135 175 211 247 297
#     4   9  18  32  52  77 104 135 171 208 256 305
#     4  10  19  32  54  79 103 132 171 213 251 298
#     4   9  18  34  53  74 104 139 169 207 256 303
#
# _framework density 26.423421000000001
#
# number of rings (size 3 to 8) (size 9 to 14) (size 15 to 20)
#    0.000    2.857    0.000    1.714    0.000    2.857 
#    0.000    3.571    0.000   37.714    0.000    0.000 
#    0.000    0.000    0.000    0.000    0.000    0.000 
#
# Total GULP energy -78082.471440 kJ/mol
# GULP energy per Si atom -5577.319389 kJ/mol
# Density = 2.636328 g / cm^3
# Si number density = 26.423421 Si / 1000 Ang^3
#
#
#
# Elastic Constant Matrix: (Units=GPa)
#
#
# Indices 1 2 3 4 5 6 
#
# 1 205.3076 105.1975 87.2579 7.9866 -98.6979 -12.1405
# 2 105.1975 147.1048 46.7069 -0.3096 -49.3096 2.5974
# 3 87.2579 46.7069 187.4963 -0.6774 -36.9431 12.5611
# 4 7.9866 -0.3096 -0.6774 31.8438 -0.7798 2.9013
# 5 -98.6979 -49.3096 -36.9431 -0.7798 97.3718 -3.2157
# 6 -12.1405 2.5974 12.5611 2.9013 -3.2157 37.9130
#
#
#
# Elastic Compliance Matrix: (Units=1/GPa)
#
#
# Indices 1 2 3 4 5 6 
#
# 1 0.016571 -0.006607 -0.004279 -0.004796 0.012072 0.008568
# 2 -0.006607 0.011138 0.000322 0.002041 -0.001024 -0.003228
# 3 -0.004279 0.000322 0.007213 0.001559 -0.001558 -0.004034
# 4 -0.004796 0.002041 0.001559 0.033037 -0.003137 -0.004987
# 5 0.012072 -0.001024 -0.001558 -0.003137 0.021587 0.006523
# 6 0.008568 -0.003228 -0.004034 -0.004987 0.006523 0.031612
#
#
# Mechanical properties :
#
#
# Convention : Reuss Voigt Hill
#
# Bulk Modulus (GPa) = 72.48675 113.13704 92.81190
# Shear Modulus (GPa) = 34.04028 53.47549 43.75789
#
# Velocity S-wave (km/s) = 3.59313 4.50354 4.07385
# Velocity P-wave (km/s) = 6.68629 8.36375 7.57162
#
# Compressibility (1/GPa) = 0.01379562
#
# Stress axis : x y z
#
# Youngs Moduli (GPa) = 60.34536 89.78180 138.62964
#
# Poissons Ratio (x) = 0.59315 0.59318
# Poissons Ratio (y) = 0.39867 -0.04461
# Poissons Ratio (z) = 0.25821 -0.02889
#
# Static dielectric constant tensor:
#      x y z
#    x 2.187560 -0.175990 0.002850 
#    y -0.175990 2.292380 -0.007570 
#    z 0.002850 -0.007570 2.126360 
# 
# From -- ./inp_files/171704.got.cif
#   From: 2010.05.17/outbox.cif.g08.bks.cpg/sg2_86_cif.got.tgz:171704.got - 2010.06.03 11:33:40.
