data_PCOD9081738
_publ_section_title
;
Structure prediction by ZEFSAII (Michael W. Deem and Ramdas Pophale) SiO2 
 PCOD9081738
Probable space group: P -1
;
_chemical_formula_sum "Si O2"
_cell_formula_units_Z 16
_cell_length_a 11.458506
_cell_length_b 10.964920
_cell_length_c 14.563203
_cell_angle_alpha 149.872726
_cell_angle_beta 78.882862
_cell_angle_gamma 114.580754
_cell_volume 777.277608
_symmetry_space_group_name_H-M "P -1"
_symmetry_group_IT_number 2
_symmetry_cell_setting 'triclinic'
loop_
_space_group_symop_operation_xyz
x,y,z
-x,-y,-z
loop_
_atom_site_type_symbol
_atom_site_label
_atom_site_fract_x
_atom_site_fract_y
_atom_site_fract_z
Si Si1 0.071088 0.190909 0.318110
Si Si2 0.321528 0.640578 0.220743
Si Si3 0.094784 0.374157 0.632516
Si Si4 0.871988 0.029633 0.996712
Si Si5 0.362291 0.952517 0.588451
Si Si6 0.774723 0.001986 0.184489
Si Si7 0.892586 0.559631 0.008060
Si Si8 0.798870 0.803701 0.332733
O O1 0.938815 0.201212 0.306501
O O2 0.987306 0.865475 0.149993
O O3 0.131757 0.374480 0.519475
O O4 0.170883 0.187969 0.222972
O O5 0.473185 0.870864 0.316543
O O6 0.312211 0.676286 0.354000
O O7 0.285687 0.327195 0.996698
O O8 0.204295 0.663768 0.198261
O O9 0.086695 0.654501 0.836273
O O10 0.192922 0.318177 0.648692
O O11 0.942866 0.099461 0.489457
O O12 0.764757 0.982729 0.063372
O O13 0.000000 0.000000 0.000000
O O14 0.296251 0.902201 0.666336
O O15 0.316790 0.132378 0.646442
O O16 0.800878 0.585035 0.117673
O O17 0.000000 0.500000 0.000000
#
# Coordination Sequence:
#
# PCOD9081738 Si02
#       8
#     2   2   2   2   2   2   2   2
#     4   9  19  32  48  82 108 150 181 222 284 332
#     4  10  23  35  57  82 115 146 189 247 274 346
#     4  10  20  35  50  84 118 147 186 232 287 339
#     4  10  22  33  53  81 115 155 189 229 289 343
#     4  11  21  38  56  85 110 151 197 227 299 323
#     4  10  20  35  54  78 111 146 191 234 282 338
#     4  10  19  32  54  85 117 148 178 232 293 341
#     4  10  21  33  58  82 115 154 181 240 286 339
#
# _framework density 20.584665999999999
#
# number of rings (size 3 to 8) (size 9 to 14) (size 15 to 20)
#    0.000    2.000    3.750    1.125   10.500    3.000 
#    0.000    0.000    0.000    0.750    0.000    2.625 
#    0.000    0.000    0.000    0.000    0.000    0.000 
#
# Total GULP energy -89131.995648 kJ/mol
# GULP energy per Si atom -5570.749728 kJ/mol
# Density = 2.053781 g / cm^3
# Si number density = 20.584666 Si / 1000 Ang^3
#
#
#
# Elastic Constant Matrix: (Units=GPa)
#
#
# Indices 1 2 3 4 5 6 
#
# 1 66.7154 20.9248 21.2832 -1.2536 4.6268 -4.5851
# 2 20.9248 73.0155 38.6689 -30.9323 -5.3657 2.7404
# 3 21.2832 38.6689 118.3317 -27.0990 -7.4289 9.7948
# 4 -1.2536 -30.9323 -27.0990 43.3477 2.5125 -16.7668
# 5 4.6268 -5.3657 -7.4289 2.5125 24.8827 -5.5495
# 6 -4.5851 2.7404 9.7948 -16.7668 -5.5495 21.9443
#
#
#
# Elastic Compliance Matrix: (Units=1/GPa)
#
#
# Indices 1 2 3 4 5 6 
#
# 1 0.018129 -0.006324 -0.002739 -0.005184 -0.004895 0.000602
# 2 -0.006324 0.026749 -0.003297 0.022567 0.007223 0.015879
# 3 -0.002739 -0.003297 0.011171 0.003771 0.002382 -0.001663
# 4 -0.005184 0.022567 0.003771 0.056251 0.010191 0.039972
# 5 -0.004895 0.007223 0.002382 0.010191 0.046003 0.016433
# 6 0.000602 0.015879 -0.001663 0.039972 0.016433 0.079152
#
#
# Mechanical properties :
#
#
# Convention : Reuss Voigt Hill
#
# Bulk Modulus (GPa) = 31.91576 46.64629 39.28102
# Shear Modulus (GPa) = 18.34070 29.84732 24.09401
#
# Velocity S-wave (km/s) = 2.98818 3.81199 3.42494
# Velocity P-wave (km/s) = 5.23869 6.48729 5.89614
#
# Compressibility (1/GPa) = 0.03133249
#
# Stress axis : x y z
#
# Youngs Moduli (GPa) = 55.15899 37.38449 89.51414
#
# Poissons Ratio (x) = 0.23640 0.24514
# Poissons Ratio (y) = 0.34880 0.29510
# Poissons Ratio (z) = 0.15106 0.12324
#
# Static dielectric constant tensor:
#      x y z
#    x 1.817140 -0.067940 -0.041910 
#    y -0.067940 1.826180 -0.037980 
#    z -0.041910 -0.037980 1.783750 
# 
# From -- ./inp_files/518416.got.cif
#   From: 2010.05.17/outbox.cif.g08.bks.cpg/sg2_260_cif.got.tgz:518416.got - 2010.06.03 11:33:40.
