data_PCOD9081238
_publ_section_title
;
Structure prediction by ZEFSAII (Michael W. Deem and Ramdas Pophale) SiO2 
 PCOD9081238
Probable space group: P -1
;
_chemical_formula_sum "Si O2"
_cell_formula_units_Z 16
_cell_length_a 12.233697
_cell_length_b 11.476048
_cell_length_c 8.969500
_cell_angle_alpha 122.986554
_cell_angle_beta 123.135388
_cell_angle_gamma 100.942701
_cell_volume 636.858178
_symmetry_space_group_name_H-M "P -1"
_symmetry_group_IT_number 2
_symmetry_cell_setting 'triclinic'
loop_
_space_group_symop_operation_xyz
x,y,z
-x,-y,-z
loop_
_atom_site_type_symbol
_atom_site_label
_atom_site_fract_x
_atom_site_fract_y
_atom_site_fract_z
Si Si1 0.050019 0.640684 0.771032
Si Si2 0.257512 0.695577 0.479158
Si Si3 0.138507 0.135678 0.913620
Si Si4 0.504734 0.687313 0.835011
Si Si5 0.696865 0.341012 0.858099
Si Si6 0.853106 0.764001 0.680199
Si Si7 0.394091 0.276984 0.743691
Si Si8 0.024615 0.788751 0.393932
O O1 0.913991 0.511323 0.718273
O O2 0.011989 0.768628 0.781705
O O3 0.000000 0.500000 0.500000
O O4 0.246059 0.745084 0.053514
O O5 0.430026 0.768042 0.750919
O O6 0.285340 0.680545 0.316892
O O7 0.189309 0.802507 0.515504
O O8 0.039012 0.189289 0.793277
O O9 0.074527 0.948606 0.653505
O O10 0.353117 0.295575 0.143448
O O11 0.125655 0.137704 0.082099
O O12 0.325933 0.465389 0.584549
O O13 0.604044 0.787574 0.136498
O O14 0.505662 0.261948 0.705974
O O15 0.848838 0.571597 0.166272
O O16 0.792179 0.817260 0.536467
O O17 0.500000 0.500000 0.000000
#
# Coordination Sequence:
#
# PCOD9081238 Si02
#       8
#     2   2   2   2   2   2   2   2
#     4  10  19  31  52  80 109 136 170 221 270 312
#     4  10  20  35  58  81 105 139 184 227 262 312
#     4  11  21  35  56  79 111 143 179 220 262 326
#     4  10  20  35  56  82 107 138 179 226 271 309
#     4  11  19  35  58  82 109 138 182 224 262 319
#     4  10  19  34  55  82 107 138 182 222 266 316
#     4  10  20  33  56  83 109 136 173 227 274 311
#     4  10  21  34  54  82 109 142 178 218 270 316
#
# _framework density 25.123332000000001
#
# number of rings (size 3 to 8) (size 9 to 14) (size 15 to 20)
#    0.000    1.750    0.000    8.625    0.000    1.500 
#    0.000    0.000    0.000   37.500    0.000    0.000 
#    0.000    1.000    0.000    0.000    0.000    0.000 
#
# Total GULP energy -89665.709206 kJ/mol
# GULP energy per Si atom -5604.106825 kJ/mol
# Density = 2.506615 g / cm^3
# Si number density = 25.123332 Si / 1000 Ang^3
#
#
#
# Elastic Constant Matrix: (Units=GPa)
#
#
# Indices 1 2 3 4 5 6 
#
# 1 141.4189 60.0883 48.6920 -38.3502 -18.8257 -26.4214
# 2 60.0883 138.4213 63.4689 -42.2375 3.0240 -40.9448
# 3 48.6920 63.4689 96.2236 -26.0333 -5.5939 -34.4252
# 4 -38.3502 -42.2375 -26.0333 48.5393 -0.2621 14.6543
# 5 -18.8257 3.0240 -5.5939 -0.2621 37.5884 -8.6401
# 6 -26.4214 -40.9448 -34.4252 14.6543 -8.6401 47.4637
#
#
#
# Elastic Compliance Matrix: (Units=1/GPa)
#
#
# Indices 1 2 3 4 5 6 
#
# 1 0.011291 -0.001639 -0.001615 0.005734 0.006293 0.003075
# 2 -0.001639 0.013600 -0.004588 0.006488 -0.001347 0.005243
# 3 -0.001615 -0.004588 0.017977 0.001871 0.004171 0.008363
# 4 0.005734 0.006488 0.001871 0.031502 0.003073 0.000979
# 5 0.006293 -0.001347 0.004171 0.003073 0.032898 0.010406
# 6 0.003075 0.005243 0.008363 0.000979 0.010406 0.034962
#
#
# Mechanical properties :
#
#
# Convention : Reuss Voigt Hill
#
# Bulk Modulus (GPa) = 36.78782 80.06245 58.42514
# Shear Modulus (GPa) = 29.94467 40.30591 35.12529
#
# Velocity S-wave (km/s) = 3.45615 4.00974 3.74319
# Velocity P-wave (km/s) = 5.53184 7.30577 6.47980
#
# Compressibility (1/GPa) = 0.02718291
#
# Stress axis : x y z
#
# Youngs Moduli (GPa) = 88.56668 73.53121 55.62790
#
# Poissons Ratio (x) = 0.12052 0.08984
# Poissons Ratio (y) = 0.14516 0.25522
# Poissons Ratio (z) = 0.14304 0.33736
#
# Static dielectric constant tensor:
#      x y z
#    x 1.948600 0.033900 0.047010 
#    y 0.033900 2.045440 0.040450 
#    z 0.047010 0.040450 1.987510 
# 
# From -- ./inp_files/263605.got.cif
#   From: 2010.05.17/outbox.cif.g08.bks.cpg/sg2_132_cif.got.tgz:263605.got - 2010.06.03 11:33:40.
