data_PCOD9081034
_publ_section_title
;
Structure prediction by ZEFSAII (Michael W. Deem and Ramdas Pophale) SiO2 
 PCOD9081034
Probable space group: P -1
;
_chemical_formula_sum "Si O2"
_cell_formula_units_Z 12
_cell_length_a 23.967835
_cell_length_b 12.036673
_cell_length_c 23.113230
_cell_angle_alpha 29.935863
_cell_angle_beta 12.205337
_cell_angle_gamma 29.302141
_cell_volume 683.369108
_symmetry_space_group_name_H-M "P -1"
_symmetry_group_IT_number 2
_symmetry_cell_setting 'triclinic'
loop_
_space_group_symop_operation_xyz
x,y,z
-x,-y,-z
loop_
_atom_site_type_symbol
_atom_site_label
_atom_site_fract_x
_atom_site_fract_y
_atom_site_fract_z
Si Si1 0.582997 0.991625 0.534759
Si Si2 0.309465 0.276612 0.343796
Si Si3 0.364895 0.253645 0.043172
Si Si4 0.029337 0.162642 0.951410
Si Si5 0.284735 0.401256 0.186959
Si Si6 0.203800 0.471402 0.545478
O O1 0.615411 0.942651 0.592049
O O2 0.726475 0.748318 0.468823
O O3 0.279061 0.051144 0.790757
O O4 0.748731 0.176217 0.263195
O O5 0.304032 0.241494 0.296143
O O6 0.018724 0.440544 0.580703
O O7 0.527370 0.423898 0.070130
O O8 0.374808 0.274930 0.092860
O O9 0.051076 0.339295 0.305051
O O10 0.532008 0.426036 0.768186
O O11 0.500000 0.000000 0.000000
O O12 0.110433 0.379116 0.742030
O O13 0.000000 0.000000 0.000000
#
# Coordination Sequence:
#
# PCOD9081034 Si02
#       6
#     2   2   2   2   2   2
#     4  11  17  31  50  76  99 132 159 197 264 305
#     4  10  19  30  54  70 103 131 158 207 256 299
#     4  12  22  34  52  72 101 141 173 200 242 292
#     4  10  20  29  48  74 102 132 160 197 257 312
#     4  10  19  34  46  75  99 134 167 201 250 294
#     4  11  20  34  47  72 105 133 163 210 244 293
#
# _framework density 17.560055999999999
#
# number of rings (size 3 to 8) (size 9 to 14) (size 15 to 20)
#    0.000    1.333    3.333    6.500    0.000    0.000 
#    0.000    0.000    0.000    0.000    0.000    7.000 
#    0.000    0.000    0.000    0.000    0.000    0.000 
#
# Total GULP energy -66933.779556 kJ/mol
# GULP energy per Si atom -5577.814963 kJ/mol
# Density = 1.752009 g / cm^3
# Si number density = 17.560056 Si / 1000 Ang^3
#
#
#
# Elastic Constant Matrix: (Units=GPa)
#
#
# Indices 1 2 3 4 5 6 
#
# 1 104.2207 14.7882 17.5110 -8.2642 1.3645 -17.7680
# 2 14.7882 29.3060 -4.5028 2.6889 -0.3990 5.6897
# 3 17.5110 -4.5028 100.9015 4.8132 -7.5042 1.0891
# 4 -8.2642 2.6889 4.8132 22.3547 -20.2214 5.4229
# 5 1.3645 -0.3990 -7.5042 -20.2214 29.5110 1.0969
# 6 -17.7680 5.6897 1.0891 5.4229 1.0969 22.8307
#
#
#
# Elastic Compliance Matrix: (Units=1/GPa)
#
#
# Indices 1 2 3 4 5 6 
#
# 1 0.014183 -0.010565 -0.003198 0.006217 0.002193 0.012241
# 2 -0.010565 0.044204 0.004168 -0.009079 -0.003439 -0.017116
# 3 -0.003198 0.004168 0.010926 -0.000584 0.002733 -0.004042
# 4 0.006217 -0.009079 -0.000584 0.149878 0.103383 -0.033438
# 5 0.002193 -0.003439 0.002733 0.103383 0.106284 -0.027229
# 6 0.012241 -0.017116 -0.004042 -0.033438 -0.027229 0.067036
#
#
# Mechanical properties :
#
#
# Convention : Reuss Voigt Hill
#
# Bulk Modulus (GPa) = 19.95135 32.22454 26.08795
# Shear Modulus (GPa) = 11.67105 28.71474 20.19289
#
# Velocity S-wave (km/s) = 2.58085 4.04819 3.39475
# Velocity P-wave (km/s) = 4.50194 6.34360 5.50040
#
# Compressibility (1/GPa) = 0.05012191
#
# Stress axis : x y z
#
# Youngs Moduli (GPa) = 70.50802 22.62247 91.52091
#
# Poissons Ratio (x) = 0.23902 0.29272
# Poissons Ratio (y) = 0.74495 -0.38148
# Poissons Ratio (z) = 0.22552 -0.09430
#
# Static dielectric constant tensor:
#      x y z
#    x 1.645250 -0.043130 0.025360 
#    y -0.043130 1.565330 -0.015420 
#    z 0.025360 -0.015420 1.610560 
# 
# From -- ./inp_files/61907.got.cif
#   From: 2010.05.17/outbox.cif.g08.bks.cpg/sg2_31_cif.got.tgz:61907.got - 2010.06.03 11:33:40.
