data_PCOD9081077
_publ_section_title
;
Structure prediction by ZEFSAII (Michael W. Deem and Ramdas Pophale) SiO2 
 PCOD9081077
Probable space group: P -1
;
_chemical_formula_sum "Si O2"
_cell_formula_units_Z 16
_cell_length_a 7.604058
_cell_length_b 11.020741
_cell_length_c 20.858028
_cell_angle_alpha 124.652212
_cell_angle_beta 154.004412
_cell_angle_gamma 51.276261
_cell_volume 597.611138
_symmetry_space_group_name_H-M "P -1"
_symmetry_group_IT_number 2
_symmetry_cell_setting 'triclinic'
loop_
_space_group_symop_operation_xyz
x,y,z
-x,-y,-z
loop_
_atom_site_type_symbol
_atom_site_label
_atom_site_fract_x
_atom_site_fract_y
_atom_site_fract_z
Si Si1 0.122844 0.659268 0.439448
Si Si2 0.347204 0.848689 0.353533
Si Si3 0.569655 0.738253 0.711358
Si Si4 0.421735 0.134089 0.418858
Si Si5 0.372395 0.443493 0.852336
Si Si6 0.432066 0.850856 0.837950
Si Si7 0.205972 0.338531 0.905603
Si Si8 0.964757 0.037466 0.075890
O O1 0.500000 0.500000 0.500000
O O2 0.173253 0.690933 0.540577
O O3 0.279855 0.789799 0.496242
O O4 0.718233 0.642408 0.265575
O O5 0.539886 0.833484 0.482887
O O6 0.233497 0.697295 0.250483
O O7 0.537637 0.947651 0.396737
O O8 0.881196 0.985375 0.245898
O O9 0.577684 0.744285 0.792034
O O10 0.972299 0.599009 0.778269
O O11 0.637592 0.901858 0.760382
O O12 0.924033 0.201031 0.257204
O O13 0.349032 0.350280 0.881818
O O14 0.764872 0.509481 0.002721
O O15 0.817359 0.893822 0.010552
O O16 0.565605 0.188275 0.004919
O O17 0.000000 0.000000 0.000000
#
# Coordination Sequence:
#
# PCOD9081077 Si02
#       8
#     2   2   2   2   2   2   2   2
#     4  10  19  31  44  64 103 126 148 184 229 279
#     4   8  15  27  51  67  92 110 157 198 228 258
#     4   9  17  29  44  68  97 122 149 186 232 275
#     4   9  16  29  48  68  93 119 151 193 229 269
#     4   9  17  26  44  66  93 121 157 189 219 267
#     4   8  15  28  48  69  87 117 154 192 230 259
#     4   9  14  26  47  69  85 116 163 190 225 257
#     4   8  14  26  46  67  95 113 146 198 229 267
#
# _framework density 26.773264999999999
#
# number of rings (size 3 to 8) (size 9 to 14) (size 15 to 20)
#    0.750    2.500    1.250    0.000    0.000    0.000 
#    0.000    3.750    0.000    0.000    0.000    0.875 
#    0.000    0.500    0.000    0.000    0.000    0.000 
#
# Total GULP energy -89251.556719 kJ/mol
# GULP energy per Si atom -5578.222295 kJ/mol
# Density = 2.671233 g / cm^3
# Si number density = 26.773265 Si / 1000 Ang^3
#
#
#
# Elastic Constant Matrix: (Units=GPa)
#
#
# Indices 1 2 3 4 5 6 
#
# 1 83.1808 28.5084 20.5883 11.2290 -4.9572 9.9512
# 2 28.5084 67.9220 63.1880 25.4339 4.0016 9.8482
# 3 20.5883 63.1880 193.0881 53.2106 -4.2347 7.7798
# 4 11.2290 25.4339 53.2106 50.3917 4.1607 12.0467
# 5 -4.9572 4.0016 -4.2347 4.1607 31.9070 1.7999
# 6 9.9512 9.8482 7.7798 12.0467 1.7999 23.9499
#
#
#
# Elastic Compliance Matrix: (Units=1/GPa)
#
#
# Indices 1 2 3 4 5 6 
#
# 1 0.014756 -0.006556 0.000880 -0.000277 0.003484 -0.003844
# 2 -0.006556 0.025810 -0.006855 -0.003046 -0.004554 -0.003788
# 3 0.000880 -0.006855 0.009369 -0.007600 0.003061 0.003002
# 4 -0.000277 -0.003046 -0.007600 0.032766 -0.004247 -0.012326
# 5 0.003484 -0.004554 0.003061 -0.004247 0.033467 -0.000948
# 6 -0.003844 -0.003788 0.003002 -0.012326 -0.000948 0.050204
#
#
# Mechanical properties :
#
#
# Convention : Reuss Voigt Hill
#
# Bulk Modulus (GPa) = 40.20622 63.19561 51.70091
# Shear Modulus (GPa) = 25.03430 36.71013 30.87221
#
# Velocity S-wave (km/s) = 3.06117 3.70692 3.39941
# Velocity P-wave (km/s) = 5.24826 6.47896 5.89581
#
# Compressibility (1/GPa) = 0.02487178
#
# Stress axis : x y z
#
# Youngs Moduli (GPa) = 67.76852 38.74475 106.73468
#
# Poissons Ratio (x) = 0.25402 -0.09389
# Poissons Ratio (y) = 0.44430 0.73169
# Poissons Ratio (z) = -0.05962 0.26560
#
# Static dielectric constant tensor:
#      x y z
#    x 2.164230 -0.017430 0.084980 
#    y -0.017430 2.137200 -0.001330 
#    z 0.084980 -0.001330 2.234110 
# 
# From -- ./inp_files/437535.got.cif
#   From: 2010.05.17/outbox.cif.g08.bks.cpg/sg2_219_cif.got.tgz:437535.got - 2010.06.03 11:33:40.
