data_PCOD9081068
_publ_section_title
;
Structure prediction by ZEFSAII (Michael W. Deem and Ramdas Pophale) SiO2 
 PCOD9081068
Probable space group: P -1
;
_chemical_formula_sum "Si O2"
_cell_formula_units_Z 16
_cell_length_a 13.488142
_cell_length_b 11.431709
_cell_length_c 13.908152
_cell_angle_alpha 103.713688
_cell_angle_beta 148.900138
_cell_angle_gamma 56.268037
_cell_volume 766.307579
_symmetry_space_group_name_H-M "P -1"
_symmetry_group_IT_number 2
_symmetry_cell_setting 'triclinic'
loop_
_space_group_symop_operation_xyz
x,y,z
-x,-y,-z
loop_
_atom_site_type_symbol
_atom_site_label
_atom_site_fract_x
_atom_site_fract_y
_atom_site_fract_z
Si Si1 0.149638 0.483540 0.355442
Si Si2 0.917984 0.645046 0.889751
Si Si3 0.780307 0.857260 0.322939
Si Si4 0.486647 0.563012 0.723324
Si Si5 0.760842 0.833322 0.980990
Si Si6 0.285267 0.709047 0.796888
Si Si7 0.991029 0.912406 0.323566
Si Si8 0.200028 0.419379 0.738466
O O1 0.357366 0.489671 0.573751
O O2 0.250297 0.340533 0.334185
O O3 0.985844 0.487843 0.303665
O O4 0.937612 0.658434 0.152926
O O5 0.782052 0.799595 0.879026
O O6 0.200536 0.570214 0.068532
O O7 0.000000 0.500000 0.000000
O O8 0.885081 0.876229 0.317493
O O9 0.682715 0.768720 0.193478
O O10 0.027310 0.735738 0.579800
O O11 0.542108 0.035999 0.207424
O O12 0.433123 0.621662 0.800756
O O13 0.311079 0.742473 0.556319
O O14 0.878435 0.909021 0.129859
O O15 0.120379 0.907492 0.709523
O O16 0.539749 0.609416 0.059810
O O17 0.000000 0.500000 0.500000
#
# Coordination Sequence:
#
# PCOD9081068 Si02
#       8
#     2   2   2   2   2   2   2   2
#     4  10  20  37  52  79 116 147 179 226 267 324
#     4  10  22  31  52  81 118 153 180 209 266 334
#     4  11  20  36  53  83 115 142 175 230 284 330
#     4  10  19  34  53  81 116 146 178 214 274 333
#     4  10  19  33  55  81 119 144 175 215 271 338
#     4  11  21  33  58  84 107 145 177 223 291 334
#     4  10  19  30  59  80 115 146 169 224 282 340
#     4  12  23  37  58  81 108 144 189 236 280 319
#
# _framework density 20.879346999999999
#
# number of rings (size 3 to 8) (size 9 to 14) (size 15 to 20)
#    0.000    1.500    6.250    2.625    5.250    5.000 
#    0.000    0.000    0.000    0.750    0.000    1.750 
#    0.000    0.000    0.000    0.000    0.000    0.000 
#
# Total GULP energy -89210.121477 kJ/mol
# GULP energy per Si atom -5575.632592 kJ/mol
# Density = 2.083182 g / cm^3
# Si number density = 20.879347 Si / 1000 Ang^3
#
#
#
# Elastic Constant Matrix: (Units=GPa)
#
#
# Indices 1 2 3 4 5 6 
#
# 1 32.7351 30.1347 -8.3765 9.6806 -0.6460 -20.2963
# 2 30.1347 105.4463 19.2466 30.8633 -2.3424 -30.4727
# 3 -8.3765 19.2466 72.5088 24.1887 -4.0595 -1.1385
# 4 9.6806 30.8633 24.1887 29.4041 -3.1795 0.1285
# 5 -0.6460 -2.3424 -4.0595 -3.1795 23.5337 9.0944
# 6 -20.2963 -30.4727 -1.1385 0.1285 9.0944 39.6904
#
#
#
# Elastic Compliance Matrix: (Units=1/GPa)
#
#
# Indices 1 2 3 4 5 6 
#
# 1 0.079390 -0.000426 0.025195 -0.048509 -0.017525 0.045165
# 2 -0.000426 0.021954 0.002650 -0.026040 -0.008096 0.018653
# 3 0.025195 0.002650 0.027394 -0.034287 -0.005555 0.017088
# 4 -0.048509 -0.026040 -0.034287 0.108429 0.024838 -0.051824
# 5 -0.017525 -0.008096 -0.005555 0.024838 0.054375 -0.027876
# 6 0.045165 0.018653 0.017088 -0.051824 -0.027876 0.069657
#
#
# Mechanical properties :
#
#
# Convention : Reuss Voigt Hill
#
# Bulk Modulus (GPa) = 5.44735 32.52220 18.98477
# Shear Modulus (GPa) = 13.60349 29.83801 21.72075
#
# Velocity S-wave (km/s) = 2.55527 3.78440 3.22886
# Velocity P-wave (km/s) = 3.36460 5.89115 4.79720
#
# Compressibility (1/GPa) = 0.18357555
#
# Stress axis : x y z
#
# Youngs Moduli (GPa) = 12.59602 45.55031 36.50451
#
# Poissons Ratio (x) = 0.01940 -0.91973
# Poissons Ratio (y) = 0.00536 -0.09673
# Poissons Ratio (z) = -0.31736 -0.12070
#
# Static dielectric constant tensor:
#      x y z
#    x 1.752970 0.019210 -0.013260 
#    y 0.019210 1.811970 0.033740 
#    z -0.013260 0.033740 1.820200 
# 
# From -- ./inp_files/426571.got.cif
#   From: 2010.05.17/outbox.cif.g08.bks.cpg/sg2_214_cif.got.tgz:426571.got - 2010.06.03 11:33:40.
