data_PCOD9081213
_publ_section_title
;
Structure prediction by ZEFSAII (Michael W. Deem and Ramdas Pophale) SiO2 
 PCOD9081213
Probable space group: P -1
;
_chemical_formula_sum "Si O2"
_cell_formula_units_Z 14
_cell_length_a 17.827929
_cell_length_b 12.046780
_cell_length_c 13.495139
_cell_angle_alpha 132.183350
_cell_angle_beta 47.156951
_cell_angle_gamma 159.232415
_cell_volume 746.384458
_symmetry_space_group_name_H-M "P -1"
_symmetry_group_IT_number 2
_symmetry_cell_setting 'triclinic'
loop_
_space_group_symop_operation_xyz
x,y,z
-x,-y,-z
loop_
_atom_site_type_symbol
_atom_site_label
_atom_site_fract_x
_atom_site_fract_y
_atom_site_fract_z
Si Si1 0.861817 0.506318 0.224735
Si Si2 0.181774 0.169273 0.360889
Si Si3 0.307635 0.647407 0.500728
Si Si4 0.097426 0.724345 0.460517
Si Si5 0.594701 0.613085 0.373425
Si Si6 0.323702 0.613983 0.874658
Si Si7 0.183751 0.694220 0.154261
O O1 0.718982 0.368806 0.366279
O O2 0.712762 0.327522 0.154848
O O3 0.998596 0.540246 0.163639
O O4 0.043826 0.864734 0.248924
O O5 0.296998 0.456408 0.375304
O O6 0.380423 0.344597 0.339863
O O7 0.000000 0.000000 0.500000
O O8 0.090509 0.423253 0.510244
O O9 0.500000 0.000000 0.500000
O O10 0.175695 0.728174 0.297983
O O11 0.000000 0.500000 0.500000
O O12 0.263579 0.054167 0.558983
O O13 0.500000 0.500000 0.500000
O O14 0.717814 0.614869 0.247400
O O15 0.575578 0.944684 0.876269
O O16 0.181538 0.514205 0.025450
#
# Coordination Sequence:
#
# PCOD9081213 Si02
#       7
#     2   2   2   2   2   2   2
#     4  10  19  36  56  83 112 151 187 233 285 334
#     4  10  19  31  51  80 114 143 190 241 276 331
#     4  10  20  33  51  82 115 146 188 233 283 342
#     4  11  23  37  58  85 115 152 188 237 289 340
#     4  12  19  35  58  87 112 149 196 234 284 333
#     4  11  21  35  62  84 118 150 188 241 282 337
#     4  10  22  38  54  91 116 148 193 233 287 341
#
# _framework density 18.757089000000001
#
# number of rings (size 3 to 8) (size 9 to 14) (size 15 to 20)
#    0.000    1.429    2.857    5.571    2.000    0.000 
#    0.000    0.714    0.000    0.000    0.000    7.000 
#    0.000    0.000    0.000    0.000    0.000    0.000 
#
# Total GULP energy -77940.541463 kJ/mol
# GULP energy per Si atom -5567.181533 kJ/mol
# Density = 1.871440 g / cm^3
# Si number density = 18.757089 Si / 1000 Ang^3
#
#
#
# Elastic Constant Matrix: (Units=GPa)
#
#
# Indices 1 2 3 4 5 6 
#
# 1 74.0479 17.9560 39.2752 1.5828 -3.3924 5.7740
# 2 17.9560 84.9781 21.8230 12.3842 -5.6449 -8.9288
# 3 39.2752 21.8230 116.3704 6.5518 -25.6542 -5.3967
# 4 1.5828 12.3842 6.5518 17.8542 3.3602 -6.8792
# 5 -3.3924 -5.6449 -25.6542 3.3602 24.0125 7.7640
# 6 5.7740 -8.9288 -5.3967 -6.8792 7.7640 37.2150
#
#
#
# Elastic Compliance Matrix: (Units=1/GPa)
#
#
# Indices 1 2 3 4 5 6 
#
# 1 0.017807 -0.003062 -0.006822 0.002851 -0.004945 -0.002928
# 2 -0.003062 0.014269 -0.000242 -0.009705 0.003594 0.001320
# 3 -0.006822 -0.000242 0.015073 -0.008698 0.016931 -0.001954
# 4 0.002851 -0.009705 -0.008698 0.076863 -0.027041 0.015818
# 5 -0.004945 0.003594 0.016931 -0.027041 0.068586 -0.015223
# 6 -0.002928 0.001320 -0.001954 0.015818 -0.015223 0.033458
#
#
# Mechanical properties :
#
#
# Convention : Reuss Voigt Hill
#
# Bulk Modulus (GPa) = 37.18173 48.16719 42.67446
# Shear Modulus (GPa) = 19.58683 28.90584 24.24633
#
# Velocity S-wave (km/s) = 3.23497 3.92990 3.59924
# Velocity P-wave (km/s) = 5.81543 6.80642 6.33034
#
# Compressibility (1/GPa) = 0.02689493
#
# Stress axis : x y z
#
# Youngs Moduli (GPa) = 56.15918 70.08305 66.34496
#
# Poissons Ratio (x) = 0.21462 0.45260
# Poissons Ratio (y) = 0.17198 0.01608
# Poissons Ratio (z) = 0.38311 0.01699
#
# Static dielectric constant tensor:
#      x y z
#    x 1.630160 0.026150 -0.009690 
#    y 0.026150 1.616700 0.024560 
#    z -0.009690 0.024560 1.753180 
# 
# From -- ./inp_files/191063.got.cif
#   From: 2010.05.17/outbox.cif.g08.bks.cpg/sg2_96_cif.got.tgz:191063.got - 2010.06.03 11:33:40.
