data_PCOD9081596
_publ_section_title
;
Structure prediction by ZEFSAII (Michael W. Deem and Ramdas Pophale) SiO2 
 PCOD9081596
Probable space group: P -1
;
_chemical_formula_sum "Si O2"
_cell_formula_units_Z 16
_cell_length_a 27.218464
_cell_length_b 5.848812
_cell_length_c 16.331382
_cell_angle_alpha 93.811620
_cell_angle_beta 16.373869
_cell_angle_gamma 103.623548
_cell_volume 579.119169
_symmetry_space_group_name_H-M "P -1"
_symmetry_group_IT_number 2
_symmetry_cell_setting 'triclinic'
loop_
_space_group_symop_operation_xyz
x,y,z
-x,-y,-z
loop_
_atom_site_type_symbol
_atom_site_label
_atom_site_fract_x
_atom_site_fract_y
_atom_site_fract_z
Si Si1 0.810615 0.978187 0.888932
Si Si2 0.445927 0.566187 0.176505
Si Si3 0.466754 0.748668 0.862819
Si Si4 0.690288 0.432267 0.351579
Si Si5 0.726482 0.154350 0.693853
Si Si6 0.114765 0.664249 0.721693
Si Si7 0.657933 0.888711 0.318080
Si Si8 0.789658 0.459007 0.899056
O O1 0.572896 0.777211 0.218534
O O2 0.756125 0.947242 0.072010
O O3 0.910775 0.803181 0.711534
O O4 0.904530 0.303518 0.720833
O O5 0.440072 0.416938 0.263397
O O6 0.204073 0.483749 0.554128
O O7 0.500000 0.500000 0.000000
O O8 0.662482 0.897058 0.848423
O O9 0.367689 0.686403 0.931673
O O10 0.680733 0.074940 0.547567
O O11 0.280913 0.642180 0.227960
O O12 0.719130 0.707708 0.268120
O O13 0.716015 0.192736 0.264380
O O14 0.875409 0.547024 0.129549
O O15 0.892090 0.239584 0.359100
O O16 0.500000 0.000000 0.000000
O O17 0.389172 0.668856 0.743544
#
# Coordination Sequence:
#
# PCOD9081596 Si02
#       8
#     2   2   2   2   2   2   2   2
#     4  10  20  39  58  76 101 129 176 230 264 308
#     4  10  15  30  51  65 105 148 177 208 243 283
#     4  10  19  31  48  75 110 140 171 210 245 306
#     4  10  20  33  56  82 101 133 176 213 263 310
#     4   8  16  29  45  70  99 137 175 208 241 286
#     4  10  20  30  48  78 110 140 172 211 246 307
#     4  10  20  39  58  76 101 129 176 230 264 308
#     4  10  20  32  56  82 100 132 176 215 262 308
#
# _framework density 27.628163000000001
#
# number of rings (size 3 to 8) (size 9 to 14) (size 15 to 20)
#    0.000    2.500    3.750    3.750    5.250    0.000 
#    0.000    5.000    0.000    0.000    0.000    9.625 
#    0.000    0.000    0.000    0.000    0.000    0.000 
#
# Total GULP energy -89176.495651 kJ/mol
# GULP energy per Si atom -5573.530978 kJ/mol
# Density = 2.756528 g / cm^3
# Si number density = 27.628163 Si / 1000 Ang^3
#
#
#
# Elastic Constant Matrix: (Units=GPa)
#
#
# Indices 1 2 3 4 5 6 
#
# 1 100.9427 46.2358 37.8218 4.9894 -1.6415 -10.4684
# 2 46.2358 196.2611 43.5900 16.5891 3.7087 -25.9128
# 3 37.8218 43.5900 102.1807 12.5333 -20.3319 -1.5458
# 4 4.9894 16.5891 12.5333 33.6308 2.5268 13.4489
# 5 -1.6415 3.7087 -20.3319 2.5268 46.7111 -2.8686
# 6 -10.4684 -25.9128 -1.5458 13.4489 -2.8686 49.9275
#
#
#
# Elastic Compliance Matrix: (Units=1/GPa)
#
#
# Indices 1 2 3 4 5 6 
#
# 1 0.012369 -0.001818 -0.004002 0.000054 -0.001077 0.001449
# 2 -0.001818 0.006842 -0.001886 -0.003982 -0.000959 0.004129
# 3 -0.004002 -0.001886 0.013825 -0.004131 0.006255 0.000082
# 4 0.000054 -0.003982 -0.004131 0.038700 -0.004363 -0.012858
# 5 -0.001077 -0.000959 0.006255 -0.004363 0.024531 0.002055
# 6 0.001449 0.004129 0.000082 -0.012858 0.002055 0.026060
#
#
# Mechanical properties :
#
#
# Convention : Reuss Voigt Hill
#
# Bulk Modulus (GPa) = 56.73836 72.74218 64.74027
# Shear Modulus (GPa) = 34.81558 44.16967 39.49262
#
# Velocity S-wave (km/s) = 3.55371 4.00274 3.78489
# Velocity P-wave (km/s) = 6.11714 6.91004 6.52565
#
# Compressibility (1/GPa) = 0.01762476
#
# Stress axis : x y z
#
# Youngs Moduli (GPa) = 80.84843 146.15068 72.33279
#
# Poissons Ratio (x) = 0.26570 0.28946
# Poissons Ratio (y) = 0.14698 0.13642
# Poissons Ratio (z) = 0.32353 0.27564
#
# Static dielectric constant tensor:
#      x y z
#    x 2.308540 0.088210 0.153630 
#    y 0.088210 2.654910 0.067800 
#    z 0.153630 0.067800 2.265130 
# 
# From -- ./inp_files/548947.got.cif
#   From: 2010.05.17/outbox.cif.g08.bks.cpg/sg2_275_cif.got.tgz:548947.got - 2010.06.03 11:33:40.
