data_PCOD9081989
_publ_section_title
;
Structure prediction by ZEFSAII (Michael W. Deem and Ramdas Pophale) SiO2 
 PCOD9081989
Probable space group: P -1
;
_chemical_formula_sum "Si O2"
_cell_formula_units_Z 16
_cell_length_a 5.490736
_cell_length_b 9.197558
_cell_length_c 15.809354
_cell_angle_alpha 88.026379
_cell_angle_beta 97.816332
_cell_angle_gamma 63.595192
_cell_volume 704.392252
_symmetry_space_group_name_H-M "P -1"
_symmetry_group_IT_number 2
_symmetry_cell_setting 'triclinic'
loop_
_space_group_symop_operation_xyz
x,y,z
-x,-y,-z
loop_
_atom_site_type_symbol
_atom_site_label
_atom_site_fract_x
_atom_site_fract_y
_atom_site_fract_z
Si Si1 0.485157 0.089268 0.800973
Si Si2 0.040999 0.611301 0.621499
Si Si3 0.494372 0.369758 0.114219
Si Si4 0.720093 0.027415 0.065411
Si Si5 0.726945 0.275999 0.890679
Si Si6 0.406269 0.690130 0.303671
Si Si7 0.194393 0.628414 0.453526
Si Si8 0.101584 0.264576 0.207401
O O1 0.486992 0.220774 0.866621
O O2 0.455298 0.189831 0.712266
O O3 0.300938 0.014963 0.834999
O O4 0.775930 0.925567 0.809844
O O5 0.354290 0.492824 0.668107
O O6 0.040575 0.703613 0.532798
O O7 0.878015 0.717664 0.691332
O O8 0.930483 0.482762 0.591959
O O9 0.612906 0.220943 0.056782
O O10 0.331579 0.555745 0.072310
O O11 0.777821 0.354691 0.168512
O O12 0.283867 0.336223 0.165408
O O13 0.016217 0.883062 0.059650
O O14 0.500000 0.000000 0.000000
O O15 0.760123 0.304443 0.789956
O O16 0.225314 0.737435 0.378635
O O17 0.500000 0.500000 0.500000
#
# Coordination Sequence:
#
# PCOD9081989 Si02
#       8
#     2   2   2   2   2   2   2   2
#     4   9  22  39  62  90 122 164 216 264 329 377
#     4  10  19  32  59  86 124 166 210 268 320 375
#     4  11  23  41  67  98 128 170 225 267 322 394
#     4  11  25  44  63  93 134 169 208 275 337 394
#     4  10  21  38  67  90 124 169 220 260 325 379
#     4   9  18  33  58  86 115 159 217 257 310 377
#     4   9  19  33  52  89 125 161 210 262 325 377
#     4  11  21  40  62  97 130 169 220 277 314 389
#
# _framework density 22.714614999999998
#
# number of rings (size 3 to 8) (size 9 to 14) (size 15 to 20)
#    0.750    1.250    2.500    0.750    7.000    1.000 
#    0.000    1.250    0.000    6.750    0.000    0.000 
#    0.000    0.000    0.000    0.000    0.000    0.000 
#
# Total GULP energy -89129.166852 kJ/mol
# GULP energy per Si atom -5570.572928 kJ/mol
# Density = 2.266292 g / cm^3
# Si number density = 22.714615 Si / 1000 Ang^3
#
#
#
# Elastic Constant Matrix: (Units=GPa)
#
#
# Indices 1 2 3 4 5 6 
#
# 1 77.5113 21.1249 36.8874 3.5625 -13.6632 1.2736
# 2 21.1249 141.7321 41.3139 9.5256 -11.7411 12.8729
# 3 36.8874 41.3139 96.8454 1.1854 -21.1238 7.1152
# 4 3.5625 9.5256 1.1854 34.3751 6.4942 -5.3978
# 5 -13.6632 -11.7411 -21.1238 6.4942 47.8564 -13.8061
# 6 1.2736 12.8729 7.1152 -5.3978 -13.8061 27.5105
#
#
#
# Elastic Compliance Matrix: (Units=1/GPa)
#
#
# Indices 1 2 3 4 5 6 
#
# 1 0.016196 -0.000698 -0.005377 -0.001514 0.002898 0.002125
# 2 -0.000698 0.008587 -0.003126 -0.002761 -0.000200 -0.003819
# 3 -0.005377 -0.003126 0.014605 0.000145 0.004136 0.000039
# 4 -0.001514 -0.002761 0.000145 0.031597 -0.003698 0.005668
# 5 0.002898 -0.000200 0.004136 -0.003698 0.027446 0.011937
# 6 0.002125 -0.003819 0.000039 0.005668 0.011937 0.045131
#
#
# Mechanical properties :
#
#
# Convention : Reuss Voigt Hill
#
# Bulk Modulus (GPa) = 47.65167 57.19348 52.42257
# Shear Modulus (GPa) = 29.59313 36.39923 32.99618
#
# Velocity S-wave (km/s) = 3.61338 4.00741 3.81549
# Velocity P-wave (km/s) = 6.19941 6.82981 6.52223
#
# Compressibility (1/GPa) = 0.02098562
#
# Stress axis : x y z
#
# Youngs Moduli (GPa) = 61.74474 116.45725 68.47026
#
# Poissons Ratio (x) = 0.08128 0.36813
# Poissons Ratio (y) = 0.04309 0.21407
# Poissons Ratio (z) = 0.33197 0.36410
#
# Static dielectric constant tensor:
#      x y z
#    x 1.932140 0.001080 -0.043210 
#    y 0.001080 1.828720 -0.029120 
#    z -0.043210 -0.029120 1.922900 
# 
# From -- ./inp_files/547307.got.cif
#   From: 2010.05.17/outbox.cif.g08.bks.cpg/sg2_274_cif.got.tgz:547307.got - 2010.06.03 11:33:40.
