data_PCOD9081404
_publ_section_title
;
Structure prediction by ZEFSAII (Michael W. Deem and Ramdas Pophale) SiO2 
 PCOD9081404
Probable space group: P -1
;
_chemical_formula_sum "Si O2"
_cell_formula_units_Z 16
_cell_length_a 10.375231
_cell_length_b 10.691603
_cell_length_c 9.326726
_cell_angle_alpha 90.257851
_cell_angle_beta 87.377462
_cell_angle_gamma 144.861536
_cell_volume 593.865555
_symmetry_space_group_name_H-M "P -1"
_symmetry_group_IT_number 2
_symmetry_cell_setting 'triclinic'
loop_
_space_group_symop_operation_xyz
x,y,z
-x,-y,-z
loop_
_atom_site_type_symbol
_atom_site_label
_atom_site_fract_x
_atom_site_fract_y
_atom_site_fract_z
Si Si1 0.159841 0.741477 0.155941
Si Si2 0.293991 0.182362 0.322636
Si Si3 0.056199 0.976683 0.841573
Si Si4 0.767117 0.513793 0.364450
Si Si5 0.167457 0.855098 0.524370
Si Si6 0.549847 0.071881 0.313461
Si Si7 0.459194 0.316961 0.996225
Si Si8 0.918447 0.588894 0.885716
O O1 0.104244 0.554832 0.205508
O O2 0.977237 0.688686 0.242891
O O3 0.419159 0.971757 0.171885
O O4 0.108703 0.712492 0.992266
O O5 0.549762 0.430666 0.354238
O O6 0.346240 0.189677 0.152699
O O7 0.051662 0.051411 0.296726
O O8 0.239773 0.042751 0.451601
O O9 0.947369 0.754206 0.838921
O O10 0.321092 0.182431 0.856418
O O11 0.000000 0.000000 0.000000
O O12 0.665316 0.295325 0.343200
O O13 0.903946 0.630973 0.507163
O O14 0.275474 0.900740 0.669413
O O15 0.321284 0.880487 0.422060
O O16 0.500000 0.500000 0.000000
O O17 0.682486 0.413903 0.979169
#
# Coordination Sequence:
#
# PCOD9081404 Si02
#       8
#     2   2   2   2   2   2   2   2
#     4  10  23  35  56  77 119 149 184 215 266 333
#     4  10  20  31  54  85 109 140 174 229 279 319
#     4  10  22  33  55  78 110 137 183 229 273 312
#     4  10  19  31  58  78 114 145 179 221 279 322
#     4   9  19  32  53  82 113 135 184 232 272 318
#     4   9  19  35  52  78 109 149 182 224 270 321
#     4  11  21  33  56  80 111 144 179 223 276 320
#     4  11  22  38  52  84 112 152 181 221 266 331
#
# _framework density 26.942122999999999
#
# number of rings (size 3 to 8) (size 9 to 14) (size 15 to 20)
#    0.000    2.000    3.750    0.375   12.250    2.000 
#    0.000    2.500    0.000    0.750    0.000    2.625 
#    0.000    0.000    0.000    0.000    0.000    0.000 
#
# Total GULP energy -89197.218230 kJ/mol
# GULP energy per Si atom -5574.826139 kJ/mol
# Density = 2.688080 g / cm^3
# Si number density = 26.942123 Si / 1000 Ang^3
#
#
#
# Elastic Constant Matrix: (Units=GPa)
#
#
# Indices 1 2 3 4 5 6 
#
# 1 66.5802 26.1888 46.4766 5.9818 8.2892 6.3626
# 2 26.1888 108.2106 49.5095 27.4763 24.0449 7.6412
# 3 46.4766 49.5095 94.1433 30.1907 44.6939 15.2554
# 4 5.9818 27.4763 30.1907 48.3806 12.0912 23.9251
# 5 8.2892 24.0449 44.6939 12.0912 63.3698 8.2660
# 6 6.3626 7.6412 15.2554 23.9251 8.2660 52.2574
#
#
#
# Elastic Compliance Matrix: (Units=1/GPa)
#
#
# Indices 1 2 3 4 5 6 
#
# 1 0.027815 -0.001945 -0.019709 0.009040 0.009669 -0.003017
# 2 -0.001945 0.013002 -0.003928 -0.005481 -0.001147 0.002173
# 3 -0.019709 -0.003928 0.035235 -0.013626 -0.018423 0.001840
# 4 0.009040 -0.005481 -0.013626 0.036757 0.005319 -0.013991
# 5 0.009669 -0.001147 -0.018423 0.005319 0.027239 -0.002375
# 6 -0.003017 0.002173 0.001840 -0.013991 -0.002375 0.025430
#
#
# Mechanical properties :
#
#
# Convention : Reuss Voigt Hill
#
# Bulk Modulus (GPa) = 40.17933 57.03153 48.60543
# Shear Modulus (GPa) = 22.22834 42.58550 32.40692
#
# Velocity S-wave (km/s) = 2.87547 3.98003 3.47195
# Velocity P-wave (km/s) = 5.09608 6.50653 5.84401
#
# Compressibility (1/GPa) = 0.02488842
#
# Stress axis : x y z
#
# Youngs Moduli (GPa) = 35.95178 76.91176 28.38061
#
# Poissons Ratio (x) = 0.14959 0.55936
# Poissons Ratio (y) = 0.06993 0.11147
# Poissons Ratio (z) = 0.70858 0.30208
#
# Static dielectric constant tensor:
#      x y z
#    x 2.256370 0.024940 0.000300 
#    y 0.024940 2.183400 -0.027240 
#    z 0.000300 -0.027240 2.384740 
# 
# From -- ./inp_files/518942.got.cif
#   From: 2010.05.17/outbox.cif.g08.bks.cpg/sg2_260_cif.got.tgz:518942.got - 2010.06.03 11:33:40.
