data_PCOD9081448
_publ_section_title
;
Structure prediction by ZEFSAII (Michael W. Deem and Ramdas Pophale) SiO2 
 PCOD9081448
Probable space group: P -1
;
_chemical_formula_sum "Si O2"
_cell_formula_units_Z 16
_cell_length_a 27.084125
_cell_length_b 26.921095
_cell_length_c 13.353337
_cell_angle_alpha 150.332510
_cell_angle_beta 29.904338
_cell_angle_gamma 169.319762
_cell_volume 884.113283
_symmetry_space_group_name_H-M "P -1"
_symmetry_group_IT_number 2
_symmetry_cell_setting 'triclinic'
loop_
_space_group_symop_operation_xyz
x,y,z
-x,-y,-z
loop_
_atom_site_type_symbol
_atom_site_label
_atom_site_fract_x
_atom_site_fract_y
_atom_site_fract_z
Si Si1 0.046179 0.822772 0.085074
Si Si2 0.780139 0.206371 0.376230
Si Si3 0.163040 0.148459 0.782585
Si Si4 0.373030 0.097476 0.718407
Si Si5 0.659518 0.577525 0.779278
Si Si6 0.154384 0.362997 0.262199
Si Si7 0.110354 0.158592 0.482880
Si Si8 0.491526 0.627959 0.864344
O O1 0.818096 0.637698 0.078397
O O2 0.915249 0.747912 0.283187
O O3 0.329951 0.146301 0.137086
O O4 0.125045 0.782392 0.857029
O O5 0.000000 0.500000 0.500000
O O6 0.500000 0.000000 0.500000
O O7 0.733378 0.092604 0.357591
O O8 0.442397 0.357803 0.688194
O O9 0.061215 0.032544 0.646862
O O10 0.196663 0.298368 0.011861
O O11 0.923699 0.881110 0.805189
O O12 0.669997 0.381844 0.647345
O O13 0.391477 0.210358 0.958353
O O14 0.158948 0.911752 0.682153
O O15 0.751302 0.571885 0.677268
O O16 0.500000 0.500000 0.000000
O O17 0.406789 0.390485 0.351733
O O18 0.000000 0.000000 0.500000
#
# Coordination Sequence:
#
# PCOD9081448 Si02
#       8
#     2   2   2   2   2   2   2   2
#     4  10  21  35  50  74 102 145 187 215 257 323
#     4  11  22  39  56  76 109 142 178 232 290 331
#     4  11  21  34  50  75 112 156 184 222 267 308
#     4  11  20  31  55  78 101 139 184 220 272 321
#     4  10  21  34  50  72 107 150 192 227 270 306
#     4  11  19  33  52  76 107 138 192 226 260 317
#     4  10  22  34  52  79 115 152 191 220 250 323
#     4  10  19  32  48  73 109 141 178 219 253 300
#
# _framework density 18.097227
#
# number of rings (size 3 to 8) (size 9 to 14) (size 15 to 20)
#    0.000    1.500    1.250    7.875    1.750    2.000 
#    0.000    0.000    0.000    0.000    0.000    0.000 
#    0.000   20.000    0.000    0.000    0.000    0.000 
#
# Total GULP energy -89166.867263 kJ/mol
# GULP energy per Si atom -5572.929204 kJ/mol
# Density = 1.805604 g / cm^3
# Si number density = 18.097227 Si / 1000 Ang^3
#
#
#
# Elastic Constant Matrix: (Units=GPa)
#
#
# Indices 1 2 3 4 5 6 
#
# 1 78.8935 35.7673 18.4283 7.4532 2.4804 6.9745
# 2 35.7673 129.2259 28.0601 4.9798 -10.5901 3.1340
# 3 18.4283 28.0601 96.4649 -2.8702 -9.5611 2.8315
# 4 7.4532 4.9798 -2.8702 23.4825 2.9582 -10.1996
# 5 2.4804 -10.5901 -9.5611 2.9582 15.2021 5.3545
# 6 6.9745 3.1340 2.8315 -10.1996 5.3545 41.1528
#
#
#
# Elastic Compliance Matrix: (Units=1/GPa)
#
#
# Indices 1 2 3 4 5 6 
#
# 1 0.015963 -0.004027 -0.002436 -0.005131 -0.004936 -0.002861
# 2 -0.004027 0.009938 -0.001377 -0.002710 0.007830 -0.001670
# 3 -0.002436 -0.001377 0.011997 0.001242 0.007065 -0.000919
# 4 -0.005131 -0.002710 0.001242 0.054254 -0.016676 0.016607
# 5 -0.004936 0.007830 0.007065 -0.016676 0.085174 -0.015461
# 6 -0.002861 -0.001670 -0.000919 0.016607 -0.015461 0.031102
#
#
# Mechanical properties :
#
#
# Convention : Reuss Voigt Hill
#
# Bulk Modulus (GPa) = 45.00867 52.12173 48.56520
# Shear Modulus (GPa) = 21.59699 30.78941 26.19320
#
# Velocity S-wave (km/s) = 3.45829 4.12920 3.80855
# Velocity P-wave (km/s) = 6.39303 7.18312 6.79956
#
# Compressibility (1/GPa) = 0.02221794
#
# Stress axis : x y z
#
# Youngs Moduli (GPa) = 62.64631 100.61901 83.35644
#
# Poissons Ratio (x) = 0.40515 0.20306
# Poissons Ratio (y) = 0.25225 0.11481
# Poissons Ratio (z) = 0.15261 0.13858
#
# Static dielectric constant tensor:
#      x y z
#    x 1.682820 -0.011230 0.013920 
#    y -0.011230 1.656380 -0.010580 
#    z 0.013920 -0.010580 1.652690 
# 
# From -- ./inp_files/544545.got.cif
#   From: 2010.05.17/outbox.cif.g08.bks.cpg/sg2_273_cif.got.tgz:544545.got - 2010.06.03 11:33:40.
