data_PCOD9081302
_publ_section_title
;
Structure prediction by ZEFSAII (Michael W. Deem and Ramdas Pophale) SiO2 
 PCOD9081302
Probable space group: P -1
;
_chemical_formula_sum "Si O2"
_cell_formula_units_Z 14
_cell_length_a 7.932680
_cell_length_b 22.218709
_cell_length_c 14.329302
_cell_angle_alpha 28.732829
_cell_angle_beta 50.352996
_cell_angle_gamma 45.371156
_cell_volume 862.259844
_symmetry_space_group_name_H-M "P -1"
_symmetry_group_IT_number 2
_symmetry_cell_setting 'triclinic'
loop_
_space_group_symop_operation_xyz
x,y,z
-x,-y,-z
loop_
_atom_site_type_symbol
_atom_site_label
_atom_site_fract_x
_atom_site_fract_y
_atom_site_fract_z
Si Si1 0.922283 0.787283 0.726644
Si Si2 0.451600 0.567520 0.822966
Si Si3 0.435947 0.305145 0.117674
Si Si4 0.892742 0.041760 0.267606
Si Si5 0.354840 0.238758 0.444382
Si Si6 0.819497 0.982556 0.160612
Si Si7 0.705669 0.953489 0.756894
O O1 0.745535 0.712481 0.868205
O O2 0.869175 0.850488 0.762732
O O3 0.186893 0.680562 0.762860
O O4 0.867243 0.914516 0.502997
O O5 0.626329 0.648066 0.646722
O O6 0.500000 0.500000 0.000000
O O7 0.470891 0.446609 0.911072
O O8 0.682307 0.178785 0.188617
O O9 0.332521 0.291787 0.274664
O O10 0.140852 0.046976 0.206452
O O11 0.866813 0.024064 0.190922
O O12 0.168525 0.172019 0.626593
O O13 0.604412 0.106659 0.542057
O O14 0.542548 0.065623 0.117088
O O15 0.000000 0.000000 0.000000
#
# Coordination Sequence:
#
# PCOD9081302 Si02
#       7
#     2   2   2   2   2   2   2
#     4  12  17  33  52  81 113 139 171 214 261 325
#     4  10  21  30  47  79 116 144 168 202 263 331
#     4  11  19  31  51  84 110 142 168 208 269 324
#     4  12  19  33  58  78 110 138 174 219 268 314
#     4   9  17  34  47  76 111 137 168 213 263 307
#     4  10  21  36  53  79 105 134 186 231 256 298
#     4  10  19  31  54  78 104 139 168 214 268 306
#
# _framework density 16.236405000000001
#
# number of rings (size 3 to 8) (size 9 to 14) (size 15 to 20)
#    0.857    0.571    5.714    3.000    0.000    0.571 
#    0.000    0.000    0.000    0.857    0.000   10.000 
#    0.000    0.000    0.000    0.000    0.000    0.000 
#
# Total GULP energy -77959.128000 kJ/mol
# GULP energy per Si atom -5568.509143 kJ/mol
# Density = 1.619945 g / cm^3
# Si number density = 16.236405 Si / 1000 Ang^3
#
#
#
# Elastic Constant Matrix: (Units=GPa)
#
#
# Indices 1 2 3 4 5 6 
#
# 1 105.9511 23.2157 29.4478 2.4125 -29.9035 18.4132
# 2 23.2157 62.8965 42.5629 -10.5286 -15.3057 13.1281
# 3 29.4478 42.5629 71.0152 0.4713 -22.9470 17.2695
# 4 2.4125 -10.5286 0.4713 29.3292 0.3695 -6.5838
# 5 -29.9035 -15.3057 -22.9470 0.3695 15.7800 -9.2399
# 6 18.4132 13.1281 17.2695 -6.5838 -9.2399 18.8157
#
#
#
# Elastic Compliance Matrix: (Units=1/GPa)
#
#
# Indices 1 2 3 4 5 6 
#
# 1 0.023526 -0.002220 0.010751 -0.005017 0.054459 -0.006353
# 2 -0.002220 0.030354 -0.017644 0.011653 0.000063 0.001297
# 3 0.010751 -0.017644 0.041676 -0.011428 0.056761 -0.012587
# 4 -0.005017 0.011653 -0.011428 0.043564 -0.003736 0.020677
# 5 0.054459 0.000063 0.056761 -0.003736 0.262136 0.021985
# 6 -0.006353 0.001297 -0.012587 0.020677 0.021985 0.088043
#
#
# Mechanical properties :
#
#
# Convention : Reuss Voigt Hill
#
# Bulk Modulus (GPa) = 12.93178 47.81282 30.37230
# Shear Modulus (GPa) = 9.37555 22.42742 15.90148
#
# Velocity S-wave (km/s) = 2.40560 3.72062 3.13289
# Velocity P-wave (km/s) = 3.96206 6.92598 5.64212
#
# Compressibility (1/GPa) = 0.07732888
#
# Stress axis : x y z
#
# Youngs Moduli (GPa) = 42.50704 32.94447 23.99435
#
# Poissons Ratio (x) = 0.07313 -0.25795
# Poissons Ratio (y) = 0.09436 0.42337
# Poissons Ratio (z) = -0.45698 0.58128
#
# Static dielectric constant tensor:
#      x y z
#    x 1.601560 0.008530 -0.030320 
#    y 0.008530 1.533250 -0.032020 
#    z -0.030320 -0.032020 1.542650 
# 
# From -- ./inp_files/508271.got.cif
#   From: 2010.05.17/outbox.cif.g08.bks.cpg/sg2_255_cif.got.tgz:508271.got - 2010.06.03 11:33:40.
