data_PCOD9081120
_publ_section_title
;
Structure prediction by ZEFSAII (Michael W. Deem and Ramdas Pophale) SiO2 
 PCOD9081120
Probable space group: P -1
;
_chemical_formula_sum "Si O2"
_cell_formula_units_Z 14
_cell_length_a 10.203291
_cell_length_b 11.260417
_cell_length_c 12.898484
_cell_angle_alpha 42.254894
_cell_angle_beta 66.958780
_cell_angle_gamma 40.569284
_cell_volume 596.593607
_symmetry_space_group_name_H-M "P -1"
_symmetry_group_IT_number 2
_symmetry_cell_setting 'triclinic'
loop_
_space_group_symop_operation_xyz
x,y,z
-x,-y,-z
loop_
_atom_site_type_symbol
_atom_site_label
_atom_site_fract_x
_atom_site_fract_y
_atom_site_fract_z
Si Si1 0.218550 0.169599 0.580403
Si Si2 0.182980 0.253038 0.759274
Si Si3 0.914442 0.494319 0.875428
Si Si4 0.460377 0.286720 0.746112
Si Si5 0.796358 0.465900 0.140504
Si Si6 0.418367 0.897386 0.496162
Si Si7 0.781417 0.142946 0.591535
O O1 0.229809 0.097994 0.741871
O O2 0.343712 0.241757 0.491289
O O3 0.980542 0.441772 0.434323
O O4 0.342180 0.928577 0.616025
O O5 0.388753 0.165315 0.800368
O O6 0.049895 0.286991 0.871644
O O7 0.085416 0.468773 0.893513
O O8 0.733364 0.795070 0.690129
O O9 0.797711 0.487489 0.002988
O O10 0.418457 0.344836 0.844369
O O11 0.693187 0.126036 0.732739
O O12 0.285657 0.591587 0.555948
O O13 0.968431 0.145913 0.316804
O O14 0.366027 0.798720 0.493136
#
# Coordination Sequence:
#
# PCOD9081120 Si02
#       7
#     2   2   2   2   2   2   2
#     4   9  16  26  46  68  93 116 151 189 234 265
#     4   9  16  29  45  70  94 117 149 191 230 272
#     4   8  16  29  44  64  97 121 148 186 230 278
#     4  10  19  31  48  71  95 121 153 188 227 277
#     4   9  17  31  44  66  97 126 148 184 230 276
#     4   9  16  29  45  70  94 117 149 191 230 272
#     4  10  19  31  48  71  95 121 153 188 227 277
#
# _framework density 23.466560999999999
#
# number of rings (size 3 to 8) (size 9 to 14) (size 15 to 20)
#    0.000    2.857    1.429    1.286    0.000    0.000 
#    2.571    2.857    0.000    0.000    0.000   32.000 
#    0.000    0.000    0.000    0.000    0.000    0.000 
#
# Total GULP energy -78163.341662 kJ/mol
# GULP energy per Si atom -5583.095833 kJ/mol
# Density = 2.341315 g / cm^3
# Si number density = 23.466561 Si / 1000 Ang^3
#
#
#
# Elastic Constant Matrix: (Units=GPa)
#
#
# Indices 1 2 3 4 5 6 
#
# 1 53.5917 20.5502 12.0896 3.5285 5.2954 1.1611
# 2 20.5502 132.2114 44.5613 48.2243 4.6644 0.2702
# 3 12.0896 44.5613 80.7757 30.4697 -3.4661 9.4756
# 4 3.5285 48.2243 30.4697 56.0905 3.6942 3.7780
# 5 5.2954 4.6644 -3.4661 3.6942 15.3719 4.8894
# 6 1.1611 0.2702 9.4756 3.7780 4.8894 21.3065
#
#
#
# Elastic Compliance Matrix: (Units=1/GPa)
#
#
# Indices 1 2 3 4 5 6 
#
# 1 0.021213 -0.003220 -0.003358 0.003706 -0.008511 0.001674
# 2 -0.003220 0.012572 -0.003758 -0.008645 -0.002696 0.003839
# 3 -0.003358 -0.003758 0.019274 -0.007128 0.011442 -0.009703
# 4 0.003706 -0.008645 -0.007128 0.029405 -0.007171 -0.000491
# 5 -0.008511 -0.002696 0.011442 -0.007171 0.080002 -0.021678
# 6 0.001674 0.003839 -0.009703 -0.000491 -0.021678 0.056171
#
#
# Mechanical properties :
#
#
# Convention : Reuss Voigt Hill
#
# Bulk Modulus (GPa) = 30.87867 46.77569 38.82718
# Shear Modulus (GPa) = 19.99163 31.17895 25.58529
#
# Velocity S-wave (km/s) = 2.92193 3.64903 3.30553
# Velocity P-wave (km/s) = 4.95689 6.14248 5.58125
#
# Compressibility (1/GPa) = 0.03238481
#
# Stress axis : x y z
#
# Youngs Moduli (GPa) = 47.14170 79.54429 51.88433
#
# Poissons Ratio (x) = 0.25617 0.17422
# Poissons Ratio (y) = 0.15182 0.19499
# Poissons Ratio (z) = 0.15830 0.29895
#
# Static dielectric constant tensor:
#      x y z
#    x 1.836810 -0.021600 0.018230 
#    y -0.021600 1.953210 0.067250 
#    z 0.018230 0.067250 1.947340 
# 
# From -- ./inp_files/168584.got.cif
#   From: 2010.05.17/outbox.cif.g08.bks.cpg/sg2_85_cif.got.tgz:168584.got - 2010.06.03 11:33:40.
