data_PCOD9081737
_publ_section_title
;
Structure prediction by ZEFSAII (Michael W. Deem and Ramdas Pophale) SiO2 
 PCOD9081737
Probable space group: P -1
;
_chemical_formula_sum "Si O2"
_cell_formula_units_Z 16
_cell_length_a 7.779964
_cell_length_b 8.637423
_cell_length_c 14.058827
_cell_angle_alpha 103.622119
_cell_angle_beta 52.473945
_cell_angle_gamma 78.433173
_cell_volume 651.640559
_symmetry_space_group_name_H-M "P -1"
_symmetry_group_IT_number 2
_symmetry_cell_setting 'triclinic'
loop_
_space_group_symop_operation_xyz
x,y,z
-x,-y,-z
loop_
_atom_site_type_symbol
_atom_site_label
_atom_site_fract_x
_atom_site_fract_y
_atom_site_fract_z
Si Si1 0.249304 0.324538 0.766794
Si Si2 0.082590 0.030900 0.129832
Si Si3 0.684522 0.388589 0.338547
Si Si4 0.666397 0.748079 0.650371
Si Si5 0.792072 0.108305 0.507007
Si Si6 0.889977 0.210134 0.772469
Si Si7 0.726135 0.900165 0.116611
Si Si8 0.865242 0.388134 0.622916
O O1 0.254920 0.495191 0.741857
O O2 0.510175 0.162299 0.625391
O O3 0.022576 0.310093 0.794896
O O4 0.240401 0.285965 0.876644
O O5 0.929459 0.218462 0.262277
O O6 0.214276 0.081575 0.008910
O O7 0.241505 0.866842 0.122223
O O8 0.908156 0.955537 0.125163
O O9 0.500000 0.500000 0.500000
O O10 0.548041 0.295198 0.314829
O O11 0.796843 0.593497 0.661653
O O12 0.843678 0.711742 0.495641
O O13 0.548826 0.948909 0.753091
O O14 0.795072 0.300647 0.543426
O O15 0.894509 0.975503 0.365789
O O16 0.000000 0.000000 0.500000
O O17 0.764424 0.331886 0.741147
#
# Coordination Sequence:
#
# PCOD9081737 Si02
#       8
#     2   2   2   2   2   2   2   2
#     4  11  20  34  57  83 114 150 186 231 284 333
#     4   9  20  36  56  81 113 148 191 237 277 329
#     4  11  21  33  57  92 118 140 183 242 287 331
#     4  10  20  36  57  83 114 152 187 230 281 339
#     4  10  19  32  54  85 113 145 182 228 282 342
#     4  10  20  35  56  82 114 149 187 230 284 335
#     4   9  19  37  57  79 109 154 195 228 278 336
#     4  10  20  35  57  87 114 151 186 232 287 335
#
# _framework density 24.553414
#
# number of rings (size 3 to 8) (size 9 to 14) (size 15 to 20)
#    0.000    2.000    1.250    3.375    0.000    2.500 
#    0.000    0.625    0.000    6.750    0.000    0.000 
#    0.000    0.000    0.000    0.000    0.000    0.000 
#
# Total GULP energy -89220.201401 kJ/mol
# GULP energy per Si atom -5576.262588 kJ/mol
# Density = 2.449753 g / cm^3
# Si number density = 24.553414 Si / 1000 Ang^3
#
#
#
# Elastic Constant Matrix: (Units=GPa)
#
#
# Indices 1 2 3 4 5 6 
#
# 1 33.6900 15.4206 -4.5762 -6.4758 2.8827 8.3391
# 2 15.4206 157.9283 38.1371 -45.2583 10.5939 -14.3709
# 3 -4.5762 38.1371 36.7181 -26.6312 10.4936 -10.3905
# 4 -6.4758 -45.2583 -26.6312 42.4955 -8.3126 1.5616
# 5 2.8827 10.5939 10.4936 -8.3126 18.3978 -2.6875
# 6 8.3391 -14.3709 -10.3905 1.5616 -2.6875 31.8866
#
#
#
# Elastic Compliance Matrix: (Units=1/GPa)
#
#
# Indices 1 2 3 4 5 6 
#
# 1 0.039575 -0.005513 0.018644 0.010133 -0.010268 -0.008121
# 2 -0.005513 0.010523 -0.006137 0.006754 0.001943 0.004018
# 3 0.018644 -0.006137 0.072640 0.037013 -0.022294 0.012337
# 4 0.010133 0.006754 0.037013 0.055049 -0.000294 0.009734
# 5 -0.010268 0.001943 -0.022294 -0.000294 0.067723 0.002019
# 6 -0.008121 0.004018 0.012337 0.009734 0.002019 0.039009
#
#
# Mechanical properties :
#
#
# Convention : Reuss Voigt Hill
#
# Bulk Modulus (GPa) = 7.31384 36.25549 21.78466
# Shear Modulus (GPa) = 15.81757 30.51295 23.16526
#
# Velocity S-wave (km/s) = 2.54088 3.52904 3.07492
# Velocity P-wave (km/s) = 3.40490 5.60389 4.63664
#
# Compressibility (1/GPa) = 0.13672708
#
# Stress axis : x y z
#
# Youngs Moduli (GPa) = 25.26872 95.03158 13.76657
#
# Poissons Ratio (x) = 0.52387 -0.25667
# Poissons Ratio (y) = 0.13930 0.08448
# Poissons Ratio (z) = -0.47111 0.58317
#
# Static dielectric constant tensor:
#      x y z
#    x 2.012750 -0.051840 -0.008780 
#    y -0.051840 2.027820 -0.025880 
#    z -0.008780 -0.025880 1.996790 
# 
# From -- ./inp_files/493133.got.cif
#   From: 2010.05.17/outbox.cif.g08.bks.cpg/sg2_247_cif.got.tgz:493133.got - 2010.06.03 11:33:40.
