data_PCOD9081261
_publ_section_title
;
Structure prediction by ZEFSAII (Michael W. Deem and Ramdas Pophale) SiO2 
 PCOD9081261
Probable space group: P -1
;
_chemical_formula_sum "Si O2"
_cell_formula_units_Z 14
_cell_length_a 9.327543
_cell_length_b 18.500531
_cell_length_c 8.354651
_cell_angle_alpha 147.068554
_cell_angle_beta 80.703972
_cell_angle_gamma 121.715801
_cell_volume 530.953202
_symmetry_space_group_name_H-M "P -1"
_symmetry_group_IT_number 2
_symmetry_cell_setting 'triclinic'
loop_
_space_group_symop_operation_xyz
x,y,z
-x,-y,-z
loop_
_atom_site_type_symbol
_atom_site_label
_atom_site_fract_x
_atom_site_fract_y
_atom_site_fract_z
Si Si1 0.200314 0.801731 0.975401
Si Si2 0.772861 0.225161 0.437069
Si Si3 0.149843 0.054102 0.324119
Si Si4 0.406446 0.087669 0.876976
Si Si5 0.741502 0.487518 0.021014
Si Si6 0.059900 0.266161 0.854799
Si Si7 0.694148 0.715526 0.606697
O O1 0.192058 0.727025 0.666448
O O2 0.239441 0.982510 0.257295
O O3 0.983223 0.670068 0.867262
O O4 0.389461 0.848356 0.112946
O O5 0.633299 0.009589 0.122638
O O6 0.010259 0.349695 0.677942
O O7 0.684416 0.296121 0.672996
O O8 0.271490 0.196512 0.413001
O O9 0.126655 0.157100 0.647722
O O10 0.922546 0.865430 0.934748
O O11 0.182634 0.908134 0.496024
O O12 0.432264 0.261870 0.223423
O O13 0.632418 0.522358 0.220272
O O14 0.764639 0.555471 0.962219
#
# Coordination Sequence:
#
# PCOD9081261 Si02
#       7
#     2   2   2   2   2   2   2
#     4  12  19  30  51  80 103 125 166 206 243 297
#     4  10  19  31  53  78  94 130 171 207 240 284
#     4   9  16  29  51  75  95 126 168 208 239 280
#     4  10  20  33  51  76 103 131 159 204 254 290
#     4   9  18  35  52  72  99 131 168 203 247 287
#     4   9  20  33  50  74 103 133 160 202 253 291
#     4   9  15  32  52  72  97 128 166 205 244 283
#
# _framework density 26.367671999999999
#
# number of rings (size 3 to 8) (size 9 to 14) (size 15 to 20)
#    0.000    2.286    2.857    3.000    0.000    0.571 
#    0.000    0.714    0.000    0.000    0.000    5.000 
#    0.000    0.000    0.000    0.000    0.000    0.000 
#
# Total GULP energy -78224.820271 kJ/mol
# GULP energy per Si atom -5587.487162 kJ/mol
# Density = 2.630766 g / cm^3
# Si number density = 26.367672 Si / 1000 Ang^3
#
#
#
# Elastic Constant Matrix: (Units=GPa)
#
#
# Indices 1 2 3 4 5 6 
#
# 1 129.4706 21.5824 52.1288 12.3307 -44.5141 23.0931
# 2 21.5824 45.1536 11.0722 -6.7933 0.7896 20.6386
# 3 52.1288 11.0722 87.6753 -12.4156 -39.4497 19.2087
# 4 12.3307 -6.7933 -12.4156 17.5517 4.1078 -2.0801
# 5 -44.5141 0.7896 -39.4497 4.1078 59.6188 -2.5021
# 6 23.0931 20.6386 19.2087 -2.0801 -2.5021 29.5982
#
#
#
# Elastic Compliance Matrix: (Units=1/GPa)
#
#
# Indices 1 2 3 4 5 6 
#
# 1 0.019832 -0.009730 -0.008515 -0.026778 0.010974 -0.004117
# 2 -0.009730 0.039705 0.006758 0.025654 -0.006060 -0.023189
# 3 -0.008515 0.006758 0.025192 0.023081 0.008124 -0.012109
# 4 -0.026778 0.025654 0.023081 0.104290 -0.012486 -0.005701
# 5 0.010974 -0.006060 0.008124 -0.012486 0.030953 -0.007870
# 6 -0.004117 -0.023189 -0.012109 -0.005701 -0.007870 0.059960
#
#
# Mechanical properties :
#
#
# Convention : Reuss Voigt Hill
#
# Bulk Modulus (GPa) = 16.19336 47.98513 32.08925
# Shear Modulus (GPa) = 15.45644 33.18814 24.32229
#
# Velocity S-wave (km/s) = 2.42376 3.55162 3.04045
# Velocity P-wave (km/s) = 3.73999 5.92087 4.95198
#
# Compressibility (1/GPa) = 0.06175369
#
# Stress axis : x y z
#
# Youngs Moduli (GPa) = 50.42431 25.18568 39.69585
#
# Poissons Ratio (x) = 0.24506 0.33800
# Poissons Ratio (y) = 0.49064 -0.26825
# Poissons Ratio (z) = 0.42935 -0.17019
#
# Static dielectric constant tensor:
#      x y z
#    x 2.132750 -0.013440 0.074260 
#    y -0.013440 2.059850 -0.042650 
#    z 0.074260 -0.042650 2.109360 
# 
# From -- ./inp_files/162958.got.cif
#   From: 2010.05.17/outbox.cif.g08.bks.cpg/sg2_82_cif.got.tgz:162958.got - 2010.06.03 11:33:40.
