data_PCOD9081023
_publ_section_title
;
Structure prediction by ZEFSAII (Michael W. Deem and Ramdas Pophale) SiO2 
 PCOD9081023
Probable space group: P -1
;
_chemical_formula_sum "Si O2"
_cell_formula_units_Z 14
_cell_length_a 5.199523
_cell_length_b 14.764988
_cell_length_c 17.303396
_cell_angle_alpha 143.747877
_cell_angle_beta 64.253535
_cell_angle_gamma 106.179150
_cell_volume 701.117110
_symmetry_space_group_name_H-M "P -1"
_symmetry_group_IT_number 2
_symmetry_cell_setting 'triclinic'
loop_
_space_group_symop_operation_xyz
x,y,z
-x,-y,-z
loop_
_atom_site_type_symbol
_atom_site_label
_atom_site_fract_x
_atom_site_fract_y
_atom_site_fract_z
Si Si1 0.099931 0.501461 0.897861
Si Si2 0.798845 0.945824 0.820825
Si Si3 0.179666 0.213790 0.969852
Si Si4 0.273082 0.985096 0.286542
Si Si5 0.393965 0.053002 0.634546
Si Si6 0.595239 0.385575 0.837260
Si Si7 0.195471 0.138102 0.078641
O O1 0.442619 0.463691 0.834645
O O2 0.982605 0.657510 0.975978
O O3 0.482611 0.829740 0.124610
O O4 0.000000 0.500000 0.000000
O O5 0.741960 0.904846 0.711497
O O6 0.837510 0.819632 0.797531
O O7 0.520858 0.062551 0.965677
O O8 0.055921 0.051348 0.859887
O O9 0.060782 0.626994 0.212633
O O10 0.124037 0.251565 0.093586
O O11 0.424955 0.035006 0.378891
O O12 0.947503 0.952759 0.320778
O O13 0.473326 0.225814 0.751961
O O14 0.500000 0.000000 0.500000
O O15 0.500000 0.500000 0.000000
O O16 0.000000 0.000000 0.000000
#
# Coordination Sequence:
#
# PCOD9081023 Si02
#       7
#     2   2   2   2   2   2   2
#     4  10  21  31  48  76 107 142 185 217 261 324
#     4   9  17  29  50  73 109 144 182 219 275 338
#     4  10  19  30  53  75 114 147 179 222 281 333
#     4  11  21  34  55  76 104 146 194 223 278 330
#     4  12  25  40  55  76 110 152 193 237 277 318
#     4  10  22  35  53  75 106 138 189 229 270 322
#     4   8  16  29  44  75 108 149 171 221 275 334
#
# _framework density 19.968133000000002
#
# number of rings (size 3 to 8) (size 9 to 14) (size 15 to 20)
#    0.000    2.000    1.429    3.000    8.000    0.000 
#    0.000    0.000    0.000    0.000    0.000    0.000 
#    0.000    6.857    0.000    0.000    0.000    0.000 
#
# Total GULP energy -77959.613739 kJ/mol
# GULP energy per Si atom -5568.543838 kJ/mol
# Density = 1.992268 g / cm^3
# Si number density = 19.968133 Si / 1000 Ang^3
#
#
#
# Elastic Constant Matrix: (Units=GPa)
#
#
# Indices 1 2 3 4 5 6 
#
# 1 155.2953 45.2479 28.4510 -23.2156 24.8167 -0.8484
# 2 45.2479 110.9786 39.9621 -43.0033 10.0714 -28.9976
# 3 28.4510 39.9621 53.4738 -27.0308 13.9534 -5.2018
# 4 -23.2156 -43.0033 -27.0308 30.8144 -8.1929 15.7930
# 5 24.8167 10.0714 13.9534 -8.1929 18.8077 -12.5884
# 6 -0.8484 -28.9976 -5.2018 15.7930 -12.5884 46.1034
#
#
#
# Elastic Compliance Matrix: (Units=1/GPa)
#
#
# Indices 1 2 3 4 5 6 
#
# 1 0.010691 -0.004624 0.004331 0.005077 -0.018703 -0.009068
# 2 -0.004624 0.022930 -0.006967 0.021071 0.015183 0.010479
# 3 0.004331 -0.006967 0.047049 0.036229 -0.035169 -0.021007
# 4 0.005077 0.021071 0.036229 0.105235 -0.014044 -0.022449
# 5 -0.018703 0.015183 -0.035169 -0.014044 0.117977 0.042262
# 6 -0.009068 0.010479 -0.021007 -0.022449 0.042262 0.044974
#
#
# Mechanical properties :
#
#
# Convention : Reuss Voigt Hill
#
# Bulk Modulus (GPa) = 15.11676 60.78552 37.95114
# Shear Modulus (GPa) = 12.97269 32.88422 22.92846
#
# Velocity S-wave (km/s) = 2.55163 4.06252 3.39226
# Velocity P-wave (km/s) = 4.03335 7.24657 5.86433
#
# Compressibility (1/GPa) = 0.06615176
#
# Stress axis : x y z
#
# Youngs Moduli (GPa) = 93.53569 43.61190 21.25424
#
# Poissons Ratio (x) = 0.20165 -0.09206
# Poissons Ratio (y) = 0.43248 0.14808
# Poissons Ratio (z) = -0.40514 0.30384
#
# Static dielectric constant tensor:
#      x y z
#    x 1.921770 0.006980 0.002610 
#    y 0.006980 1.821500 -0.050250 
#    z 0.002610 -0.050250 1.737050 
# 
# From -- ./inp_files/483677.got.cif
#   From: 2010.05.17/outbox.cif.g08.bks.cpg/sg2_242_cif.got.tgz:483677.got - 2010.06.03 11:33:40.
