data_PCOD9081385
_publ_section_title
;
Structure prediction by ZEFSAII (Michael W. Deem and Ramdas Pophale) SiO2 
 PCOD9081385
Probable space group: P -1
;
_chemical_formula_sum "Si O2"
_cell_formula_units_Z 16
_cell_length_a 15.089099
_cell_length_b 27.356260
_cell_length_c 5.385006
_cell_angle_alpha 94.679372
_cell_angle_beta 92.573323
_cell_angle_gamma 19.546623
_cell_volume 737.805077
_symmetry_space_group_name_H-M "P -1"
_symmetry_group_IT_number 2
_symmetry_cell_setting 'triclinic'
loop_
_space_group_symop_operation_xyz
x,y,z
-x,-y,-z
loop_
_atom_site_type_symbol
_atom_site_label
_atom_site_fract_x
_atom_site_fract_y
_atom_site_fract_z
Si Si1 0.981511 0.589752 0.951454
Si Si2 0.335865 0.458089 0.567378
Si Si3 0.794431 0.371326 0.516280
Si Si4 0.492228 0.298819 0.117421
Si Si5 0.185483 0.678932 0.002349
Si Si6 0.782964 0.076266 0.386255
Si Si7 0.779604 0.656501 0.461362
Si Si8 0.170169 0.795184 0.161506
O O1 0.151507 0.545130 0.823148
O O2 0.780398 0.682990 0.741892
O O3 0.233730 0.421695 0.970264
O O4 0.849193 0.655266 0.234641
O O5 0.230241 0.557455 0.429511
O O6 0.379350 0.385895 0.385349
O O7 0.625060 0.323626 0.641151
O O8 0.500000 0.500000 0.500000
O O9 0.931962 0.276017 0.730658
O O10 0.924434 0.292090 0.235757
O O11 0.672282 0.159924 0.159681
O O12 0.678432 0.241742 0.988554
O O13 0.145338 0.757727 0.995929
O O14 0.500000 0.500000 0.000000
O O15 0.514921 0.210463 0.565671
O O16 0.000000 0.000000 0.500000
O O17 0.912766 0.956169 0.301126
O O18 0.000000 0.500000 0.500000
#
# Coordination Sequence:
#
# PCOD9081385 Si02
#       8
#     2   2   2   2   2   2   2   2
#     4  11  24  41  65  92 121 176 224 268 302 372
#     4  11  20  37  64  95 130 163 212 269 316 381
#     4  10  19  31  56  89 127 159 203 257 325 368
#     4  11  22  39  62  92 136 168 221 254 324 376
#     4  10  19  34  53  85 127 166 200 250 323 382
#     4  12  26  42  64  98 132 176 210 268 330 382
#     4  12  25  45  67  87 126 174 230 265 306 378
#     4  11  23  35  58  91 137 166 204 263 329 388
#
# _framework density 21.685943000000002
#
# number of rings (size 3 to 8) (size 9 to 14) (size 15 to 20)
#    0.000    1.000    6.250    2.250    3.500    1.000 
#    0.000    0.000    0.000    0.000    0.000    5.250 
#    0.000    0.000    0.000    0.000    0.000    0.000 
#
# Total GULP energy -89218.681454 kJ/mol
# GULP energy per Si atom -5576.167591 kJ/mol
# Density = 2.163659 g / cm^3
# Si number density = 21.685943 Si / 1000 Ang^3
#
#
#
# Elastic Constant Matrix: (Units=GPa)
#
#
# Indices 1 2 3 4 5 6 
#
# 1 54.8686 41.2645 6.9498 6.1868 -7.6615 7.5480
# 2 41.2645 71.9270 14.6350 6.9232 -0.1491 -7.2466
# 3 6.9498 14.6350 128.0894 -2.9280 -9.7314 -7.9365
# 4 6.1868 6.9232 -2.9280 22.6391 2.1977 5.2215
# 5 -7.6615 -0.1491 -9.7314 2.1977 38.6372 1.8115
# 6 7.5480 -7.2466 -7.9365 5.2215 1.8115 29.5781
#
#
#
# Elastic Compliance Matrix: (Units=1/GPa)
#
#
# Indices 1 2 3 4 5 6 
#
# 1 0.040572 -0.024976 0.000269 -0.000380 0.008829 -0.016874
# 2 -0.024976 0.030608 -0.001787 -0.005614 -0.005656 0.014730
# 3 0.000269 -0.001787 0.008259 0.001023 0.002003 0.001406
# 4 -0.000380 -0.005614 0.001023 0.048510 -0.002156 -0.009436
# 5 0.008829 -0.005656 0.002003 -0.002156 0.028447 -0.004463
# 6 -0.016874 0.014730 0.001406 -0.009436 -0.004463 0.044040
#
#
# Mechanical properties :
#
#
# Convention : Reuss Voigt Hill
#
# Bulk Modulus (GPa) = 37.80653 42.28708 40.04680
# Shear Modulus (GPa) = 19.06642 30.97327 25.01984
#
# Velocity S-wave (km/s) = 2.96836 3.78334 3.40035
# Velocity P-wave (km/s) = 5.40553 6.21506 5.82437
#
# Compressibility (1/GPa) = 0.02645046
#
# Stress axis : x y z
#
# Youngs Moduli (GPa) = 24.64780 32.67122 121.07507
#
# Poissons Ratio (x) = 0.81599 -0.03256
# Poissons Ratio (y) = 0.61560 0.21641
# Poissons Ratio (z) = -0.00663 0.05840
#
# Static dielectric constant tensor:
#      x y z
#    x 1.844270 -0.030600 0.003000 
#    y -0.030600 1.769830 0.030520 
#    z 0.003000 0.030520 1.902310 
# 
# From -- ./inp_files/101527.got.cif
#   From: 2010.05.17/outbox.cif.g08.bks.cpg/sg2_51_cif.got.tgz:101527.got - 2010.06.03 11:33:40.
