data_PCOD9081997
_publ_section_title
;
Structure prediction by ZEFSAII (Michael W. Deem and Ramdas Pophale) SiO2 
 PCOD9081997
Probable space group: P -1
;
_chemical_formula_sum "Si O2"
_cell_formula_units_Z 16
_cell_length_a 5.084181
_cell_length_b 9.060950
_cell_length_c 22.499065
_cell_angle_alpha 58.333530
_cell_angle_beta 81.007803
_cell_angle_gamma 115.563267
_cell_volume 689.829800
_symmetry_space_group_name_H-M "P -1"
_symmetry_group_IT_number 2
_symmetry_cell_setting 'triclinic'
loop_
_space_group_symop_operation_xyz
x,y,z
-x,-y,-z
loop_
_atom_site_type_symbol
_atom_site_label
_atom_site_fract_x
_atom_site_fract_y
_atom_site_fract_z
Si Si1 0.891620 0.127245 0.013962
Si Si2 0.651375 0.058248 0.620548
Si Si3 0.868934 0.960095 0.165870
Si Si4 0.837870 0.449624 0.724289
Si Si5 0.428562 0.310981 0.377479
Si Si6 0.153254 0.094083 0.689515
Si Si7 0.892118 0.271924 0.867743
Si Si8 0.731099 0.567766 0.534833
O O1 0.008091 0.155316 0.072197
O O2 0.489515 0.951065 0.070452
O O3 0.995522 0.318379 0.923628
O O4 0.000000 0.000000 0.000000
O O5 0.296207 0.988334 0.669929
O O6 0.879318 0.085273 0.661926
O O7 0.881692 0.292930 0.528516
O O8 0.609026 0.882202 0.614937
O O9 0.466295 0.806423 0.220336
O O10 0.991565 0.005414 0.219330
O O11 0.914533 0.795783 0.163633
O O12 0.731776 0.597147 0.675159
O O13 0.909644 0.455174 0.791233
O O14 0.168806 0.514001 0.666146
O O15 0.274105 0.265505 0.457798
O O16 0.510120 0.343248 0.628144
O O17 0.500000 0.500000 0.500000
#
# Coordination Sequence:
#
# PCOD9081997 Si02
#       8
#     2   2   2   2   2   2   2   2
#     4   8  16  27  49  85 135 149 184 239 312 342
#     4  11  26  42  58  86 122 158 199 249 305 360
#     4  10  19  32  59  88 121 155 197 252 297 346
#     4  11  21  34  61  85 117 156 201 240 295 348
#     4  12  24  41  60  87 120 161 199 246 301 360
#     4  11  23  40  63  88 118 156 205 249 299 354
#     4   9  16  31  50  91 124 155 188 244 302 346
#     4  10  23  41  66  89 116 153 202 253 305 356
#
# _framework density 23.194127999999999
#
# number of rings (size 3 to 8) (size 9 to 14) (size 15 to 20)
#    0.000    1.750    2.500    1.500    7.000    2.000 
#    0.000    4.375    0.000    0.000    0.000    5.250 
#    0.000    0.000    0.000    0.000    0.000    0.000 
#
# Total GULP energy -89242.108148 kJ/mol
# GULP energy per Si atom -5577.631759 kJ/mol
# Density = 2.314134 g / cm^3
# Si number density = 23.194128 Si / 1000 Ang^3
#
#
#
# Elastic Constant Matrix: (Units=GPa)
#
#
# Indices 1 2 3 4 5 6 
#
# 1 92.6866 -0.7958 26.0796 2.2400 -6.3764 -12.6392
# 2 -0.7958 57.7877 26.0013 17.3961 15.0343 -8.7271
# 3 26.0796 26.0013 112.9930 34.3744 5.0863 -7.1567
# 4 2.2400 17.3961 34.3744 21.9899 1.3372 -0.3806
# 5 -6.3764 15.0343 5.0863 1.3372 36.4744 -1.1132
# 6 -12.6392 -8.7271 -7.1567 -0.3806 -1.1132 21.3249
#
#
#
# Elastic Compliance Matrix: (Units=1/GPa)
#
#
# Indices 1 2 3 4 5 6 
#
# 1 0.013018 0.001208 -0.004286 0.004391 0.002427 0.006977
# 2 0.001208 0.028484 0.001978 -0.024901 -0.010525 0.012043
# 3 -0.004286 0.001978 0.019140 -0.030798 -0.002983 0.003988
# 4 0.004391 -0.024901 -0.030798 0.111950 0.010753 -0.015364
# 5 0.002427 -0.010525 -0.002983 0.010753 0.032140 -0.002000
# 6 0.006977 0.012043 0.003988 -0.015364 -0.002000 0.056917
#
#
# Mechanical properties :
#
#
# Convention : Reuss Voigt Hill
#
# Bulk Modulus (GPa) = 17.11075 40.67084 28.89079
# Shear Modulus (GPa) = 17.64743 30.10333 23.87538
#
# Velocity S-wave (km/s) = 2.76136 3.60653 3.21186
# Velocity P-wave (km/s) = 4.19047 5.90895 5.12229
#
# Compressibility (1/GPa) = 0.05844279
#
# Stress axis : x y z
#
# Youngs Moduli (GPa) = 76.81951 35.10728 52.24667
#
# Poissons Ratio (x) = -0.04240 0.22391
# Poissons Ratio (y) = -0.09279 -0.10337
# Poissons Ratio (z) = 0.32922 -0.06946
#
# Static dielectric constant tensor:
#      x y z
#    x 1.975830 -0.043920 0.029180 
#    y -0.043920 1.938180 0.027170 
#    z 0.029180 0.027170 1.986270 
# 
# From -- ./inp_files/116047.got.cif
#   From: 2010.05.17/outbox.cif.g08.bks.cpg/sg2_59_cif.got.tgz:116047.got - 2010.06.03 11:33:40.
