data_PCOD9081003
_publ_section_title
;
Structure prediction by ZEFSAII (Michael W. Deem and Ramdas Pophale) SiO2 
 PCOD9081003
Probable space group: P -1
;
_chemical_formula_sum "Si O2"
_cell_formula_units_Z 14
_cell_length_a 13.709440
_cell_length_b 15.283799
_cell_length_c 10.857113
_cell_angle_alpha 148.524902
_cell_angle_beta 33.994585
_cell_angle_gamma 150.165615
_cell_volume 554.941652
_symmetry_space_group_name_H-M "P -1"
_symmetry_group_IT_number 2
_symmetry_cell_setting 'triclinic'
loop_
_space_group_symop_operation_xyz
x,y,z
-x,-y,-z
loop_
_atom_site_type_symbol
_atom_site_label
_atom_site_fract_x
_atom_site_fract_y
_atom_site_fract_z
Si Si1 0.003467 0.297710 0.855018
Si Si2 0.067621 0.566375 0.664955
Si Si3 0.105166 0.186173 0.962945
Si Si4 0.745200 0.889311 0.511920
Si Si5 0.638468 0.453468 0.387267
Si Si6 0.340939 0.758344 0.377965
Si Si7 0.288269 0.249981 0.116256
O O1 0.121652 0.199825 0.679784
O O2 0.174141 0.490657 0.832084
O O3 0.854348 0.120466 0.705710
O O4 0.896232 0.355575 0.140269
O O5 0.266761 0.670341 0.489801
O O6 0.883295 0.329336 0.561033
O O7 0.933747 0.651088 0.852035
O O8 0.256915 0.155120 0.682706
O O9 0.202223 0.249580 0.071695
O O10 0.878029 0.978222 0.942239
O O11 0.522140 0.768231 0.663713
O O12 0.500000 0.500000 0.500000
O O13 0.709344 0.601087 0.608119
O O14 0.500000 0.000000 0.500000
O O15 0.479066 0.695470 0.084017
#
# Coordination Sequence:
#
# PCOD9081003 Si02
#       7
#     2   2   2   2   2   2   2
#     4   9  17  31  49  78 111 134 183 226 272 328
#     4  10  22  37  58  83 112 153 184 231 280 334
#     4  10  20  36  57  87 115 146 187 227 291 329
#     4   9  17  29  51  78 108 141 172 231 279 327
#     4  10  19  30  51  82 110 141 180 229 284 321
#     4  11  22  37  55  81 116 149 191 228 276 331
#     4  11  21  35  58  86 118 147 181 239 278 332
#
# _framework density 25.227875999999998
#
# number of rings (size 3 to 8) (size 9 to 14) (size 15 to 20)
#    0.000    2.000    2.857    2.571    2.000    3.429 
#    0.000    0.000    0.000    0.857    0.000   19.000 
#    0.000    0.000    0.000    0.000    0.000    0.000 
#
# Total GULP energy -78310.739582 kJ/mol
# GULP energy per Si atom -5593.624256 kJ/mol
# Density = 2.517046 g / cm^3
# Si number density = 25.227876 Si / 1000 Ang^3
#
#
#
# Elastic Constant Matrix: (Units=GPa)
#
#
# Indices 1 2 3 4 5 6 
#
# 1 29.0570 11.5856 19.3092 -3.9218 6.0072 6.3777
# 2 11.5856 135.0403 27.2551 -18.0144 -3.2142 -9.5827
# 3 19.3092 27.2551 132.0715 -20.5385 15.5522 -4.5961
# 4 -3.9218 -18.0144 -20.5385 49.5874 2.9148 5.8401
# 5 6.0072 -3.2142 15.5522 2.9148 39.4437 -6.6862
# 6 6.3777 -9.5827 -4.5961 5.8401 -6.6862 28.9681
#
#
#
# Elastic Compliance Matrix: (Units=1/GPa)
#
#
# Indices 1 2 3 4 5 6 
#
# 1 0.044065 -0.003657 -0.004938 0.002192 -0.007578 -0.013886
# 2 -0.003657 0.008478 -0.001062 0.001805 0.002139 0.003571
# 3 -0.004938 -0.001062 0.009410 0.003205 -0.003136 0.000859
# 4 0.002192 0.001805 0.003205 0.023143 -0.004002 -0.004967
# 5 -0.007578 0.002139 -0.003136 -0.004002 0.029836 0.009572
# 6 -0.013886 0.003571 0.000859 -0.004967 0.009572 0.042106
#
#
# Mechanical properties :
#
#
# Convention : Reuss Voigt Hill
#
# Bulk Modulus (GPa) = 23.45220 45.82985 34.64102
# Shear Modulus (GPa) = 26.23780 39.46776 32.85278
#
# Velocity S-wave (km/s) = 3.22845 3.95960 3.61257
# Velocity P-wave (km/s) = 4.81804 6.25383 5.58229
#
# Compressibility (1/GPa) = 0.04263993
#
# Stress axis : x y z
#
# Youngs Moduli (GPa) = 22.69386 117.94758 106.26769
#
# Poissons Ratio (x) = 0.43136 0.52471
# Poissons Ratio (y) = 0.08300 0.11284
# Poissons Ratio (z) = 0.11205 0.12524
#
# Static dielectric constant tensor:
#      x y z
#    x 2.094780 -0.003070 -0.040830 
#    y -0.003070 1.990990 0.017930 
#    z -0.040830 0.017930 2.010440 
# 
# From -- ./inp_files/256750.got.cif
#   From: 2010.05.17/outbox.cif.g08.bks.cpg/sg2_129_cif.got.tgz:256750.got - 2010.06.03 11:33:40.
