data_PCOD9081510
_publ_section_title
;
Structure prediction by ZEFSAII (Michael W. Deem and Ramdas Pophale) SiO2 
 PCOD9081510
Probable space group: P -1
;
_chemical_formula_sum "Si O2"
_cell_formula_units_Z 16
_cell_length_a 15.323783
_cell_length_b 9.674773
_cell_length_c 7.672635
_cell_angle_alpha 130.955587
_cell_angle_beta 129.081137
_cell_angle_gamma 51.184673
_cell_volume 621.014927
_symmetry_space_group_name_H-M "P -1"
_symmetry_group_IT_number 2
_symmetry_cell_setting 'triclinic'
loop_
_space_group_symop_operation_xyz
x,y,z
-x,-y,-z
loop_
_atom_site_type_symbol
_atom_site_label
_atom_site_fract_x
_atom_site_fract_y
_atom_site_fract_z
Si Si1 0.348724 0.646129 0.251168
Si Si2 0.451107 0.753853 0.786555
Si Si3 0.845702 0.450698 0.944798
Si Si4 0.070560 0.177032 0.417301
Si Si5 0.153027 0.445843 0.555087
Si Si6 0.357822 0.589741 0.845177
Si Si7 0.745939 0.880846 0.086809
Si Si8 0.955632 0.916147 0.202682
O O1 0.433397 0.727624 0.537314
O O2 0.417003 0.405555 0.135302
O O3 0.233129 0.685459 0.256636
O O4 0.314131 0.720641 0.074099
O O5 0.365662 0.674129 0.735202
O O6 0.393907 0.982710 0.955728
O O7 0.971277 0.315604 0.911825
O O8 0.846635 0.500798 0.193427
O O9 0.777985 0.649222 0.919348
O O10 0.123486 0.247484 0.370608
O O11 0.181768 0.108900 0.636193
O O12 0.962232 0.375357 0.514100
O O13 0.000437 0.027429 0.202547
O O14 0.275216 0.455768 0.635307
O O15 0.500000 0.500000 0.000000
O O16 0.816668 0.950130 0.084909
O O17 0.000000 0.000000 0.500000
#
# Coordination Sequence:
#
# PCOD9081510 Si02
#       8
#     2   2   2   2   2   2   2   2
#     4   9  19  35  58  85 112 149 194 237 281 341
#     4  10  19  35  60  85 113 154 192 231 289 343
#     4  10  20  34  52  78 112 149 191 240 288 340
#     4   9  18  32  51  76 107 146 186 224 279 343
#     4   9  18  33  52  78 111 147 187 232 285 340
#     4   9  18  34  58  87 117 149 190 237 285 339
#     4  10  20  33  52  81 114 149 190 236 288 344
#     4  10  19  32  51  73 103 144 185 229 281 337
#
# _framework density 25.764275000000001
#
# number of rings (size 3 to 8) (size 9 to 14) (size 15 to 20)
#    0.000    2.500    0.000    2.625    0.000    2.000 
#    0.000    2.500    0.000    6.000    0.000   48.125 
#    0.000    0.000    0.000    0.000    0.000    0.000 
#
# Total GULP energy -89198.595133 kJ/mol
# GULP energy per Si atom -5574.912196 kJ/mol
# Density = 2.570563 g / cm^3
# Si number density = 25.764275 Si / 1000 Ang^3
#
#
#
# Elastic Constant Matrix: (Units=GPa)
#
#
# Indices 1 2 3 4 5 6 
#
# 1 130.9806 44.3173 20.4291 2.8140 23.1436 -2.7346
# 2 44.3173 108.8677 20.7004 17.3372 -7.4240 -8.8393
# 3 20.4291 20.7004 65.0717 -7.8660 -18.0894 13.5193
# 4 2.8140 17.3372 -7.8660 37.2388 8.8274 -6.5388
# 5 23.1436 -7.4240 -18.0894 8.8274 41.0911 -0.0133
# 6 -2.7346 -8.8393 13.5193 -6.5388 -0.0133 51.5686
#
#
#
# Elastic Compliance Matrix: (Units=1/GPa)
#
#
# Indices 1 2 3 4 5 6 
#
# 1 0.011920 -0.004992 -0.005000 0.003113 -0.010485 0.001479
# 2 -0.004992 0.013374 -0.002325 -0.007417 0.005799 0.001698
# 3 -0.005000 -0.002325 0.022548 0.002318 0.011822 -0.006278
# 4 0.003113 -0.007417 0.002318 0.033179 -0.009199 0.002491
# 5 -0.010485 0.005799 0.011822 -0.009199 0.038469 -0.003818
# 6 0.001479 0.001698 -0.006278 0.002491 -0.003818 0.021722
#
#
# Mechanical properties :
#
#
# Convention : Reuss Voigt Hill
#
# Bulk Modulus (GPa) = 43.08781 52.86817 47.97799
# Shear Modulus (GPa) = 28.80469 40.61124 34.70797
#
# Velocity S-wave (km/s) = 3.34729 3.97452 3.67432
# Velocity P-wave (km/s) = 5.63021 6.45189 6.05501
#
# Compressibility (1/GPa) = 0.02320842
#
# Stress axis : x y z
#
# Youngs Moduli (GPa) = 83.88945 74.77114 44.34992
#
# Poissons Ratio (x) = 0.37329 0.22175
# Poissons Ratio (y) = 0.41881 0.10310
# Poissons Ratio (z) = 0.41946 0.17381
#
# Static dielectric constant tensor:
#      x y z
#    x 2.096940 0.051580 -0.013490 
#    y 0.051580 2.100570 0.036990 
#    z -0.013490 0.036990 2.096950 
# 
# From -- ./inp_files/299559.got.cif
#   From: 2010.05.17/outbox.cif.g08.bks.cpg/sg2_150_cif.got.tgz:299559.got - 2010.06.03 11:33:40.
