data_PCOD9081878
_publ_section_title
;
Structure prediction by ZEFSAII (Michael W. Deem and Ramdas Pophale) SiO2 
 PCOD9081878
Probable space group: P -1
;
_chemical_formula_sum "Si O2"
_cell_formula_units_Z 16
_cell_length_a 11.822537
_cell_length_b 14.225310
_cell_length_c 20.245141
_cell_angle_alpha 26.704330
_cell_angle_beta 29.786046
_cell_angle_gamma 47.527938
_cell_volume 679.415129
_symmetry_space_group_name_H-M "P -1"
_symmetry_group_IT_number 2
_symmetry_cell_setting 'triclinic'
loop_
_space_group_symop_operation_xyz
x,y,z
-x,-y,-z
loop_
_atom_site_type_symbol
_atom_site_label
_atom_site_fract_x
_atom_site_fract_y
_atom_site_fract_z
Si Si1 0.171750 0.530877 0.154238
Si Si2 0.091702 0.081523 0.050741
Si Si3 0.225914 0.509589 0.797873
Si Si4 0.421981 0.383930 0.003651
Si Si5 0.675766 0.867659 0.507886
Si Si6 0.433396 0.718623 0.383769
Si Si7 0.933473 0.804576 0.799200
Si Si8 0.318306 0.050424 0.752229
O O1 0.310320 0.571639 0.129225
O O2 0.868496 0.397645 0.400109
O O3 0.261251 0.394997 0.141467
O O4 0.296267 0.801776 0.896537
O O5 0.128417 0.339488 0.891604
O O6 0.384603 0.130725 0.863416
O O7 0.888475 0.920473 0.309610
O O8 0.966005 0.996504 0.095381
O O9 0.505073 0.717842 0.522849
O O10 0.054246 0.643440 0.808790
O O11 0.203524 0.336764 0.976990
O O12 0.490226 0.600298 0.783372
O O13 0.246163 0.166769 0.182727
O O14 0.500000 0.000000 0.500000
O O15 0.835046 0.966997 0.432381
O O16 0.500000 0.500000 0.500000
O O17 0.538833 0.880312 0.293670
#
# Coordination Sequence:
#
# PCOD9081878 Si02
#       8
#     2   2   2   2   2   2   2   2
#     4  11  26  40  60  88 124 167 199 246 299 364
#     4  11  22  36  58  93 119 152 197 255 303 347
#     4  10  19  32  56  90 121 145 196 252 299 348
#     4  11  23  43  60  88 128 158 203 246 300 365
#     4  11  22  37  64  93 122 155 202 254 304 352
#     4  12  24  40  60  91 126 156 204 257 296 355
#     4  10  19  33  57  86 119 157 192 245 305 356
#     4  12  20  36  61  88 119 159 199 244 307 354
#
# _framework density 23.549668
#
# number of rings (size 3 to 8) (size 9 to 14) (size 15 to 20)
#    0.000    1.000    2.500    7.125    0.000    1.000 
#    0.000    3.750    0.000    3.750    0.000    0.000 
#    0.000    0.000    0.000    0.000    0.000    0.000 
#
# Total GULP energy -89280.284577 kJ/mol
# GULP energy per Si atom -5580.017786 kJ/mol
# Density = 2.349607 g / cm^3
# Si number density = 23.549668 Si / 1000 Ang^3
#
#
#
# Elastic Constant Matrix: (Units=GPa)
#
#
# Indices 1 2 3 4 5 6 
#
# 1 125.0289 22.0484 31.3569 5.1540 -61.3598 19.5225
# 2 22.0484 31.4026 27.9929 7.6947 -20.3848 14.3016
# 3 31.3569 27.9929 122.8294 13.2446 -38.7873 4.6241
# 4 5.1540 7.6947 13.2446 38.7495 0.0829 -4.9105
# 5 -61.3598 -20.3848 -38.7873 0.0829 50.6390 -5.7147
# 6 19.5225 14.3016 4.6241 -4.9105 -5.7147 30.7203
#
#
#
# Elastic Compliance Matrix: (Units=1/GPa)
#
#
# Indices 1 2 3 4 5 6 
#
# 1 0.027583 0.014126 0.004296 -0.010427 0.040281 -0.018925
# 2 0.014126 0.073697 -0.004470 -0.019953 0.039043 -0.038540
# 3 0.004296 -0.004470 0.012648 -0.004135 0.013011 -0.000793
# 4 -0.010427 -0.019953 -0.004135 0.034903 -0.021853 0.018051
# 5 0.040281 0.039043 0.013011 -0.021853 0.090621 -0.032368
# 6 -0.018925 -0.038540 -0.000793 0.018051 -0.032368 0.059504
#
#
# Mechanical properties :
#
#
# Convention : Reuss Voigt Hill
#
# Bulk Modulus (GPa) = 7.05068 49.11746 28.08407
# Shear Modulus (GPa) = 15.70695 37.21261 26.45978
#
# Velocity S-wave (km/s) = 2.58538 3.97945 3.35561
# Velocity P-wave (km/s) = 3.45148 6.48205 5.19277
#
# Compressibility (1/GPa) = 0.14183035
#
# Stress axis : x y z
#
# Youngs Moduli (GPa) = 36.25438 13.56907 79.06538
#
# Poissons Ratio (x) = -0.19168 -0.33965
# Poissons Ratio (y) = -0.51213 0.35345
# Poissons Ratio (z) = -0.15574 0.06066
#
# Static dielectric constant tensor:
#      x y z
#    x 1.987330 -0.009200 0.022910 
#    y -0.009200 1.945300 0.023570 
#    z 0.022910 0.023570 1.920920 
# 
# From -- ./inp_files/595614.got.cif
#   From: 2010.05.17/outbox.cif.g08.bks.cpg/sg2_298_cif.got.tgz:595614.got - 2010.06.03 11:33:40.
