data_PCOD9081131
_publ_section_title
;
Structure prediction by ZEFSAII (Michael W. Deem and Ramdas Pophale) SiO2 
 PCOD9081131
Probable space group: P -1
;
_chemical_formula_sum "Si O2"
_cell_formula_units_Z 16
_cell_length_a 20.286239
_cell_length_b 11.288236
_cell_length_c 16.975353
_cell_angle_alpha 39.986366
_cell_angle_beta 160.976327
_cell_angle_gamma 137.885496
_cell_volume 811.409675
_symmetry_space_group_name_H-M "P -1"
_symmetry_group_IT_number 2
_symmetry_cell_setting 'triclinic'
loop_
_space_group_symop_operation_xyz
x,y,z
-x,-y,-z
loop_
_atom_site_type_symbol
_atom_site_label
_atom_site_fract_x
_atom_site_fract_y
_atom_site_fract_z
Si Si1 0.823722 0.565202 0.118513
Si Si2 0.263265 0.007874 0.209246
Si Si3 0.772320 0.328344 0.560101
Si Si4 0.613539 0.638771 0.996892
Si Si5 0.116929 0.313925 0.241228
Si Si6 0.450875 0.490292 0.642306
Si Si7 0.761169 0.035038 0.982653
Si Si8 0.570758 0.696409 0.520862
O O1 0.051801 0.557930 0.348973
O O2 0.762773 0.545332 0.151866
O O3 0.655120 0.438879 0.942979
O O4 0.787648 0.780955 0.952025
O O5 0.159635 0.860241 0.228790
O O6 0.226727 0.949694 0.106801
O O7 0.500000 0.000000 0.500000
O O8 0.572340 0.287795 0.301273
O O9 0.693259 0.438903 0.489034
O O10 0.731243 0.818516 0.077148
O O11 0.500000 0.500000 0.000000
O O12 0.304942 0.354054 0.493055
O O13 0.208257 0.258902 0.288177
O O14 0.000000 0.500000 0.000000
O O15 0.960548 0.152247 0.178514
O O16 0.538336 0.650119 0.599137
O O17 0.571545 0.142875 0.741526
O O18 0.500000 0.500000 0.500000
#
# Coordination Sequence:
#
# PCOD9081131 Si02
#       8
#     2   2   2   2   2   2   2   2
#     4  10  22  33  58  81 107 155 183 234 295 334
#     4  11  17  34  49  83 120 141 184 227 287 354
#     4  11  20  35  58  82 111 150 187 232 293 339
#     4  10  24  43  58  81 114 146 202 248 272 328
#     4  11  21  31  50  83 123 157 181 216 279 350
#     4  10  20  32  48  81 121 146 181 220 267 350
#     4  11  20  35  55  84 118 154 184 225 290 333
#     4  10  19  31  48  78 121 153 178 213 268 344
#
# _framework density 19.718768000000001
#
# number of rings (size 3 to 8) (size 9 to 14) (size 15 to 20)
#    0.000    1.500    7.500    0.375    3.500    2.500 
#    0.000    0.000    0.000    3.000    0.000   15.750 
#    0.000    0.000    0.000    0.000    0.000    0.000 
#
# Total GULP energy -89183.905753 kJ/mol
# GULP energy per Si atom -5573.994110 kJ/mol
# Density = 1.967389 g / cm^3
# Si number density = 19.718768 Si / 1000 Ang^3
#
#
#
# Elastic Constant Matrix: (Units=GPa)
#
#
# Indices 1 2 3 4 5 6 
#
# 1 94.7367 35.3601 20.0628 8.9189 28.7861 21.3885
# 2 35.3601 81.7764 14.6733 21.9036 1.9670 11.7125
# 3 20.0628 14.6733 39.4363 21.3530 23.7370 -1.9703
# 4 8.9189 21.9036 21.3530 26.0965 8.0766 -0.6014
# 5 28.7861 1.9670 23.7370 8.0766 32.5879 8.2384
# 6 21.3885 11.7125 -1.9703 -0.6014 8.2384 34.1548
#
#
#
# Elastic Compliance Matrix: (Units=1/GPa)
#
#
# Indices 1 2 3 4 5 6 
#
# 1 0.019646 -0.008978 0.000389 0.005734 -0.017269 -0.004935
# 2 -0.008978 0.021832 -0.003680 -0.017036 0.015033 -0.006003
# 3 0.000389 -0.003680 0.091813 -0.053565 -0.058657 0.019520
# 4 0.005734 -0.017036 -0.053565 0.090344 0.013204 -0.002433
# 5 -0.017269 0.015033 -0.058657 0.013204 0.089298 -0.019032
# 6 -0.004935 -0.006003 0.019520 -0.002433 -0.019032 0.040101
#
#
# Mechanical properties :
#
#
# Convention : Reuss Voigt Hill
#
# Bulk Modulus (GPa) = 9.19522 39.57132 24.38327
# Shear Modulus (GPa) = 12.08242 28.29139 20.18690
#
# Velocity S-wave (km/s) = 2.47804 3.79191 3.20307
# Velocity P-wave (km/s) = 3.58621 6.26760 5.10606
#
# Compressibility (1/GPa) = 0.10875211
#
# Stress axis : x y z
#
# Youngs Moduli (GPa) = 50.90132 45.80404 10.89169
#
# Poissons Ratio (x) = 0.41124 -0.00424
# Poissons Ratio (y) = 0.45701 0.04008
# Poissons Ratio (z) = -0.01979 0.16856
#
# Static dielectric constant tensor:
#      x y z
#    x 1.749930 0.002540 0.002850 
#    y 0.002540 1.739020 0.030890 
#    z 0.002850 0.030890 1.725680 
# 
# From -- ./inp_files/431800.got.cif
#   From: 2010.05.17/outbox.cif.g08.bks.cpg/sg2_216_cif.got.tgz:431800.got - 2010.06.03 11:33:40.
