data_PCOD9081267
_publ_section_title
;
Structure prediction by ZEFSAII (Michael W. Deem and Ramdas Pophale) SiO2 
 PCOD9081267
Probable space group: P -1
;
_chemical_formula_sum "Si O2"
_cell_formula_units_Z 16
_cell_length_a 19.038266
_cell_length_b 12.758254
_cell_length_c 8.360829
_cell_angle_alpha 62.115440
_cell_angle_beta 148.603197
_cell_angle_gamma 137.668507
_cell_volume 630.541040
_symmetry_space_group_name_H-M "P -1"
_symmetry_group_IT_number 2
_symmetry_cell_setting 'triclinic'
loop_
_space_group_symop_operation_xyz
x,y,z
-x,-y,-z
loop_
_atom_site_type_symbol
_atom_site_label
_atom_site_fract_x
_atom_site_fract_y
_atom_site_fract_z
Si Si1 0.997955 0.918189 0.296326
Si Si2 0.771519 0.720417 0.676652
Si Si3 0.631443 0.470164 0.326724
Si Si4 0.766409 0.127029 0.017412
Si Si5 0.648373 0.853477 0.776993
Si Si6 0.444784 0.884992 0.822048
Si Si7 0.113977 0.505324 0.453152
Si Si8 0.443164 0.667960 0.178408
O O1 0.097951 0.879135 0.617126
O O2 0.139437 0.119400 0.377942
O O3 0.909285 0.809183 0.036609
O O4 0.819647 0.865785 0.083399
O O5 0.755507 0.592401 0.635016
O O6 0.549683 0.614540 0.379733
O O7 0.486116 0.272478 0.245417
O O8 0.774503 0.512453 0.439085
O O9 0.500000 0.500000 0.000000
O O10 0.883034 0.327379 0.105685
O O11 0.564055 0.002801 0.815009
O O12 0.737279 0.039669 0.856404
O O13 0.523837 0.764747 0.434783
O O14 0.522448 0.808453 0.094282
O O15 0.210881 0.698179 0.477007
O O16 0.500000 0.000000 0.000000
O O17 0.206131 0.525981 0.790440
#
# Coordination Sequence:
#
# PCOD9081267 Si02
#       8
#     2   2   2   2   2   2   2   2
#     4  10  20  32  50  88 118 161 195 224 287 348
#     4  10  19  31  53  80 125 157 192 236 275 351
#     4  12  19  33  54  83 122 165 198 229 281 346
#     4  12  21  39  61  88 118 155 196 245 291 353
#     4  11  22  33  59  84 129 162 191 238 291 343
#     4  10  22  44  67  83 113 153 197 254 305 348
#     4  10  22  38  61  86 118 150 205 237 291 356
#     4   9  20  40  54  88 118 157 201 237 293 352
#
# _framework density 25.375032999999998
#
# number of rings (size 3 to 8) (size 9 to 14) (size 15 to 20)
#    0.750    0.750    3.750    2.625    1.750    1.500 
#    0.000    0.625    0.000    0.750    0.000    0.000 
#    0.000    0.000    0.000    0.000    0.000    0.000 
#
# Total GULP energy -89508.595310 kJ/mol
# GULP energy per Si atom -5594.287207 kJ/mol
# Density = 2.531728 g / cm^3
# Si number density = 25.375033 Si / 1000 Ang^3
#
#
#
# Elastic Constant Matrix: (Units=GPa)
#
#
# Indices 1 2 3 4 5 6 
#
# 1 68.9984 16.5430 24.0942 12.5774 -29.1989 -13.1362
# 2 16.5430 87.1552 34.3940 35.6594 4.6735 2.7238
# 3 24.0942 34.3940 80.4404 10.2986 -19.9124 -13.3120
# 4 12.5774 35.6594 10.2986 50.5269 -11.9839 -8.2136
# 5 -29.1989 4.6735 -19.9124 -11.9839 36.6501 13.6350
# 6 -13.1362 2.7238 -13.3120 -8.2136 13.6350 36.1713
#
#
#
# Elastic Compliance Matrix: (Units=1/GPa)
#
#
# Indices 1 2 3 4 5 6 
#
# 1 0.025430 -0.009337 0.001900 0.005902 0.023212 0.003228
# 2 -0.009337 0.029195 -0.013765 -0.022124 -0.023310 -0.006892
# 3 0.001900 -0.013765 0.021411 0.009586 0.015879 0.005797
# 4 0.005902 -0.022124 0.009586 0.038558 0.022509 0.007608
# 5 0.023212 -0.023310 0.015879 0.022509 0.066149 -0.003795
# 6 0.003228 -0.006892 0.005797 0.007608 -0.003795 0.034629
#
#
# Mechanical properties :
#
#
# Convention : Reuss Voigt Hill
#
# Bulk Modulus (GPa) = 29.73378 42.96182 36.34780
# Shear Modulus (GPa) = 18.58825 35.44050 27.01437
#
# Velocity S-wave (km/s) = 2.70949 3.74126 3.26637
# Velocity P-wave (km/s) = 4.64021 5.96910 5.34611
#
# Compressibility (1/GPa) = 0.03363178
#
# Stress axis : x y z
#
# Youngs Moduli (GPa) = 39.32398 34.25202 46.70537
#
# Poissons Ratio (x) = 0.31981 -0.08872
# Poissons Ratio (y) = 0.36717 0.64289
# Poissons Ratio (z) = -0.07470 0.47147
#
# Static dielectric constant tensor:
#      x y z
#    x 1.948510 0.009090 -0.004170 
#    y 0.009090 2.067080 0.056580 
#    z -0.004170 0.056580 2.082070 
# 
# From -- ./inp_files/346902.got.cif
#   From: 2010.05.17/outbox.cif.g08.bks.cpg/sg2_174_cif.got.tgz:346902.got - 2010.06.03 11:33:40.
