data_PCOD9081030
_publ_section_title
;
Structure prediction by ZEFSAII (Michael W. Deem and Ramdas Pophale) SiO2 
 PCOD9081030
Probable space group: P -1
;
_chemical_formula_sum "Si O2"
_cell_formula_units_Z 16
_cell_length_a 11.807884
_cell_length_b 8.712275
_cell_length_c 9.458008
_cell_angle_alpha 48.392517
_cell_angle_beta 114.330753
_cell_angle_gamma 125.296078
_cell_volume 593.134657
_symmetry_space_group_name_H-M "P -1"
_symmetry_group_IT_number 2
_symmetry_cell_setting 'triclinic'
loop_
_space_group_symop_operation_xyz
x,y,z
-x,-y,-z
loop_
_atom_site_type_symbol
_atom_site_label
_atom_site_fract_x
_atom_site_fract_y
_atom_site_fract_z
Si Si1 0.795187 0.437618 0.619560
Si Si2 0.190259 0.990968 0.210804
Si Si3 0.495085 0.277527 0.253566
Si Si4 0.932400 0.800952 0.779182
Si Si5 0.902135 0.454143 0.205667
Si Si6 0.775378 0.695909 0.193952
Si Si7 0.785718 0.963136 0.381088
Si Si8 0.497477 0.886149 0.321972
O O1 0.783497 0.635428 0.398865
O O2 0.650556 0.283501 0.718435
O O3 0.941197 0.516195 0.723767
O O4 0.802188 0.246187 0.633300
O O5 0.331055 0.196063 0.217717
O O6 0.072689 0.013004 0.226858
O O7 0.186087 0.056708 0.004524
O O8 0.615979 0.534174 0.161317
O O9 0.513559 0.199120 0.468988
O O10 0.515408 0.140963 0.211585
O O11 0.090458 0.901627 0.747365
O O12 0.833739 0.807281 0.597152
O O13 0.883504 0.564222 0.982601
O O14 0.869972 0.601625 0.215875
O O15 0.804044 0.187773 0.344755
O O16 0.623915 0.865095 0.321987
#
# Coordination Sequence:
#
# PCOD9081030 Si02
#       8
#     2   2   2   2   2   2   2   2
#     4  10  22  36  54  85 116 146 168 226 286 330
#     4  10  19  33  53  85 116 135 183 225 272 332
#     4   9  15  30  52  82 112 137 175 230 275 313
#     4  10  23  35  59  84 105 148 186 233 265 309
#     4  11  22  37  56  83 115 141 186 223 273 330
#     4  10  19  30  53  83 108 149 172 217 282 323
#     4  11  20  40  60  80 107 145 192 229 263 317
#     4   9  17  32  58  79 108 145 182 222 274 319
#
# _framework density 26.975325000000002
#
# number of rings (size 3 to 8) (size 9 to 14) (size 15 to 20)
#    0.000    2.000    2.500    2.625    0.000    3.000 
#    0.000    0.625    0.000    3.000    3.250    0.000 
#    0.000    0.000    0.000    0.000    0.000    0.000 
#
# Total GULP energy -89513.490022 kJ/mol
# GULP energy per Si atom -5594.593126 kJ/mol
# Density = 2.691393 g / cm^3
# Si number density = 26.975325 Si / 1000 Ang^3
#
#
#
# Elastic Constant Matrix: (Units=GPa)
#
#
# Indices 1 2 3 4 5 6 
#
# 1 150.6626 12.4568 0.6301 3.3976 8.1743 35.0516
# 2 12.4568 80.9456 13.4992 12.5562 0.5243 28.9018
# 3 0.6301 13.4992 105.9783 -3.8551 4.3502 2.4819
# 4 3.3976 12.5562 -3.8551 33.6621 -4.2431 6.3402
# 5 8.1743 0.5243 4.3502 -4.2431 30.9215 5.8179
# 6 35.0516 28.9018 2.4819 6.3402 5.8179 39.6710
#
#
#
# Elastic Compliance Matrix: (Units=1/GPa)
#
#
# Indices 1 2 3 4 5 6 
#
# 1 0.008571 0.001840 -0.000052 0.000025 -0.000626 -0.008823
# 2 0.001840 0.018207 -0.002219 -0.004336 0.001612 -0.014295
# 3 -0.000052 -0.002219 0.009807 0.001608 -0.001292 0.000982
# 4 0.000025 -0.004336 0.001608 0.032666 0.004868 -0.002899
# 5 -0.000626 0.001612 -0.001292 0.004868 0.034529 -0.006382
# 6 -0.008823 -0.014295 0.000982 -0.002899 -0.006382 0.044755
#
#
# Mechanical properties :
#
#
# Convention : Reuss Voigt Hill
#
# Bulk Modulus (GPa) = 27.99298 43.41764 35.70531
# Shear Modulus (GPa) = 30.99704 41.58427 36.29066
#
# Velocity S-wave (km/s) = 3.39350 3.93054 3.67185
# Velocity P-wave (km/s) = 5.07486 6.06045 5.58942
#
# Compressibility (1/GPa) = 0.03572324
#
# Stress axis : x y z
#
# Youngs Moduli (GPa) = 116.66613 54.92386 101.96327
#
# Poissons Ratio (x) = -0.10106 0.00531
# Poissons Ratio (y) = -0.21466 0.22628
# Poissons Ratio (z) = 0.00608 0.12189
#
# Static dielectric constant tensor:
#      x y z
#    x 2.143080 -0.066030 -0.010970 
#    y -0.066030 2.224890 0.034740 
#    z -0.010970 0.034740 2.055470 
# 
# From -- ./inp_files/354949.got.cif
#   From: 2010.05.17/outbox.cif.g08.bks.cpg/sg2_178_cif.got.tgz:354949.got - 2010.06.03 11:33:40.
