data_PCOD9081619
_publ_section_title
;
Structure prediction by ZEFSAII (Michael W. Deem and Ramdas Pophale) SiO2 
 PCOD9081619
Probable space group: P -1
;
_chemical_formula_sum "Si O2"
_cell_formula_units_Z 16
_cell_length_a 8.644870
_cell_length_b 21.204405
_cell_length_c 13.418542
_cell_angle_alpha 22.806703
_cell_angle_beta 109.905064
_cell_angle_gamma 98.556213
_cell_volume 799.280847
_symmetry_space_group_name_H-M "P -1"
_symmetry_group_IT_number 2
_symmetry_cell_setting 'triclinic'
loop_
_space_group_symop_operation_xyz
x,y,z
-x,-y,-z
loop_
_atom_site_type_symbol
_atom_site_label
_atom_site_fract_x
_atom_site_fract_y
_atom_site_fract_z
Si Si1 0.854717 0.205700 0.698530
Si Si2 0.141782 0.939412 0.778949
Si Si3 0.319859 0.987310 0.944291
Si Si4 0.950952 0.364719 0.316033
Si Si5 0.623186 0.427458 0.760704
Si Si6 0.085537 0.657043 0.894860
Si Si7 0.284539 0.406064 0.638145
Si Si8 0.048951 0.243532 0.878510
O O1 0.816265 0.336590 0.405239
O O2 0.955899 0.264556 0.719707
O O3 0.694259 0.172994 0.761863
O O4 0.000000 0.000000 0.000000
O O5 0.282853 0.951519 0.873805
O O6 0.252205 0.764235 0.989956
O O7 0.982739 0.914014 0.843763
O O8 0.042218 0.129698 0.422954
O O9 0.146477 0.185519 0.636512
O O10 0.500000 0.000000 0.000000
O O11 0.897431 0.364635 0.189198
O O12 0.985482 0.539806 0.083686
O O13 0.418932 0.445120 0.684530
O O14 0.636834 0.584189 0.467520
O O15 0.718174 0.413809 0.906099
O O16 0.082376 0.578379 0.346170
O O17 0.245748 0.239851 0.907134
#
# Coordination Sequence:
#
# PCOD9081619 Si02
#       8
#     2   2   2   2   2   2   2   2
#     4   9  17  30  51  76  97 126 162 201 248 293
#     4   9  19  33  50  74 101 135 169 200 247 304
#     4   9  18  32  54  80 103 125 159 214 261 290
#     4   9  19  33  52  74  98 136 175 199 240 306
#     4  10  19  32  53  76  99 126 168 213 251 295
#     4  10  19  33  51  71 103 140 172 202 242 296
#     4   9  19  32  52  79  96 123 163 212 261 295
#     4   9  17  33  52  72 103 126 157 209 258 300
#
# _framework density 20.017996
#
# number of rings (size 3 to 8) (size 9 to 14) (size 15 to 20)
#    0.000    2.750    0.000    1.875    0.000    6.000 
#    0.000    0.625    0.000   22.500    0.000    0.000 
#    0.000    0.000    0.000    0.000    0.000    0.000 
#
# Total GULP energy -89186.931920 kJ/mol
# GULP energy per Si atom -5574.183245 kJ/mol
# Density = 1.997243 g / cm^3
# Si number density = 20.017996 Si / 1000 Ang^3
#
#
#
# Elastic Constant Matrix: (Units=GPa)
#
#
# Indices 1 2 3 4 5 6 
#
# 1 91.8329 38.9634 31.2017 16.1422 -18.9170 34.7733
# 2 38.9634 47.6996 18.0260 11.4676 -10.6643 23.7035
# 3 31.2017 18.0260 88.1233 3.7147 -19.6044 9.0678
# 4 16.1422 11.4676 3.7147 30.4776 1.3063 6.8902
# 5 -18.9170 -10.6643 -19.6044 1.3063 27.4768 -4.4637
# 6 34.7733 23.7035 9.0678 6.8902 -4.4637 30.9971
#
#
#
# Elastic Compliance Matrix: (Units=1/GPa)
#
#
# Indices 1 2 3 4 5 6 
#
# 1 0.025194 -0.005474 -0.003221 -0.006752 0.009962 -0.020199
# 2 -0.005474 0.040253 -0.002190 -0.007471 0.007186 -0.021304
# 3 -0.003221 -0.002190 0.014396 -0.000040 0.007559 0.002175
# 4 -0.006752 -0.007471 -0.000040 0.038816 -0.008871 0.003394
# 5 0.009962 0.007186 0.007559 -0.008871 0.050286 -0.009669
# 6 -0.020199 -0.021304 0.002175 0.003394 -0.009669 0.068430
#
#
# Mechanical properties :
#
#
# Convention : Reuss Voigt Hill
#
# Bulk Modulus (GPa) = 17.21998 44.89312 31.05655
# Shear Modulus (GPa) = 17.95310 27.08797 22.52053
#
# Velocity S-wave (km/s) = 2.99799 3.68255 3.35776
# Velocity P-wave (km/s) = 4.53926 6.36841 5.52999
#
# Compressibility (1/GPa) = 0.05807207
#
# Stress axis : x y z
#
# Youngs Moduli (GPa) = 39.69185 24.84261 69.46509
#
# Poissons Ratio (x) = 0.13599 0.22377
# Poissons Ratio (y) = 0.21728 0.15213
# Poissons Ratio (z) = 0.12786 0.05441
#
# Static dielectric constant tensor:
#      x y z
#    x 1.774430 -0.032540 -0.012670 
#    y -0.032540 1.753280 -0.049110 
#    z -0.012670 -0.049110 1.734090 
# 
# From -- ./inp_files/180165.got.cif
#   From: 2010.05.17/outbox.cif.g08.bks.cpg/sg2_91_cif.got.tgz:180165.got - 2010.06.03 11:33:40.
