data_PCOD9081552
_publ_section_title
;
Structure prediction by ZEFSAII (Michael W. Deem and Ramdas Pophale) SiO2 
 PCOD9081552
Probable space group: P -1
;
_chemical_formula_sum "Si O2"
_cell_formula_units_Z 16
_cell_length_a 10.836688
_cell_length_b 21.714030
_cell_length_c 9.064421
_cell_angle_alpha 124.072073
_cell_angle_beta 102.313008
_cell_angle_gamma 33.697916
_cell_volume 818.537448
_symmetry_space_group_name_H-M "P -1"
_symmetry_group_IT_number 2
_symmetry_cell_setting 'triclinic'
loop_
_space_group_symop_operation_xyz
x,y,z
-x,-y,-z
loop_
_atom_site_type_symbol
_atom_site_label
_atom_site_fract_x
_atom_site_fract_y
_atom_site_fract_z
Si Si1 0.151716 0.163009 0.338090
Si Si2 0.861980 0.393152 0.305823
Si Si3 0.814183 0.563111 0.664024
Si Si4 0.620200 0.819138 0.028394
Si Si5 0.210380 0.384498 0.766825
Si Si6 0.508309 0.899123 0.452938
Si Si7 0.921205 0.249190 0.693938
Si Si8 0.375643 0.466931 0.859267
O O1 0.316137 0.140765 0.445199
O O2 0.984035 0.279051 0.312268
O O3 0.971110 0.218520 0.491182
O O4 0.373426 0.987710 0.114664
O O5 0.709800 0.540025 0.544838
O O6 0.669748 0.469658 0.226327
O O7 0.116592 0.289515 0.134995
O O8 0.000000 0.500000 0.500000
O O9 0.031633 0.434027 0.669842
O O10 0.623150 0.728003 0.891227
O O11 0.607113 0.847925 0.237519
O O12 0.455102 0.205070 0.628852
O O13 0.292913 0.423428 0.784303
O O14 0.000000 0.500000 0.000000
O O15 0.203442 0.084543 0.621050
O O16 0.684056 0.318133 0.776607
O O17 0.811698 0.388417 0.886749
#
# Coordination Sequence:
#
# PCOD9081552 Si02
#       8
#     2   2   2   2   2   2   2   2
#     4  11  21  34  60  86 112 144 188 239 280 328
#     4  11  20  34  56  86 113 143 186 230 288 324
#     4  10  19  32  51  86 112 143 175 229 286 325
#     4  10  19  33  51  83 120 139 176 235 283 326
#     4  12  20  34  61  88 110 143 188 237 281 325
#     4  11  21  35  60  87 113 142 194 239 276 328
#     4  10  24  41  57  80 113 158 189 225 283 331
#     4  11  23  41  58  78 119 152 187 231 277 345
#
# _framework density 19.547059999999998
#
# number of rings (size 3 to 8) (size 9 to 14) (size 15 to 20)
#    0.000    1.250    5.000    4.125    0.000    1.000 
#    0.000    0.000    0.000    3.000    0.000    0.000 
#    0.000    0.000    0.000    0.000    0.000    0.000 
#
# Total GULP energy -89166.799952 kJ/mol
# GULP energy per Si atom -5572.924997 kJ/mol
# Density = 1.950257 g / cm^3
# Si number density = 19.547060 Si / 1000 Ang^3
#
#
#
# Elastic Constant Matrix: (Units=GPa)
#
#
# Indices 1 2 3 4 5 6 
#
# 1 35.3551 18.3461 14.8420 19.4516 4.9837 6.6880
# 2 18.3461 78.5025 27.5784 9.9420 -0.1135 22.1368
# 3 14.8420 27.5784 76.6951 23.0555 7.4008 -2.5927
# 4 19.4516 9.9420 23.0555 36.4607 7.3590 3.2341
# 5 4.9837 -0.1135 7.4008 7.3590 23.7434 7.3336
# 6 6.6880 22.1368 -2.5927 3.2341 7.3336 29.0501
#
#
#
# Elastic Compliance Matrix: (Units=1/GPa)
#
#
# Indices 1 2 3 4 5 6 
#
# 1 0.044261 -0.007518 0.000774 -0.021425 -0.002502 -0.001375
# 2 -0.007518 0.022775 -0.009353 0.003513 0.009455 -0.019237
# 3 0.000774 -0.009353 0.020454 -0.010428 -0.006962 0.011693
# 4 -0.021425 0.003513 -0.010428 0.045856 -0.005727 -0.002335
# 5 -0.002502 0.009455 -0.006962 -0.005727 0.052791 -0.019940
# 6 -0.001375 -0.019237 0.011693 -0.002335 -0.019940 0.055736
#
#
# Mechanical properties :
#
#
# Convention : Reuss Voigt Hill
#
# Bulk Modulus (GPa) = 18.08487 34.67618 26.38053
# Shear Modulus (GPa) = 17.09396 26.50325 21.79860
#
# Velocity S-wave (km/s) = 2.96041 3.68621 3.34306
# Velocity P-wave (km/s) = 4.57793 5.99132 5.33166
#
# Compressibility (1/GPa) = 0.05529484
#
# Stress axis : x y z
#
# Youngs Moduli (GPa) = 22.59301 43.90858 48.88955
#
# Poissons Ratio (x) = 0.33011 -0.03783
# Poissons Ratio (y) = 0.16986 0.45728
# Poissons Ratio (z) = -0.01748 0.41069
#
# Static dielectric constant tensor:
#      x y z
#    x 1.712670 -0.000640 0.016780 
#    y -0.000640 1.711650 -0.000510 
#    z 0.016780 -0.000510 1.688490 
# 
# From -- ./inp_files/284953.got.cif
#   From: 2010.05.17/outbox.cif.g08.bks.cpg/sg2_143_cif.got.tgz:284953.got - 2010.06.03 11:33:40.
