data_PCOD9081617
_publ_section_title
;
Structure prediction by ZEFSAII (Michael W. Deem and Ramdas Pophale) SiO2 
 PCOD9081617
Probable space group: P -1
;
_chemical_formula_sum "Si O2"
_cell_formula_units_Z 16
_cell_length_a 14.253451
_cell_length_b 7.007938
_cell_length_c 27.112822
_cell_angle_alpha 64.216733
_cell_angle_beta 158.414876
_cell_angle_gamma 113.961862
_cell_volume 897.112692
_symmetry_space_group_name_H-M "P -1"
_symmetry_group_IT_number 2
_symmetry_cell_setting 'triclinic'
loop_
_space_group_symop_operation_xyz
x,y,z
-x,-y,-z
loop_
_atom_site_type_symbol
_atom_site_label
_atom_site_fract_x
_atom_site_fract_y
_atom_site_fract_z
Si Si1 0.591489 0.175179 0.954950
Si Si2 0.832001 0.803079 0.771534
Si Si3 0.172513 0.297676 0.333752
Si Si4 0.949071 0.779801 0.473978
Si Si5 0.594928 0.536373 0.394305
Si Si6 0.404669 0.734519 0.936791
Si Si7 0.111085 0.366471 0.643927
Si Si8 0.391060 0.749911 0.368619
O O1 0.357015 0.288095 0.801075
O O2 0.557529 0.920961 0.963303
O O3 0.574027 0.227333 0.998541
O O4 0.872750 0.241925 0.067687
O O5 0.806949 0.805011 0.699043
O O6 0.636287 0.620818 0.712916
O O7 0.753529 0.029245 0.729345
O O8 0.208689 0.551477 0.315970
O O9 0.394736 0.228675 0.486785
O O10 0.894046 0.247060 0.224163
O O11 0.682783 0.683233 0.375286
O O12 0.951559 0.785653 0.415766
O O13 0.144545 0.598955 0.608916
O O14 0.000000 0.000000 0.500000
O O15 0.522685 0.676936 0.390292
O O16 0.852886 0.398787 0.545986
O O17 0.500000 0.500000 0.000000
#
# Coordination Sequence:
#
# PCOD9081617 Si02
#       8
#     2   2   2   2   2   2   2   2
#     4  10  22  37  54  81 112 154 179 222 282 314
#     4  10  20  36  51  74 115 146 177 224 269 325
#     4   9  20  32  46  79 105 147 189 226 260 315
#     4   9  20  38  61  86 109 133 177 237 286 324
#     4   9  21  33  57  85 100 138 183 225 273 326
#     4  10  21  34  53  77 116 149 193 221 264 323
#     4   9  21  38  59  85 111 134 186 230 275 338
#     4  10  19  32  53  76 108 144 188 225 270 312
#
# _framework density 17.834996
#
# number of rings (size 3 to 8) (size 9 to 14) (size 15 to 20)
#    0.750    1.750    0.000    1.125    5.250    1.000 
#    4.500    0.625    0.000    1.500    0.000    0.000 
#    0.000    0.000    0.000    0.000    0.000    0.000 
#
# Total GULP energy -89148.531873 kJ/mol
# GULP energy per Si atom -5571.783242 kJ/mol
# Density = 1.779440 g / cm^3
# Si number density = 17.834996 Si / 1000 Ang^3
#
#
#
# Elastic Constant Matrix: (Units=GPa)
#
#
# Indices 1 2 3 4 5 6 
#
# 1 32.2935 22.8752 28.4071 3.9134 14.0544 -5.5231
# 2 22.8752 88.9111 47.4486 1.3126 10.8171 -19.6337
# 3 28.4071 47.4486 118.2554 4.9715 8.1262 -0.8738
# 4 3.9134 1.3126 4.9715 14.2093 3.0846 4.2051
# 5 14.0544 10.8171 8.1262 3.0846 23.0784 1.7626
# 6 -5.5231 -19.6337 -0.8738 4.2051 1.7626 23.9280
#
#
#
# Elastic Compliance Matrix: (Units=1/GPa)
#
#
# Indices 1 2 3 4 5 6 
#
# 1 0.059444 -0.002165 -0.010717 -0.010276 -0.031235 0.015660
# 2 -0.002165 0.019900 -0.006795 -0.002314 -0.006565 0.016471
# 3 -0.010717 -0.006795 0.013308 0.000066 0.005626 -0.007989
# 4 -0.010276 -0.002314 0.000066 0.079144 -0.001881 -0.018038
# 5 -0.031235 -0.006565 0.005626 -0.001881 0.064986 -0.016848
# 6 0.015660 0.016471 -0.007989 -0.018038 -0.016848 0.063041
#
#
# Mechanical properties :
#
#
# Convention : Reuss Voigt Hill
#
# Bulk Modulus (GPa) = 18.76166 48.54685 33.65425
# Shear Modulus (GPa) = 14.00785 21.62509 17.81647
#
# Velocity S-wave (km/s) = 2.80556 3.48589 3.16406
# Velocity P-wave (km/s) = 4.58665 6.59401 5.67971
#
# Compressibility (1/GPa) = 0.05330019
#
# Stress axis : x y z
#
# Youngs Moduli (GPa) = 16.82269 50.25026 75.14003
#
# Poissons Ratio (x) = 0.10878 0.80526
# Poissons Ratio (y) = 0.03642 0.51055
# Poissons Ratio (z) = 0.18029 0.34143
#
# Static dielectric constant tensor:
#      x y z
#    x 1.619330 0.008820 0.021040 
#    y 0.008820 1.617770 0.007580 
#    z 0.021040 0.007580 1.600870 
# 
# From -- ./inp_files/623327.got.cif
#   From: 2010.05.17/outbox.cif.g08.bks.cpg/sg2_312_cif.got.tgz:623327.got - 2010.06.03 11:33:40.
