data_PCOD9081185
_publ_section_title
;
Structure prediction by ZEFSAII (Michael W. Deem and Ramdas Pophale) SiO2 
 PCOD9081185
Probable space group: P -1
;
_chemical_formula_sum "Si O2"
_cell_formula_units_Z 13
_cell_length_a 9.486671
_cell_length_b 9.861014
_cell_length_c 9.436035
_cell_angle_alpha 137.024236
_cell_angle_beta 101.517740
_cell_angle_gamma 57.870699
_cell_volume 481.367643
_symmetry_space_group_name_H-M "P -1"
_symmetry_group_IT_number 2
_symmetry_cell_setting 'triclinic'
loop_
_space_group_symop_operation_xyz
x,y,z
-x,-y,-z
loop_
_atom_site_type_symbol
_atom_site_label
_atom_site_fract_x
_atom_site_fract_y
_atom_site_fract_z
Si Si1 0.790289 0.027634 0.460467
Si Si2 0.265194 0.602860 0.036130
Si Si3 0.338822 0.664998 0.779370
Si Si4 0.508965 0.961829 0.305101
Si Si5 0.747050 0.425127 0.593815
Si Si6 0.695875 0.874914 0.878546
Si Si7 0.000000 0.500000 0.000000
O O1 0.733042 0.192271 0.717492
O O2 0.858601 0.161835 0.485782
O O3 0.626995 0.060014 0.362500
O O4 0.896490 0.739062 0.272140
O O5 0.311722 0.607739 0.887445
O O6 0.396595 0.327791 0.917376
O O7 0.083818 0.630344 0.039228
O O8 0.545791 0.542156 0.694310
O O9 0.260119 0.587224 0.584862
O O10 0.242381 0.952683 0.953930
O O11 0.500000 0.000000 0.500000
O O12 0.338467 0.106352 0.283106
O O13 0.796250 0.614973 0.776685
O O14 0.500000 0.000000 0.000000
#
# Coordination Sequence:
#
# PCOD9081185 Si02
#       7
#     2   2   2   2   2   2   1
#     4  11  22  39  61  81 112 155 197 244 292 335
#     4  11  22  39  62  84 113 155 200 243 287 335
#     4  10  20  35  58  90 124 153 180 223 288 356
#     4  11  21  32  54  91 122 145 182 229 282 350
#     4  10  20  35  57  89 124 152 179 224 289 357
#     4  10  19  31  50  84 122 150 177 211 270 350
#     4  10  26  44  60  82 108 148 210 262 288 324
#
# _framework density 27.006387
#
# number of rings (size 3 to 8) (size 9 to 14) (size 15 to 20)
#    0.000    1.538    0.000    7.846    0.000    4.308 
#    0.000    0.769    0.000    2.769    0.000    0.000 
#    0.000    0.000    0.000    0.000    0.000    0.000 
#
# Total GULP energy -72462.544642 kJ/mol
# GULP energy per Si atom -5574.041896 kJ/mol
# Density = 2.694492 g / cm^3
# Si number density = 27.006387 Si / 1000 Ang^3
#
#
#
# Elastic Constant Matrix: (Units=GPa)
#
#
# Indices 1 2 3 4 5 6 
#
# 1 58.9562 5.9981 15.2376 2.0569 13.2730 20.9299
# 2 5.9981 156.3715 63.3125 29.6067 -9.4685 23.0659
# 3 15.2376 63.3125 174.5708 18.9422 10.3503 16.2479
# 4 2.0569 29.6067 18.9422 73.1954 19.4189 2.0122
# 5 13.2730 -9.4685 10.3503 19.4189 19.9648 7.5556
# 6 20.9299 23.0659 16.2479 2.0122 7.5556 41.9359
#
#
#
# Elastic Compliance Matrix: (Units=1/GPa)
#
#
# Indices 1 2 3 4 5 6 
#
# 1 0.024065 -0.001932 -0.000135 0.005457 -0.019243 -0.007690
# 2 -0.001932 0.012081 -0.003748 -0.009147 0.020700 -0.007519
# 3 -0.000135 -0.003748 0.007312 0.001507 -0.007137 0.000509
# 4 0.005457 -0.009147 0.001507 0.026500 -0.037232 0.007161
# 5 -0.019243 0.020700 -0.007137 -0.037232 0.119727 -0.018801
# 6 -0.007690 -0.007519 0.000509 0.007161 -0.018801 0.034666
#
#
# Mechanical properties :
#
#
# Convention : Reuss Voigt Hill
#
# Bulk Modulus (GPa) = 31.41952 62.11055 46.76504
# Shear Modulus (GPa) = 20.27653 47.37592 33.82623
#
# Velocity S-wave (km/s) = 2.74305 4.19292 3.54295
# Velocity P-wave (km/s) = 4.65745 6.81830 5.83871
#
# Compressibility (1/GPa) = 0.03182735
#
# Stress axis : x y z
#
# Youngs Moduli (GPa) = 41.55372 82.77459 136.77013
#
# Poissons Ratio (x) = 0.15994 0.01849
# Poissons Ratio (y) = 0.08029 0.51258
# Poissons Ratio (z) = 0.00562 0.31022
#
# Static dielectric constant tensor:
#      x y z
#    x 1.978250 0.768930 -0.114800 
#    y 0.768930 -0.859500 0.170380 
#    z -0.114800 0.170380 2.144830 
# 
# From -- ./inp_files/236203.got.cif
#   From: 2010.05.17/outbox.cif.g08.bks.cpg/sg2_119_cif.got.tgz:236203.got - 2010.06.03 11:33:40.
