data_PCOD9081340
_publ_section_title
;
Structure prediction by ZEFSAII (Michael W. Deem and Ramdas Pophale) SiO2 
 PCOD9081340
Probable space group: P -1
;
_chemical_formula_sum "Si O2"
_cell_formula_units_Z 16
_cell_length_a 14.460358
_cell_length_b 14.606858
_cell_length_c 11.568234
_cell_angle_alpha 138.680262
_cell_angle_beta 51.590471
_cell_angle_gamma 150.942637
_cell_volume 778.818649
_symmetry_space_group_name_H-M "P -1"
_symmetry_group_IT_number 2
_symmetry_cell_setting 'triclinic'
loop_
_space_group_symop_operation_xyz
x,y,z
-x,-y,-z
loop_
_atom_site_type_symbol
_atom_site_label
_atom_site_fract_x
_atom_site_fract_y
_atom_site_fract_z
Si Si1 0.384632 0.219714 0.353762
Si Si2 0.253720 0.932169 0.988459
Si Si3 0.451126 0.850411 0.684606
Si Si4 0.810159 0.703753 0.462172
Si Si5 0.050880 0.319874 0.468318
Si Si6 0.732468 0.257742 0.714926
Si Si7 0.021242 0.369953 0.296682
Si Si8 0.088293 0.444181 0.933385
O O1 0.391528 0.094190 0.315519
O O2 0.590956 0.478741 0.461794
O O3 0.210483 0.165333 0.456608
O O4 0.376523 0.166941 0.174783
O O5 0.375898 0.905331 0.874942
O O6 0.152242 0.830649 0.845381
O O7 0.075185 0.765376 0.055424
O O8 0.259959 0.585234 0.560406
O O9 0.536245 0.992077 0.633535
O O10 0.942620 0.802917 0.565352
O O11 0.852446 0.615144 0.260816
O O12 0.019665 0.262799 0.303127
O O13 0.898222 0.293583 0.606931
O O14 0.788210 0.422982 0.731496
O O15 0.748393 0.352634 0.914058
O O16 0.000000 0.500000 0.500000
O O17 0.000000 0.500000 0.000000
#
# Coordination Sequence:
#
# PCOD9081340 Si02
#       8
#     2   2   2   2   2   2   2   2
#     4  10  22  35  51  86 109 151 188 215 285 334
#     4  11  20  34  55  82 114 141 184 237 267 327
#     4  11  19  34  57  83 116 142 178 233 277 330
#     4  10  21  37  56  75 119 151 175 233 275 332
#     4  10  19  38  53  80 116 145 183 230 272 324
#     4  10  19  31  55  84 108 144 180 223 281 327
#     4   9  18  36  54  80 116 140 183 234 273 321
#     4  11  17  31  53  80 109 141 178 224 281 319
#
# _framework density 20.543934
#
# number of rings (size 3 to 8) (size 9 to 14) (size 15 to 20)
#    0.000    1.750    5.000    2.625    0.000    1.000 
#    0.000    0.625    0.000    0.000    0.000   11.375 
#    0.000    0.000    0.000    0.000    0.000    0.000 
#
# Total GULP energy -89100.278322 kJ/mol
# GULP energy per Si atom -5568.767395 kJ/mol
# Density = 2.049718 g / cm^3
# Si number density = 20.543934 Si / 1000 Ang^3
#
#
#
# Elastic Constant Matrix: (Units=GPa)
#
#
# Indices 1 2 3 4 5 6 
#
# 1 98.4098 3.7501 39.9330 -23.8570 -8.4449 0.3391
# 2 3.7501 51.0398 -10.6881 -7.4358 -3.2780 3.4527
# 3 39.9330 -10.6881 62.6035 -10.2197 -0.3747 1.0772
# 4 -23.8570 -7.4358 -10.2197 27.3583 3.4466 5.1141
# 5 -8.4449 -3.2780 -0.3747 3.4466 31.1944 -4.8138
# 6 0.3391 3.4527 1.0772 5.1141 -4.8138 17.7141
#
#
#
# Elastic Compliance Matrix: (Units=1/GPa)
#
#
# Indices 1 2 3 4 5 6 
#
# 1 0.016791 -0.001237 -0.009090 0.010915 0.002805 -0.001916
# 2 -0.001237 0.022771 0.006241 0.008808 0.000029 -0.007329
# 3 -0.009090 0.006241 0.023492 0.003661 -0.002580 -0.004229
# 4 0.010915 0.008808 0.003661 0.054032 -0.004994 -0.019104
# 5 0.002805 0.000029 -0.002580 -0.004994 0.035047 0.011063
# 6 -0.001916 -0.007329 -0.004229 -0.019104 0.011063 0.066696
#
#
# Mechanical properties :
#
#
# Convention : Reuss Voigt Hill
#
# Bulk Modulus (GPa) = 18.22101 30.89367 24.55734
# Shear Modulus (GPa) = 20.38358 27.19057 23.78708
#
# Velocity S-wave (km/s) = 3.15333 3.64199 3.40643
# Velocity P-wave (km/s) = 4.70601 5.72328 5.23939
#
# Compressibility (1/GPa) = 0.05488170
#
# Stress axis : x y z
#
# Youngs Moduli (GPa) = 59.55719 43.91503 42.56737
#
# Poissons Ratio (x) = 0.05433 0.38693
# Poissons Ratio (y) = 0.07369 -0.26566
# Poissons Ratio (z) = 0.54137 -0.27407
#
# Static dielectric constant tensor:
#      x y z
#    x 1.865600 -0.023470 0.015950 
#    y -0.023470 1.824030 0.071100 
#    z 0.015950 0.071100 1.792080 
# 
# From -- ./inp_files/272256.got.cif
#   From: 2010.05.17/outbox.cif.g08.bks.cpg/sg2_137_cif.got.tgz:272256.got - 2010.06.03 11:33:40.
