data_PCOD9081397
_publ_section_title
;
Structure prediction by ZEFSAII (Michael W. Deem and Ramdas Pophale) SiO2 
 PCOD9081397
Probable space group: P -1
;
_chemical_formula_sum "Si O2"
_cell_formula_units_Z 14
_cell_length_a 17.738872
_cell_length_b 7.744585
_cell_length_c 23.884640
_cell_angle_alpha 146.200103
_cell_angle_beta 20.497349
_cell_angle_gamma 142.309965
_cell_volume 637.758445
_symmetry_space_group_name_H-M "P -1"
_symmetry_group_IT_number 2
_symmetry_cell_setting 'triclinic'
loop_
_space_group_symop_operation_xyz
x,y,z
-x,-y,-z
loop_
_atom_site_type_symbol
_atom_site_label
_atom_site_fract_x
_atom_site_fract_y
_atom_site_fract_z
Si Si1 0.408785 0.334730 0.583501
Si Si2 0.504045 0.846175 0.163882
Si Si3 0.963134 0.634419 0.933486
Si Si4 0.244956 0.501230 0.848279
Si Si5 0.165946 0.936383 0.194690
Si Si6 0.674442 0.964571 0.546169
Si Si7 0.588483 0.161387 0.895747
O O1 0.363800 0.273323 0.663327
O O2 0.603353 0.603132 0.516350
O O3 0.426513 0.056147 0.451911
O O4 0.187705 0.494928 0.760173
O O5 0.363337 0.894157 0.217975
O O6 0.660276 0.153189 0.136730
O O7 0.404544 0.837511 0.293154
O O8 0.612536 0.530062 0.989400
O O9 0.881601 0.433301 0.882880
O O10 0.774221 0.572662 0.093603
O O11 0.000000 0.000000 0.000000
O O12 0.000000 0.500000 0.000000
O O13 0.265036 0.997740 0.203508
O O14 0.927895 0.053790 0.386925
O O15 0.340825 0.063588 0.061173
#
# Coordination Sequence:
#
# PCOD9081397 Si02
#       7
#     2   2   2   2   2   2   2
#     4   8  17  33  54  81 109 146 175 221 282 337
#     4  10  20  37  59  80 109 146 190 227 268 330
#     4  10  19  31  57  87 111 139 182 231 283 321
#     4   9  17  31  55  84 105 141 179 231 272 326
#     4  10  21  37  54  80 114 147 185 231 273 318
#     4   9  18  34  58  80 112 144 180 226 283 322
#     4  10  22  37  56  80 110 149 194 225 261 325
#
# _framework density 21.951885999999998
#
# number of rings (size 3 to 8) (size 9 to 14) (size 15 to 20)
#    0.000    2.571    1.429    0.000    6.000    1.143 
#    0.000    0.000    0.000   31.714    0.000    0.000 
#    0.000    0.000    0.000    0.000    0.000    0.000 
#
# Total GULP energy -77957.612226 kJ/mol
# GULP energy per Si atom -5568.400873 kJ/mol
# Density = 2.190192 g / cm^3
# Si number density = 21.951886 Si / 1000 Ang^3
#
#
#
# Elastic Constant Matrix: (Units=GPa)
#
#
# Indices 1 2 3 4 5 6 
#
# 1 67.3333 9.3265 22.5970 4.0603 26.7488 22.7234
# 2 9.3265 65.5774 27.3404 0.1285 2.1502 8.9875
# 3 22.5970 27.3404 67.4849 -4.0902 18.3287 9.7875
# 4 4.0603 0.1285 -4.0902 26.7369 3.2471 5.5982
# 5 26.7488 2.1502 18.3287 3.2471 44.6230 4.8034
# 6 22.7234 8.9875 9.7875 5.5982 4.8034 25.0155
#
#
#
# Elastic Compliance Matrix: (Units=1/GPa)
#
#
# Indices 1 2 3 4 5 6 
#
# 1 0.028882 0.000642 -0.002705 0.001724 -0.013868 -0.023131
# 2 0.000642 0.019041 -0.007993 -0.000753 0.002533 -0.004614
# 3 -0.002705 -0.007993 0.021586 0.005210 -0.006921 -0.002954
# 4 0.001724 -0.000753 0.005210 0.040953 -0.004873 -0.011564
# 5 -0.013868 0.002533 -0.006921 -0.004873 0.032810 0.009186
# 6 -0.023131 -0.004614 -0.002954 -0.011564 0.009186 0.064624
#
#
# Mechanical properties :
#
#
# Convention : Reuss Voigt Hill
#
# Bulk Modulus (GPa) = 20.24470 35.43593 27.84031
# Shear Modulus (GPa) = 20.45196 28.68386 24.56791
#
# Velocity S-wave (km/s) = 3.05564 3.61871 3.34903
# Velocity P-wave (km/s) = 4.65742 5.79980 5.25972
#
# Compressibility (1/GPa) = 0.04939565
#
# Stress axis : x y z
#
# Youngs Moduli (GPa) = 34.62380 52.51732 46.32584
#
# Poissons Ratio (x) = -0.03370 0.12532
# Poissons Ratio (y) = -0.02222 0.37030
# Poissons Ratio (z) = 0.09366 0.41979
#
# Static dielectric constant tensor:
#      x y z
#    x 1.888230 0.005550 0.052190 
#    y 0.005550 1.756700 -0.030050 
#    z 0.052190 -0.030050 1.785540 
# 
# From -- ./inp_files/180065.got.cif
#   From: 2010.05.17/outbox.cif.g08.bks.cpg/sg2_91_cif.got.tgz:180065.got - 2010.06.03 11:33:40.
