data_PCOD9081288
_publ_section_title
;
Structure prediction by ZEFSAII (Michael W. Deem and Ramdas Pophale) SiO2 
 PCOD9081288
Probable space group: P -1
;
_chemical_formula_sum "Si O2"
_cell_formula_units_Z 14
_cell_length_a 9.245697
_cell_length_b 7.954043
_cell_length_c 11.041631
_cell_angle_alpha 55.742065
_cell_angle_beta 124.400881
_cell_angle_gamma 97.015352
_cell_volume 530.416535
_symmetry_space_group_name_H-M "P -1"
_symmetry_group_IT_number 2
_symmetry_cell_setting 'triclinic'
loop_
_space_group_symop_operation_xyz
x,y,z
-x,-y,-z
loop_
_atom_site_type_symbol
_atom_site_label
_atom_site_fract_x
_atom_site_fract_y
_atom_site_fract_z
Si Si1 0.144269 0.294903 0.099131
Si Si2 0.122712 0.288988 0.488030
Si Si3 0.302446 0.587014 0.313432
Si Si4 0.774954 0.042896 0.526404
Si Si5 0.447968 0.470072 0.166779
Si Si6 0.006386 0.925911 0.172943
Si Si7 0.754887 0.651854 0.209088
O O1 0.290338 0.386955 0.061651
O O2 0.256738 0.130273 0.321081
O O3 0.015368 0.157708 0.040776
O O4 0.000000 0.500000 0.000000
O O5 0.190487 0.424989 0.362424
O O6 0.229453 0.310179 0.653493
O O7 0.911719 0.430395 0.346338
O O8 0.177231 0.061401 0.540295
O O9 0.500000 0.500000 0.500000
O O10 0.348098 0.585735 0.193517
O O11 0.198114 0.785837 0.265862
O O12 0.610218 0.256249 0.359045
O O13 0.955987 0.076938 0.662959
O O14 0.554901 0.626748 0.098046
O O15 0.832172 0.837181 0.113572
#
# Coordination Sequence:
#
# PCOD9081288 Si02
#       7
#     2   2   2   2   2   2   2
#     4  10  23  41  57  80 115 155 194 236 280 336
#     4  10  19  31  53  85 131 144 177 231 301 333
#     4  11  16  30  53  85 120 144 181 235 281 331
#     4  10  20  34  60  87 113 151 191 230 283 331
#     4  12  21  34  62  91 111 146 195 240 280 337
#     4   9  21  36  56  81 122 150 181 233 293 334
#     4  10  21  34  52  92 121 149 177 238 295 341
#
# _framework density 26.394349999999999
#
# number of rings (size 3 to 8) (size 9 to 14) (size 15 to 20)
#    0.857    0.857    4.286    2.143    2.000    2.286 
#    0.000    1.429    0.000    0.857    0.000    0.000 
#    0.000    0.000    0.000    0.000    0.000    0.000 
#
# Total GULP energy -78159.107204 kJ/mol
# GULP energy per Si atom -5582.793372 kJ/mol
# Density = 2.633428 g / cm^3
# Si number density = 26.394350 Si / 1000 Ang^3
#
#
#
# Elastic Constant Matrix: (Units=GPa)
#
#
# Indices 1 2 3 4 5 6 
#
# 1 219.0421 79.0177 23.9425 2.3489 6.6051 25.5410
# 2 79.0177 149.7952 22.6085 -14.9373 19.2345 7.5659
# 3 23.9425 22.6085 39.1795 4.6380 1.4009 2.6687
# 4 2.3489 -14.9373 4.6380 34.0857 3.9800 4.7087
# 5 6.6051 19.2345 1.4009 3.9800 42.8687 9.5524
# 6 25.5410 7.5659 2.6687 4.7087 9.5524 71.0609
#
#
#
# Elastic Compliance Matrix: (Units=1/GPa)
#
#
# Indices 1 2 3 4 5 6 
#
# 1 0.006077 -0.003148 -0.001640 -0.001447 0.001073 -0.001836
# 2 -0.003148 0.010147 -0.004479 0.005743 -0.004555 0.000451
# 3 -0.001640 -0.004479 0.029763 -0.006129 0.001835 0.000108
# 4 -0.001447 0.005743 -0.006129 0.033562 -0.004953 -0.001419
# 5 0.001073 -0.004555 0.001835 -0.004953 0.026314 -0.003179
# 6 -0.001836 0.000451 0.000108 -0.001419 -0.003179 0.015202
#
#
# Mechanical properties :
#
#
# Convention : Reuss Voigt Hill
#
# Bulk Modulus (GPa) = 36.42462 73.23935 54.83199
# Shear Modulus (GPa) = 33.61354 48.43295 41.02324
#
# Velocity S-wave (km/s) = 3.57250 4.28831 3.94667
# Velocity P-wave (km/s) = 5.55402 7.23380 6.44883
#
# Compressibility (1/GPa) = 0.02745396
#
# Stress axis : x y z
#
# Youngs Moduli (GPa) = 164.54768 98.55094 33.59888
#
# Poissons Ratio (x) = 0.31020 0.05509
# Poissons Ratio (y) = 0.51794 0.15051
# Poissons Ratio (z) = 0.26978 0.44146
#
# Static dielectric constant tensor:
#      x y z
#    x 2.077600 0.021880 -0.103700 
#    y 0.021880 2.286350 0.016640 
#    z -0.103700 0.016640 2.038720 
# 
# From -- ./inp_files/492330.got.cif
#   From: 2010.05.17/outbox.cif.g08.bks.cpg/sg2_247_cif.got.tgz:492330.got - 2010.06.03 11:33:40.
