data_PCOD9081352
_publ_section_title
;
Structure prediction by ZEFSAII (Michael W. Deem and Ramdas Pophale) SiO2 
 PCOD9081352
Probable space group: P -1
;
_chemical_formula_sum "Si O2"
_cell_formula_units_Z 12
_cell_length_a 19.367883
_cell_length_b 11.446540
_cell_length_c 4.886507
_cell_angle_alpha 74.350390
_cell_angle_beta 119.472503
_cell_angle_gamma 149.500524
_cell_volume 448.580421
_symmetry_space_group_name_H-M "P -1"
_symmetry_group_IT_number 2
_symmetry_cell_setting 'triclinic'
loop_
_space_group_symop_operation_xyz
x,y,z
-x,-y,-z
loop_
_atom_site_type_symbol
_atom_site_label
_atom_site_fract_x
_atom_site_fract_y
_atom_site_fract_z
Si Si1 0.237944 0.617350 0.167294
Si Si2 0.000000 0.500000 0.500000
Si Si3 0.292791 0.182584 0.004779
Si Si4 0.452462 0.282271 0.754352
Si Si5 0.981092 0.884243 0.786387
Si Si6 0.000000 0.500000 0.000000
Si Si7 0.660974 0.118501 0.299924
O O1 0.177156 0.408454 0.284438
O O2 0.350705 0.840156 0.453546
O O3 0.078763 0.494877 0.912834
O O4 0.314528 0.736152 0.946438
O O5 0.160126 0.707948 0.441821
O O6 0.922854 0.308659 0.218802
O O7 0.402543 0.241727 0.370735
O O8 0.380146 0.431447 0.035950
O O9 0.324094 0.179886 0.760520
O O10 0.124813 0.982292 0.948787
O O11 0.447330 0.130894 0.869983
O O12 0.000000 0.000000 0.500000
O O13 0.000000 0.000000 0.000000
#
# Coordination Sequence:
#
# PCOD9081352 Si02
#       7
#     2   1   2   2   2   1   2
#     4  10  21  34  55  88 119 147 199 252 310 360
#     4   8  16  22  40  74 110 138 152 210 296 362
#     4  10  23  39  61  88 125 168 207 245 299 386
#     4  10  21  38  62  95 125 157 195 258 331 360
#     4  12  26  43  62  85 125 177 211 246 287 368
#     4   8  16  28  44  78 104 138 160 242 304 328
#     4  10  19  31  55  88 122 142 183 255 323 365
#
# _framework density 26.751052999999999
#
# number of rings (size 3 to 8) (size 9 to 14) (size 15 to 20)
#    0.000    2.000    0.000    3.000   14.000    0.000 
#    0.000    0.000    0.000    6.000    0.000    0.000 
#    0.000    0.000    0.000    0.000    0.000    0.000 
#
# Total GULP energy -66856.595255 kJ/mol
# GULP energy per Si atom -5571.382938 kJ/mol
# Density = 2.669017 g / cm^3
# Si number density = 26.751053 Si / 1000 Ang^3
#
#
#
# Elastic Constant Matrix: (Units=GPa)
#
#
# Indices 1 2 3 4 5 6 
#
# 1 127.1311 34.2400 47.8788 -3.1976 -22.5172 -4.0721
# 2 34.2400 120.4638 28.1076 -21.6892 -10.1766 -35.1901
# 3 47.8788 28.1076 146.3841 -49.0059 -40.4132 10.3328
# 4 -3.1976 -21.6892 -49.0059 43.5983 21.1123 -6.0216
# 5 -22.5172 -10.1766 -40.4132 21.1123 51.5248 -3.6469
# 6 -4.0721 -35.1901 10.3328 -6.0216 -3.6469 49.8762
#
#
#
# Elastic Compliance Matrix: (Units=1/GPa)
#
#
# Indices 1 2 3 4 5 6 
#
# 1 0.010918 -0.003609 -0.004404 -0.007967 0.003767 -0.001429
# 2 -0.003609 0.013779 0.000500 0.009333 -0.001556 0.010336
# 3 -0.004404 0.000500 0.013705 0.013610 0.003279 -0.000963
# 4 -0.007967 0.009333 0.013610 0.048367 -0.010201 0.008209
# 5 0.003767 -0.001556 0.003279 -0.010201 0.027449 -0.000694
# 6 -0.001429 0.010336 -0.000963 0.008209 -0.000694 0.028366
#
#
# Mechanical properties :
#
#
# Convention : Reuss Voigt Hill
#
# Bulk Modulus (GPa) = 42.77969 68.27023 55.52496
# Shear Modulus (GPa) = 30.22927 47.91668 39.07298
#
# Velocity S-wave (km/s) = 3.36523 4.23686 3.82594
# Velocity P-wave (km/s) = 5.57908 7.03638 6.34968
#
# Compressibility (1/GPa) = 0.02337558
#
# Stress axis : x y z
#
# Youngs Moduli (GPa) = 91.59468 72.57458 72.96406
#
# Poissons Ratio (x) = 0.26194 0.32134
# Poissons Ratio (y) = 0.33058 -0.03649
# Poissons Ratio (z) = 0.40339 -0.03629
#
# Static dielectric constant tensor:
#      x y z
#    x 2.186640 -0.015430 0.144070 
#    y -0.015430 2.261480 -0.007180 
#    z 0.144070 -0.007180 2.421850 
# 
# From -- ./inp_files/108146.got.cif
#   From: 2010.05.17/outbox.cif.g08.bks.cpg/sg2_55_cif.got.tgz:108146.got - 2010.06.03 11:33:40.
