data_PCOD9081535
_publ_section_title
;
Structure prediction by ZEFSAII (Michael W. Deem and Ramdas Pophale) SiO2 
 PCOD9081535
Probable space group: P -1
;
_chemical_formula_sum "Si O2"
_cell_formula_units_Z 16
_cell_length_a 10.512503
_cell_length_b 14.160992
_cell_length_c 8.121623
_cell_angle_alpha 55.679610
_cell_angle_beta 80.263065
_cell_angle_gamma 40.476192
_cell_volume 567.023106
_symmetry_space_group_name_H-M "P -1"
_symmetry_group_IT_number 2
_symmetry_cell_setting 'triclinic'
loop_
_space_group_symop_operation_xyz
x,y,z
-x,-y,-z
loop_
_atom_site_type_symbol
_atom_site_label
_atom_site_fract_x
_atom_site_fract_y
_atom_site_fract_z
Si Si1 0.244464 0.601645 0.080016
Si Si2 0.842392 0.938980 0.649277
Si Si3 0.653656 0.812072 0.475690
Si Si4 0.370789 0.765489 0.832183
Si Si5 0.364695 0.225770 0.112378
Si Si6 0.956375 0.222130 0.710682
Si Si7 0.715359 0.167632 0.769742
Si Si8 0.215272 0.426964 0.630534
O O1 0.308296 0.688857 0.988842
O O2 0.072145 0.707906 0.862988
O O3 0.477912 0.370178 0.230153
O O4 0.117199 0.665481 0.209901
O O5 0.609746 0.039878 0.607824
O O6 0.836296 0.009585 0.408309
O O7 0.828565 0.035221 0.710973
O O8 0.730690 0.737551 0.721465
O O9 0.783343 0.649073 0.465623
O O10 0.590107 0.987625 0.272247
O O11 0.545111 0.711638 0.948526
O O12 0.224483 0.328150 0.875832
O O13 0.766806 0.265487 0.663715
O O14 0.948753 0.349831 0.492951
O O15 0.158038 0.991248 0.951154
O O16 0.459339 0.313287 0.680578
#
# Coordination Sequence:
#
# PCOD9081535 Si02
#       8
#     2   2   2   2   2   2   2   2
#     4  10  19  32  52  79 112 145 179 225 280 332
#     4   9  18  34  54  74 107 149 181 224 280 326
#     4   9  20  38  58  83 112 146 192 235 276 328
#     4  10  20  33  51  80 110 140 183 228 273 334
#     4  10  20  36  59  84 111 147 191 235 276 327
#     4  10  19  32  51  79 113 147 184 225 276 336
#     4   9  19  32  50  80 113 144 183 227 273 336
#     4  11  20  35  60  80 107 151 186 226 283 328
#
# _framework density 28.217544
#
# number of rings (size 3 to 8) (size 9 to 14) (size 15 to 20)
#    0.000    2.250    0.000    4.125    0.000    2.000 
#    0.000    4.375    0.000   19.500    0.000    0.000 
#    0.000    0.000    0.000    0.000    0.000    0.000 
#
# Total GULP energy -89500.155614 kJ/mol
# GULP energy per Si atom -5593.759726 kJ/mol
# Density = 2.815332 g / cm^3
# Si number density = 28.217544 Si / 1000 Ang^3
#
#
#
# Elastic Constant Matrix: (Units=GPa)
#
#
# Indices 1 2 3 4 5 6 
#
# 1 44.5666 31.2717 6.5022 -10.9208 -4.1913 21.2958
# 2 31.2717 107.1155 47.5339 -9.0664 -2.1305 12.4980
# 3 6.5022 47.5339 138.4149 1.7541 3.0181 12.5723
# 4 -10.9208 -9.0664 1.7541 59.9072 3.1555 8.6159
# 5 -4.1913 -2.1305 3.0181 3.1555 30.3125 -7.3127
# 6 21.2958 12.4980 12.5723 8.6159 -7.3127 45.1384
#
#
#
# Elastic Compliance Matrix: (Units=1/GPa)
#
#
# Indices 1 2 3 4 5 6 
#
# 1 0.040094 -0.010273 0.003259 0.008399 -0.000895 -0.018727
# 2 -0.010273 0.014117 -0.004588 0.000036 0.000580 0.002303
# 3 0.003259 -0.004588 0.008954 0.000154 -0.001512 -0.003035
# 4 0.008399 0.000036 0.000154 0.019557 -0.002869 -0.008213
# 5 -0.000895 0.000580 -0.001512 -0.002869 0.035021 0.006904
# 6 -0.018727 0.002303 -0.003035 -0.008213 0.006904 0.033883
#
#
# Mechanical properties :
#
#
# Convention : Reuss Voigt Hill
#
# Bulk Modulus (GPa) = 25.02488 51.19028 38.10758
# Shear Modulus (GPa) = 26.57454 40.72424 33.64939
#
# Velocity S-wave (km/s) = 3.07216 3.80310 3.45700
# Velocity P-wave (km/s) = 4.63379 6.12090 5.42851
#
# Compressibility (1/GPa) = 0.03996024
#
# Stress axis : x y z
#
# Youngs Moduli (GPa) = 24.94137 70.83885 111.68536
#
# Poissons Ratio (x) = 0.72773 -0.36393
# Poissons Ratio (y) = 0.25622 0.51236
# Poissons Ratio (z) = -0.08127 0.32498
#
# Static dielectric constant tensor:
#      x y z
#    x 2.219360 -0.049090 -0.052500 
#    y -0.049090 2.265920 0.007050 
#    z -0.052500 0.007050 2.301160 
# 
# From -- ./inp_files/312742.got.cif
#   From: 2010.05.17/outbox.cif.g08.bks.cpg/sg2_157_cif.got.tgz:312742.got - 2010.06.03 11:33:40.
