data_PCOD9081704
_publ_section_title
;
Structure prediction by ZEFSAII (Michael W. Deem and Ramdas Pophale) SiO2 
 PCOD9081704
Probable space group: P -1
;
_chemical_formula_sum "Si O2"
_cell_formula_units_Z 16
_cell_length_a 9.587752
_cell_length_b 22.905797
_cell_length_c 6.779118
_cell_angle_alpha 140.897108
_cell_angle_beta 133.132206
_cell_angle_gamma 47.823113
_cell_volume 652.382361
_symmetry_space_group_name_H-M "P -1"
_symmetry_group_IT_number 2
_symmetry_cell_setting 'triclinic'
loop_
_space_group_symop_operation_xyz
x,y,z
-x,-y,-z
loop_
_atom_site_type_symbol
_atom_site_label
_atom_site_fract_x
_atom_site_fract_y
_atom_site_fract_z
Si Si1 0.032363 0.395376 0.656498
Si Si2 0.588102 0.408394 0.207103
Si Si3 0.733678 0.529711 0.242331
Si Si4 0.686291 0.832168 0.983502
Si Si5 0.575019 0.205824 0.723733
Si Si6 0.439878 0.035458 0.268342
Si Si7 0.891926 0.648630 0.968358
Si Si8 0.963490 0.901485 0.130252
O O1 0.167897 0.402595 0.623162
O O2 0.825493 0.381200 0.354193
O O3 0.119585 0.579591 0.948032
O O4 0.111359 0.326114 0.737248
O O5 0.500000 0.500000 0.500000
O O6 0.763906 0.574122 0.598179
O O7 0.488051 0.440285 0.981487
O O8 0.475340 0.680005 0.994043
O O9 0.855566 0.851346 0.054550
O O10 0.568089 0.936686 0.239660
O O11 0.521779 0.804670 0.612466
O O12 0.796745 0.747518 0.017653
O O13 0.504126 0.132375 0.600835
O O14 0.815030 0.167752 0.872203
O O15 0.199356 0.065397 0.115966
O O16 0.500000 0.000000 0.000000
O O17 0.000000 0.500000 0.000000
O O18 0.000000 0.000000 0.500000
#
# Coordination Sequence:
#
# PCOD9081704 Si02
#       8
#     2   2   2   2   2   2   2   2
#     4  10  22  41  61  82 119 166 201 251 312 353
#     4  12  22  38  61  83 121 163 213 249 291 368
#     4  10  22  42  60  83 124 162 206 253 304 366
#     4  10  18  31  55  86 121 150 191 256 300 355
#     4  10  19  31  52  87 115 157 201 242 302 363
#     4   8  16  29  50  79 120 150 185 253 301 353
#     4  10  20  38  61  88 123 157 201 260 304 357
#     4  10  15  30  53  83 122 147 191 246 302 364
#
# _framework density 24.525493999999998
#
# number of rings (size 3 to 8) (size 9 to 14) (size 15 to 20)
#    0.000    2.250    7.500    0.000    1.750    0.000 
#    0.000   10.625    0.000    0.750    0.000    1.750 
#    0.000    0.000    0.000    0.000    0.000    0.000 
#
# Total GULP energy -89429.837458 kJ/mol
# GULP energy per Si atom -5589.364841 kJ/mol
# Density = 2.446967 g / cm^3
# Si number density = 24.525494 Si / 1000 Ang^3
#
#
#
# Elastic Constant Matrix: (Units=GPa)
#
#
# Indices 1 2 3 4 5 6 
#
# 1 60.2967 47.3247 27.4017 -6.6771 4.7524 -3.1326
# 2 47.3247 240.1364 65.0232 2.6414 16.6293 2.3652
# 3 27.4017 65.0232 110.9564 1.8953 20.0349 -10.6900
# 4 -6.6771 2.6414 1.8953 63.0340 -10.0111 3.2412
# 5 4.7524 16.6293 20.0349 -10.0111 35.0106 -6.0250
# 6 -3.1326 2.3652 -10.6900 3.2412 -6.0250 44.0652
#
#
#
# Elastic Compliance Matrix: (Units=1/GPa)
#
#
# Indices 1 2 3 4 5 6 
#
# 1 0.021010 -0.003348 -0.003488 0.002689 0.001650 0.000855
# 2 -0.003348 0.005556 -0.002307 -0.000656 -0.001261 -0.001220
# 3 -0.003488 -0.002307 0.012495 -0.001665 -0.005669 0.002255
# 4 0.002689 -0.000656 -0.001665 0.017165 0.005694 -0.000662
# 5 0.001650 -0.001261 -0.005669 0.005694 0.034341 0.003086
# 6 0.000855 -0.001220 0.002255 -0.000662 0.003086 0.023838
#
#
# Mechanical properties :
#
#
# Convention : Reuss Voigt Hill
#
# Bulk Modulus (GPa) = 48.13837 76.76542 62.45189
# Shear Modulus (GPa) = 35.81243 46.53130 41.17186
#
# Velocity S-wave (km/s) = 3.82542 4.36048 4.10168
# Velocity P-wave (km/s) = 6.25957 7.53126 6.92467
#
# Compressibility (1/GPa) = 0.02077345
#
# Stress axis : x y z
#
# Youngs Moduli (GPa) = 47.59677 180.00071 80.02934
#
# Poissons Ratio (x) = 0.60270 0.27914
# Poissons Ratio (y) = 0.15937 0.18466
# Poissons Ratio (z) = 0.16601 0.41533
#
# Static dielectric constant tensor:
#      x y z
#    x 2.044290 0.048170 -0.062190 
#    y 0.048170 2.099120 -0.051980 
#    z -0.062190 -0.051980 2.017010 
# 
# From -- ./inp_files/284511.got.cif
#   From: 2010.05.17/outbox.cif.g08.bks.cpg/sg2_143_cif.got.tgz:284511.got - 2010.06.03 11:33:40.
