data_PCOD9081190
_publ_section_title
;
Structure prediction by ZEFSAII (Michael W. Deem and Ramdas Pophale) SiO2 
 PCOD9081190
Probable space group: P -1
;
_chemical_formula_sum "Si O2"
_cell_formula_units_Z 14
_cell_length_a 7.937103
_cell_length_b 14.286314
_cell_length_c 14.979439
_cell_angle_alpha 160.528055
_cell_angle_beta 84.689383
_cell_angle_gamma 86.872465
_cell_volume 509.717817
_symmetry_space_group_name_H-M "P -1"
_symmetry_group_IT_number 2
_symmetry_cell_setting 'triclinic'
loop_
_space_group_symop_operation_xyz
x,y,z
-x,-y,-z
loop_
_atom_site_type_symbol
_atom_site_label
_atom_site_fract_x
_atom_site_fract_y
_atom_site_fract_z
Si Si1 0.826482 0.278824 0.307344
Si Si2 0.989083 0.441429 0.825698
Si Si3 0.773954 0.089132 0.479389
Si Si4 0.351673 0.732782 0.987262
Si Si5 0.060615 0.708341 0.496063
Si Si6 0.599074 0.912433 0.543433
Si Si7 0.515018 0.875424 0.787953
O O1 0.894999 0.397843 0.499562
O O2 0.703244 0.550723 0.488726
O O3 0.672108 0.171719 0.258066
O O4 0.000000 0.000000 0.000000
O O5 0.838406 0.305052 0.728825
O O6 0.967062 0.495389 0.766586
O O7 0.201218 0.202375 0.616347
O O8 0.942391 0.750927 0.158894
O O9 0.780060 0.215702 0.491424
O O10 0.583801 0.057905 0.472043
O O11 0.423023 0.785342 0.128660
O O12 0.463923 0.862455 0.035338
O O13 0.135825 0.983236 0.215791
O O14 0.370226 0.387497 0.664869
O O15 0.500000 0.000000 0.000000
#
# Coordination Sequence:
#
# PCOD9081190 Si02
#       7
#     2   2   2   2   2   2   2
#     4  11  25  42  54  64  79  91 106 120 136 144
#     4   9  19  34  46  71  80  90 110 120 124 154
#     4  10  19  31  51  66  80  97 108 114 139 139
#     4  11  23  36  55  63  84  87 107 118 133 140
#     4   9  21  34  52  63  78  89 103 115 130 143
#     4  11  20  35  50  67  80  97  99 125 128 145
#     4  11  27  40  52  67  77  92 109 119 132 152
#
# _framework density 27.466177999999999
#
# number of rings (size 3 to 8) (size 9 to 14) (size 15 to 20)
#    0.857    0.857    1.429    2.571    8.000    3.429 
#    0.000    0.000    0.000    0.000    0.000    0.000 
#    0.000    0.000    0.000    0.000    0.000    0.000 
#
# Total GULP energy -78377.614045 kJ/mol
# GULP energy per Si atom -5598.401003 kJ/mol
# Density = 2.740366 g / cm^3
# Si number density = 27.466178 Si / 1000 Ang^3
#
#
#
# Elastic Constant Matrix: (Units=GPa)
#
#
# Indices 1 2 3 4 5 6 
#
# 1 163.1464 27.1579 7.0685 -5.6665 -14.2684 -15.4344
# 2 27.1579 103.8161 20.4061 -8.1140 -6.4058 -9.2650
# 3 7.0685 20.4061 88.2505 -0.9165 -3.0809 -9.1265
# 4 -5.6665 -8.1140 -0.9165 33.4526 -5.0131 -0.3218
# 5 -14.2684 -6.4058 -3.0809 -5.0131 47.4927 0.7169
# 6 -15.4344 -9.2650 -9.1265 -0.3218 0.7169 47.4402
#
#
#
# Elastic Compliance Matrix: (Units=1/GPa)
#
#
# Indices 1 2 3 4 5 6 
#
# 1 0.006748 -0.001400 0.000060 0.001113 0.001931 0.001912
# 2 -0.001400 0.010806 -0.002193 0.002507 0.001141 0.001233
# 3 0.000060 -0.002193 0.012045 -0.000104 0.000464 0.001901
# 4 0.001113 0.002507 -0.000104 0.031289 0.003954 0.000984
# 5 0.001931 0.001141 0.000464 0.003954 0.022228 0.000631
# 6 0.001912 0.001233 0.001901 0.000984 0.000631 0.022305
#
#
# Mechanical properties :
#
#
# Convention : Reuss Voigt Hill
#
# Bulk Modulus (GPa) = 44.37992 51.60868 47.99430
# Shear Modulus (GPa) = 41.66699 45.71581 43.69140
#
# Velocity S-wave (km/s) = 3.89913 4.08418 3.99273
# Velocity P-wave (km/s) = 6.03855 6.40870 6.22637
#
# Compressibility (1/GPa) = 0.02253271
#
# Stress axis : x y z
#
# Youngs Moduli (GPa) = 148.18333 92.54005 83.01934
#
# Poissons Ratio (x) = 0.12959 -0.00498
# Poissons Ratio (y) = 0.20751 0.18208
# Poissons Ratio (z) = -0.00889 0.20296
#
# Static dielectric constant tensor:
#      x y z
#    x 2.123620 0.066130 -0.003720 
#    y 0.066130 2.307600 0.074240 
#    z -0.003720 0.074240 2.085450 
# 
# From -- ./inp_files/561969.got.cif
#   From: 2010.05.17/outbox.cif.g08.bks.cpg/sg2_281_cif.got.tgz:561969.got - 2010.06.03 11:33:40.
