data_PCOD9081900
_publ_section_title
;
Structure prediction by ZEFSAII (Michael W. Deem and Ramdas Pophale) SiO2 
 PCOD9081900
Probable space group: P -1
;
_chemical_formula_sum "Si O2"
_cell_formula_units_Z 14
_cell_length_a 9.692236
_cell_length_b 28.617879
_cell_length_c 5.139773
_cell_angle_alpha 61.318458
_cell_angle_beta 106.957701
_cell_angle_gamma 141.154146
_cell_volume 775.687534
_symmetry_space_group_name_H-M "P -1"
_symmetry_group_IT_number 2
_symmetry_cell_setting 'triclinic'
loop_
_space_group_symop_operation_xyz
x,y,z
-x,-y,-z
loop_
_atom_site_type_symbol
_atom_site_label
_atom_site_fract_x
_atom_site_fract_y
_atom_site_fract_z
Si Si1 0.889233 0.026728 0.358480
Si Si2 0.353168 0.312332 0.428151
Si Si3 0.559499 0.051884 0.644067
Si Si4 0.688528 0.533957 0.804436
Si Si5 0.682993 0.632025 0.232193
Si Si6 0.870207 0.483126 0.223666
Si Si7 0.992209 0.869551 0.353282
O O1 0.974201 0.088481 0.474537
O O2 0.617891 0.949935 0.439801
O O3 0.954654 0.074743 0.999295
O O4 0.000000 0.000000 0.500000
O O5 0.311837 0.320791 0.675346
O O6 0.618409 0.390098 0.331872
O O7 0.245076 0.224954 0.552260
O O8 0.250367 0.324528 0.124258
O O9 0.826637 0.128088 0.577131
O O10 0.500000 0.000000 0.500000
O O11 0.500000 0.000000 0.000000
O O12 0.791027 0.611589 0.491599
O O13 0.562581 0.460965 0.718888
O O14 0.500000 0.500000 0.000000
O O15 0.850309 0.541477 0.033097
O O16 0.000000 0.500000 0.500000
O O17 0.000000 0.500000 0.000000
#
# Coordination Sequence:
#
# PCOD9081900 Si02
#       7
#     2   2   2   2   2   2   2
#     4  10  19  34  59  86 111 144 178 215 270 330
#     4  11  21  36  56  82 111 145 189 229 286 323
#     4   8  16  31  53  81 102 134 179 212 248 317
#     4  10  19  35  59  78 101 135 193 233 271 321
#     4  10  19  32  57  81 100 136 186 235 266 324
#     4  11  23  35  55  80 107 147 191 232 273 331
#     4  10  20  35  58  81 110 145 182 226 266 324
#
# _framework density 18.048503
#
# number of rings (size 3 to 8) (size 9 to 14) (size 15 to 20)
#    0.000    2.000    2.857    3.000    2.000    0.000 
#    0.000    0.000    9.429    0.000    0.000    0.000 
#    0.000    0.000    0.000    0.000    0.000    0.000 
#
# Total GULP energy -77934.521073 kJ/mol
# GULP energy per Si atom -5566.751505 kJ/mol
# Density = 1.800742 g / cm^3
# Si number density = 18.048503 Si / 1000 Ang^3
#
#
#
# Elastic Constant Matrix: (Units=GPa)
#
#
# Indices 1 2 3 4 5 6 
#
# 1 94.2669 14.1161 22.2652 12.4541 21.4127 9.6998
# 2 14.1161 58.1810 14.5805 6.5168 0.2866 2.4521
# 3 22.2652 14.5805 84.3729 28.8516 6.2025 6.0080
# 4 12.4541 6.5168 28.8516 31.4188 -5.6327 -5.8331
# 5 21.4127 0.2866 6.2025 -5.6327 34.9125 10.6903
# 6 9.6998 2.4521 6.0080 -5.8331 10.6903 24.1207
#
#
#
# Elastic Compliance Matrix: (Units=1/GPa)
#
#
# Indices 1 2 3 4 5 6 
#
# 1 0.014327 -0.002477 0.000112 -0.007503 -0.008963 -0.003380
# 2 -0.002477 0.018500 -0.002441 -0.000480 0.002133 -0.001338
# 3 0.000112 -0.002441 0.020008 -0.020141 -0.004510 -0.007652
# 4 -0.007503 -0.000480 -0.020141 0.058751 0.012539 0.016733
# 5 -0.008963 0.002133 -0.004510 0.012539 0.040076 -0.010219
# 6 -0.003380 -0.001338 -0.007652 0.016733 -0.010219 0.053435
#
#
# Mechanical properties :
#
#
# Convention : Reuss Voigt Hill
#
# Bulk Modulus (GPa) = 23.13517 37.63828 30.38672
# Shear Modulus (GPa) = 21.82295 30.48099 26.15197
#
# Velocity S-wave (km/s) = 3.48102 4.11401 3.81068
# Velocity P-wave (km/s) = 5.38543 6.59287 6.01950
#
# Compressibility (1/GPa) = 0.04322423
#
# Stress axis : x y z
#
# Youngs Moduli (GPa) = 69.79587 54.05378 49.98051
#
# Poissons Ratio (x) = 0.13391 -0.00562
# Poissons Ratio (y) = 0.17291 0.12199
# Poissons Ratio (z) = -0.00785 0.13193
#
# Static dielectric constant tensor:
#      x y z
#    x 1.662930 0.020300 0.013960 
#    y 0.020300 1.635440 0.012520 
#    z 0.013960 0.012520 1.645630 
# 
# From -- ./inp_files/50714.got.cif
#   From: 2010.05.17/outbox.cif.g08.bks.cpg/sg2_26_cif.got.tgz:50714.got - 2010.06.03 11:33:40.
