data_PCOD9081116
_publ_section_title
;
Structure prediction by ZEFSAII (Michael W. Deem and Ramdas Pophale) SiO2 
 PCOD9081116
Probable space group: P -1
;
_chemical_formula_sum "Si O2"
_cell_formula_units_Z 16
_cell_length_a 22.277090
_cell_length_b 5.331149
_cell_length_c 24.957307
_cell_angle_alpha 66.948119
_cell_angle_beta 16.654163
_cell_angle_gamma 73.497013
_cell_volume 733.541101
_symmetry_space_group_name_H-M "P -1"
_symmetry_group_IT_number 2
_symmetry_cell_setting 'triclinic'
loop_
_space_group_symop_operation_xyz
x,y,z
-x,-y,-z
loop_
_atom_site_type_symbol
_atom_site_label
_atom_site_fract_x
_atom_site_fract_y
_atom_site_fract_z
Si Si1 0.335795 0.770271 0.935115
Si Si2 0.900318 0.564970 0.729970
Si Si3 0.350967 0.991444 0.076541
Si Si4 0.772744 0.195095 0.093361
Si Si5 0.165037 0.382847 0.901349
Si Si6 0.607368 0.162283 0.482635
Si Si7 0.584318 0.326298 0.743238
Si Si8 0.651132 0.746351 0.405600
O O1 0.210361 0.760144 0.987709
O O2 0.518320 0.615282 0.779172
O O3 0.444721 0.096865 0.837008
O O4 0.176762 0.588091 0.133629
O O5 0.826650 0.848794 0.770867
O O6 0.158844 0.622760 0.492792
O O7 0.765555 0.332486 0.819797
O O8 0.506231 0.170446 0.880329
O O9 0.500000 0.000000 0.000000
O O10 0.814919 0.482265 0.068085
O O11 0.890329 0.961363 0.028801
O O12 0.513811 0.000407 0.347607
O O13 0.409310 0.545835 0.653467
O O14 0.000000 0.500000 0.000000
O O15 0.755870 0.497322 0.332613
O O16 0.414441 0.147348 0.603707
O O17 0.741879 0.991518 0.351195
#
# Coordination Sequence:
#
# PCOD9081116 Si02
#       8
#     2   2   2   2   2   2   2   2
#     4  10  21  38  58  82 113 152 200 243 287 343
#     4  10  21  38  59  85 123 160 194 243 287 332
#     4  10  21  36  59  92 123 157 199 237 284 342
#     4  10  19  33  51  69  96 134 176 227 278 336
#     4  10  19  31  48  70  97 128 165 217 288 351
#     4   8  14  25  42  60  79 110 146 188 246 302
#     4  10  21  38  59  83 117 159 196 240 292 334
#     4   8  14  25  40  59  83 108 141 185 242 314
#
# _framework density 21.812000999999999
#
# number of rings (size 3 to 8) (size 9 to 14) (size 15 to 20)
#    0.000    2.500    0.000    2.250    0.000    1.000 
#    0.000    2.500    0.000    3.000    0.000    0.000 
#    0.000    0.000    0.000    0.000    0.000    0.000 
#
# Total GULP energy -89373.353451 kJ/mol
# GULP energy per Si atom -5585.834591 kJ/mol
# Density = 2.176236 g / cm^3
# Si number density = 21.812001 Si / 1000 Ang^3
#
#
#
# Elastic Constant Matrix: (Units=GPa)
#
#
# Indices 1 2 3 4 5 6 
#
# 1 99.0334 15.7317 -9.9415 2.2232 -7.5840 19.9494
# 2 15.7317 131.9372 11.4235 -0.1893 4.6841 31.4312
# 3 -9.9415 11.4235 65.6990 24.5794 5.4646 4.7446
# 4 2.2232 -0.1893 24.5794 43.1833 9.3980 -3.4780
# 5 -7.5840 4.6841 5.4646 9.3980 9.9737 4.5562
# 6 19.9494 31.4312 4.7446 -3.4780 4.5562 29.3567
#
#
#
# Elastic Compliance Matrix: (Units=1/GPa)
#
#
# Indices 1 2 3 4 5 6 
#
# 1 0.017107 0.001099 0.005983 -0.012412 0.029999 -0.019895
# 2 0.001099 0.010326 -0.000458 -0.001466 0.003289 -0.012413
# 3 0.005983 -0.000458 0.022171 -0.016792 0.013581 -0.011256
# 4 -0.012412 -0.001466 -0.016792 0.048005 -0.057251 0.027291
# 5 0.029999 0.003289 0.013581 -0.057251 0.197028 -0.063464
# 6 -0.019895 -0.012413 -0.011256 0.027291 -0.063464 0.075776
#
#
# Mechanical properties :
#
#
# Convention : Reuss Voigt Hill
#
# Bulk Modulus (GPa) = 15.91015 36.78857 26.34936
# Shear Modulus (GPa) = 13.22343 35.13312 24.17828
#
# Velocity S-wave (km/s) = 2.46488 4.01774 3.33300
# Velocity P-wave (km/s) = 3.92567 6.19885 5.18829
#
# Compressibility (1/GPa) = 0.06285296
#
# Stress axis : x y z
#
# Youngs Moduli (GPa) = 58.45454 96.84110 45.10326
#
# Poissons Ratio (x) = -0.10642 -0.26985
# Poissons Ratio (y) = -0.06424 0.02065
# Poissons Ratio (z) = -0.34973 0.04433
#
# Static dielectric constant tensor:
#      x y z
#    x 1.740130 0.024810 0.010830 
#    y 0.024810 1.921170 -0.018530 
#    z 0.010830 -0.018530 1.896780 
# 
# From -- ./inp_files/613392.got.cif
#   From: 2010.05.17/outbox.cif.g08.bks.cpg/sg2_307_cif.got.tgz:613392.got - 2010.06.03 11:33:40.
