data_PCOD9081513
_publ_section_title
;
Structure prediction by ZEFSAII (Michael W. Deem and Ramdas Pophale) SiO2 
 PCOD9081513
Probable space group: P -1
;
_chemical_formula_sum "Si O2"
_cell_formula_units_Z 16
_cell_length_a 8.326804
_cell_length_b 17.282190
_cell_length_c 7.121009
_cell_angle_alpha 44.516934
_cell_angle_beta 74.192524
_cell_angle_gamma 72.827969
_cell_volume 683.510561
_symmetry_space_group_name_H-M "P -1"
_symmetry_group_IT_number 2
_symmetry_cell_setting 'triclinic'
loop_
_space_group_symop_operation_xyz
x,y,z
-x,-y,-z
loop_
_atom_site_type_symbol
_atom_site_label
_atom_site_fract_x
_atom_site_fract_y
_atom_site_fract_z
Si Si1 0.813165 0.405682 0.880315
Si Si2 0.729613 0.086016 0.712313
Si Si3 0.676370 0.207047 0.122768
Si Si4 0.084040 0.997509 0.684263
Si Si5 0.132523 0.355169 0.610356
Si Si6 0.608847 0.852024 0.158762
Si Si7 0.995396 0.633012 0.771023
Si Si8 0.689495 0.816141 0.639832
O O1 0.771435 0.539651 0.652270
O O2 0.000240 0.383888 0.768313
O O3 0.699962 0.335796 0.913186
O O4 0.843209 0.357696 0.165606
O O5 0.716327 0.159238 0.403487
O O6 0.591589 0.143057 0.805306
O O7 0.923644 0.050963 0.767081
O O8 0.663168 0.969552 0.885510
O O9 0.482543 0.192274 0.179969
O O10 0.819677 0.127435 0.098705
O O11 0.221831 0.080178 0.504462
O O12 0.000000 0.000000 0.500000
O O13 0.267283 0.248406 0.796916
O O14 0.021541 0.333685 0.499308
O O15 0.641920 0.836462 0.399888
O O16 0.828495 0.705322 0.787786
O O17 0.000000 0.500000 0.000000
#
# Coordination Sequence:
#
# PCOD9081513 Si02
#       8
#     2   2   2   2   2   2   2   2
#     4  10  19  36  62  85 114 152 192 235 282 341
#     4   9  18  32  52  77 109 145 184 223 278 342
#     4  10  20  34  53  82 114 149 191 235 286 338
#     4  10  19  32  51  74 103 142 186 228 276 337
#     4   9  19  35  60  89 114 150 193 234 284 336
#     4   9  18  34  52  78 116 145 180 235 281 335
#     4   9  18  35  58  82 110 148 189 234 282 331
#     4  10  20  34  52  78 114 151 190 235 285 339
#
# _framework density 23.408564999999999
#
# number of rings (size 3 to 8) (size 9 to 14) (size 15 to 20)
#    0.000    2.500    0.000    2.625    0.000    1.500 
#    0.000   13.750    0.000   12.750    0.000    0.000 
#    0.000    0.000    0.000    0.000    0.000    0.250 
#
# Total GULP energy -89340.190332 kJ/mol
# GULP energy per Si atom -5583.761896 kJ/mol
# Density = 2.335529 g / cm^3
# Si number density = 23.408565 Si / 1000 Ang^3
#
#
#
# Elastic Constant Matrix: (Units=GPa)
#
#
# Indices 1 2 3 4 5 6 
#
# 1 69.2727 -2.2498 11.7959 -12.5749 -13.6118 26.5853
# 2 -2.2498 55.9844 6.0904 -17.5991 0.7514 1.7173
# 3 11.7959 6.0904 54.5023 -13.8245 -1.2608 4.8128
# 4 -12.5749 -17.5991 -13.8245 39.6743 5.9801 6.7033
# 5 -13.6118 0.7514 -1.2608 5.9801 37.0195 2.8299
# 6 26.5853 1.7173 4.8128 6.7033 2.8299 22.9670
#
#
#
# Elastic Compliance Matrix: (Units=1/GPa)
#
#
# Indices 1 2 3 4 5 6 
#
# 1 0.054386 0.014945 0.002682 0.034833 0.020065 -0.077273
# 2 0.014945 0.025445 0.001457 0.020348 0.003722 -0.025905
# 3 0.002682 0.001457 0.021279 0.010628 0.000796 -0.010873
# 4 0.034833 0.020348 0.010628 0.058242 0.008093 -0.062066
# 5 0.020065 0.003722 0.000796 0.008093 0.035358 -0.030390
# 6 -0.077273 -0.025905 -0.010873 -0.062066 -0.030390 0.159062
#
#
# Mechanical properties :
#
#
# Convention : Reuss Voigt Hill
#
# Bulk Modulus (GPa) = 7.17986 23.44805 15.31395
# Shear Modulus (GPa) = 13.81102 30.87369 22.34235
#
# Velocity S-wave (km/s) = 2.43162 3.63561 3.09277
# Velocity P-wave (km/s) = 3.31022 5.25949 4.39430
#
# Compressibility (1/GPa) = 0.13927845
#
# Stress axis : x y z
#
# Youngs Moduli (GPa) = 18.38718 39.29997 46.99484
#
# Poissons Ratio (x) = -0.58733 -0.12606
# Poissons Ratio (y) = -0.27479 -0.06847
# Poissons Ratio (z) = -0.04932 -0.05725
#
# Static dielectric constant tensor:
#      x y z
#    x 1.884880 0.008010 0.009250 
#    y 0.008010 1.964290 0.043140 
#    z 0.009250 0.043140 1.876480 
# 
# From -- ./inp_files/216419.got.cif
#   From: 2010.05.17/outbox.cif.g08.bks.cpg/sg2_109_cif.got.tgz:216419.got - 2010.06.03 11:33:40.
