data_PCOD9081335
_publ_section_title
;
Structure prediction by ZEFSAII (Michael W. Deem and Ramdas Pophale) SiO2 
 PCOD9081335
Probable space group: P -1
;
_chemical_formula_sum "Si O2"
_cell_formula_units_Z 16
_cell_length_a 11.524087
_cell_length_b 16.193522
_cell_length_c 7.845392
_cell_angle_alpha 124.592974
_cell_angle_beta 73.558233
_cell_angle_gamma 58.622562
_cell_volume 584.010058
_symmetry_space_group_name_H-M "P -1"
_symmetry_group_IT_number 2
_symmetry_cell_setting 'triclinic'
loop_
_space_group_symop_operation_xyz
x,y,z
-x,-y,-z
loop_
_atom_site_type_symbol
_atom_site_label
_atom_site_fract_x
_atom_site_fract_y
_atom_site_fract_z
Si Si1 0.891733 0.449112 0.280149
Si Si2 0.369106 0.654324 0.985494
Si Si3 0.432492 0.698945 0.649803
Si Si4 0.901793 0.903392 0.402102
Si Si5 0.735640 0.864460 0.645299
Si Si6 0.848721 0.379593 0.561967
Si Si7 0.349660 0.198761 0.706466
Si Si8 0.783340 0.036840 0.255046
O O1 0.646977 0.627315 0.485318
O O2 0.821036 0.478559 0.537650
O O3 0.003492 0.264511 0.937354
O O4 0.097852 0.384963 0.126636
O O5 0.348015 0.742821 0.932045
O O6 0.474792 0.476141 0.651110
O O7 0.574992 0.542141 0.899927
O O8 0.106689 0.803610 0.318661
O O9 0.264483 0.851279 0.743879
O O10 0.703861 0.992770 0.707496
O O11 0.850442 0.015038 0.397178
O O12 0.756533 0.762115 0.381584
O O13 0.979993 0.702822 0.458548
O O14 0.500000 0.000000 0.000000
O O15 0.008300 0.179790 0.169618
O O16 0.540343 0.147795 0.527890
O O17 0.500000 0.000000 0.500000
#
# Coordination Sequence:
#
# PCOD9081335 Si02
#       8
#     2   2   2   2   2   2   2   2
#     4   8  16  32  50  76 107 140 176 213 262 312
#     4   9  19  37  52  77 110 140 176 224 265 316
#     4   9  18  32  56  80 109 137 179 224 266 311
#     4   9  19  32  54  80 105 138 182 217 258 313
#     4  11  19  32  55  83 105 143 178 216 263 322
#     4  10  19  31  55  81 106 143 179 210 264 320
#     4  11  17  32  54  81 110 137 178 222 259 318
#     4  11  19  30  54  88 107 136 180 224 264 307
#
# _framework density 27.396785000000001
#
# number of rings (size 3 to 8) (size 9 to 14) (size 15 to 20)
#    0.000    2.250    5.000    2.250    0.000    3.000 
#    0.000    0.000    0.000   15.000    0.000    0.000 
#    0.000    0.000    0.000    0.000    0.000    0.000 
#
# Total GULP energy -89414.881235 kJ/mol
# GULP energy per Si atom -5588.430077 kJ/mol
# Density = 2.733443 g / cm^3
# Si number density = 27.396785 Si / 1000 Ang^3
#
#
#
# Elastic Constant Matrix: (Units=GPa)
#
#
# Indices 1 2 3 4 5 6 
#
# 1 128.1915 45.1755 53.2076 13.4354 -43.1245 -19.3137
# 2 45.1755 142.1688 29.3439 0.8965 -16.3600 -12.6498
# 3 53.2076 29.3439 88.0619 2.9033 -40.1662 -7.0859
# 4 13.4354 0.8965 2.9033 31.1488 -7.8773 -9.7874
# 5 -43.1245 -16.3600 -40.1662 -7.8773 50.7671 11.4227
# 6 -19.3137 -12.6498 -7.0859 -9.7874 11.4227 51.2050
#
#
#
# Elastic Compliance Matrix: (Units=1/GPa)
#
#
# Indices 1 2 3 4 5 6 
#
# 1 0.012976 -0.002413 -0.003938 -0.003018 0.006261 0.001780
# 2 -0.002413 0.008137 -0.001528 0.001162 -0.000743 0.001277
# 3 -0.003938 -0.001528 0.019752 0.002620 0.012516 -0.001421
# 4 -0.003018 0.001162 0.002620 0.035905 0.004233 0.005430
# 5 0.006261 -0.000743 0.012516 0.004233 0.036086 -0.003331
# 6 0.001780 0.001277 -0.001421 0.005430 -0.003331 0.022100
#
#
# Mechanical properties :
#
#
# Convention : Reuss Voigt Hill
#
# Bulk Modulus (GPa) = 39.82860 68.20847 54.01853
# Shear Modulus (GPa) = 31.43010 42.00386 36.71698
#
# Velocity S-wave (km/s) = 3.39074 3.91982 3.66484
# Velocity P-wave (km/s) = 5.46797 6.74071 6.13742
#
# Compressibility (1/GPa) = 0.02510759
#
# Stress axis : x y z
#
# Youngs Moduli (GPa) = 77.06383 122.90044 50.62656
#
# Poissons Ratio (x) = 0.29651 0.19937
# Poissons Ratio (y) = 0.18593 0.07737
# Poissons Ratio (z) = 0.30348 0.18782
#
# Static dielectric constant tensor:
#      x y z
#    x 2.189660 0.066780 -0.087050 
#    y 0.066780 2.193150 -0.051300 
#    z -0.087050 -0.051300 2.603810 
# 
# From -- ./inp_files/315169.got.cif
#   From: 2010.05.17/outbox.cif.g08.bks.cpg/sg2_158_cif.got.tgz:315169.got - 2010.06.03 11:33:40.
