data_PCOD9081083
_publ_section_title
;
Structure prediction by ZEFSAII (Michael W. Deem and Ramdas Pophale) SiO2 
 PCOD9081083
Probable space group: P -1
;
_chemical_formula_sum "Si O2"
_cell_formula_units_Z 16
_cell_length_a 14.231374
_cell_length_b 15.388538
_cell_length_c 13.911641
_cell_angle_alpha 19.418028
_cell_angle_beta 81.053959
_cell_angle_gamma 89.520254
_cell_volume 907.536340
_symmetry_space_group_name_H-M "P -1"
_symmetry_group_IT_number 2
_symmetry_cell_setting 'triclinic'
loop_
_space_group_symop_operation_xyz
x,y,z
-x,-y,-z
loop_
_atom_site_type_symbol
_atom_site_label
_atom_site_fract_x
_atom_site_fract_y
_atom_site_fract_z
Si Si1 0.385832 0.123442 0.325746
Si Si2 0.441290 0.675034 0.422080
Si Si3 0.364012 0.562155 0.999853
Si Si4 0.450081 0.126165 0.100611
Si Si5 0.663231 0.776795 0.240745
Si Si6 0.887098 0.079106 0.886953
Si Si7 0.106269 0.458853 0.445913
Si Si8 0.314715 0.510764 0.273075
O O1 0.510042 0.284481 0.163557
O O2 0.385857 0.068597 0.269619
O O3 0.336143 0.824007 0.702598
O O4 0.340348 0.338845 0.149683
O O5 0.561118 0.841744 0.190640
O O6 0.368662 0.517667 0.507526
O O7 0.413827 0.864526 0.304858
O O8 0.444960 0.403509 0.762753
O O9 0.316172 0.421863 0.255538
O O10 0.573253 0.215403 0.013351
O O11 0.684172 0.717107 0.409704
O O12 0.771629 0.008570 0.939201
O O13 0.896027 0.269143 0.782685
O O14 0.992506 0.273094 0.610279
O O15 0.886909 0.773195 0.235545
O O16 0.210374 0.553790 0.267083
#
# Coordination Sequence:
#
# PCOD9081083 Si02
#       8
#     2   2   2   2   2   2   2   2
#     4   9  17  29  42  59  84 110 140 177 213 252
#     4  10  20  30  44  64  86 119 155 177 205 249
#     4   9  17  27  42  62  83 111 140 168 213 264
#     4  10  19  31  45  62  87 117 148 182 213 246
#     4   9  19  31  44  63  92 120 147 178 208 246
#     4   9  17  29  43  59  84 116 145 176 210 244
#     4   9  17  28  43  62  83 113 147 172 208 258
#     4   9  18  29  45  65  91 118 142 173 214 258
#
# _framework density 17.630148999999999
#
# number of rings (size 3 to 8) (size 9 to 14) (size 15 to 20)
#    0.000    2.750    0.000    1.500    0.000   14.500 
#    0.000    0.000    0.000    0.000    0.000    0.000 
#    0.000    6.000    0.000    0.000    0.000    0.000 
#
# Total GULP energy -89126.362512 kJ/mol
# GULP energy per Si atom -5570.397657 kJ/mol
# Density = 1.759002 g / cm^3
# Si number density = 17.630149 Si / 1000 Ang^3
#
#
#
# Elastic Constant Matrix: (Units=GPa)
#
#
# Indices 1 2 3 4 5 6 
#
# 1 47.1648 16.7382 20.6201 3.0815 -12.3005 -7.9752
# 2 16.7382 113.5356 36.3011 -5.8181 4.2118 -4.9526
# 3 20.6201 36.3011 54.8607 -11.8385 1.3124 -1.2965
# 4 3.0815 -5.8181 -11.8385 24.8492 -7.4862 3.8070
# 5 -12.3005 4.2118 1.3124 -7.4862 26.4050 -2.5810
# 6 -7.9752 -4.9526 -1.2965 3.8070 -2.5810 16.7300
#
#
#
# Elastic Compliance Matrix: (Units=1/GPa)
#
#
# Indices 1 2 3 4 5 6 
#
# 1 0.037034 -0.000726 -0.015555 -0.010207 0.017322 0.021229
# 2 -0.000726 0.011432 -0.007583 -0.001859 -0.002062 0.002555
# 3 -0.015555 -0.007583 0.032390 0.016071 -0.004210 -0.011456
# 4 -0.010207 -0.001859 0.016071 0.053587 0.008464 -0.015058
# 5 0.017322 -0.002062 -0.004210 0.008464 0.050162 0.013134
# 6 0.021229 0.002555 -0.011456 -0.015058 0.013134 0.075214
#
#
# Mechanical properties :
#
#
# Convention : Reuss Voigt Hill
#
# Bulk Modulus (GPa) = 30.18500 40.32000 35.25250
# Shear Modulus (GPa) = 15.69414 23.05695 19.37555
#
# Velocity S-wave (km/s) = 2.98684 3.62029 3.31871
# Velocity P-wave (km/s) = 5.39012 6.35570 5.89272
#
# Compressibility (1/GPa) = 0.03312904
#
# Stress axis : x y z
#
# Youngs Moduli (GPa) = 27.00196 87.47281 30.87360
#
# Poissons Ratio (x) = 0.06352 0.48023
# Poissons Ratio (y) = 0.01961 0.23412
# Poissons Ratio (z) = 0.42000 0.66331
#
# Static dielectric constant tensor:
#      x y z
#    x 1.668230 -0.007710 -0.004080 
#    y -0.007710 1.599120 0.004400 
#    z -0.004080 0.004400 1.649920 
# 
# From -- ./inp_files/79647.got.cif
#   From: 2010.05.17/outbox.cif.g08.bks.cpg/sg2_40_cif.got.tgz:79647.got - 2010.06.03 11:33:40.
