data_PCOD9082235
_publ_section_title
;
Structure prediction by ZEFSAII (Michael W. Deem and Ramdas Pophale) SiO2 
 PCOD9082235
Probable space group: P -1
;
_chemical_formula_sum "Si O2"
_cell_formula_units_Z 12
_cell_length_a 5.974540
_cell_length_b 8.885726
_cell_length_c 12.618108
_cell_angle_alpha 107.734126
_cell_angle_beta 136.493004
_cell_angle_gamma 74.356993
_cell_volume 438.039907
_symmetry_space_group_name_H-M "P -1"
_symmetry_group_IT_number 2
_symmetry_cell_setting 'triclinic'
loop_
_space_group_symop_operation_xyz
x,y,z
-x,-y,-z
loop_
_atom_site_type_symbol
_atom_site_label
_atom_site_fract_x
_atom_site_fract_y
_atom_site_fract_z
Si Si1 0.554348 0.015045 0.706956
Si Si2 0.521384 0.372273 0.319514
Si Si3 0.183731 0.701673 0.013012
Si Si4 0.668516 0.426423 0.171767
Si Si5 0.976709 0.967830 0.649567
Si Si6 0.214791 0.668104 0.367765
O O1 0.733534 0.152905 0.856204
O O2 0.828708 0.924265 0.704701
O O3 0.334851 0.944392 0.711930
O O4 0.278216 0.077697 0.539575
O O5 0.767037 0.351374 0.301829
O O6 0.462983 0.563661 0.356963
O O7 0.627531 0.314817 0.459051
O O8 0.191325 0.307145 0.147610
O O9 0.333996 0.537403 0.080298
O O10 0.355179 0.700067 0.956046
O O11 0.930847 0.549706 0.259211
O O12 0.921043 0.160966 0.678661
#
# Coordination Sequence:
#
# PCOD9082235 Si02
#       6
#     2   2   2   2   2   2
#     4  10  21  37  61  83 113 139 195 234 278 324
#     4  10  21  33  52  80 114 147 181 228 281 335
#     4  10  20  32  52  83 106 146 180 236 274 330
#     4  10  19  33  53  78 109 147 181 228 278 330
#     4  10  21  38  59  86 106 151 186 236 275 330
#     4  10  20  35  53  79 111 147 189 222 279 338
#
# _framework density 27.394767000000002
#
# number of rings (size 3 to 8) (size 9 to 14) (size 15 to 20)
#    0.000    2.000    1.667    2.000    2.333    0.000 
#    0.000    0.833    0.000    1.000    0.000    0.000 
#    0.000    0.000    0.000    0.000    0.000    0.000 
#
# Total GULP energy -67148.016472 kJ/mol
# GULP energy per Si atom -5595.668039 kJ/mol
# Density = 2.733241 g / cm^3
# Si number density = 27.394767 Si / 1000 Ang^3
#
#
#
# Elastic Constant Matrix: (Units=GPa)
#
#
# Indices 1 2 3 4 5 6 
#
# 1 177.4842 52.6147 72.9351 8.8273 -31.3774 -16.0237
# 2 52.6147 66.6944 42.1836 6.4431 -5.8875 -10.7481
# 3 72.9351 42.1836 180.5303 29.3346 -11.5730 -11.4121
# 4 8.8273 6.4431 29.3346 45.2818 -2.3440 -6.5388
# 5 -31.3774 -5.8875 -11.5730 -2.3440 57.3676 -1.2436
# 6 -16.0237 -10.7481 -11.4121 -6.5388 -1.2436 49.0359
#
#
#
# Elastic Compliance Matrix: (Units=1/GPa)
#
#
# Indices 1 2 3 4 5 6 
#
# 1 0.008817 -0.005083 -0.002163 0.000822 0.003930 0.001473
# 2 -0.005083 0.021036 -0.002804 0.000085 -0.001134 0.002280
# 3 -0.002163 -0.002804 0.007742 -0.004211 -0.000083 -0.000083
# 4 0.000822 0.000085 -0.004211 0.025060 0.000690 0.002666
# 5 0.003930 -0.001134 -0.000083 0.000690 0.019511 0.001603
# 6 0.001473 0.002280 -0.000083 0.002666 0.001603 0.021751
#
#
# Mechanical properties :
#
#
# Convention : Reuss Voigt Hill
#
# Bulk Modulus (GPa) = 57.15806 84.46396 70.81101
# Shear Modulus (GPa) = 38.50635 47.46876 42.98756
#
# Velocity S-wave (km/s) = 3.75321 4.16717 3.96560
# Velocity P-wave (km/s) = 6.30016 7.35206 6.84634
#
# Compressibility (1/GPa) = 0.01749535
#
# Stress axis : x y z
#
# Youngs Moduli (GPa) = 113.42134 47.53703 129.16507
#
# Poissons Ratio (x) = 0.24161 0.27937
# Poissons Ratio (y) = 0.57647 0.36223
# Poissons Ratio (z) = 0.24531 0.13331
#
# Static dielectric constant tensor:
#      x y z
#    x 2.257050 -0.020420 -0.002620 
#    y -0.020420 2.244330 -0.043840 
#    z -0.002620 -0.043840 2.040160 
# 
# From -- ./inp_files/18852.got.cif
#   From: 2010.05.17/outbox.cif.g08.bks.cpg/sg2_10_cif.got.tgz:18852.got - 2010.06.03 11:33:40.
