data_PCOD9082619
_publ_section_title
;
Structure prediction by ZEFSAII (Michael W. Deem and Ramdas Pophale) SiO2 
 PCOD9082619
Probable space group: P -1
;
_chemical_formula_sum "Si O2"
_cell_formula_units_Z 16
_cell_length_a 12.465219
_cell_length_b 10.321083
_cell_length_c 15.933532
_cell_angle_alpha 146.447598
_cell_angle_beta 48.317286
_cell_angle_gamma 110.389771
_cell_volume 733.495327
_symmetry_space_group_name_H-M "P -1"
_symmetry_group_IT_number 2
_symmetry_cell_setting 'triclinic'
loop_
_space_group_symop_operation_xyz
x,y,z
-x,-y,-z
loop_
_atom_site_type_symbol
_atom_site_label
_atom_site_fract_x
_atom_site_fract_y
_atom_site_fract_z
Si Si1 0.221393 0.266062 0.631908
Si Si2 0.372271 0.223753 0.251575
Si Si3 0.284974 0.052615 0.673485
Si Si4 0.813793 0.052715 0.793693
Si Si5 0.325732 0.657896 0.223819
Si Si6 0.139242 0.539014 0.124750
Si Si7 0.840405 0.301207 0.497565
Si Si8 0.424838 0.498598 0.705553
O O1 0.235554 0.213429 0.697633
O O2 0.332402 0.405947 0.637595
O O3 0.036593 0.440867 0.787207
O O4 0.278883 0.968217 0.407360
O O5 0.222857 0.448380 0.395148
O O6 0.464299 0.378583 0.323265
O O7 0.294466 0.067214 0.256469
O O8 0.500000 0.000000 0.000000
O O9 0.153715 0.947793 0.690929
O O10 0.457080 0.773018 0.447815
O O11 0.271776 0.257664 0.862339
O O12 0.864324 0.216039 0.792656
O O13 0.705872 0.267635 0.038508
O O14 0.983198 0.813847 0.614053
O O15 0.199343 0.576881 0.203566
O O16 0.302393 0.619965 0.314115
O O17 0.500000 0.500000 0.000000
#
# Coordination Sequence:
#
# PCOD9082619 Si02
#       8
#     2   2   2   2   2   2   2   2
#     4  11  20  35  53  84 118 148 191 238 289 345
#     4   9  21  36  58  90 110 151 199 246 284 325
#     4  10  19  33  56  86 115 147 193 240 286 337
#     4  11  20  34  60  85 123 145 195 242 281 340
#     4  11  25  36  55  86 123 155 183 234 300 358
#     4  12  22  35  57  92 121 151 186 231 308 347
#     4  10  21  39  58  87 116 153 196 239 292 340
#     4  10  20  33  57  86 115 149 194 241 285 329
#
# _framework density 21.813364
#
# number of rings (size 3 to 8) (size 9 to 14) (size 15 to 20)
#    0.000    1.500    3.750    3.000    7.000    0.000 
#    0.000    0.000    0.000    0.750    9.750    8.750 
#    0.000    0.000    0.000    0.000    0.000    0.000 
#
# Total GULP energy -89251.149489 kJ/mol
# GULP energy per Si atom -5578.196843 kJ/mol
# Density = 2.176372 g / cm^3
# Si number density = 21.813364 Si / 1000 Ang^3
#
#
#
# Elastic Constant Matrix: (Units=GPa)
#
#
# Indices 1 2 3 4 5 6 
#
# 1 119.3670 35.3962 30.3392 3.3607 9.2060 30.2664
# 2 35.3962 54.5806 12.6375 10.7385 4.4535 27.3646
# 3 30.3392 12.6375 93.9184 7.9195 6.3916 8.0101
# 4 3.3607 10.7385 7.9195 19.0349 8.7951 5.3103
# 5 9.2060 4.4535 6.3916 8.7951 33.7562 -3.7143
# 6 30.2664 27.3646 8.0101 5.3103 -3.7143 27.1768
#
#
#
# Elastic Compliance Matrix: (Units=1/GPa)
#
#
# Indices 1 2 3 4 5 6 
#
# 1 0.013735 -0.001395 -0.003093 0.006864 -0.006437 -0.015201
# 2 -0.001395 0.041192 -0.000559 -0.008643 -0.006990 -0.039025
# 3 -0.003093 -0.000559 0.011988 -0.004485 -0.000036 0.001346
# 4 0.006864 -0.008643 -0.004485 0.071309 -0.020034 -0.014292
# 5 -0.006437 -0.006990 -0.000036 -0.020034 0.040127 0.023617
# 6 -0.015201 -0.039025 0.001346 -0.014292 0.023617 0.098643
#
#
# Mechanical properties :
#
#
# Convention : Reuss Voigt Hill
#
# Bulk Modulus (GPa) = 17.59967 47.17909 32.38938
# Shear Modulus (GPa) = 16.33830 28.62646 22.48238
#
# Velocity S-wave (km/s) = 2.73976 3.62655 3.21389
# Velocity P-wave (km/s) = 4.25373 6.26189 5.35283
#
# Compressibility (1/GPa) = 0.05681924
#
# Stress axis : x y z
#
# Youngs Moduli (GPa) = 72.80697 24.27645 83.41755
#
# Poissons Ratio (x) = 0.03387 0.25805
# Poissons Ratio (y) = 0.10158 0.04665
# Poissons Ratio (z) = 0.22523 0.01358
#
# Static dielectric constant tensor:
#      x y z
#    x 1.825020 0.023190 -0.025180 
#    y 0.023190 1.831940 -0.018290 
#    z -0.025180 -0.018290 1.825440 
# 
# From -- ./inp_files/239170.got.cif
#   From: 2010.05.17/outbox.cif.g08.bks.cpg/sg2_120_cif.got.tgz:239170.got - 2010.06.03 11:33:40.
