data_PCOD9082889
_publ_section_title
;
Structure prediction by ZEFSAII (Michael W. Deem and Ramdas Pophale) SiO2 
 PCOD9082889
Probable space group: P -1
;
_chemical_formula_sum "Si O2"
_cell_formula_units_Z 16
_cell_length_a 16.302980
_cell_length_b 17.558324
_cell_length_c 9.366741
_cell_angle_alpha 36.109731
_cell_angle_beta 147.399511
_cell_angle_gamma 149.972168
_cell_volume 691.578644
_symmetry_space_group_name_H-M "P -1"
_symmetry_group_IT_number 2
_symmetry_cell_setting 'triclinic'
loop_
_space_group_symop_operation_xyz
x,y,z
-x,-y,-z
loop_
_atom_site_type_symbol
_atom_site_label
_atom_site_fract_x
_atom_site_fract_y
_atom_site_fract_z
Si Si1 0.657853 0.166771 0.557281
Si Si2 0.342425 0.875228 0.828994
Si Si3 0.477475 0.231214 0.426750
Si Si4 0.124713 0.227030 0.879899
Si Si5 0.141955 0.626499 0.130610
Si Si6 0.054508 0.614145 0.577743
Si Si7 0.263389 0.031390 0.831139
Si Si8 0.942839 0.938762 0.265367
O O1 0.543759 0.223908 0.378405
O O2 0.818942 0.318464 0.476416
O O3 0.500000 0.000000 0.500000
O O4 0.750776 0.114434 0.887231
O O5 0.605739 0.949343 0.372811
O O6 0.235404 0.798009 0.937502
O O7 0.524791 0.875912 0.061725
O O8 0.194163 0.758880 0.671015
O O9 0.666613 0.360127 0.591684
O O10 0.321984 0.260752 0.153175
O O11 0.115279 0.369418 0.699167
O O12 0.088015 0.183571 0.721163
O O13 0.982158 0.079886 0.001520
O O14 0.019138 0.552093 0.205587
O O15 0.000000 0.500000 0.000000
O O16 0.116676 0.996156 0.542906
O O17 0.220415 0.107581 0.787834
#
# Coordination Sequence:
#
# PCOD9082889 Si02
#       8
#     2   2   2   2   2   2   2   2
#     4  11  20  38  63  96 121 164 211 262 311 369
#     4  10  20  38  64  91 120 158 215 261 307 364
#     4  11  22  37  67  92 118 164 211 259 308 374
#     4  11  22  36  59  92 131 159 211 252 321 368
#     4  10  24  41  60  93 126 163 207 264 315 370
#     4  11  22  39  62  89 130 168 198 258 318 373
#     4  10  19  33  58  91 128 156 207 260 321 355
#     4  10  20  32  55  95 125 162 200 271 306 366
#
# _framework density 23.135473000000001
#
# number of rings (size 3 to 8) (size 9 to 14) (size 15 to 20)
#    0.000    1.500    3.750    3.375    0.000    6.000 
#    0.000    0.000    0.000    0.750    0.000    0.000 
#    0.000    0.000    0.000    0.000    0.000    0.000 
#
# Total GULP energy -89186.446759 kJ/mol
# GULP energy per Si atom -5574.152922 kJ/mol
# Density = 2.308282 g / cm^3
# Si number density = 23.135473 Si / 1000 Ang^3
#
#
#
# Elastic Constant Matrix: (Units=GPa)
#
#
# Indices 1 2 3 4 5 6 
#
# 1 167.9931 46.5562 38.4598 -4.4480 -17.4853 28.7976
# 2 46.5562 94.9019 36.1278 4.7053 -10.2265 28.3452
# 3 38.4598 36.1278 87.0625 21.2268 -7.8487 10.6589
# 4 -4.4480 4.7053 21.2268 36.8956 4.2156 -19.4385
# 5 -17.4853 -10.2265 -7.8487 4.2156 50.2980 -3.2680
# 6 28.7976 28.3452 10.6589 -19.4385 -3.2680 45.5423
#
#
#
# Elastic Compliance Matrix: (Units=1/GPa)
#
#
# Indices 1 2 3 4 5 6 
#
# 1 0.007672 -0.001992 -0.002359 0.001031 0.001645 -0.002501
# 2 -0.001992 0.016432 -0.002717 -0.006865 0.002078 -0.011112
# 3 -0.002359 -0.002717 0.018236 -0.014412 0.002221 -0.007077
# 4 0.001031 -0.006865 -0.014412 0.052278 -0.005791 0.028892
# 5 0.001645 0.002078 0.002221 -0.005791 0.021462 -0.003785
# 6 -0.002501 -0.011112 -0.007077 0.028892 -0.003785 0.044172
#
#
# Mechanical properties :
#
#
# Convention : Reuss Voigt Hill
#
# Bulk Modulus (GPa) = 35.45727 65.80501 50.63114
# Shear Modulus (GPa) = 27.20482 41.80141 34.50312
#
# Velocity S-wave (km/s) = 3.43285 4.25527 3.86599
# Velocity P-wave (km/s) = 5.57421 7.25591 6.46993
#
# Compressibility (1/GPa) = 0.02820296
#
# Stress axis : x y z
#
# Youngs Moduli (GPa) = 130.34172 60.85567 54.83618
#
# Poissons Ratio (x) = 0.12125 0.12937
# Poissons Ratio (y) = 0.25970 0.14900
# Poissons Ratio (z) = 0.30749 0.16536
#
# Static dielectric constant tensor:
#      x y z
#    x 2.007210 -0.062530 -0.039900 
#    y -0.062530 1.923500 -0.000800 
#    z -0.039900 -0.000800 1.954920 
# 
# From -- ./inp_files/316392.got.cif
#   From: 2010.05.17/outbox.cif.g08.bks.cpg/sg2_159_cif.got.tgz:316392.got - 2010.06.03 11:33:40.
