data_PCOD9082630
_publ_section_title
;
Structure prediction by ZEFSAII (Michael W. Deem and Ramdas Pophale) SiO2 
 PCOD9082630
Probable space group: P -1
;
_chemical_formula_sum "Si O2"
_cell_formula_units_Z 16
_cell_length_a 12.066429
_cell_length_b 22.574433
_cell_length_c 19.069046
_cell_angle_alpha 162.343858
_cell_angle_beta 28.447876
_cell_angle_gamma 143.738722
_cell_volume 732.417246
_symmetry_space_group_name_H-M "P -1"
_symmetry_group_IT_number 2
_symmetry_cell_setting 'triclinic'
loop_
_space_group_symop_operation_xyz
x,y,z
-x,-y,-z
loop_
_atom_site_type_symbol
_atom_site_label
_atom_site_fract_x
_atom_site_fract_y
_atom_site_fract_z
Si Si1 0.837001 0.266571 0.335911
Si Si2 0.570210 0.619119 0.196906
Si Si3 0.573381 0.521632 0.662829
Si Si4 0.264130 0.781457 0.437205
Si Si5 0.851284 0.424870 0.938090
Si Si6 0.907737 0.930056 0.693824
Si Si7 0.499941 0.698581 0.679633
Si Si8 0.829304 0.831401 0.837134
O O1 0.651707 0.367067 0.611632
O O2 0.814255 0.405038 0.436915
O O3 0.083382 0.193732 0.158032
O O4 0.754369 0.066855 0.132283
O O5 0.478299 0.791500 0.384099
O O6 0.634294 0.411130 0.884332
O O7 0.788716 0.592274 0.099594
O O8 0.484926 0.374295 0.492118
O O9 0.629534 0.707618 0.799954
O O10 0.386261 0.593646 0.909350
O O11 0.117500 0.945421 0.650098
O O12 0.052103 0.748612 0.569368
O O13 0.972685 0.216090 0.599576
O O14 0.000000 0.500000 0.000000
O O15 0.715986 0.810721 0.699645
O O16 0.749123 0.139533 0.993186
O O17 0.500000 0.500000 0.500000
#
# Coordination Sequence:
#
# PCOD9082630 Si02
#       8
#     2   2   2   2   2   2   2   2
#     4   9  19  35  56  83 116 152 186 233 298 347
#     4   8  17  31  58  85 113 150 195 233 286 359
#     4  11  21  36  57  81 116 150 195 243 288 347
#     4   9  16  33  57  86 112 149 192 239 292 345
#     4  10  19  38  59  86 120 162 197 242 300 351
#     4  10  21  39  61  81 119 159 197 244 301 349
#     4  11  23  38  57  87 114 154 203 248 294 352
#     4  10  19  33  56  87 115 147 192 237 287 354
#
# _framework density 21.845469999999999
#
# number of rings (size 3 to 8) (size 9 to 14) (size 15 to 20)
#    0.000    2.250    1.250    1.875    0.000    1.000 
#    0.000    5.625    0.000    0.000    0.000   33.250 
#    0.000    0.000    0.000    0.000    0.000    0.000 
#
# Total GULP energy -89108.223892 kJ/mol
# GULP energy per Si atom -5569.263993 kJ/mol
# Density = 2.179575 g / cm^3
# Si number density = 21.845470 Si / 1000 Ang^3
#
#
#
# Elastic Constant Matrix: (Units=GPa)
#
#
# Indices 1 2 3 4 5 6 
#
# 1 127.4159 3.5734 35.3886 7.3634 -15.3049 -21.5858
# 2 3.5734 40.2542 30.1657 13.7618 2.6427 -8.5130
# 3 35.3886 30.1657 128.9426 -3.2936 -7.6013 -12.3162
# 4 7.3634 13.7618 -3.2936 32.9590 -10.3682 5.7221
# 5 -15.3049 2.6427 -7.6013 -10.3682 29.3434 1.5023
# 6 -21.5858 -8.5130 -12.3162 5.7221 1.5023 23.8280
#
#
#
# Elastic Compliance Matrix: (Units=1/GPa)
#
#
# Indices 1 2 3 4 5 6 
#
# 1 0.011402 0.007055 -0.003705 -0.007776 0.000952 0.012742
# 2 0.007055 0.054779 -0.014093 -0.036969 -0.019441 0.028781
# 3 -0.003705 -0.014093 0.012252 0.010905 0.006624 -0.005095
# 4 -0.007776 -0.036969 0.010905 0.062071 0.025625 -0.031137
# 5 0.000952 -0.019441 0.006624 0.025625 0.047702 -0.011820
# 6 0.012742 0.028781 -0.005095 -0.031137 -0.011820 0.069382
#
#
# Mechanical properties :
#
#
# Convention : Reuss Voigt Hill
#
# Bulk Modulus (GPa) = 17.56047 48.31867 32.93957
# Shear Modulus (GPa) = 16.77542 32.39174 24.58358
#
# Velocity S-wave (km/s) = 2.77413 3.85485 3.35825
# Velocity P-wave (km/s) = 4.27984 6.47916 5.49075
#
# Compressibility (1/GPa) = 0.05694609
#
# Stress axis : x y z
#
# Youngs Moduli (GPa) = 87.70495 18.25531 81.62165
#
# Poissons Ratio (x) = -0.12879 0.30243
# Poissons Ratio (y) = -0.61877 1.15028
# Poissons Ratio (z) = 0.32497 0.25727
#
# Static dielectric constant tensor:
#      x y z
#    x 1.929780 0.051390 -0.033930 
#    y 0.051390 1.800740 -0.000150 
#    z -0.033930 -0.000150 1.794720 
# 
# From -- ./inp_files/521547.got.cif
#   From: 2010.05.17/outbox.cif.g08.bks.cpg/sg2_261_cif.got.tgz:521547.got - 2010.06.03 11:33:40.
