data_PCOD9082091
_publ_section_title
;
Structure prediction by ZEFSAII (Michael W. Deem and Ramdas Pophale) SiO2 
 PCOD9082091
Probable space group: P -1
;
_chemical_formula_sum "Si O2"
_cell_formula_units_Z 14
_cell_length_a 11.097285
_cell_length_b 10.599635
_cell_length_c 11.320363
_cell_angle_alpha 111.511030
_cell_angle_beta 154.293401
_cell_angle_gamma 66.478776
_cell_volume 529.516067
_symmetry_space_group_name_H-M "P -1"
_symmetry_group_IT_number 2
_symmetry_cell_setting 'triclinic'
loop_
_space_group_symop_operation_xyz
x,y,z
-x,-y,-z
loop_
_atom_site_type_symbol
_atom_site_label
_atom_site_fract_x
_atom_site_fract_y
_atom_site_fract_z
Si Si1 0.137451 0.696367 0.908329
Si Si2 0.166198 0.955921 0.431803
Si Si3 0.302149 0.355783 0.329305
Si Si4 0.262129 0.972713 0.129576
Si Si5 0.021178 0.754004 0.550083
Si Si6 0.404571 0.415628 0.997423
Si Si7 0.111655 0.669904 0.249752
O O1 0.864366 0.727880 0.759859
O O2 0.028460 0.711620 0.682020
O O3 0.340263 0.807364 0.140657
O O4 0.294236 0.543961 0.027293
O O5 0.449811 0.965002 0.607762
O O6 0.118024 0.085536 0.522216
O O7 0.133932 0.803300 0.394075
O O8 0.898902 0.986483 0.120217
O O9 0.214700 0.517634 0.337886
O O10 0.636193 0.318537 0.616077
O O11 0.174412 0.332160 0.077534
O O12 0.000000 0.000000 0.000000
O O13 0.345084 0.702620 0.783403
O O14 0.843604 0.659315 0.290094
O O15 0.500000 0.500000 0.000000
#
# Coordination Sequence:
#
# PCOD9082091 Si02
#       7
#     2   2   2   2   2   2   2
#     4  10  20  34  55  78 106 137 171 211 260 305
#     4  11  20  34  53  72 103 140 168 203 260 311
#     4  10  22  36  55  78 103 137 177 212 249 303
#     4  11  22  32  49  79 107 132 166 209 257 311
#     4  10  21  33  50  78 104 133 169 211 259 307
#     4  10  19  33  50  74 106 133 168 211 255 306
#     4  10  21  38  54  75 105 139 175 212 250 300
#
# _framework density 26.439233999999999
#
# number of rings (size 3 to 8) (size 9 to 14) (size 15 to 20)
#    0.000    1.714    0.000    7.286    0.000    8.000 
#    0.000    0.000    0.000    1.714    0.000    0.000 
#    0.000    1.143    0.000    0.000    0.000    0.000 
#
# Total GULP energy -78280.037680 kJ/mol
# GULP energy per Si atom -5591.431263 kJ/mol
# Density = 2.637906 g / cm^3
# Si number density = 26.439234 Si / 1000 Ang^3
#
#
#
# Elastic Constant Matrix: (Units=GPa)
#
#
# Indices 1 2 3 4 5 6 
#
# 1 46.4809 16.7861 8.9656 -3.1748 12.6299 5.6698
# 2 16.7861 168.2937 31.3898 40.3564 3.7539 -17.1763
# 3 8.9656 31.3898 115.1566 7.0758 14.9396 -1.3773
# 4 -3.1748 40.3564 7.0758 44.3967 2.6895 9.5915
# 5 12.6299 3.7539 14.9396 2.6895 33.8963 -1.7984
# 6 5.6698 -17.1763 -1.3773 9.5915 -1.7984 35.2094
#
#
#
# Elastic Compliance Matrix: (Units=1/GPa)
#
#
# Indices 1 2 3 4 5 6 
#
# 1 0.029216 -0.006564 0.000212 0.011232 -0.011757 -0.011559
# 2 -0.006564 0.010866 -0.002047 -0.012365 0.003647 0.009833
# 3 0.000212 -0.002047 0.009714 0.000821 -0.004257 -0.001094
# 4 0.011232 -0.012365 0.000821 0.038935 -0.007264 -0.018786
# 5 -0.011757 0.003647 -0.004257 -0.007264 0.036320 0.007340
# 6 -0.011559 0.009833 -0.001094 -0.018786 0.007340 0.040509
#
#
# Mechanical properties :
#
#
# Convention : Reuss Voigt Hill
#
# Bulk Modulus (GPa) = 30.30606 49.35713 39.83160
# Shear Modulus (GPa) = 25.85877 40.88645 33.37261
#
# Velocity S-wave (km/s) = 3.13076 3.93674 3.55665
# Velocity P-wave (km/s) = 4.95544 6.27475 5.65371
#
# Compressibility (1/GPa) = 0.03299670
#
# Stress axis : x y z
#
# Youngs Moduli (GPa) = 34.22813 92.03159 102.94531
#
# Poissons Ratio (x) = 0.60413 -0.02178
# Poissons Ratio (y) = 0.22469 0.21068
# Poissons Ratio (z) = -0.00724 0.18835
#
# Static dielectric constant tensor:
#      x y z
#    x 1.865850 -0.095300 -0.102780 
#    y -0.095300 2.159320 -0.030620 
#    z -0.102780 -0.030620 1.924620 
# 
# From -- ./inp_files/531267.got.cif
#   From: 2010.05.17/outbox.cif.g08.bks.cpg/sg2_266_cif.got.tgz:531267.got - 2010.06.03 11:33:40.
