data_PCOD9082573
_publ_section_title
;
Structure prediction by ZEFSAII (Michael W. Deem and Ramdas Pophale) SiO2 
 PCOD9082573
Probable space group: P -1
;
_chemical_formula_sum "Si O2"
_cell_formula_units_Z 16
_cell_length_a 22.802733
_cell_length_b 5.627229
_cell_length_c 7.344962
_cell_angle_alpha 105.088071
_cell_angle_beta 65.434726
_cell_angle_gamma 62.084513
_cell_volume 624.388736
_symmetry_space_group_name_H-M "P -1"
_symmetry_group_IT_number 2
_symmetry_cell_setting 'triclinic'
loop_
_space_group_symop_operation_xyz
x,y,z
-x,-y,-z
loop_
_atom_site_type_symbol
_atom_site_label
_atom_site_fract_x
_atom_site_fract_y
_atom_site_fract_z
Si Si1 0.068697 0.501235 0.013170
Si Si2 0.316851 0.723777 0.073789
Si Si3 0.241408 0.810415 0.776948
Si Si4 0.164997 0.373713 0.528054
Si Si5 0.307933 0.117339 0.614330
Si Si6 0.498050 0.715527 0.386187
Si Si7 0.060165 0.176386 0.475243
Si Si8 0.785323 0.457257 0.832098
O O1 0.117094 0.548940 0.812427
O O2 0.143823 0.149101 0.938377
O O3 0.000000 0.500000 0.000000
O O4 0.008005 0.781536 0.295294
O O5 0.278810 0.771019 0.925580
O O6 0.415764 0.528043 0.890037
O O7 0.283966 0.552034 0.167564
O O8 0.265927 0.065749 0.309734
O O9 0.263978 0.466753 0.644343
O O10 0.289733 0.870040 0.584495
O O11 0.121936 0.217968 0.507526
O O12 0.157120 0.575687 0.410566
O O13 0.408823 0.903907 0.436550
O O14 0.270865 0.250583 0.896156
O O15 0.500000 0.500000 0.500000
O O16 0.500000 0.000000 0.500000
O O17 0.000000 0.500000 0.500000
O O18 0.865320 0.156863 0.788403
#
# Coordination Sequence:
#
# PCOD9082573 Si02
#       8
#     2   2   2   2   2   2   2   2
#     4  10  23  43  60  85 120 163 214 258 309 366
#     4  10  20  35  62  89 123 154 201 250 307 362
#     4  11  21  41  61  89 123 161 208 253 310 359
#     4  10  20  38  55  80 118 156 203 246 311 367
#     4  11  21  37  63  95 124 161 198 258 312 361
#     4  12  19  33  60 101 132 151 203 254 308 367
#     4  10  21  37  56  83 113 149 203 262 307 365
#     4  10  19  33  56  82 117 153 198 246 310 365
#
# _framework density 25.625064999999999
#
# number of rings (size 3 to 8) (size 9 to 14) (size 15 to 20)
#    0.000    1.500    5.000    2.250    0.000    1.000 
#   11.250    0.000    0.000    1.500    0.000    0.000 
#    0.000    0.000    0.000    0.000    0.000    0.000 
#
# Total GULP energy -89184.411213 kJ/mol
# GULP energy per Si atom -5574.025701 kJ/mol
# Density = 2.556674 g / cm^3
# Si number density = 25.625065 Si / 1000 Ang^3
#
#
#
# Elastic Constant Matrix: (Units=GPa)
#
#
# Indices 1 2 3 4 5 6 
#
# 1 77.5201 14.8832 46.8084 -2.1356 -36.2683 8.2786
# 2 14.8832 87.8080 43.5131 -7.0494 -27.9310 6.7851
# 3 46.8084 43.5131 180.9754 13.4537 -50.0235 -8.7486
# 4 -2.1356 -7.0494 13.4537 42.7028 -12.2395 -10.6709
# 5 -36.2683 -27.9310 -50.0235 -12.2395 60.1247 3.5607
# 6 8.2786 6.7851 -8.7486 -10.6709 3.5607 48.7254
#
#
#
# Elastic Compliance Matrix: (Units=1/GPa)
#
#
# Indices 1 2 3 4 5 6 
#
# 1 0.020660 0.002722 -0.003156 0.004952 0.012363 -0.004275
# 2 0.002722 0.015343 -0.002782 0.005102 0.007644 -0.002540
# 3 -0.003156 -0.002782 0.008073 -0.001853 0.003040 0.001745
# 4 0.004952 0.005102 -0.001853 0.028727 0.009443 0.003717
# 5 0.012363 0.007644 0.003040 0.009443 0.032265 -0.002909
# 6 -0.004275 -0.002540 0.001745 0.003717 -0.002909 0.022943
#
#
# Mechanical properties :
#
#
# Convention : Reuss Voigt Hill
#
# Bulk Modulus (GPa) = 26.56418 61.85700 44.21059
# Shear Modulus (GPa) = 34.01597 46.38383 40.19990
#
# Velocity S-wave (km/s) = 3.64737 4.25914 3.96507
# Velocity P-wave (km/s) = 5.30346 6.95548 6.18488
#
# Compressibility (1/GPa) = 0.03764467
#
# Stress axis : x y z
#
# Youngs Moduli (GPa) = 48.40377 65.17548 123.86560
#
# Poissons Ratio (x) = -0.17743 0.39088
# Poissons Ratio (y) = -0.13177 0.34464
# Poissons Ratio (z) = 0.15275 0.18134
#
# Static dielectric constant tensor:
#      x y z
#    x 2.298380 -0.105070 0.128890 
#    y -0.105070 1.584720 -0.411080 
#    z 0.128890 -0.411080 1.896080 
# 
# From -- ./inp_files/355998.got.cif
#   From: 2010.05.17/outbox.cif.g08.bks.cpg/sg2_178_cif.got.tgz:355998.got - 2010.06.03 11:33:40.
