data_PCOD9082234
_publ_section_title
;
Structure prediction by ZEFSAII (Michael W. Deem and Ramdas Pophale) SiO2 
 PCOD9082234
Probable space group: P -1
;
_chemical_formula_sum "Si O2"
_cell_formula_units_Z 16
_cell_length_a 19.542095
_cell_length_b 6.828449
_cell_length_c 6.677686
_cell_angle_alpha 118.335683
_cell_angle_beta 56.338708
_cell_angle_gamma 102.141888
_cell_volume 651.115204
_symmetry_space_group_name_H-M "P -1"
_symmetry_group_IT_number 2
_symmetry_cell_setting 'triclinic'
loop_
_space_group_symop_operation_xyz
x,y,z
-x,-y,-z
loop_
_atom_site_type_symbol
_atom_site_label
_atom_site_fract_x
_atom_site_fract_y
_atom_site_fract_z
Si Si1 0.181797 0.163793 0.108097
Si Si2 0.396851 0.646580 0.179042
Si Si3 0.190282 0.536945 0.842920
Si Si4 0.541042 0.869392 0.177480
Si Si5 0.132592 0.104874 0.629148
Si Si6 0.043481 0.873393 0.183031
Si Si7 0.214899 0.642512 0.381633
Si Si8 0.672177 0.169300 0.213760
O O1 0.161447 0.129986 0.362812
O O2 0.189283 0.424771 0.201311
O O3 0.106515 0.043075 0.073271
O O4 0.268600 0.023242 0.866016
O O5 0.469564 0.812463 0.108722
O O6 0.309706 0.699161 0.241393
O O7 0.379935 0.684904 0.464348
O O8 0.422510 0.386407 0.963651
O O9 0.186733 0.274247 0.743251
O O10 0.206461 0.579819 0.599752
O O11 0.261998 0.664610 0.893442
O O12 0.100513 0.664773 0.071382
O O13 0.500000 0.000000 0.500000
O O14 0.614898 0.030110 0.096084
O O15 0.035560 0.180266 0.842870
O O16 0.153966 0.850820 0.526167
O O17 0.000000 0.000000 0.500000
#
# Coordination Sequence:
#
# PCOD9082234 Si02
#       8
#     2   2   2   2   2   2   2   2
#     4   9  18  34  52  75 106 140 179 215 263 314
#     4   9  17  29  50  85 107 135 178 217 259 321
#     4   9  19  34  53  76 103 141 180 220 262 313
#     4   9  16  28  53  83 106 137 178 212 264 318
#     4  10  20  33  53  77 105 143 177 219 271 310
#     4   9  18  34  52  72 105 142 182 224 262 310
#     4  10  19  33  53  78 108 137 175 222 264 316
#     4   9  16  31  53  77 105 139 176 217 260 312
#
# _framework density 24.573222999999999
#
# number of rings (size 3 to 8) (size 9 to 14) (size 15 to 20)
#    0.000    2.750    1.250    0.375    0.000    1.000 
#    0.000   11.250    0.000    1.500    0.000    0.000 
#    0.000    0.000    0.000    0.000    0.000    0.000 
#
# Total GULP energy -89326.809023 kJ/mol
# GULP energy per Si atom -5582.925564 kJ/mol
# Density = 2.451729 g / cm^3
# Si number density = 24.573223 Si / 1000 Ang^3
#
#
#
# Elastic Constant Matrix: (Units=GPa)
#
#
# Indices 1 2 3 4 5 6 
#
# 1 103.5586 15.0266 39.3364 7.1345 9.3451 30.6997
# 2 15.0266 137.1536 43.7069 24.0622 4.8136 32.1667
# 3 39.3364 43.7069 105.4503 26.8536 -6.7072 15.2646
# 4 7.1345 24.0622 26.8536 32.6479 8.9484 12.8282
# 5 9.3451 4.8136 -6.7072 8.9484 40.6839 5.0208
# 6 30.6997 32.1667 15.2646 12.8282 5.0208 38.3482
#
#
#
# Elastic Compliance Matrix: (Units=1/GPa)
#
#
# Indices 1 2 3 4 5 6 
#
# 1 0.016213 0.002773 -0.007373 0.007469 -0.005159 -0.014194
# 2 0.002773 0.010602 -0.003834 -0.001445 -0.001100 -0.008960
# 3 -0.007373 -0.003834 0.016934 -0.013859 0.007239 0.006066
# 4 0.007469 -0.001445 -0.013859 0.050784 -0.013209 -0.014509
# 5 -0.005159 -0.001100 0.007239 -0.013209 0.029660 0.002706
# 6 -0.014194 -0.008960 0.006066 -0.014509 0.002706 0.047040
#
#
# Mechanical properties :
#
#
# Convention : Reuss Voigt Hill
#
# Bulk Modulus (GPa) = 37.19950 60.25581 48.72765
# Shear Modulus (GPa) = 25.37284 38.87550 32.12417
#
# Velocity S-wave (km/s) = 3.21680 3.98179 3.61956
# Velocity P-wave (km/s) = 5.38221 6.76119 6.11072
#
# Compressibility (1/GPa) = 0.02688208
#
# Stress axis : x y z
#
# Youngs Moduli (GPa) = 61.67823 94.31765 59.05201
#
# Poissons Ratio (x) = -0.26152 0.43538
# Poissons Ratio (y) = -0.17102 0.22640
# Poissons Ratio (z) = 0.45474 0.36160
#
# Static dielectric constant tensor:
#      x y z
#    x 2.036230 0.014930 0.047480 
#    y 0.014930 1.949130 -0.091990 
#    z 0.047480 -0.091990 2.002100 
# 
# From -- ./inp_files/351072.got.cif
#   From: 2010.05.17/outbox.cif.g08.bks.cpg/sg2_176_cif.got.tgz:351072.got - 2010.06.03 11:33:40.
