data_PCOD9082267
_publ_section_title
;
Structure prediction by ZEFSAII (Michael W. Deem and Ramdas Pophale) SiO2 
 PCOD9082267
Probable space group: P -1
;
_chemical_formula_sum "Si O2"
_cell_formula_units_Z 16
_cell_length_a 5.674191
_cell_length_b 18.092276
_cell_length_c 10.503660
_cell_angle_alpha 50.085229
_cell_angle_beta 57.301317
_cell_angle_gamma 51.149764
_cell_volume 626.744596
_symmetry_space_group_name_H-M "P -1"
_symmetry_group_IT_number 2
_symmetry_cell_setting 'triclinic'
loop_
_space_group_symop_operation_xyz
x,y,z
-x,-y,-z
loop_
_atom_site_type_symbol
_atom_site_label
_atom_site_fract_x
_atom_site_fract_y
_atom_site_fract_z
Si Si1 0.256228 0.072294 0.599202
Si Si2 0.887572 0.302061 0.508344
Si Si3 0.240962 0.924638 0.409744
Si Si4 0.161319 0.192396 0.953945
Si Si5 0.285986 0.721560 0.770872
Si Si6 0.181567 0.372212 0.074023
Si Si7 0.322643 0.795092 0.087119
Si Si8 0.803208 0.623614 0.449530
O O1 0.454279 0.056708 0.686024
O O2 0.128363 0.199619 0.472423
O O3 0.946875 0.056710 0.686024
O O4 0.500000 0.000000 0.500000
O O5 0.784960 0.251400 0.712282
O O6 0.553657 0.361245 0.471263
O O7 0.058932 0.361235 0.471268
O O8 0.315488 0.806648 0.571191
O O9 0.000000 0.000000 0.500000
O O10 0.500160 0.142417 0.971156
O O11 0.152766 0.294767 0.757745
O O12 0.987991 0.142417 0.971147
O O13 0.951348 0.217946 0.112795
O O14 0.599930 0.658795 0.829872
O O15 0.105116 0.658793 0.829876
O O16 0.428009 0.304051 0.963922
O O17 0.000000 0.500000 0.000000
O O18 0.000000 0.500000 0.500000
#
# Coordination Sequence:
#
# PCOD9082267 Si02
#       8
#     2   2   2   2   2   2   2   2
#     4  10  21  38  58  83 110 143 192 249 303 354
#     4  10  19  35  55  78 109 149 187 233 288 339
#     4  10  21  38  58  83 110 143 192 249 303 354
#     4   8  16  30  49  73 102 139 179 216 263 328
#     4  10  19  35  55  78 109 149 187 233 288 339
#     4  10  19  33  53  82 115 151 188 228 275 345
#     4   8  16  30  49  73 102 139 179 216 263 328
#     4  10  19  33  53  82 115 151 188 228 275 345
#
# _framework density 25.528741
#
# number of rings (size 3 to 8) (size 9 to 14) (size 15 to 20)
#    0.000    2.500    0.000    2.250    0.000    0.000 
#    0.000   22.500    0.000    0.000    0.000  189.000 
#    0.000    0.000    0.000    0.000    0.000    0.000 
#
# Total GULP energy -89113.744376 kJ/mol
# GULP energy per Si atom -5569.609023 kJ/mol
# Density = 2.547064 g / cm^3
# Si number density = 25.528741 Si / 1000 Ang^3
#
#
#
# Elastic Constant Matrix: (Units=GPa)
#
#
# Indices 1 2 3 4 5 6 
#
# 1 346.7314 56.8117 24.3292 -12.1661 33.0151 5.3168
# 2 56.8117 151.8237 23.7554 -2.7724 3.2246 -0.9476
# 3 24.3292 23.7554 78.8305 16.0987 -7.6261 -1.2336
# 4 -12.1661 -2.7724 16.0987 32.4243 -3.2563 -2.3378
# 5 33.0151 3.2246 -7.6261 -3.2563 -7.4802 2.1925
# 6 5.3168 -0.9476 -1.2336 -2.3378 2.1925 9.4074
#
#
#
# Elastic Compliance Matrix: (Units=1/GPa)
#
#
# Indices 1 2 3 4 5 6 
#
# 1 0.002352 -0.001063 0.000075 0.001375 0.008358 -0.003033
# 2 -0.001063 0.007341 -0.002113 0.001413 0.000399 0.001321
# 3 0.000075 -0.002113 0.013929 -0.007993 -0.010694 0.002077
# 4 0.001375 0.001413 -0.007993 0.036070 0.001179 0.007006
# 5 0.008358 0.000399 -0.010694 0.001179 -0.082309 0.013390
# 6 -0.003033 0.001321 0.002077 0.007006 0.013390 0.107039
#
#
# Mechanical properties :
#
#
# Convention : Reuss Voigt Hill
#
# Bulk Modulus (GPa) = 57.40952 87.46425 72.43688
# Shear Modulus (GPa) = 51.85039 38.36959 45.10999
#
# Velocity S-wave (km/s) = 4.51162 3.88105 4.20816
# Velocity P-wave (km/s) = 7.04816 7.37692 7.21441
#
# Compressibility (1/GPa) = 0.01741872
#
# Stress axis : x y z
#
# Youngs Moduli (GPa) = 425.18663 136.22760 71.79015
#
# Poissons Ratio (x) = 0.14483 -0.00537
# Poissons Ratio (y) = 0.45203 0.15172
# Poissons Ratio (z) = -0.03181 0.28790
#
# Static dielectric constant tensor:
#      x y z
#    x 2.109070 -0.000830 0.009670 
#    y -0.000830 2.029090 0.022200 
#    z 0.009670 0.022200 2.003730 
# 
# From -- ./inp_files/369419.got.cif
#   From: 2010.05.17/outbox.cif.g08.bks.cpg/sg2_185_cif.got.tgz:369419.got - 2010.06.03 11:33:40.
