data_PCOD9082922
_publ_section_title
;
Structure prediction by ZEFSAII (Michael W. Deem and Ramdas Pophale) SiO2 
 PCOD9082922
Probable space group: P -1
;
_chemical_formula_sum "Si O2"
_cell_formula_units_Z 16
_cell_length_a 5.559378
_cell_length_b 20.300226
_cell_length_c 12.428430
_cell_angle_alpha 136.408085
_cell_angle_beta 46.255218
_cell_angle_gamma 125.457135
_cell_volume 689.776315
_symmetry_space_group_name_H-M "P -1"
_symmetry_group_IT_number 2
_symmetry_cell_setting 'triclinic'
loop_
_space_group_symop_operation_xyz
x,y,z
-x,-y,-z
loop_
_atom_site_type_symbol
_atom_site_label
_atom_site_fract_x
_atom_site_fract_y
_atom_site_fract_z
Si Si1 0.095423 0.114447 0.942033
Si Si2 0.841522 0.854019 0.286656
Si Si3 0.583759 0.849312 0.734453
Si Si4 0.379662 0.439584 0.199835
Si Si5 0.548177 0.971245 0.681177
Si Si6 0.282488 0.254808 0.247411
Si Si7 0.207616 0.636241 0.536234
Si Si8 0.059783 0.656167 0.961241
O O1 0.228255 0.140269 0.812192
O O2 0.211900 0.018343 0.836762
O O3 0.207318 0.200734 0.093046
O O4 0.695924 0.107236 0.058189
O O5 0.563112 0.896594 0.491349
O O6 0.174539 0.931744 0.300862
O O7 0.916276 0.747405 0.164531
O O8 0.649009 0.917031 0.692062
O O9 0.830254 0.824103 0.720366
O O10 0.432255 0.739840 0.612367
O O11 0.419539 0.554914 0.339262
O O12 0.705578 0.396820 0.094132
O O13 0.054737 0.401460 0.331460
O O14 0.246521 0.408114 0.084329
O O15 0.672800 0.297853 0.160104
O O16 0.068477 0.339808 0.436120
#
# Coordination Sequence:
#
# PCOD9082922 Si02
#       8
#     2   2   2   2   2   2   2   2
#     4  11  20  39  58  85 118 161 202 255 301 367
#     4  11  23  40  58  85 119 158 210 254 299 367
#     4  11  21  37  59  87 123 156 197 254 312 366
#     4  10  21  33  61  93 119 160 205 252 318 359
#     4  11  25  38  58  86 118 162 205 252 309 367
#     4  10  19  33  59  85 124 152 195 247 310 359
#     4   9  20  33  54  88 122 151 193 255 304 369
#     4  11  19  37  59  88 120 160 206 256 300 369
#
# _framework density 23.195926
#
# number of rings (size 3 to 8) (size 9 to 14) (size 15 to 20)
#    0.000    1.500    3.750    2.250    1.750    5.500 
#    0.000    0.000    0.000    1.500    0.000    0.000 
#    0.000    0.000    0.000    0.000    0.000    0.000 
#
# Total GULP energy -89293.153484 kJ/mol
# GULP energy per Si atom -5580.822093 kJ/mol
# Density = 2.314313 g / cm^3
# Si number density = 23.195926 Si / 1000 Ang^3
#
#
#
# Elastic Constant Matrix: (Units=GPa)
#
#
# Indices 1 2 3 4 5 6 
#
# 1 79.0330 14.9160 55.4583 17.8201 8.9861 -21.2432
# 2 14.9160 27.5222 43.8407 20.2996 -6.2057 -6.3398
# 3 55.4583 43.8407 142.6011 40.5145 -4.8505 -26.2018
# 4 17.8201 20.2996 40.5145 39.7855 -11.2824 1.1758
# 5 8.9861 -6.2057 -4.8505 -11.2824 26.1980 2.5823
# 6 -21.2432 -6.3398 -26.2018 1.1758 2.5823 23.2588
#
#
#
# Elastic Compliance Matrix: (Units=1/GPa)
#
#
# Indices 1 2 3 4 5 6 
#
# 1 0.026580 0.004428 -0.002728 -0.017401 -0.018566 0.025351
# 2 0.004428 0.086268 -0.020062 -0.024593 0.004043 0.005752
# 3 -0.002728 -0.020062 0.020271 -0.011544 -0.006631 0.016196
# 4 -0.017401 -0.024593 -0.011544 0.067331 0.031189 -0.042467
# 5 -0.018566 0.004043 -0.006631 0.031189 0.060821 -0.031655
# 6 0.025351 0.005752 0.016196 -0.042467 -0.031655 0.091623
#
#
# Mechanical properties :
#
#
# Convention : Reuss Voigt Hill
#
# Bulk Modulus (GPa) = 10.37405 53.06515 31.71960
# Shear Modulus (GPa) = 11.85532 26.84456 19.34994
#
# Velocity S-wave (km/s) = 2.26319 3.40560 2.89138
# Velocity P-wave (km/s) = 3.36325 6.19602 4.98509
#
# Compressibility (1/GPa) = 0.09639434
#
# Stress axis : x y z
#
# Youngs Moduli (GPa) = 37.62195 11.59182 49.33034
#
# Poissons Ratio (x) = -0.05133 0.13458
# Poissons Ratio (y) = -0.16659 0.98968
# Poissons Ratio (z) = 0.10264 0.23256
#
# Static dielectric constant tensor:
#      x y z
#    x 2.047330 0.001620 0.006110 
#    y 0.001620 1.915780 0.015490 
#    z 0.006110 0.015490 1.836420 
# 
# From -- ./inp_files/94412.got.cif
#   From: 2010.05.17/outbox.cif.g08.bks.cpg/sg2_48_cif.got.tgz:94412.got - 2010.06.03 11:33:40.
