data_PCOD9082927
_publ_section_title
;
Structure prediction by ZEFSAII (Michael W. Deem and Ramdas Pophale) SiO2 
 PCOD9082927
Probable space group: P -1
;
_chemical_formula_sum "Si O2"
_cell_formula_units_Z 14
_cell_length_a 14.001573
_cell_length_b 21.320683
_cell_length_c 7.861475
_cell_angle_alpha 143.229938
_cell_angle_beta 37.306710
_cell_angle_gamma 151.369259
_cell_volume 637.331596
_symmetry_space_group_name_H-M "P -1"
_symmetry_group_IT_number 2
_symmetry_cell_setting 'triclinic'
loop_
_space_group_symop_operation_xyz
x,y,z
-x,-y,-z
loop_
_atom_site_type_symbol
_atom_site_label
_atom_site_fract_x
_atom_site_fract_y
_atom_site_fract_z
Si Si1 0.542313 0.427611 0.049009
Si Si2 0.283481 0.002926 0.313535
Si Si3 0.093771 0.270226 0.861603
Si Si4 0.762556 0.047309 0.352696
Si Si5 0.510646 0.367043 0.348866
Si Si6 0.151131 0.165380 0.877545
Si Si7 0.551790 0.160065 0.950564
O O1 0.776222 0.564140 0.957949
O O2 0.552369 0.382172 0.122357
O O3 0.420667 0.487024 0.367391
O O4 0.396694 0.296105 0.848277
O O5 0.141966 0.042919 0.562332
O O6 0.334403 0.033690 0.507336
O O7 0.466199 0.089690 0.104554
O O8 0.131667 0.836508 0.137765
O O9 0.260033 0.268342 0.522625
O O10 0.073025 0.213114 0.953185
O O11 0.735134 0.160717 0.640351
O O12 0.632565 0.944254 0.153871
O O13 0.002966 0.117699 0.146100
O O14 0.596513 0.302981 0.181880
#
# Coordination Sequence:
#
# PCOD9082927 Si02
#       7
#     2   2   2   2   2   2   2
#     4   9  20  34  59  89 113 149 193 241 289 337
#     4  12  21  38  63  88 116 150 196 242 290 337
#     4  10  19  33  59  86 116 143 187 244 286 332
#     4  11  25  35  59  87 122 151 195 237 292 344
#     4   9  18  36  58  80 117 150 189 238 287 338
#     4  12  20  36  59  92 115 147 199 244 281 344
#     4  11  22  42  55  87 120 158 188 240 290 347
#
# _framework density 21.966586
#
# number of rings (size 3 to 8) (size 9 to 14) (size 15 to 20)
#    0.857    0.571    2.857    4.286    0.000    0.000 
#    0.000    0.714    0.000    0.857    0.000    0.000 
#    0.000    0.000    0.000    0.000    0.000    0.000 
#
# Total GULP energy -78105.375992 kJ/mol
# GULP energy per Si atom -5578.955428 kJ/mol
# Density = 2.191659 g / cm^3
# Si number density = 21.966586 Si / 1000 Ang^3
#
#
#
# Elastic Constant Matrix: (Units=GPa)
#
#
# Indices 1 2 3 4 5 6 
#
# 1 55.4764 28.2325 5.7176 -3.1759 16.4805 -10.1635
# 2 28.2325 72.5453 29.0768 4.7604 4.5966 -5.4172
# 3 5.7176 29.0768 54.8976 -9.9241 -6.0847 -4.8510
# 4 -3.1759 4.7604 -9.9241 22.1828 -0.9698 9.2438
# 5 16.4805 4.5966 -6.0847 -0.9698 32.6661 -2.5974
# 6 -10.1635 -5.4172 -4.8510 9.2438 -2.5974 28.8171
#
#
#
# Elastic Compliance Matrix: (Units=1/GPa)
#
#
# Indices 1 2 3 4 5 6 
#
# 1 0.028278 -0.011527 0.003327 0.005141 -0.011420 0.005688
# 2 -0.011527 0.025466 -0.014821 -0.015019 -0.000738 0.002978
# 3 0.003327 -0.014821 0.029488 0.017882 0.006286 -0.001818
# 4 0.005141 -0.015019 0.017882 0.064901 0.003305 -0.018521
# 5 -0.011420 -0.000738 0.006286 0.003305 0.037686 -0.000771
# 6 0.005688 0.002978 -0.001818 -0.018521 -0.000771 0.042833
#
#
# Mechanical properties :
#
#
# Convention : Reuss Voigt Hill
#
# Bulk Modulus (GPa) = 26.89036 34.33035 30.61036
# Shear Modulus (GPa) = 17.41603 24.72602 21.07102
#
# Velocity S-wave (km/s) = 2.81880 3.35867 3.10050
# Velocity P-wave (km/s) = 4.78145 5.54105 5.17520
#
# Compressibility (1/GPa) = 0.03718804
#
# Stress axis : x y z
#
# Youngs Moduli (GPa) = 35.36286 39.26852 33.91210
#
# Poissons Ratio (x) = 0.45266 -0.11281
# Poissons Ratio (y) = 0.40764 0.50262
# Poissons Ratio (z) = -0.11764 0.58200
#
# Static dielectric constant tensor:
#      x y z
#    x 1.821530 -0.010680 0.005580 
#    y -0.010680 1.831480 0.003180 
#    z 0.005580 0.003180 1.791880 
# 
# From -- ./inp_files/319082.got.cif
#   From: 2010.05.17/outbox.cif.g08.bks.cpg/sg2_160_cif.got.tgz:319082.got - 2010.06.03 11:33:40.
