data_PCOD9082110
_publ_section_title
;
Structure prediction by ZEFSAII (Michael W. Deem and Ramdas Pophale) SiO2 
 PCOD9082110
Probable space group: P -1
;
_chemical_formula_sum "Si O2"
_cell_formula_units_Z 16
_cell_length_a 19.006330
_cell_length_b 28.873139
_cell_length_c 31.209789
_cell_angle_alpha 171.246780
_cell_angle_beta 21.097820
_cell_angle_gamma 161.876714
_cell_volume 803.412971
_symmetry_space_group_name_H-M "P -1"
_symmetry_group_IT_number 2
_symmetry_cell_setting 'triclinic'
loop_
_space_group_symop_operation_xyz
x,y,z
-x,-y,-z
loop_
_atom_site_type_symbol
_atom_site_label
_atom_site_fract_x
_atom_site_fract_y
_atom_site_fract_z
Si Si1 0.838322 0.562148 0.507502
Si Si2 0.473973 0.212093 0.062688
Si Si3 0.963721 0.611370 0.169112
Si Si4 0.258882 0.726580 0.365060
Si Si5 0.882783 0.079856 0.101141
Si Si6 0.762881 0.842664 0.085903
Si Si7 0.624375 0.453014 0.102895
Si Si8 0.467620 0.176164 0.578849
O O1 0.707245 0.745752 0.768112
O O2 0.937504 0.452146 0.390912
O O3 0.050103 0.744027 0.520868
O O4 0.647092 0.188108 0.252441
O O5 0.698278 0.336243 0.077704
O O6 0.569811 0.458968 0.190446
O O7 0.000000 0.000000 0.500000
O O8 0.000000 0.500000 0.000000
O O9 0.161581 0.600121 0.072716
O O10 0.500000 0.000000 0.500000
O O11 0.291205 0.847249 0.408026
O O12 0.229918 0.348967 0.049542
O O13 0.979842 0.950995 0.889485
O O14 0.616449 0.882030 0.080983
O O15 0.000000 0.000000 0.000000
O O16 0.647587 0.073723 0.366362
O O17 0.605267 0.522820 0.848785
O O18 0.645049 0.753572 0.333980
#
# Coordination Sequence:
#
# PCOD9082110 Si02
#       8
#     2   2   2   2   2   2   2   2
#     4  10  22  37  58  82 107 152 190 228 274 335
#     4  10  21  38  59  82 111 142 188 235 284 336
#     4  10  20  37  59  83 114 146 182 233 284 343
#     4   9  21  39  57  79 112 153 199 227 268 326
#     4  10  19  33  51  77 119 145 179 218 273 336
#     4  10  22  35  52  75 109 158 187 220 264 323
#     4  10  22  34  57  87 114 145 183 227 291 334
#     4  11  22  36  54  78 112 146 186 232 269 324
#
# _framework density 19.915037999999999
#
# number of rings (size 3 to 8) (size 9 to 14) (size 15 to 20)
#    0.000    2.000    1.250    2.625    1.750   13.500 
#    0.000    0.000    0.000    1.500    0.000    0.000 
#    0.000    0.000    0.000    0.000    0.000    0.000 
#
# Total GULP energy -89176.326711 kJ/mol
# GULP energy per Si atom -5573.520419 kJ/mol
# Density = 1.986971 g / cm^3
# Si number density = 19.915038 Si / 1000 Ang^3
#
#
#
# Elastic Constant Matrix: (Units=GPa)
#
#
# Indices 1 2 3 4 5 6 
#
# 1 58.3965 39.1534 35.2794 -2.4332 -17.1428 10.0667
# 2 39.1534 104.1644 24.5882 -17.3058 -22.9044 17.1602
# 3 35.2794 24.5882 95.0864 -26.4599 2.1483 9.6072
# 4 -2.4332 -17.3058 -26.4599 32.0826 3.5588 -9.1063
# 5 -17.1428 -22.9044 2.1483 3.5588 39.7410 3.3186
# 6 10.0667 17.1602 9.6072 -9.1063 3.3186 37.4973
#
#
#
# Elastic Compliance Matrix: (Units=1/GPa)
#
#
# Indices 1 2 3 4 5 6 
#
# 1 0.038298 -0.009212 -0.016881 -0.019828 0.014554 -0.007844
# 2 -0.009212 0.015483 0.001797 0.007611 0.004473 -0.003620
# 3 -0.016881 0.001797 0.021613 0.019640 -0.009489 0.003782
# 4 -0.019828 0.007611 0.019640 0.054304 -0.011007 0.010970
# 5 0.014554 0.004473 -0.009489 -0.011007 0.036304 -0.009409
# 6 -0.007844 -0.003620 0.003782 0.010970 -0.009409 0.032959
#
#
# Mechanical properties :
#
#
# Convention : Reuss Voigt Hill
#
# Bulk Modulus (GPa) = 37.31175 50.63213 43.97194
# Shear Modulus (GPa) = 19.49408 32.43928 25.96668
#
# Velocity S-wave (km/s) = 3.13207 4.04032 3.61484
# Velocity P-wave (km/s) = 5.64411 6.87349 6.28891
#
# Compressibility (1/GPa) = 0.02680121
#
# Stress axis : x y z
#
# Youngs Moduli (GPa) = 26.11111 64.58510 46.26845
#
# Poissons Ratio (x) = 0.59498 0.78106
# Poissons Ratio (y) = 0.24055 -0.08314
# Poissons Ratio (z) = 0.44079 -0.11606
#
# Static dielectric constant tensor:
#      x y z
#    x 1.780860 0.030980 0.025610 
#    y 0.030980 1.774760 0.026650 
#    z 0.025610 0.026650 1.765700 
# 
# From -- ./inp_files/118177.got.cif
#   From: 2010.05.17/outbox.cif.g08.bks.cpg/sg2_60_cif.got.tgz:118177.got - 2010.06.03 11:33:40.
