data_PCOD9082007
_publ_section_title
;
Structure prediction by ZEFSAII (Michael W. Deem and Ramdas Pophale) SiO2 
 PCOD9082007
Probable space group: P -1
;
_chemical_formula_sum "Si O2"
_cell_formula_units_Z 16
_cell_length_a 4.990777
_cell_length_b 18.257461
_cell_length_c 7.307432
_cell_angle_alpha 70.581268
_cell_angle_beta 102.713772
_cell_angle_gamma 92.721130
_cell_volume 612.332319
_symmetry_space_group_name_H-M "P -1"
_symmetry_group_IT_number 2
_symmetry_cell_setting 'triclinic'
loop_
_space_group_symop_operation_xyz
x,y,z
-x,-y,-z
loop_
_atom_site_type_symbol
_atom_site_label
_atom_site_fract_x
_atom_site_fract_y
_atom_site_fract_z
Si Si1 0.586622 0.060511 0.754314
Si Si2 0.767425 0.405044 0.618075
Si Si3 0.260257 0.941038 0.640088
Si Si4 0.596466 0.518465 0.794767
Si Si5 0.706661 0.686377 0.220278
Si Si6 0.089988 0.156283 0.771207
Si Si7 0.764207 0.677184 0.823307
Si Si8 0.770936 0.224100 0.319410
O O1 0.595216 0.070782 0.525998
O O2 0.350504 0.114015 0.756575
O O3 0.459159 0.974386 0.799196
O O4 0.803763 0.148040 0.257109
O O5 0.777099 0.453159 0.769867
O O6 0.653686 0.463434 0.397778
O O7 0.562205 0.334569 0.691178
O O8 0.042782 0.364837 0.621419
O O9 0.000000 0.000000 0.500000
O O10 0.738014 0.600826 0.764220
O O11 0.500000 0.500000 0.000000
O O12 0.791809 0.775985 0.142871
O O13 0.693005 0.656678 0.036933
O O14 0.928931 0.201899 0.547596
O O15 0.877278 0.089044 0.851332
O O16 0.531980 0.744915 0.695923
O O17 0.063660 0.709864 0.812165
#
# Coordination Sequence:
#
# PCOD9082007 Si02
#       8
#     2   2   2   2   2   2   2   2
#     4  10  19  32  59  97 124 174 216 283 343 412
#     4  11  26  47  74 104 137 191 237 286 354 422
#     4  10  19  35  63  98 137 166 225 291 352 415
#     4  11  25  49  75 107 144 185 236 296 350 421
#     4  12  25  47  67  98 142 187 232 288 351 424
#     4  11  21  37  63  93 133 170 226 278 344 416
#     4  12  26  42  65  98 138 179 230 290 351 404
#     4  11  23  39  64  99 129 172 226 290 345 416
#
# _framework density 26.1296
#
# number of rings (size 3 to 8) (size 9 to 14) (size 15 to 20)
#    0.000    1.000    3.750    4.500    1.750    3.500 
#    0.000    0.000    0.000    4.500    0.000    0.000 
#    0.000    0.000    0.000    0.000    0.000    0.000 
#
# Total GULP energy -89561.489595 kJ/mol
# GULP energy per Si atom -5597.593100 kJ/mol
# Density = 2.607013 g / cm^3
# Si number density = 26.129600 Si / 1000 Ang^3
#
#
#
# Elastic Constant Matrix: (Units=GPa)
#
#
# Indices 1 2 3 4 5 6 
#
# 1 125.6984 58.5310 11.8037 11.7698 -3.1038 2.3026
# 2 58.5310 182.1762 17.7855 38.0221 7.4475 22.6863
# 3 11.8037 17.7855 87.0921 4.5243 -12.6992 2.4153
# 4 11.7698 38.0221 4.5243 42.9655 3.8049 3.4512
# 5 -3.1038 7.4475 -12.6992 3.8049 22.7151 -5.2688
# 6 2.3026 22.6863 2.4153 3.4512 -5.2688 35.4814
#
#
#
# Elastic Compliance Matrix: (Units=1/GPa)
#
#
# Indices 1 2 3 4 5 6 
#
# 1 0.009604 -0.003426 -0.000258 0.000025 0.002749 0.001991
# 2 -0.003426 0.008824 -0.001537 -0.005876 -0.004491 -0.005410
# 3 -0.000258 -0.001537 0.013030 -0.000781 0.008211 0.001408
# 4 0.000025 -0.005876 -0.000781 0.028791 -0.003206 0.000532
# 5 0.002749 -0.004491 0.008211 -0.003206 0.053406 0.010377
# 6 0.001991 -0.005410 0.001408 0.000532 0.010377 0.032907
#
#
# Mechanical properties :
#
#
# Convention : Reuss Voigt Hill
#
# Bulk Modulus (GPa) = 47.58304 63.46743 55.52523
# Shear Modulus (GPa) = 30.48623 40.68883 35.58753
#
# Velocity S-wave (km/s) = 3.41945 3.95041 3.69448
# Velocity P-wave (km/s) = 5.81723 6.71936 6.28450
#
# Compressibility (1/GPa) = 0.02101589
#
# Stress axis : x y z
#
# Youngs Moduli (GPa) = 104.12176 113.33178 76.74769
#
# Poissons Ratio (x) = 0.38827 0.01977
# Poissons Ratio (y) = 0.35672 0.11798
# Poissons Ratio (z) = 0.02683 0.17421
#
# Static dielectric constant tensor:
#      x y z
#    x 2.121640 0.169680 0.032980 
#    y 0.169680 2.170350 -0.051990 
#    z 0.032980 -0.051990 2.061270 
# 
# From -- ./inp_files/11130.got.cif
#   From: 2010.05.17/outbox.cif.g08.bks.cpg/sg2_6_cif.got.tgz:11130.got - 2010.06.03 11:33:40.
