data_PCOD9082887
_publ_section_title
;
Structure prediction by ZEFSAII (Michael W. Deem and Ramdas Pophale) SiO2 
 PCOD9082887
Probable space group: P -1
;
_chemical_formula_sum "Si O2"
_cell_formula_units_Z 16
_cell_length_a 25.722632
_cell_length_b 12.433620
_cell_length_c 11.882984
_cell_angle_alpha 39.841189
_cell_angle_beta 35.937465
_cell_angle_gamma 17.693581
_cell_volume 677.777395
_symmetry_space_group_name_H-M "P -1"
_symmetry_group_IT_number 2
_symmetry_cell_setting 'triclinic'
loop_
_space_group_symop_operation_xyz
x,y,z
-x,-y,-z
loop_
_atom_site_type_symbol
_atom_site_label
_atom_site_fract_x
_atom_site_fract_y
_atom_site_fract_z
Si Si1 0.307085 0.208547 0.300131
Si Si2 0.520155 0.499199 0.144982
Si Si3 0.902526 0.835614 0.918208
Si Si4 0.547789 0.811597 0.747020
Si Si5 0.744453 0.445093 0.077344
Si Si6 0.682119 0.176229 0.363987
Si Si7 0.794676 0.215057 0.609025
Si Si8 0.857782 0.358624 0.194267
O O1 0.332088 0.253416 0.341974
O O2 0.520699 0.828933 0.185763
O O3 0.224980 0.157366 0.498242
O O4 0.215804 0.491565 0.144936
O O5 0.597195 0.309380 0.281162
O O6 0.326886 0.735453 0.266292
O O7 0.518033 0.703271 0.971207
O O8 0.681294 0.176275 0.035228
O O9 0.977403 0.792640 0.935968
O O10 0.939295 0.900358 0.698834
O O11 0.000000 0.500000 0.000000
O O12 0.654679 0.565402 0.647522
O O13 0.341857 0.227135 0.752821
O O14 0.785860 0.180759 0.192247
O O15 0.838033 0.344417 0.110827
O O16 0.500000 0.500000 0.500000
O O17 0.879859 0.163414 0.394138
#
# Coordination Sequence:
#
# PCOD9082887 Si02
#       8
#     2   2   2   2   2   2   2   2
#     4   9  17  31  55  88 117 156 197 254 305 354
#     4  11  21  38  62  93 122 161 210 258 307 367
#     4  11  24  42  59  87 129 166 199 252 321 372
#     4  10  19  34  60  90 123 155 207 261 308 362
#     4   9  18  34  53  85 121 152 203 247 303 360
#     4  10  19  33  58  91 122 157 205 262 303 356
#     4  11  22  38  62  91 118 158 214 257 304 370
#     4  11  22  38  60  90 122 165 199 252 317 372
#
# _framework density 23.606570999999999
#
# number of rings (size 3 to 8) (size 9 to 14) (size 15 to 20)
#    0.000    1.750    1.250    6.000    1.750    1.000 
#    2.250    0.625    0.000    0.750    0.000    0.000 
#    0.000    0.000    0.000    0.000    0.000    0.000 
#
# Total GULP energy -89515.621159 kJ/mol
# GULP energy per Si atom -5594.726322 kJ/mol
# Density = 2.355284 g / cm^3
# Si number density = 23.606571 Si / 1000 Ang^3
#
#
#
# Elastic Constant Matrix: (Units=GPa)
#
#
# Indices 1 2 3 4 5 6 
#
# 1 110.8793 11.8162 56.0875 -11.8584 -13.4209 -9.5431
# 2 11.8162 58.4658 27.0603 -12.6860 -9.1996 -6.8597
# 3 56.0875 27.0603 119.6487 -31.2982 -1.4304 2.8898
# 4 -11.8584 -12.6860 -31.2982 31.9751 5.8740 0.1210
# 5 -13.4209 -9.1996 -1.4304 5.8740 43.6837 -7.2362
# 6 -9.5431 -6.8597 2.8898 0.1210 -7.2362 28.0558
#
#
#
# Elastic Compliance Matrix: (Units=1/GPa)
#
#
# Indices 1 2 3 4 5 6 
#
# 1 0.013827 0.002041 -0.007796 -0.002834 0.006060 0.007581
# 2 0.002041 0.021635 -0.005137 0.003195 0.005915 0.008025
# 3 -0.007796 -0.005137 0.016497 0.012306 -0.005776 -0.007150
# 4 -0.002834 0.003195 0.012306 0.044716 -0.006351 -0.003282
# 5 0.006060 0.005915 -0.005776 -0.006351 0.028569 0.011498
# 6 0.007581 0.008025 -0.007150 -0.003282 0.011498 0.043900
#
#
# Mechanical properties :
#
#
# Convention : Reuss Voigt Hill
#
# Bulk Modulus (GPa) = 33.13902 53.21353 43.17628
# Shear Modulus (GPa) = 24.87744 33.67824 29.27784
#
# Velocity S-wave (km/s) = 3.24980 3.78120 3.52553
# Velocity P-wave (km/s) = 5.30567 6.45399 5.90780
#
# Compressibility (1/GPa) = 0.03017590
#
# Stress axis : x y z
#
# Youngs Moduli (GPa) = 72.32019 46.22195 60.61776
#
# Poissons Ratio (x) = -0.09436 0.47255
# Poissons Ratio (y) = -0.14764 0.31141
# Poissons Ratio (z) = 0.56378 0.23746
#
# Static dielectric constant tensor:
#      x y z
#    x 2.331090 1.338450 2.063650 
#    y 1.338450 5.497640 5.659600 
#    z 2.063650 5.659600 10.857780 
# 
# From -- ./inp_files/189223.got.cif
#   From: 2010.05.17/outbox.cif.g08.bks.cpg/sg2_95_cif.got.tgz:189223.got - 2010.06.03 11:33:40.
