data_PCOD9082801
_publ_section_title
;
Structure prediction by ZEFSAII (Michael W. Deem and Ramdas Pophale) SiO2 
 PCOD9082801
Probable space group: P -1
;
_chemical_formula_sum "Si O2"
_cell_formula_units_Z 12
_cell_length_a 5.162962
_cell_length_b 9.943235
_cell_length_c 24.319447
_cell_angle_alpha 148.745617
_cell_angle_beta 65.303310
_cell_angle_gamma 100.451177
_cell_volume 546.059535
_symmetry_space_group_name_H-M "P -1"
_symmetry_group_IT_number 2
_symmetry_cell_setting 'triclinic'
loop_
_space_group_symop_operation_xyz
x,y,z
-x,-y,-z
loop_
_atom_site_type_symbol
_atom_site_label
_atom_site_fract_x
_atom_site_fract_y
_atom_site_fract_z
Si Si1 0.629487 0.598445 0.202352
Si Si2 0.151288 0.343079 0.989127
Si Si3 0.689704 0.796698 0.712279
Si Si4 0.350732 0.946397 0.439337
Si Si5 0.840296 0.221200 0.782042
Si Si6 0.370422 0.475992 0.563890
O O1 0.542256 0.641885 0.289206
O O2 0.308753 0.670768 0.225242
O O3 0.810016 0.812206 0.253235
O O4 0.881030 0.346232 0.057493
O O5 0.402816 0.037712 0.850188
O O6 0.303077 0.534495 0.075098
O O7 0.000000 0.500000 0.000000
O O8 0.762501 0.955074 0.708839
O O9 0.587390 0.552854 0.614583
O O10 0.016411 0.691227 0.676745
O O11 0.500000 0.000000 0.500000
O O12 0.352534 0.182883 0.478837
O O13 0.000000 0.000000 0.500000
O O14 0.500000 0.500000 0.500000
#
# Coordination Sequence:
#
# PCOD9082801 Si02
#       6
#     2   2   2   2   2   2
#     4  10  22  36  63  92 127 168 235 265 318 385
#     4  10  21  34  62  98 140 175 215 272 343 395
#     4  12  21  36  61  94 139 167 208 272 348 390
#     4  12  26  49  71  92 130 187 234 265 324 414
#     4  10  19  33  57  96 135 168 209 262 336 390
#     4  12  27  42  66 101 138 171 217 286 343 382
#
# _framework density 21.975625999999998
#
# number of rings (size 3 to 8) (size 9 to 14) (size 15 to 20)
#    1.000    0.000    1.667    7.000    2.333    0.000 
#    0.000    0.000    0.000    6.000    0.000    0.000 
#    0.000    0.000    0.000    0.000    0.000    0.000 
#
# Total GULP energy -66826.038021 kJ/mol
# GULP energy per Si atom -5568.836502 kJ/mol
# Density = 2.192561 g / cm^3
# Si number density = 21.975626 Si / 1000 Ang^3
#
#
#
# Elastic Constant Matrix: (Units=GPa)
#
#
# Indices 1 2 3 4 5 6 
#
# 1 94.5472 12.6387 45.9446 -6.7765 15.9718 2.1595
# 2 12.6387 43.7064 24.6153 -4.3021 -6.6716 14.1990
# 3 45.9446 24.6153 92.6536 -30.3419 -13.0771 8.9706
# 4 -6.7765 -4.3021 -30.3419 31.8215 1.1871 9.8416
# 5 15.9718 -6.6716 -13.0771 1.1871 47.8542 3.2766
# 6 2.1595 14.1990 8.9706 9.8416 3.2766 28.3678
#
#
#
# Elastic Compliance Matrix: (Units=1/GPa)
#
#
# Indices 1 2 3 4 5 6 
#
# 1 0.020144 -0.003767 -0.017325 -0.016268 -0.012463 0.012914
# 2 -0.003767 0.032805 -0.001480 0.007904 0.006542 -0.019163
# 3 -0.017325 -0.001480 0.037212 0.038723 0.016499 -0.025047
# 4 -0.016268 0.007904 0.038723 0.079031 0.018199 -0.044483
# 5 -0.012463 0.006542 0.016499 0.018199 0.031222 -0.017463
# 6 0.012914 -0.019163 -0.025047 -0.044483 -0.017463 0.069230
#
#
# Mechanical properties :
#
#
# Convention : Reuss Voigt Hill
#
# Bulk Modulus (GPa) = 22.21407 44.14492 33.17949
# Shear Modulus (GPa) = 15.16108 31.45593 23.30850
#
# Velocity S-wave (km/s) = 2.62945 3.78749 3.26030
# Velocity P-wave (km/s) = 4.39877 6.26566 5.41330
#
# Compressibility (1/GPa) = 0.04501652
#
# Stress axis : x y z
#
# Youngs Moduli (GPa) = 49.64372 30.48312 26.87326
#
# Poissons Ratio (x) = 0.11482 0.46557
# Poissons Ratio (y) = 0.18700 0.03979
# Poissons Ratio (z) = 0.86006 0.04513
#
# Static dielectric constant tensor:
#      x y z
#    x 1.834090 -0.005470 -0.098820 
#    y -0.005470 1.823100 -0.028490 
#    z -0.098820 -0.028490 1.916400 
# 
# From -- ./inp_files/604252.got.cif
#   From: 2010.05.17/outbox.cif.g08.bks.cpg/sg2_303_cif.got.tgz:604252.got - 2010.06.03 11:33:40.
