data_PCOD9082934
_publ_section_title
;
Structure prediction by ZEFSAII (Michael W. Deem and Ramdas Pophale) SiO2 
 PCOD9082934
Probable space group: P -1
;
_chemical_formula_sum "Si O2"
_cell_formula_units_Z 16
_cell_length_a 10.723474
_cell_length_b 20.749962
_cell_length_c 8.054826
_cell_angle_alpha 123.867455
_cell_angle_beta 122.998666
_cell_angle_gamma 33.666532
_cell_volume 812.178013
_symmetry_space_group_name_H-M "P -1"
_symmetry_group_IT_number 2
_symmetry_cell_setting 'triclinic'
loop_
_space_group_symop_operation_xyz
x,y,z
-x,-y,-z
loop_
_atom_site_type_symbol
_atom_site_label
_atom_site_fract_x
_atom_site_fract_y
_atom_site_fract_z
Si Si1 0.225598 0.991373 0.325958
Si Si2 0.878304 0.030117 0.282249
Si Si3 0.695642 0.954724 0.888511
Si Si4 0.064997 0.285067 0.143731
Si Si5 0.389679 0.285879 0.207340
Si Si6 0.911280 0.469422 0.517537
Si Si7 0.285098 0.256699 0.732789
Si Si8 0.161942 0.164433 0.735056
O O1 0.245247 0.027797 0.217910
O O2 0.131403 0.092680 0.531116
O O3 0.060419 0.983756 0.208967
O O4 0.483336 0.860875 0.361028
O O5 0.647919 0.169709 0.283840
O O6 0.000000 0.000000 0.500000
O O7 0.801513 0.971618 0.123592
O O8 0.803041 0.827872 0.805426
O O9 0.421191 0.061858 0.850325
O O10 0.235910 0.282715 0.189150
O O11 0.880040 0.405061 0.289682
O O12 0.997601 0.261174 0.899186
O O13 0.297380 0.407356 0.361762
O O14 0.358117 0.278273 0.978630
O O15 0.110002 0.369930 0.649907
O O16 0.000000 0.500000 0.500000
O O17 0.171021 0.224727 0.681909
#
# Coordination Sequence:
#
# PCOD9082934 Si02
#       8
#     2   2   2   2   2   2   2   2
#     4  11  22  35  58  92 121 152 192 232 308 352
#     4  12  25  37  57  87 127 158 186 237 300 360
#     4  11  20  36  59  85 122 153 191 247 287 349
#     4  10  19  34  59  85 113 147 197 243 287 329
#     4  10  22  39  55  88 118 158 194 240 289 345
#     4  10  21  34  59  87 114 150 201 250 285 330
#     4  10  19  36  60  85 117 151 198 244 288 341
#     4  10  19  33  59  87 121 150 194 244 291 342
#
# _framework density 19.700113999999999
#
# number of rings (size 3 to 8) (size 9 to 14) (size 15 to 20)
#    0.000    1.500    3.750    4.875    5.250    0.000 
#    0.000    0.000    0.000    6.000    0.000    0.000 
#    0.000    0.000    0.000    0.000    0.000    0.000 
#
# Total GULP energy -89314.686819 kJ/mol
# GULP energy per Si atom -5582.167926 kJ/mol
# Density = 1.965528 g / cm^3
# Si number density = 19.700114 Si / 1000 Ang^3
#
#
#
# Elastic Constant Matrix: (Units=GPa)
#
#
# Indices 1 2 3 4 5 6 
#
# 1 51.7538 18.5619 10.9143 -3.4153 -2.1600 12.7933
# 2 18.5619 112.8821 35.8065 17.3713 -5.7236 18.5333
# 3 10.9143 35.8065 108.5033 13.7969 -4.6292 0.5018
# 4 -3.4153 17.3713 13.7969 42.2455 1.6402 -4.2061
# 5 -2.1600 -5.7236 -4.6292 1.6402 19.7725 1.9775
# 6 12.7933 18.5333 0.5018 -4.2061 1.9775 23.0762
#
#
#
# Elastic Compliance Matrix: (Units=1/GPa)
#
#
# Indices 1 2 3 4 5 6 
#
# 1 0.023365 -0.001472 -0.001933 0.001865 0.002681 -0.011619
# 2 -0.001472 0.013016 -0.003183 -0.005698 0.004433 -0.010987
# 3 -0.001933 -0.003183 0.010773 -0.002127 0.001276 0.002897
# 4 0.001865 -0.005698 -0.002127 0.027969 -0.005177 0.009130
# 5 0.002681 0.004433 0.001276 -0.005177 0.053944 -0.010641
# 6 -0.011619 -0.010987 0.002897 0.009130 -0.010641 0.061113
#
#
# Mechanical properties :
#
#
# Convention : Reuss Voigt Hill
#
# Bulk Modulus (GPa) = 29.43187 44.85608 37.14397
# Shear Modulus (GPa) = 23.29023 30.87592 27.08308
#
# Velocity S-wave (km/s) = 3.44210 3.96320 3.71181
# Velocity P-wave (km/s) = 5.54705 6.61525 6.10456
#
# Compressibility (1/GPa) = 0.03397678
#
# Stress axis : x y z
#
# Youngs Moduli (GPa) = 42.79885 76.82946 92.82784
#
# Poissons Ratio (x) = 0.11311 0.17948
# Poissons Ratio (y) = 0.06301 0.29545
# Poissons Ratio (z) = 0.08275 0.24453
#
# Static dielectric constant tensor:
#      x y z
#    x 1.715630 0.019930 -0.050760 
#    y 0.019930 1.664270 0.019390 
#    z -0.050760 0.019390 1.777600 
# 
# From -- ./inp_files/185986.got.cif
#   From: 2010.05.17/outbox.cif.g08.bks.cpg/sg2_93_cif.got.tgz:185986.got - 2010.06.03 11:33:40.
