data_PCOD9082848
_publ_section_title
;
Structure prediction by ZEFSAII (Michael W. Deem and Ramdas Pophale) SiO2 
 PCOD9082848
Probable space group: P -1
;
_chemical_formula_sum "Si O2"
_cell_formula_units_Z 12
_cell_length_a 8.391647
_cell_length_b 11.838929
_cell_length_c 7.709270
_cell_angle_alpha 94.335505
_cell_angle_beta 123.729160
_cell_angle_gamma 54.511485
_cell_volume 482.988373
_symmetry_space_group_name_H-M "P -1"
_symmetry_group_IT_number 2
_symmetry_cell_setting 'triclinic'
loop_
_space_group_symop_operation_xyz
x,y,z
-x,-y,-z
loop_
_atom_site_type_symbol
_atom_site_label
_atom_site_fract_x
_atom_site_fract_y
_atom_site_fract_z
Si Si1 0.624869 0.574645 0.549091
Si Si2 0.642005 0.927952 0.344190
Si Si3 0.427310 0.369630 0.093774
Si Si4 0.289542 0.914638 0.303040
Si Si5 0.818212 0.034454 0.229345
Si Si6 0.135595 0.606564 0.650045
O O1 0.500000 0.500000 0.500000
O O2 0.690184 0.592997 0.781908
O O3 0.425170 0.740807 0.369389
O O4 0.836971 0.471884 0.522216
O O5 0.387873 0.953389 0.207792
O O6 0.860963 0.762426 0.530393
O O7 0.615313 0.045861 0.469925
O O8 0.749089 0.932608 0.227362
O O9 0.559673 0.203161 0.099349
O O10 0.666015 0.365163 0.241491
O O11 0.235230 0.493728 0.854866
O O12 0.997734 0.005766 0.178947
O O13 0.000000 0.000000 0.500000
#
# Coordination Sequence:
#
# PCOD9082848 Si02
#       6
#     2   2   2   2   2   2
#     4  10  19  35  58  84 116 151 190 237 290 344
#     4  10  19  34  60  84 112 156 193 234 287 348
#     4  10  18  34  58  83 117 148 192 237 286 347
#     4  10  19  33  60  84 110 156 198 226 290 351
#     4  10  15  33  60  78 109 157 188 232 286 339
#     4  10  20  33  57  87 113 149 192 241 288 335
#
# _framework density 24.845317000000001
#
# number of rings (size 3 to 8) (size 9 to 14) (size 15 to 20)
#    0.000    2.000    6.667    1.000    0.000    0.667 
#    0.000    1.667    3.667    1.000    0.000    0.000 
#    0.000    0.000    0.000    0.000    0.000    0.000 
#
# Total GULP energy -67129.212344 kJ/mol
# GULP energy per Si atom -5594.101029 kJ/mol
# Density = 2.478877 g / cm^3
# Si number density = 24.845317 Si / 1000 Ang^3
#
#
#
# Elastic Constant Matrix: (Units=GPa)
#
#
# Indices 1 2 3 4 5 6 
#
# 1 164.9690 25.8043 48.5181 6.4047 -3.6495 -2.2389
# 2 25.8043 133.5159 17.8039 -13.2695 -5.4960 -4.0354
# 3 48.5181 17.8039 53.8895 -4.3200 -10.7590 -5.8484
# 4 6.4047 -13.2695 -4.3200 38.7228 0.8497 -9.9171
# 5 -3.6495 -5.4960 -10.7590 0.8497 57.0652 11.1995
# 6 -2.2389 -4.0354 -5.8484 -9.9171 11.1995 31.1538
#
#
#
# Elastic Compliance Matrix: (Units=1/GPa)
#
#
# Indices 1 2 3 4 5 6 
#
# 1 0.008666 -0.000991 -0.008048 -0.003109 -0.000666 -0.001767
# 2 -0.000991 0.008246 -0.001361 0.003286 0.000080 0.001759
# 3 -0.008048 -0.001361 0.027905 0.005135 0.003591 0.004827
# 4 -0.003109 0.003286 0.005135 0.031058 -0.001663 0.011651
# 5 -0.000666 0.000080 0.003591 -0.001663 0.019549 -0.006920
# 6 -0.001767 0.001759 0.004827 0.011651 -0.006920 0.039302
#
#
# Mechanical properties :
#
#
# Convention : Reuss Voigt Hill
#
# Bulk Modulus (GPa) = 41.64164 59.62522 50.63343
# Shear Modulus (GPa) = 30.57467 42.73821 36.65644
#
# Velocity S-wave (km/s) = 3.51180 4.15199 3.84524
# Velocity P-wave (km/s) = 5.76545 6.85829 6.33547
#
# Compressibility (1/GPa) = 0.02401443
#
# Stress axis : x y z
#
# Youngs Moduli (GPa) = 115.39490 121.27149 35.83574
#
# Poissons Ratio (x) = 0.12023 0.28842
# Poissons Ratio (y) = 0.11440 0.04879
# Poissons Ratio (z) = 0.92875 0.16510
#
# Static dielectric constant tensor:
#      x y z
#    x 2.013200 0.026890 -0.046690 
#    y 0.026890 1.948170 0.082180 
#    z -0.046690 0.082180 2.002940 
# 
# From -- ./inp_files/170774.got.cif
#   From: 2010.05.17/outbox.cif.g08.bks.cpg/sg2_86_cif.got.tgz:170774.got - 2010.06.03 11:33:40.
