data_PCOD9082226
_publ_section_title
;
Structure prediction by ZEFSAII (Michael W. Deem and Ramdas Pophale) SiO2 
 PCOD9082226
Probable space group: P -1
;
_chemical_formula_sum "Si O2"
_cell_formula_units_Z 16
_cell_length_a 5.404152
_cell_length_b 22.184210
_cell_length_c 11.467589
_cell_angle_alpha 42.055534
_cell_angle_beta 108.349605
_cell_angle_gamma 132.329876
_cell_volume 631.424175
_symmetry_space_group_name_H-M "P -1"
_symmetry_group_IT_number 2
_symmetry_cell_setting 'triclinic'
loop_
_space_group_symop_operation_xyz
x,y,z
-x,-y,-z
loop_
_atom_site_type_symbol
_atom_site_label
_atom_site_fract_x
_atom_site_fract_y
_atom_site_fract_z
Si Si1 0.868956 0.893813 0.869549
Si Si2 0.442520 0.112306 0.827027
Si Si3 0.534360 0.024735 0.334156
Si Si4 0.753087 0.665185 0.186672
Si Si5 0.227059 0.565004 0.788185
Si Si6 0.118222 0.886283 0.259355
Si Si7 0.573589 0.591437 0.010404
Si Si8 0.982842 0.422600 0.505351
O O1 0.551688 0.889501 0.814017
O O2 0.103644 0.928518 0.738251
O O3 0.738827 0.765402 0.076698
O O4 0.141199 0.004491 0.842494
O O5 0.797106 0.182551 0.701580
O O6 0.265129 0.164335 0.755163
O O7 0.396110 0.029889 0.043057
O O8 0.500000 0.000000 0.500000
O O9 0.219282 0.902078 0.385894
O O10 0.779929 0.669827 0.044492
O O11 0.379684 0.526186 0.358029
O O12 0.046998 0.679549 0.283260
O O13 0.248178 0.461009 0.924886
O O14 0.850994 0.512918 0.861238
O O15 0.258174 0.609323 0.597599
O O16 0.539671 0.650835 0.809377
O O17 0.000000 0.500000 0.500000
#
# Coordination Sequence:
#
# PCOD9082226 Si02
#       8
#     2   2   2   2   2   2   2   2
#     4  10  21  33  54  78 105 134 171 214 260 306
#     4   8  14  27  45  72  94 123 162 200 242 297
#     4  10  20  35  54  78 102 136 171 211 257 310
#     4  10  21  33  52  80 108 141 176 221 263 312
#     4   9  17  30  49  72  96 132 181 217 249 307
#     4   8  14  26  48  70  94 123 163 198 239 303
#     4   9  17  30  49  72  97 134 177 213 255 308
#     4  10  19  33  53  77 107 141 181 218 262 305
#
# _framework density 25.339541000000001
#
# number of rings (size 3 to 8) (size 9 to 14) (size 15 to 20)
#    0.000    2.750    1.250    0.375    1.750    0.000 
#    0.000    0.000    2.750    1.500    0.000    0.000 
#    0.000    0.000    0.000    0.000    0.000    0.000 
#
# Total GULP energy -89291.914349 kJ/mol
# GULP energy per Si atom -5580.744647 kJ/mol
# Density = 2.528187 g / cm^3
# Si number density = 25.339541 Si / 1000 Ang^3
#
#
#
# Elastic Constant Matrix: (Units=GPa)
#
#
# Indices 1 2 3 4 5 6 
#
# 1 160.7820 34.8878 21.6557 14.3639 15.8679 -15.8672
# 2 34.8878 100.4507 52.6341 59.3017 -0.2612 -20.6091
# 3 21.6557 52.6341 93.8816 38.4110 8.1285 0.1010
# 4 14.3639 59.3017 38.4110 53.4237 -3.5655 -2.3538
# 5 15.8679 -0.2612 8.1285 -3.5655 35.3180 2.5306
# 6 -15.8672 -20.6091 0.1010 -2.3538 2.5306 42.5310
#
#
#
# Elastic Compliance Matrix: (Units=1/GPa)
#
#
# Indices 1 2 3 4 5 6 
#
# 1 0.007221 -0.002638 -0.000368 0.001111 -0.003187 0.001668
# 2 -0.002638 0.041003 -0.005799 -0.040057 -0.002427 0.016826
# 3 -0.000368 -0.005799 0.016776 -0.005936 -0.004118 -0.003070
# 4 0.001111 -0.040057 -0.005936 0.067022 0.008467 -0.015776
# 5 -0.003187 -0.002427 -0.004118 0.008467 0.031801 -0.003778
# 6 0.001668 0.016826 -0.003070 -0.015776 -0.003778 0.031647
#
#
# Mechanical properties :
#
#
# Convention : Reuss Voigt Hill
#
# Bulk Modulus (GPa) = 21.10019 63.71885 42.40952
# Shear Modulus (GPa) = 21.84583 42.65033 32.24808
#
# Velocity S-wave (km/s) = 2.93938 4.10708 3.57128
# Velocity P-wave (km/s) = 4.45702 6.90589 5.81190
#
# Compressibility (1/GPa) = 0.04739293
#
# Stress axis : x y z
#
# Youngs Moduli (GPa) = 138.48018 24.38822 59.60805
#
# Poissons Ratio (x) = 0.06433 0.02191
# Poissons Ratio (y) = 0.36525 0.34566
# Poissons Ratio (z) = 0.05090 0.14142
#
# Static dielectric constant tensor:
#      x y z
#    x 2.078630 0.050490 -0.055890 
#    y 0.050490 2.138940 -0.027390 
#    z -0.055890 -0.027390 2.040360 
# 
# From -- ./inp_files/83817.got.cif
#   From: 2010.05.17/outbox.cif.g08.bks.cpg/sg2_42_cif.got.tgz:83817.got - 2010.06.03 11:33:40.
