data_PCOD9082940
_publ_section_title
;
Structure prediction by ZEFSAII (Michael W. Deem and Ramdas Pophale) SiO2 
 PCOD9082940
Probable space group: P -1
;
_chemical_formula_sum "Si O2"
_cell_formula_units_Z 12
_cell_length_a 11.534146
_cell_length_b 7.052506
_cell_length_c 8.927604
_cell_angle_alpha 128.283378
_cell_angle_beta 125.471319
_cell_angle_gamma 64.959485
_cell_volume 461.935059
_symmetry_space_group_name_H-M "P -1"
_symmetry_group_IT_number 2
_symmetry_cell_setting 'triclinic'
loop_
_space_group_symop_operation_xyz
x,y,z
-x,-y,-z
loop_
_atom_site_type_symbol
_atom_site_label
_atom_site_fract_x
_atom_site_fract_y
_atom_site_fract_z
Si Si1 0.049394 0.411618 0.741398
Si Si2 0.722131 0.068261 0.809693
Si Si3 0.597730 0.706223 0.727145
Si Si4 0.484812 0.485114 0.158019
Si Si5 0.795120 0.616737 0.451392
Si Si6 0.908153 0.802637 0.030337
O O1 0.915490 0.444743 0.544510
O O2 0.055501 0.203941 0.771192
O O3 0.179368 0.383259 0.707525
O O4 0.030021 0.655613 0.950199
O O5 0.590614 0.941173 0.730147
O O6 0.794566 0.888487 0.650318
O O7 0.644611 0.310014 0.803516
O O8 0.838873 0.052658 0.025841
O O9 0.500000 0.500000 0.500000
O O10 0.554846 0.741136 0.885764
O O11 0.770226 0.646838 0.828216
O O12 0.643279 0.539104 0.347963
O O13 0.500000 0.500000 0.000000
#
# Coordination Sequence:
#
# PCOD9082940 Si02
#       6
#     2   2   2   2   2   2
#     4   9  16  33  59  81 114 153 200 219 280 350
#     4   9  21  38  57  89 114 153 189 226 303 333
#     4  10  19  36  58  88 114 150 182 238 292 334
#     4  12  23  37  59  90 117 146 191 244 290 337
#     4  10  19  33  59  89 109 156 191 232 284 341
#     4   8  17  34  58  87 112 154 187 235 284 333
#
# _framework density 25.977675999999999
#
# number of rings (size 3 to 8) (size 9 to 14) (size 15 to 20)
#    1.000    1.333    1.667    1.500    0.000    0.667 
#    0.000    0.000    0.000   38.000    0.000    0.000 
#    0.000    0.000    0.000    0.000    0.000    0.000 
#
# Total GULP energy -66970.278369 kJ/mol
# GULP energy per Si atom -5580.856531 kJ/mol
# Density = 2.591855 g / cm^3
# Si number density = 25.977676 Si / 1000 Ang^3
#
#
#
# Elastic Constant Matrix: (Units=GPa)
#
#
# Indices 1 2 3 4 5 6 
#
# 1 123.3249 51.5205 43.3713 -13.0981 -36.0546 -3.6905
# 2 51.5205 118.3095 31.9734 -14.3298 -6.1508 2.2678
# 3 43.3713 31.9734 93.2396 -24.4897 -23.0841 8.1100
# 4 -13.0981 -14.3298 -24.4897 30.5927 2.7366 -4.0938
# 5 -36.0546 -6.1508 -23.0841 2.7366 50.7088 -18.1998
# 6 -3.6905 2.2678 8.1100 -4.0938 -18.1998 38.2111
#
#
#
# Elastic Compliance Matrix: (Units=1/GPa)
#
#
# Indices 1 2 3 4 5 6 
#
# 1 0.015028 -0.005171 -0.002477 0.002063 0.011722 0.008088
# 2 -0.005171 0.011226 -0.001828 0.001608 -0.004162 -0.002588
# 3 -0.002477 -0.001828 0.016606 0.010917 0.004940 -0.000133
# 4 0.002063 0.001608 0.010917 0.043226 0.006232 0.005386
# 5 0.011722 -0.004162 0.004940 0.006232 0.035970 0.018131
# 6 0.008088 -0.002588 -0.000133 0.005386 0.018131 0.036346
#
#
# Mechanical properties :
#
#
# Convention : Reuss Voigt Hill
#
# Bulk Modulus (GPa) = 41.82398 65.40050 53.61224
# Shear Modulus (GPa) = 26.98015 37.76974 32.37495
#
# Velocity S-wave (km/s) = 3.22621 3.81718 3.53407
# Velocity P-wave (km/s) = 5.47840 6.68267 6.11028
#
# Compressibility (1/GPa) = 0.02390973
#
# Stress axis : x y z
#
# Youngs Moduli (GPa) = 66.54286 89.07982 60.21987
#
# Poissons Ratio (x) = 0.46060 0.14915
# Poissons Ratio (y) = 0.34407 0.11005
# Poissons Ratio (z) = 0.16481 0.16280
#
# Static dielectric constant tensor:
#      x y z
#    x 2.111790 0.061860 0.029200 
#    y 0.061860 2.007390 0.022040 
#    z 0.029200 0.022040 2.186130 
# 
# From -- ./inp_files/325405.got.cif
#   From: 2010.05.17/outbox.cif.g08.bks.cpg/sg2_163_cif.got.tgz:325405.got - 2010.06.03 11:33:40.
