data_PCOD9082909
_publ_section_title
;
Structure prediction by ZEFSAII (Michael W. Deem and Ramdas Pophale) SiO2 
 PCOD9082909
Probable space group: P -1
;
_chemical_formula_sum "Si O2"
_cell_formula_units_Z 16
_cell_length_a 11.021936
_cell_length_b 12.605751
_cell_length_c 7.897587
_cell_angle_alpha 93.936404
_cell_angle_beta 41.386190
_cell_angle_gamma 90.347322
_cell_volume 722.020539
_symmetry_space_group_name_H-M "P -1"
_symmetry_group_IT_number 2
_symmetry_cell_setting 'triclinic'
loop_
_space_group_symop_operation_xyz
x,y,z
-x,-y,-z
loop_
_atom_site_type_symbol
_atom_site_label
_atom_site_fract_x
_atom_site_fract_y
_atom_site_fract_z
Si Si1 0.070676 0.353734 0.953671
Si Si2 0.278321 0.729368 0.867082
Si Si3 0.372750 0.175274 0.603884
Si Si4 0.890388 0.522353 0.394896
Si Si5 0.466634 0.974377 0.278535
Si Si6 0.170015 0.644160 0.326981
Si Si7 0.151093 0.953180 0.142671
Si Si8 0.114755 0.869478 0.524953
O O1 0.185149 0.242443 0.850969
O O2 0.171155 0.412502 0.700291
O O3 0.866851 0.333817 0.093387
O O4 0.042874 0.434432 0.148005
O O5 0.479725 0.738338 0.583108
O O6 0.282414 0.686175 0.052746
O O7 0.201114 0.853997 0.958556
O O8 0.454473 0.098636 0.657281
O O9 0.366367 0.088922 0.449181
O O10 0.757790 0.454269 0.640360
O O11 0.988996 0.602716 0.422778
O O12 0.318523 0.904072 0.343429
O O13 0.656307 0.002111 0.995415
O O14 0.119643 0.743600 0.513865
O O15 0.057778 0.898427 0.393909
O O16 0.022484 0.050949 0.216935
#
# Coordination Sequence:
#
# PCOD9082909 Si02
#       8
#     2   2   2   2   2   2   2   2
#     4  10  20  38  64  81 110 153 186 233 291 331
#     4   9  19  37  59  84 117 148 180 231 282 337
#     4  10  22  36  56  86 119 147 184 230 280 337
#     4   9  20  38  60  85 108 145 196 243 281 324
#     4  10  21  35  53  86 120 146 182 229 271 342
#     4   9  19  37  59  80 114 144 187 244 279 323
#     4   9  19  34  54  87 117 147 184 224 275 342
#     4  10  19  33  59  81 112 155 185 221 285 338
#
# _framework density 22.160035000000001
#
# number of rings (size 3 to 8) (size 9 to 14) (size 15 to 20)
#    0.000    2.500    0.000    1.125    3.500    1.000 
#    0.000   10.000    0.000    0.000    0.000    0.000 
#    0.000    0.000    0.000    0.000    0.000    0.000 
#
# Total GULP energy -89164.126624 kJ/mol
# GULP energy per Si atom -5572.757914 kJ/mol
# Density = 2.210960 g / cm^3
# Si number density = 22.160035 Si / 1000 Ang^3
#
#
#
# Elastic Constant Matrix: (Units=GPa)
#
#
# Indices 1 2 3 4 5 6 
#
# 1 44.7262 31.3172 16.2336 -6.1478 2.3405 6.1591
# 2 31.3172 108.0165 24.2538 -19.4439 -8.5451 7.6364
# 3 16.2336 24.2538 47.5351 -9.9756 -0.9130 -2.5602
# 4 -6.1478 -19.4439 -9.9756 11.9224 1.7206 0.1747
# 5 2.3405 -8.5451 -0.9130 1.7206 17.5419 -6.6710
# 6 6.1591 7.6364 -2.5602 0.1747 -6.6710 28.9019
#
#
#
# Elastic Compliance Matrix: (Units=1/GPa)
#
#
# Indices 1 2 3 4 5 6 
#
# 1 0.032550 -0.008297 -0.007864 -0.001513 -0.011742 -0.008142
# 2 -0.008297 0.016149 -0.001105 0.020219 0.006467 -0.001226
# 3 -0.007864 -0.001105 0.028239 0.017393 0.002121 0.004854
# 4 -0.001513 0.020219 0.017393 0.131259 -0.003883 -0.005169
# 5 -0.011742 0.006467 0.002121 -0.003883 0.068620 0.016843
# 6 -0.008142 -0.001226 0.004854 -0.005169 0.016843 0.041008
#
#
# Mechanical properties :
#
#
# Convention : Reuss Voigt Hill
#
# Bulk Modulus (GPa) = 23.58195 38.20967 30.89581
# Shear Modulus (GPa) = 13.64285 20.23814 16.94050
#
# Velocity S-wave (km/s) = 2.48392 3.02532 2.76789
# Velocity P-wave (km/s) = 4.34641 5.42986 4.91806
#
# Compressibility (1/GPa) = 0.04240531
#
# Stress axis : x y z
#
# Youngs Moduli (GPa) = 30.72217 61.92156 35.41223
#
# Poissons Ratio (x) = 0.51376 0.27849
# Poissons Ratio (y) = 0.25490 0.03913
# Poissons Ratio (z) = 0.24161 0.06843
#
# Static dielectric constant tensor:
#      x y z
#    x 1.818400 -0.018680 0.050310 
#    y -0.018680 1.852830 -0.006920 
#    z 0.050310 -0.006920 1.880180 
# 
# From -- ./inp_files/258398.got.cif
#   From: 2010.05.17/outbox.cif.g08.bks.cpg/sg2_130_cif.got.tgz:258398.got - 2010.06.03 11:33:40.
