data_PCOD9082851
_publ_section_title
;
Structure prediction by ZEFSAII (Michael W. Deem and Ramdas Pophale) SiO2 
 PCOD9082851
Probable space group: P -1
;
_chemical_formula_sum "Si O2"
_cell_formula_units_Z 16
_cell_length_a 15.699171
_cell_length_b 8.875349
_cell_length_c 12.352199
_cell_angle_alpha 66.913913
_cell_angle_beta 36.325155
_cell_angle_gamma 52.129804
_cell_volume 785.256221
_symmetry_space_group_name_H-M "P -1"
_symmetry_group_IT_number 2
_symmetry_cell_setting 'triclinic'
loop_
_space_group_symop_operation_xyz
x,y,z
-x,-y,-z
loop_
_atom_site_type_symbol
_atom_site_label
_atom_site_fract_x
_atom_site_fract_y
_atom_site_fract_z
Si Si1 0.976385 0.345275 0.503195
Si Si2 0.799954 0.992219 0.298650
Si Si3 0.323733 0.704353 0.095611
Si Si4 0.832995 0.705244 0.993549
Si Si5 0.159483 0.407496 0.640906
Si Si6 0.681657 0.948190 0.871601
Si Si7 0.436850 0.206844 0.568133
Si Si8 0.874731 0.020299 0.962349
O O1 0.839263 0.308845 0.706587
O O2 0.898350 0.441493 0.439005
O O3 0.000000 0.500000 0.500000
O O4 0.164663 0.152665 0.344542
O O5 0.801625 0.799652 0.381270
O O6 0.606377 0.178301 0.454380
O O7 0.835275 0.995196 0.133260
O O8 0.951813 0.983269 0.210076
O O9 0.326546 0.866994 0.119247
O O10 0.500000 0.500000 0.000000
O O11 0.282987 0.789720 0.990073
O O12 0.697927 0.744134 0.212743
O O13 0.905995 0.836933 0.914320
O O14 0.735926 0.789281 0.956117
O O15 0.997231 0.489792 0.865267
O O16 0.325993 0.367407 0.545392
O O17 0.500000 0.000000 0.000000
O O18 0.500000 0.000000 0.500000
#
# Coordination Sequence:
#
# PCOD9082851 Si02
#       8
#     2   2   2   2   2   2   2   2
#     4  11  23  40  62  92 124 164 207 256 310 368
#     4  10  21  36  60  87 118 153 198 243 297 359
#     4  11  24  39  64  88 126 167 208 252 310 363
#     4  10  20  38  61  85 118 154 192 247 303 357
#     4  10  21  36  63  85 118 153 201 242 302 362
#     4  10  23  41  62  90 123 162 209 257 306 366
#     4  10  19  33  58  87 110 150 196 234 289 352
#     4  10  21  38  58  85 121 155 193 245 303 352
#
# _framework density 20.375516000000001
#
# number of rings (size 3 to 8) (size 9 to 14) (size 15 to 20)
#    0.000    1.750    2.500    2.250    1.750    5.000 
#    0.000    0.625    0.000    0.000    0.000    0.000 
#    0.000    0.000    0.000    0.000    0.000    0.000 
#
# Total GULP energy -89284.242478 kJ/mol
# GULP energy per Si atom -5580.265155 kJ/mol
# Density = 2.032914 g / cm^3
# Si number density = 20.375516 Si / 1000 Ang^3
#
#
#
# Elastic Constant Matrix: (Units=GPa)
#
#
# Indices 1 2 3 4 5 6 
#
# 1 97.1484 24.2526 16.8109 13.5776 -26.6304 -12.1024
# 2 24.2526 55.3506 12.3093 13.0156 -12.9914 -16.3315
# 3 16.8109 12.3093 54.8883 14.7301 -11.9671 -4.8897
# 4 13.5776 13.0156 14.7301 32.5229 -4.5219 -7.4942
# 5 -26.6304 -12.9914 -11.9671 -4.5219 38.0604 0.2975
# 6 -12.1024 -16.3315 -4.8897 -7.4942 0.2975 25.8153
#
#
#
# Elastic Compliance Matrix: (Units=1/GPa)
#
#
# Indices 1 2 3 4 5 6 
#
# 1 0.014235 -0.002155 -0.000958 -0.002456 0.008598 0.004317
# 2 -0.002155 0.025946 -0.001263 -0.004891 0.006264 0.013673
# 3 -0.000958 -0.001263 0.022135 -0.008336 0.004864 0.000469
# 4 -0.002456 -0.004891 -0.008336 0.038541 -0.001472 0.005381
# 5 0.008598 0.006264 0.004864 -0.001472 0.035719 0.008076
# 6 0.004317 0.013673 0.000469 0.005381 0.008076 0.050968
#
#
# Mechanical properties :
#
#
# Convention : Reuss Voigt Hill
#
# Bulk Modulus (GPa) = 18.66914 34.90366 26.78640
# Shear Modulus (GPa) = 23.34805 29.54736 26.44771
#
# Velocity S-wave (km/s) = 3.38877 3.81220 3.60670
# Velocity P-wave (km/s) = 4.94915 6.04521 5.52443
#
# Compressibility (1/GPa) = 0.05356434
#
# Stress axis : x y z
#
# Youngs Moduli (GPa) = 70.24837 38.54139 45.17790
#
# Poissons Ratio (x) = 0.08306 0.04330
# Poissons Ratio (y) = 0.15139 0.05704
# Poissons Ratio (z) = 0.06732 0.04866
#
# Static dielectric constant tensor:
#      x y z
#    x 1.746830 -0.027670 0.003030 
#    y -0.027670 1.724630 0.006110 
#    z 0.003030 0.006110 1.755830 
# 
# From -- ./inp_files/329394.got.cif
#   From: 2010.05.17/outbox.cif.g08.bks.cpg/sg2_165_cif.got.tgz:329394.got - 2010.06.03 11:33:40.
