data_PCOD9082256
_publ_section_title
;
Structure prediction by ZEFSAII (Michael W. Deem and Ramdas Pophale) SiO2 
 PCOD9082256
Probable space group: P -1
;
_chemical_formula_sum "Si O2"
_cell_formula_units_Z 16
_cell_length_a 20.958644
_cell_length_b 22.782944
_cell_length_c 15.158661
_cell_angle_alpha 153.740894
_cell_angle_beta 17.896097
_cell_angle_gamma 162.466591
_cell_volume 665.674641
_symmetry_space_group_name_H-M "P -1"
_symmetry_group_IT_number 2
_symmetry_cell_setting 'triclinic'
loop_
_space_group_symop_operation_xyz
x,y,z
-x,-y,-z
loop_
_atom_site_type_symbol
_atom_site_label
_atom_site_fract_x
_atom_site_fract_y
_atom_site_fract_z
Si Si1 0.767819 0.787545 0.724836
Si Si2 0.968368 0.791479 0.089887
Si Si3 0.693980 0.290049 0.015298
Si Si4 0.817231 0.775095 0.453639
Si Si5 0.741800 0.035153 0.537174
Si Si6 0.296806 0.695589 0.324911
Si Si7 0.408982 0.674718 0.608503
Si Si8 0.606069 0.976448 0.441500
O O1 0.843459 0.741117 0.474069
O O2 0.420173 0.655571 0.032897
O O3 0.895878 0.995160 0.813571
O O4 0.958174 0.825457 0.608346
O O5 0.910974 0.734238 0.190923
O O6 0.637667 0.657291 0.297379
O O7 0.244958 0.833922 0.746472
O O8 0.058122 0.473643 0.784598
O O9 0.602253 0.115380 0.847269
O O10 0.532813 0.341575 0.254489
O O11 0.577904 0.236418 0.196965
O O12 0.000000 0.000000 0.500000
O O13 0.529101 0.821757 0.570181
O O14 0.772982 0.026302 0.380526
O O15 0.576107 0.851146 0.237042
O O16 0.000000 0.500000 0.500000
O O17 0.253650 0.822333 0.511993
#
# Coordination Sequence:
#
# PCOD9082256 Si02
#       8
#     2   2   2   2   2   2   2   2
#     4   9  19  34  55  83 112 147 187 228 278 330
#     4   8  16  34  55  80 116 148 181 227 276 330
#     4  10  19  33  53  80 117 156 194 222 266 335
#     4   9  16  31  57  82 113 153 183 222 278 329
#     4  11  21  34  56  83 112 144 186 236 281 328
#     4  10  22  42  62  80 108 145 188 236 281 333
#     4   9  20  34  51  81 118 154 185 229 277 324
#     4  10  22  38  61  86 107 146 192 227 279 343
#
# _framework density 24.035765000000001
#
# number of rings (size 3 to 8) (size 9 to 14) (size 15 to 20)
#    0.000    2.500    0.000    3.375    0.000    4.500 
#    0.000    0.625    0.000    7.500    0.000    0.000 
#    0.000    0.000    0.000    0.000    0.000    0.000 
#
# Total GULP energy -89471.819570 kJ/mol
# GULP energy per Si atom -5591.988723 kJ/mol
# Density = 2.398106 g / cm^3
# Si number density = 24.035765 Si / 1000 Ang^3
#
#
#
# Elastic Constant Matrix: (Units=GPa)
#
#
# Indices 1 2 3 4 5 6 
#
# 1 159.3378 32.8647 12.8586 -12.5658 21.1580 2.5118
# 2 32.8647 84.9081 21.3356 -10.9475 10.7386 -11.3882
# 3 12.8586 21.3356 79.4005 -18.3251 6.9887 -3.2247
# 4 -12.5658 -10.9475 -18.3251 43.5664 8.5576 6.8388
# 5 21.1580 10.7386 6.9887 8.5576 30.6339 -11.7836
# 6 2.5118 -11.3882 -3.2247 6.8388 -11.7836 27.6564
#
#
#
# Elastic Compliance Matrix: (Units=1/GPa)
#
#
# Indices 1 2 3 4 5 6 
#
# 1 0.008486 -0.002647 0.001060 0.005149 -0.009295 -0.006970
# 2 -0.002647 0.014479 -0.002953 0.000965 -0.000815 0.005272
# 3 0.001060 -0.002953 0.015593 0.008309 -0.007381 -0.004694
# 4 0.005149 0.000965 0.008309 0.035279 -0.022312 -0.017332
# 5 -0.009295 -0.000815 -0.007381 -0.022312 0.058907 0.030264
# 6 -0.006970 0.005272 -0.004694 -0.017332 0.030264 0.055595
#
#
# Mechanical properties :
#
#
# Convention : Reuss Voigt Hill
#
# Bulk Modulus (GPa) = 33.92306 50.86268 42.39287
# Shear Modulus (GPa) = 24.12598 37.47716 30.80157
#
# Velocity S-wave (km/s) = 3.17164 3.95299 3.58367
# Velocity P-wave (km/s) = 5.24944 6.48398 5.89909
#
# Compressibility (1/GPa) = 0.02947847
#
# Stress axis : x y z
#
# Youngs Moduli (GPa) = 117.83424 69.06732 64.13149
#
# Poissons Ratio (x) = 0.18280 -0.06799
# Poissons Ratio (y) = 0.31187 0.18940
# Poissons Ratio (z) = -0.12492 0.20397
#
# Static dielectric constant tensor:
#      x y z
#    x 1.928640 0.032750 -0.007180 
#    y 0.032750 1.970830 -0.003830 
#    z -0.007180 -0.003830 1.942820 
# 
# From -- ./inp_files/541768.got.cif
#   From: 2010.05.17/outbox.cif.g08.bks.cpg/sg2_271_cif.got.tgz:541768.got - 2010.06.03 11:33:40.
