data_PCOD9082325
_publ_section_title
;
Structure prediction by ZEFSAII (Michael W. Deem and Ramdas Pophale) SiO2 
 PCOD9082325
Probable space group: P -1
;
_chemical_formula_sum "Si O2"
_cell_formula_units_Z 14
_cell_length_a 12.849961
_cell_length_b 25.139785
_cell_length_c 8.940620
_cell_angle_alpha 24.585541
_cell_angle_beta 33.763221
_cell_angle_gamma 29.768094
_cell_volume 584.148480
_symmetry_space_group_name_H-M "P -1"
_symmetry_group_IT_number 2
_symmetry_cell_setting 'triclinic'
loop_
_space_group_symop_operation_xyz
x,y,z
-x,-y,-z
loop_
_atom_site_type_symbol
_atom_site_label
_atom_site_fract_x
_atom_site_fract_y
_atom_site_fract_z
Si Si1 0.073777 0.951008 0.749654
Si Si2 0.323196 0.486646 0.647966
Si Si3 0.359669 0.665668 0.574877
Si Si4 0.612748 0.935971 0.869209
Si Si5 0.336755 0.805751 0.532164
Si Si6 0.575113 0.814047 0.787470
Si Si7 0.985684 0.261245 0.435414
O O1 0.161565 0.064374 0.388528
O O2 0.251351 0.821939 0.761946
O O3 0.047724 0.871448 0.127517
O O4 0.849548 0.038037 0.709493
O O5 0.500000 0.500000 0.500000
O O6 0.580896 0.534239 0.580799
O O7 0.106362 0.618165 0.629865
O O8 0.339354 0.329246 0.054629
O O9 0.337090 0.687068 0.722770
O O10 0.160344 0.671744 0.707733
O O11 0.389186 0.803496 0.128277
O O12 0.497697 0.048874 0.582667
O O13 0.500000 0.000000 0.000000
O O14 0.565167 0.801115 0.258880
O O15 0.764188 0.792102 0.729382
#
# Coordination Sequence:
#
# PCOD9082325 Si02
#       7
#     2   2   2   2   2   2   2
#     4  10  20  35  55  74 102 143 178 207 260 312
#     4   8  17  34  54  77 105 133 172 217 255 306
#     4   9  21  34  51  79 108 132 177 215 261 298
#     4  10  19  34  52  75 105 140 176 208 256 313
#     4  10  21  36  51  76 108 139 175 215 255 311
#     4  10  19  33  54  79 103 136 174 212 262 302
#     4  11  18  35  56  80 103 139 175 212 258 311
#
# _framework density 23.96651
#
# number of rings (size 3 to 8) (size 9 to 14) (size 15 to 20)
#    0.857    1.429    2.857    0.429    0.000    2.286 
#    0.000    0.714    0.000    0.000    0.000    5.000 
#    0.000    0.000    0.000    0.000    0.000    0.000 
#
# Total GULP energy -78072.023781 kJ/mol
# GULP energy per Si atom -5576.573127 kJ/mol
# Density = 2.391196 g / cm^3
# Si number density = 23.966510 Si / 1000 Ang^3
#
#
#
# Elastic Constant Matrix: (Units=GPa)
#
#
# Indices 1 2 3 4 5 6 
#
# 1 84.3750 20.8545 22.1978 3.2567 -27.1228 8.2900
# 2 20.8545 104.8315 11.6110 -6.3598 -2.3804 26.3572
# 3 22.1978 11.6110 54.9400 1.8843 -8.9611 2.9214
# 4 3.2567 -6.3598 1.8843 16.7223 -2.7279 -8.0892
# 5 -27.1228 -2.3804 -8.9611 -2.7279 37.2656 1.9701
# 6 8.2900 26.3572 2.9214 -8.0892 1.9701 26.5737
#
#
#
# Elastic Compliance Matrix: (Units=1/GPa)
#
#
# Indices 1 2 3 4 5 6 
#
# 1 0.018005 -0.001640 -0.004532 -0.004452 0.011887 -0.005729
# 2 -0.001640 0.013139 -0.001440 -0.000600 -0.000081 -0.012539
# 3 -0.004532 -0.001440 0.020639 -0.001794 0.001445 -0.000080
# 4 -0.004452 -0.000600 -0.001794 0.072397 0.000311 0.024196
# 5 0.011887 -0.000081 0.001445 0.000311 0.036188 -0.006375
# 6 -0.005729 -0.012539 -0.000080 0.024196 -0.006375 0.059702
#
#
# Mechanical properties :
#
#
# Convention : Reuss Voigt Hill
#
# Bulk Modulus (GPa) = 27.35299 39.27480 33.31390
# Shear Modulus (GPa) = 20.20361 28.74452 24.47407
#
# Velocity S-wave (km/s) = 2.90659 3.46694 3.19905
# Velocity P-wave (km/s) = 4.76467 5.69642 5.25125
#
# Compressibility (1/GPa) = 0.03655907
#
# Stress axis : x y z
#
# Youngs Moduli (GPa) = 55.53916 76.10828 48.45274
#
# Poissons Ratio (x) = 0.12479 0.21959
# Poissons Ratio (y) = 0.09107 0.06979
# Poissons Ratio (z) = 0.25171 0.10962
#
# Static dielectric constant tensor:
#      x y z
#    x 1.957990 0.067570 -0.004120 
#    y 0.067570 2.017750 -0.008200 
#    z -0.004120 -0.008200 1.932680 
# 
# From -- ./inp_files/283957.got.cif
#   From: 2010.05.17/outbox.cif.g08.bks.cpg/sg2_142_cif.got.tgz:283957.got - 2010.06.03 11:33:40.
