data_PCOD9082255
_publ_section_title
;
Structure prediction by ZEFSAII (Michael W. Deem and Ramdas Pophale) SiO2 
 PCOD9082255
Probable space group: P -1
;
_chemical_formula_sum "Si O2"
_cell_formula_units_Z 12
_cell_length_a 15.905635
_cell_length_b 8.753787
_cell_length_c 7.015352
_cell_angle_alpha 77.980182
_cell_angle_beta 58.432912
_cell_angle_gamma 43.216082
_cell_volume 544.170319
_symmetry_space_group_name_H-M "P -1"
_symmetry_group_IT_number 2
_symmetry_cell_setting 'triclinic'
loop_
_space_group_symop_operation_xyz
x,y,z
-x,-y,-z
loop_
_atom_site_type_symbol
_atom_site_label
_atom_site_fract_x
_atom_site_fract_y
_atom_site_fract_z
Si Si1 0.133469 0.089140 0.762935
Si Si2 0.965845 0.566281 0.748712
Si Si3 0.810097 0.460502 0.949540
Si Si4 0.690746 0.296098 0.632314
Si Si5 0.913704 0.256078 0.466731
Si Si6 0.358103 0.638003 0.871466
O O1 0.212852 0.958640 0.500359
O O2 0.244077 0.882136 0.833114
O O3 0.096459 0.315515 0.763517
O O4 0.967196 0.214729 0.913071
O O5 0.983076 0.727024 0.735331
O O6 0.000000 0.500000 0.500000
O O7 0.818987 0.634594 0.943354
O O8 0.835368 0.419167 0.702759
O O9 0.677964 0.495239 0.124957
O O10 0.785442 0.340085 0.462981
O O11 0.528593 0.481753 0.688759
O O12 0.674098 0.311282 0.876620
O O13 0.000000 0.000000 0.500000
#
# Coordination Sequence:
#
# PCOD9082255 Si02
#       6
#     2   2   2   2   2   2
#     4  10  18  34  56  78 103 144 177 214 258 313
#     4   8  16  29  53  80  99 137 181 213 261 305
#     4   8  17  30  53  77 103 135 175 219 255 307
#     4  10  20  33  54  80 106 142 175 214 262 315
#     4  10  15  31  55  79 100 137 183 213 258 320
#     4  10  20  32  53  83 110 136 176 217 263 309
#
# _framework density 22.051918000000001
#
# number of rings (size 3 to 8) (size 9 to 14) (size 15 to 20)
#    1.000    1.667    1.667    1.000    0.000    0.000 
#    0.000    0.833    0.000   47.000    0.000    0.000 
#    0.000    0.000    0.000    0.000    0.000    0.000 
#
# Total GULP energy -66849.588418 kJ/mol
# GULP energy per Si atom -5570.799035 kJ/mol
# Density = 2.200173 g / cm^3
# Si number density = 22.051918 Si / 1000 Ang^3
#
#
#
# Elastic Constant Matrix: (Units=GPa)
#
#
# Indices 1 2 3 4 5 6 
#
# 1 167.4683 64.4900 54.8587 -5.1574 -43.8440 2.1079
# 2 64.4900 71.3410 24.6354 -15.7297 -31.0915 13.0679
# 3 54.8587 24.6354 63.1753 -1.0754 -13.2329 1.5969
# 4 -5.1574 -15.7297 -1.0754 30.6075 -0.1257 -1.3904
# 5 -43.8440 -31.0915 -13.2329 -0.1257 50.7693 -6.0870
# 6 2.1079 13.0679 1.5969 -1.3904 -6.0870 47.0013
#
#
#
# Elastic Compliance Matrix: (Units=1/GPa)
#
#
# Indices 1 2 3 4 5 6 
#
# 1 0.012182 -0.007637 -0.006782 -0.001987 0.004348 0.002312
# 2 -0.007637 0.030925 -0.002741 0.014267 0.010906 -0.006328
# 3 -0.006782 -0.002741 0.022400 -0.001770 -0.001697 0.000033
# 4 -0.001987 0.014267 -0.001770 0.039551 0.006440 -0.001813
# 5 0.004348 0.010906 -0.001697 0.006440 0.029810 0.000882
# 6 0.002312 -0.006328 0.000033 -0.001813 0.000882 0.022991
#
#
# Mechanical properties :
#
#
# Convention : Reuss Voigt Hill
#
# Bulk Modulus (GPa) = 32.06296 65.55029 48.80662
# Shear Modulus (GPa) = 24.68260 36.20897 30.44578
#
# Velocity S-wave (km/s) = 3.34922 4.05654 3.71973
# Velocity P-wave (km/s) = 5.43394 7.19240 6.37410
#
# Compressibility (1/GPa) = 0.03118864
#
# Stress axis : x y z
#
# Youngs Moduli (GPa) = 82.09152 32.33666 44.64270
#
# Poissons Ratio (x) = 0.24695 0.30275
# Poissons Ratio (y) = 0.62691 0.12234
# Poissons Ratio (z) = 0.55670 0.08862
#
# Static dielectric constant tensor:
#      x y z
#    x 1.872400 0.011960 0.014760 
#    y 0.011960 1.791090 -0.062230 
#    z 0.014760 -0.062230 1.910560 
# 
# From -- ./inp_files/292283.got.cif
#   From: 2010.05.17/outbox.cif.g08.bks.cpg/sg2_147_cif.got.tgz:292283.got - 2010.06.03 11:33:40.
