data_PCOD9082811
_publ_section_title
;
Structure prediction by ZEFSAII (Michael W. Deem and Ramdas Pophale) SiO2 
 PCOD9082811
Probable space group: P -1
;
_chemical_formula_sum "Si O2"
_cell_formula_units_Z 16
_cell_length_a 10.783689
_cell_length_b 11.801124
_cell_length_c 11.626791
_cell_angle_alpha 139.007935
_cell_angle_beta 51.691280
_cell_angle_gamma 122.221784
_cell_volume 755.430963
_symmetry_space_group_name_H-M "P -1"
_symmetry_group_IT_number 2
_symmetry_cell_setting 'triclinic'
loop_
_space_group_symop_operation_xyz
x,y,z
-x,-y,-z
loop_
_atom_site_type_symbol
_atom_site_label
_atom_site_fract_x
_atom_site_fract_y
_atom_site_fract_z
Si Si1 0.630533 0.421550 0.204670
Si Si2 0.142112 0.539847 0.537280
Si Si3 0.313149 0.000289 0.627929
Si Si4 0.689554 0.366957 0.708799
Si Si5 0.308156 0.954157 0.080472
Si Si6 0.672293 0.622531 0.097817
Si Si7 0.713019 0.692342 0.561796
Si Si8 0.158051 0.925659 0.897258
O O1 0.640819 0.496604 0.128095
O O2 0.700619 0.580539 0.367837
O O3 0.454493 0.361035 0.313237
O O4 0.719949 0.249447 0.028471
O O5 0.290836 0.575404 0.391091
O O6 0.157464 0.380452 0.488404
O O7 0.133047 0.716190 0.747194
O O8 0.000000 0.500000 0.500000
O O9 0.252534 0.180861 0.763839
O O10 0.500000 0.000000 0.500000
O O11 0.241582 0.818058 0.469558
O O12 0.283362 0.983092 0.768201
O O13 0.500918 0.342888 0.825037
O O14 0.758717 0.520377 0.872449
O O15 0.258347 0.100192 0.307063
O O16 0.226574 0.983277 0.026394
O O17 0.500000 0.000000 0.000000
O O18 0.000000 0.000000 0.000000
#
# Coordination Sequence:
#
# PCOD9082811 Si02
#       8
#     2   2   2   2   2   2   2   2
#     4  10  20  35  54  86 119 157 194 250 294 364
#     4  11  21  36  60  85 120 156 198 250 304 363
#     4   9  21  35  57  87 120 159 200 251 305 356
#     4   9  20  34  51  86 114 151 199 243 293 353
#     4  10  22  35  58  90 121 164 202 255 305 361
#     4  10  19  33  58  80 120 155 190 246 299 357
#     4  10  20  34  55  82 119 154 201 240 303 347
#     4  11  23  40  61  93 129 156 205 262 308 368
#
# _framework density 21.179963999999998
#
# number of rings (size 3 to 8) (size 9 to 14) (size 15 to 20)
#    0.000    2.000    2.500    0.750    3.500    4.000 
#    0.000    0.000    0.000    3.000    0.000    9.625 
#    0.000    0.000    0.000    0.000    0.000    0.000 
#
# Total GULP energy -89182.882329 kJ/mol
# GULP energy per Si atom -5573.930146 kJ/mol
# Density = 2.113176 g / cm^3
# Si number density = 21.179964 Si / 1000 Ang^3
#
#
#
# Elastic Constant Matrix: (Units=GPa)
#
#
# Indices 1 2 3 4 5 6 
#
# 1 73.4931 4.6506 27.0782 12.7453 6.1326 -7.2826
# 2 4.6506 63.5261 49.3377 26.2802 0.8028 -14.9952
# 3 27.0782 49.3377 141.2686 50.7242 19.7159 -13.3574
# 4 12.7453 26.2802 50.7242 36.5338 1.4744 -7.0535
# 5 6.1326 0.8028 19.7159 1.4744 21.4821 4.3997
# 6 -7.2826 -14.9952 -13.3574 -7.0535 4.3997 23.1753
#
#
#
# Elastic Compliance Matrix: (Units=1/GPa)
#
#
# Indices 1 2 3 4 5 6 
#
# 1 0.015600 0.003174 -0.001317 -0.004651 -0.004186 0.005576
# 2 0.003174 0.026796 -0.004920 -0.011296 0.000950 0.011881
# 3 -0.001317 -0.004920 0.019590 -0.021696 -0.016807 0.004281
# 4 -0.004651 -0.011296 -0.021696 0.065593 0.018134 -0.004754
# 5 -0.004186 0.000950 -0.016807 0.018134 0.065432 -0.017291
# 6 0.005576 0.011881 0.004281 -0.004754 -0.017291 0.056892
#
#
# Mechanical properties :
#
#
# Convention : Reuss Voigt Hill
#
# Bulk Modulus (GPa) = 17.90208 48.93564 33.41886
# Shear Modulus (GPa) = 18.20502 29.38632 23.79567
#
# Velocity S-wave (km/s) = 2.93497 3.72890 3.35550
# Velocity P-wave (km/s) = 4.46723 6.45712 5.55205
#
# Compressibility (1/GPa) = 0.05585945
#
# Stress axis : x y z
#
# Youngs Moduli (GPa) = 64.10429 37.31900 51.04619
#
# Poissons Ratio (x) = -0.11846 0.06724
# Poissons Ratio (y) = -0.20348 0.25115
# Poissons Ratio (z) = 0.08445 0.18361
#
# Static dielectric constant tensor:
#      x y z
#    x 1.771360 0.049850 -0.013940 
#    y 0.049850 1.819100 0.031870 
#    z -0.013940 0.031870 1.826660 
# 
# From -- ./inp_files/278034.got.cif
#   From: 2010.05.17/outbox.cif.g08.bks.cpg/sg2_140_cif.got.tgz:278034.got - 2010.06.03 11:33:40.
