data_PCOD9082369
_publ_section_title
;
Structure prediction by ZEFSAII (Michael W. Deem and Ramdas Pophale) SiO2 
 PCOD9082369
Probable space group: P -1
;
_chemical_formula_sum "Si O2"
_cell_formula_units_Z 14
_cell_length_a 14.070044
_cell_length_b 17.587233
_cell_length_c 12.379824
_cell_angle_alpha 138.078604
_cell_angle_beta 158.588255
_cell_angle_gamma 35.510173
_cell_volume 648.224635
_symmetry_space_group_name_H-M "P -1"
_symmetry_group_IT_number 2
_symmetry_cell_setting 'triclinic'
loop_
_space_group_symop_operation_xyz
x,y,z
-x,-y,-z
loop_
_atom_site_type_symbol
_atom_site_label
_atom_site_fract_x
_atom_site_fract_y
_atom_site_fract_z
Si Si1 0.650982 0.090312 0.759323
Si Si2 0.108232 0.950348 0.810374
Si Si3 0.412692 0.628541 0.398036
Si Si4 0.187286 0.119951 0.922667
Si Si5 0.455591 0.788774 0.444302
Si Si6 0.369406 0.395505 0.169100
Si Si7 0.920612 0.779465 0.317585
O O1 0.496711 0.202183 0.622902
O O2 0.500000 0.000000 0.500000
O O3 0.000000 0.000000 0.000000
O O4 0.655628 0.128382 0.929181
O O5 0.887672 0.095541 0.777126
O O6 0.230075 0.981248 0.861777
O O7 0.914018 0.882243 0.505401
O O8 0.508467 0.653475 0.409158
O O9 0.273154 0.533161 0.154903
O O10 0.652133 0.581563 0.699228
O O11 0.163482 0.773263 0.324124
O O12 0.246070 0.141593 0.884325
O O13 0.354703 0.165691 0.232563
O O14 0.722724 0.309614 0.423165
O O15 0.203961 0.315570 0.880786
#
# Coordination Sequence:
#
# PCOD9082369 Si02
#       7
#     2   2   2   2   2   2   2
#     4  10  20  35  54  78 105 140 180 217 260 308
#     4  10  22  35  52  80 114 142 172 216 266 330
#     4   9  20  35  54  80 106 138 184 228 259 300
#     4  10  19  33  54  82 108 141 172 220 269 317
#     4  10  19  34  57  79 108 136 181 223 267 304
#     4  10  22  36  55  78 108 145 181 217 260 316
#     4  11  23  35  53  81 113 146 172 208 272 328
#
# _framework density 21.597449999999998
#
# number of rings (size 3 to 8) (size 9 to 14) (size 15 to 20)
#    0.000    2.000    2.857    0.429    4.000    2.286 
#    0.000    0.000    0.000    1.714    0.000    0.000 
#    0.000    0.000    0.000    0.000    0.000    0.000 
#
# Total GULP energy -78124.067086 kJ/mol
# GULP energy per Si atom -5580.290506 kJ/mol
# Density = 2.154829 g / cm^3
# Si number density = 21.597450 Si / 1000 Ang^3
#
#
#
# Elastic Constant Matrix: (Units=GPa)
#
#
# Indices 1 2 3 4 5 6 
#
# 1 87.5336 49.7729 46.7538 10.0464 -1.4726 46.7619
# 2 49.7729 83.2520 33.7040 21.8417 -2.8073 41.7454
# 3 46.7538 33.7040 123.8912 21.4161 4.3299 37.7029
# 4 10.0464 21.8417 21.4161 36.4774 7.4561 16.2808
# 5 -1.4726 -2.8073 4.3299 7.4561 38.3493 -5.2815
# 6 46.7619 41.7454 37.7029 16.2808 -5.2815 50.7212
#
#
#
# Elastic Compliance Matrix: (Units=1/GPa)
#
#
# Indices 1 2 3 4 5 6 
#
# 1 0.026495 -0.007231 -0.003628 0.008203 -0.003280 -0.018754
# 2 -0.007231 0.023438 0.000919 -0.008186 0.001476 -0.010526
# 3 -0.003628 0.000919 0.011341 -0.003836 -0.001260 -0.004742
# 4 0.008203 -0.008186 -0.003836 0.039316 -0.009085 -0.011540
# 5 -0.003280 0.001476 -0.001260 -0.009085 0.029165 0.008698
# 6 -0.018754 -0.010526 -0.004742 -0.011540 0.008698 0.053804
#
#
# Mechanical properties :
#
#
# Convention : Reuss Voigt Hill
#
# Bulk Modulus (GPa) = 24.15696 61.68203 42.91949
# Shear Modulus (GPa) = 23.01646 36.07263 29.54455
#
# Velocity S-wave (km/s) = 3.26805 4.09127 3.70261
# Velocity P-wave (km/s) = 5.04476 7.13722 6.18019
#
# Compressibility (1/GPa) = 0.04139594
#
# Stress axis : x y z
#
# Youngs Moduli (GPa) = 37.74249 42.66555 88.17807
#
# Poissons Ratio (x) = 0.30850 0.31989
# Poissons Ratio (y) = 0.27290 -0.08106
# Poissons Ratio (z) = 0.13692 -0.03922
#
# Static dielectric constant tensor:
#      x y z
#    x 1.905650 -0.001580 0.020410 
#    y -0.001580 1.848690 -0.045250 
#    z 0.020410 -0.045250 1.809740 
# 
# From -- ./inp_files/27621.got.cif
#   From: 2010.05.17/outbox.cif.g08.bks.cpg/sg2_14_cif.got.tgz:27621.got - 2010.06.03 11:33:40.
