data_PCOD9082774
_publ_section_title
;
Structure prediction by ZEFSAII (Michael W. Deem and Ramdas Pophale) SiO2 
 PCOD9082774
Probable space group: P -1
;
_chemical_formula_sum "Si O2"
_cell_formula_units_Z 16
_cell_length_a 19.608332
_cell_length_b 14.434113
_cell_length_c 26.560418
_cell_angle_alpha 20.034274
_cell_angle_beta 160.203582
_cell_angle_gamma 160.643963
_cell_volume 748.735112
_symmetry_space_group_name_H-M "P -1"
_symmetry_group_IT_number 2
_symmetry_cell_setting 'triclinic'
loop_
_space_group_symop_operation_xyz
x,y,z
-x,-y,-z
loop_
_atom_site_type_symbol
_atom_site_label
_atom_site_fract_x
_atom_site_fract_y
_atom_site_fract_z
Si Si1 0.057456 0.886039 0.290931
Si Si2 0.057915 0.591783 0.081867
Si Si3 0.409248 0.403424 0.430154
Si Si4 0.428609 0.632222 0.603377
Si Si5 0.399255 0.830181 0.069666
Si Si6 0.847969 0.232340 0.224659
Si Si7 0.840342 0.589554 0.562017
Si Si8 0.983746 0.241395 0.554475
O O1 0.930225 0.524563 0.370228
O O2 0.051114 0.874263 0.353225
O O3 0.330684 0.048267 0.380067
O O4 0.954701 0.096114 0.092641
O O5 0.304003 0.618382 0.230466
O O6 0.973259 0.451276 0.151271
O O7 0.876894 0.337596 0.045057
O O8 0.500000 0.500000 0.500000
O O9 0.622507 0.456424 0.516928
O O10 0.192583 0.048611 0.454409
O O11 0.542075 0.448074 0.748122
O O12 0.252531 0.628200 0.440730
O O13 0.255740 0.405359 0.642580
O O14 0.570305 0.084752 0.098740
O O15 0.500000 0.000000 0.000000
O O16 0.949596 0.385323 0.271336
O O17 0.897397 0.940468 0.406777
#
# Coordination Sequence:
#
# PCOD9082774 Si02
#       8
#     2   2   2   2   2   2   2   2
#     4  10  23  43  62  91 122 166 205 257 309 370
#     4  10  20  38  58  87 125 154 206 260 313 353
#     4  12  23  38  61  94 122 165 210 256 304 371
#     4  10  19  37  60  88 115 160 203 253 301 362
#     4   8  15  29  51  81 116 149 186 244 305 343
#     4   9  17  32  54  81 118 163 193 249 302 359
#     4  10  19  33  57  89 125 158 207 250 304 366
#     4  11  23  41  65  89 125 162 210 253 306 374
#
# _framework density 21.369371999999998
#
# number of rings (size 3 to 8) (size 9 to 14) (size 15 to 20)
#    0.000    2.000    2.500    2.625    1.750    0.500 
#    9.000    0.625    0.000    0.750    0.000    0.000 
#    0.000    0.000    0.000    0.000    0.000    0.000 
#
# Total GULP energy -89293.899695 kJ/mol
# GULP energy per Si atom -5580.868731 kJ/mol
# Density = 2.132073 g / cm^3
# Si number density = 21.369372 Si / 1000 Ang^3
#
#
#
# Elastic Constant Matrix: (Units=GPa)
#
#
# Indices 1 2 3 4 5 6 
#
# 1 85.0533 37.7639 20.1465 0.3127 -15.7920 16.6211
# 2 37.7639 91.5205 54.9573 -7.0367 -21.5502 -4.8722
# 3 20.1465 54.9573 100.2969 8.6861 -15.8262 -7.1008
# 4 0.3127 -7.0367 8.6861 41.5475 -2.4982 -6.8523
# 5 -15.7920 -21.5502 -15.8262 -2.4982 28.7220 0.0688
# 6 16.6211 -4.8722 -7.1008 -6.8523 0.0688 32.2545
#
#
#
# Elastic Compliance Matrix: (Units=1/GPa)
#
#
# Indices 1 2 3 4 5 6 
#
# 1 0.017915 -0.007677 0.000783 -0.003139 0.004274 -0.010895
# 2 -0.007677 0.022912 -0.009901 0.007627 0.008161 0.006840
# 3 0.000783 -0.009901 0.015910 -0.004833 0.001347 0.000574
# 4 -0.003139 0.007627 -0.004833 0.027876 0.003740 0.007620
# 5 0.004274 0.008161 0.001347 0.003740 0.044357 0.000027
# 6 -0.010895 0.006840 0.000574 0.007620 0.000027 0.039396
#
#
# Mechanical properties :
#
#
# Convention : Reuss Voigt Hill
#
# Bulk Modulus (GPa) = 43.20250 55.84511 49.52380
# Shear Modulus (GPa) = 23.84672 31.43833 27.64252
#
# Velocity S-wave (km/s) = 3.34418 3.83977 3.60051
# Velocity P-wave (km/s) = 5.93062 6.77114 6.36477
#
# Compressibility (1/GPa) = 0.02314681
#
# Stress axis : x y z
#
# Youngs Moduli (GPa) = 55.81976 43.64502 62.85359
#
# Poissons Ratio (x) = 0.33507 -0.04922
# Poissons Ratio (y) = 0.42854 0.62231
# Poissons Ratio (z) = -0.04372 0.43213
#
# Static dielectric constant tensor:
#      x y z
#    x 1.856400 -0.015490 0.008410 
#    y -0.015490 1.862190 0.001850 
#    z 0.008410 0.001850 1.816710 
# 
# From -- ./inp_files/620832.got.cif
#   From: 2010.05.17/outbox.cif.g08.bks.cpg/sg2_311_cif.got.tgz:620832.got - 2010.06.03 11:33:40.
