data_PCOD9082716
_publ_section_title
;
Structure prediction by ZEFSAII (Michael W. Deem and Ramdas Pophale) SiO2 
 PCOD9082716
Probable space group: P -1
;
_chemical_formula_sum "Si O2"
_cell_formula_units_Z 16
_cell_length_a 9.177491
_cell_length_b 17.755295
_cell_length_c 12.899885
_cell_angle_alpha 48.633697
_cell_angle_beta 130.752699
_cell_angle_gamma 89.691548
_cell_volume 764.958285
_symmetry_space_group_name_H-M "P -1"
_symmetry_group_IT_number 2
_symmetry_cell_setting 'triclinic'
loop_
_space_group_symop_operation_xyz
x,y,z
-x,-y,-z
loop_
_atom_site_type_symbol
_atom_site_label
_atom_site_fract_x
_atom_site_fract_y
_atom_site_fract_z
Si Si1 0.773868 0.547276 0.436050
Si Si2 0.237560 0.804536 0.698307
Si Si3 0.613879 0.288897 0.375410
Si Si4 0.685486 0.951495 0.027235
Si Si5 0.315799 0.588883 0.074741
Si Si6 0.427752 0.860529 0.918417
Si Si7 0.643010 0.166093 0.696710
Si Si8 0.320921 0.483838 0.369876
O O1 0.610294 0.520345 0.327906
O O2 0.875570 0.482736 0.658110
O O3 0.000000 0.500000 0.500000
O O4 0.532783 0.733989 0.162794
O O5 0.409904 0.715548 0.753624
O O6 0.406763 0.817165 0.836369
O O7 0.181899 0.731514 0.814147
O O8 0.910011 0.974619 0.361149
O O9 0.413611 0.462306 0.159042
O O10 0.532480 0.231063 0.468875
O O11 0.964740 0.172863 0.670098
O O12 0.641256 0.870841 0.009641
O O13 0.543819 0.106024 0.765667
O O14 0.500000 0.000000 0.000000
O O15 0.157644 0.601434 0.089362
O O16 0.537199 0.309129 0.580541
O O17 0.000000 0.000000 0.000000
O O18 0.500000 0.500000 0.500000
#
# Coordination Sequence:
#
# PCOD9082716 Si02
#       8
#     2   2   2   2   2   2   2   2
#     4  10  19  33  57  84 116 142 186 244 290 332
#     4  10  20  36  57  80 115 157 188 228 282 356
#     4  10  19  35  58  83 112 147 192 237 286 338
#     4  11  19  33  56  85 111 144 191 244 286 329
#     4   9  19  34  55  82 108 148 195 227 278 347
#     4  10  21  35  56  84 114 146 195 230 287 340
#     4   9  20  33  54  87 116 144 189 243 288 338
#     4   9  18  34  56  82 113 152 188 236 288 338
#
# _framework density 20.916173000000001
#
# number of rings (size 3 to 8) (size 9 to 14) (size 15 to 20)
#    0.000    2.250    1.250    1.875    1.750    1.000 
#    0.000    0.625    5.500    1.500    0.000    0.000 
#    0.000    0.000    0.000    0.000    0.000    0.000 
#
# Total GULP energy -89166.651534 kJ/mol
# GULP energy per Si atom -5572.915721 kJ/mol
# Density = 2.086857 g / cm^3
# Si number density = 20.916173 Si / 1000 Ang^3
#
#
#
# Elastic Constant Matrix: (Units=GPa)
#
#
# Indices 1 2 3 4 5 6 
#
# 1 111.4334 40.9504 22.0382 7.6768 -32.7610 -25.0897
# 2 40.9504 106.1858 16.9511 1.7898 -24.8985 -5.8496
# 3 22.0382 16.9511 36.3345 -2.6975 -16.1559 -6.5349
# 4 7.6768 1.7898 -2.6975 21.5338 3.3393 -1.2780
# 5 -32.7610 -24.8985 -16.1559 3.3393 31.7857 3.4233
# 6 -25.0897 -5.8496 -6.5349 -1.2780 3.4233 38.6556
#
#
#
# Elastic Compliance Matrix: (Units=1/GPa)
#
#
# Indices 1 2 3 4 5 6 
#
# 1 0.017007 -0.002192 -0.001694 -0.007867 0.014824 0.008847
# 2 -0.002192 0.012057 -0.001558 -0.001469 0.006600 -0.000495
# 3 -0.001694 -0.001558 0.036862 0.003238 0.015034 0.003672
# 4 -0.007867 -0.001469 0.003238 0.051645 -0.012830 -0.001937
# 5 0.014824 0.006600 0.015034 -0.012830 0.060100 0.007415
# 6 0.008847 -0.000495 0.003672 -0.001937 0.007415 0.031437
#
#
# Mechanical properties :
#
#
# Convention : Reuss Voigt Hill
#
# Bulk Modulus (GPa) = 18.16978 45.98144 32.07561
# Shear Modulus (GPa) = 20.97820 29.99596 25.48708
#
# Velocity S-wave (km/s) = 3.17040 3.79106 3.49454
# Velocity P-wave (km/s) = 4.70188 6.41828 5.62592
#
# Compressibility (1/GPa) = 0.05503644
#
# Stress axis : x y z
#
# Youngs Moduli (GPa) = 58.80024 82.94051 27.12819
#
# Poissons Ratio (x) = 0.18183 0.04595
# Poissons Ratio (y) = 0.12891 0.04228
# Poissons Ratio (z) = 0.09960 0.12925
#
# Static dielectric constant tensor:
#      x y z
#    x 1.819490 0.001890 0.001160 
#    y 0.001890 1.786860 -0.023030 
#    z 0.001160 -0.023030 1.796360 
# 
# From -- ./inp_files/218883.got.cif
#   From: 2010.05.17/outbox.cif.g08.bks.cpg/sg2_110_cif.got.tgz:218883.got - 2010.06.03 11:33:40.
