data_PCOD9082688
_publ_section_title
;
Structure prediction by ZEFSAII (Michael W. Deem and Ramdas Pophale) SiO2 
 PCOD9082688
Probable space group: P -1
;
_chemical_formula_sum "Si O2"
_cell_formula_units_Z 16
_cell_length_a 11.725181
_cell_length_b 15.366848
_cell_length_c 11.626237
_cell_angle_alpha 72.667089
_cell_angle_beta 47.627594
_cell_angle_gamma 116.368598
_cell_volume 597.732331
_symmetry_space_group_name_H-M "P -1"
_symmetry_group_IT_number 2
_symmetry_cell_setting 'triclinic'
loop_
_space_group_symop_operation_xyz
x,y,z
-x,-y,-z
loop_
_atom_site_type_symbol
_atom_site_label
_atom_site_fract_x
_atom_site_fract_y
_atom_site_fract_z
Si Si1 0.337043 0.145674 0.078562
Si Si2 0.198255 0.969078 0.010710
Si Si3 0.542757 0.982875 0.831600
Si Si4 0.022092 0.839268 0.946043
Si Si5 0.934584 0.528062 0.856644
Si Si6 0.917183 0.806962 0.780249
Si Si7 0.897382 0.322085 0.072377
Si Si8 0.234523 0.471063 0.254858
O O1 0.187961 0.029145 0.102604
O O2 0.703310 0.411565 0.743117
O O3 0.028024 0.058859 0.349474
O O4 0.435496 0.106105 0.094474
O O5 0.184262 0.855268 0.104313
O O6 0.632019 0.216221 0.574125
O O7 0.951470 0.850990 0.110001
O O8 0.736487 0.070139 0.539625
O O9 0.837345 0.204383 0.618597
O O10 0.976634 0.707275 0.046249
O O11 0.809008 0.750098 0.009356
O O12 0.462551 0.088594 0.506845
O O13 0.697889 0.446172 0.947881
O O14 0.858805 0.523105 0.039097
O O15 0.913654 0.408484 0.931521
O O16 0.566684 0.584378 0.028181
#
# Coordination Sequence:
#
# PCOD9082688 Si02
#       8
#     2   2   2   2   2   2   2   2
#     4  10  24  38  57  88 115 156 188 227 294 342
#     4  10  22  39  56  85 115 150 189 236 284 338
#     4  11  20  39  62  87 112 146 194 241 285 332
#     4  10  19  33  57  81 114 148 189 234 276 339
#     4   9  18  34  56  81 116 145 185 239 286 333
#     4  10  22  37  57  86 114 152 191 235 283 338
#     4   9  18  32  55  88 109 145 190 236 286 326
#     4   9  22  36  59  84 117 148 186 242 277 338
#
# _framework density 26.767833
#
# number of rings (size 3 to 8) (size 9 to 14) (size 15 to 20)
#    0.750    1.500    0.000    4.125    3.500    2.500 
#    2.250    2.500    0.000    1.500    0.000    0.000 
#    0.000    0.000    0.000    0.000    0.000    0.000 
#
# Total GULP energy -89340.261060 kJ/mol
# GULP energy per Si atom -5583.766316 kJ/mol
# Density = 2.670691 g / cm^3
# Si number density = 26.767833 Si / 1000 Ang^3
#
#
#
# Elastic Constant Matrix: (Units=GPa)
#
#
# Indices 1 2 3 4 5 6 
#
# 1 153.8788 65.5238 7.4513 -13.8179 17.2564 12.0031
# 2 65.5238 139.2766 18.1458 -3.8641 2.5986 9.0172
# 3 7.4513 18.1458 39.6645 -9.4320 4.3218 -5.4161
# 4 -13.8179 -3.8641 -9.4320 31.5390 -6.3814 -0.8728
# 5 17.2564 2.5986 4.3218 -6.3814 25.7175 -7.7569
# 6 12.0031 9.0172 -5.4161 -0.8728 -7.7569 72.0088
#
#
#
# Elastic Compliance Matrix: (Units=1/GPa)
#
#
# Indices 1 2 3 4 5 6 
#
# 1 0.009249 -0.004236 0.001267 0.002702 -0.005774 -0.001505
# 2 -0.004236 0.009696 -0.004319 -0.001571 0.002007 -0.000636
# 3 0.001267 -0.004319 0.029554 0.008409 -0.002577 0.002377
# 4 0.002702 -0.001571 0.008409 0.036562 0.006463 0.001518
# 5 -0.005774 0.002007 -0.002577 0.006463 0.046276 0.005581
# 6 -0.001505 -0.000636 0.002377 0.001518 0.005581 0.015016
#
#
# Mechanical properties :
#
#
# Convention : Reuss Voigt Hill
#
# Bulk Modulus (GPa) = 29.47956 57.22909 43.35433
# Shear Modulus (GPa) = 29.02991 41.96633 35.49812
#
# Velocity S-wave (km/s) = 3.29676 3.96383 3.64558
# Velocity P-wave (km/s) = 5.05257 6.50964 5.82683
#
# Compressibility (1/GPa) = 0.03392181
#
# Stress axis : x y z
#
# Youngs Moduli (GPa) = 108.12483 103.13949 33.83615
#
# Poissons Ratio (x) = 0.43689 -0.04286
# Poissons Ratio (y) = 0.45801 0.14613
# Poissons Ratio (z) = -0.13695 0.44545
#
# Static dielectric constant tensor:
#      x y z
#    x 2.148470 0.067320 -0.003920 
#    y 0.067320 2.149810 0.001280 
#    z -0.003920 0.001280 2.229810 
# 
# From -- ./inp_files/432884.got.cif
#   From: 2010.05.17/outbox.cif.g08.bks.cpg/sg2_217_cif.got.tgz:432884.got - 2010.06.03 11:33:40.
