data_PCOD9082526
_publ_section_title
;
Structure prediction by ZEFSAII (Michael W. Deem and Ramdas Pophale) SiO2 
 PCOD9082526
Probable space group: P -1
;
_chemical_formula_sum "Si O2"
_cell_formula_units_Z 12
_cell_length_a 13.741703
_cell_length_b 7.886026
_cell_length_c 16.088042
_cell_angle_alpha 95.169318
_cell_angle_beta 35.277787
_cell_angle_gamma 122.466315
_cell_volume 594.415131
_symmetry_space_group_name_H-M "P -1"
_symmetry_group_IT_number 2
_symmetry_cell_setting 'triclinic'
loop_
_space_group_symop_operation_xyz
x,y,z
-x,-y,-z
loop_
_atom_site_type_symbol
_atom_site_label
_atom_site_fract_x
_atom_site_fract_y
_atom_site_fract_z
Si Si1 0.777976 0.082750 0.862041
Si Si2 0.715578 0.456907 0.730128
Si Si3 0.668775 0.958913 0.600523
Si Si4 0.314988 0.200838 0.254485
Si Si5 0.665455 0.623110 0.475452
Si Si6 0.278589 0.646800 0.467938
O O1 0.003482 0.152846 0.759185
O O2 0.972110 0.403191 0.718081
O O3 0.717919 0.934648 0.811419
O O4 0.485861 0.850695 0.104236
O O5 0.556248 0.510157 0.843369
O O6 0.776615 0.457751 0.592659
O O7 0.005119 0.722409 0.590493
O O8 0.559011 0.042938 0.638751
O O9 0.548563 0.794795 0.765429
O O10 0.650991 0.785411 0.544099
O O11 0.000000 0.000000 0.500000
O O12 0.500000 0.500000 0.500000
O O13 0.571009 0.386736 0.589695
#
# Coordination Sequence:
#
# PCOD9082526 Si02
#       6
#     2   2   2   2   2   2
#     4  10  20  34  55  86 111 143 181 219 273 326
#     4  11  18  34  59  84 118 136 173 228 277 332
#     4  11  19  35  59  82 112 147 172 224 281 321
#     4  10  15  32  54  80 112 141 171 215 276 327
#     4  10  21  40  56  75 110 149 189 225 261 316
#     4  10  21  37  55  84 113 142 179 221 277 327
#
# _framework density 20.187911
#
# number of rings (size 3 to 8) (size 9 to 14) (size 15 to 20)
#    1.000    0.667    8.333    1.000    0.000    1.333 
#    0.000    0.833    0.000    1.000    0.000    0.000 
#    0.000    0.000    0.000    0.000    0.000    0.000 
#
# Total GULP energy -66820.692153 kJ/mol
# GULP energy per Si atom -5568.391013 kJ/mol
# Density = 2.014196 g / cm^3
# Si number density = 20.187911 Si / 1000 Ang^3
#
#
#
# Elastic Constant Matrix: (Units=GPa)
#
#
# Indices 1 2 3 4 5 6 
#
# 1 130.2913 75.0037 19.2608 3.5653 13.8221 3.3569
# 2 75.0037 68.0861 -9.8393 3.5521 0.0452 -12.2108
# 3 19.2608 -9.8393 35.2969 -0.4624 16.6172 11.2992
# 4 3.5653 3.5521 -0.4624 7.4808 -1.6634 6.7366
# 5 13.8221 0.0452 16.6172 -1.6634 18.4054 -1.9137
# 6 3.3569 -12.2108 11.2992 6.7366 -1.9137 45.3502
#
#
#
# Elastic Compliance Matrix: (Units=1/GPa)
#
#
# Indices 1 2 3 4 5 6 
#
# 1 0.053794 -0.068976 -0.043200 0.017137 -0.001174 -0.014386
# 2 -0.068976 0.105569 0.061278 -0.035503 -0.004565 0.023344
# 3 -0.043200 0.061278 0.097612 -0.010253 -0.057337 -0.005520
# 4 0.017137 -0.035503 -0.010253 0.174071 0.008696 -0.033764
# 5 -0.001174 -0.004565 -0.057337 0.008696 0.109489 0.016472
# 6 -0.014386 0.023344 -0.005520 -0.033764 0.016472 0.036487
#
#
# Mechanical properties :
#
#
# Convention : Reuss Voigt Hill
#
# Bulk Modulus (GPa) = 6.44417 44.72500 25.58459
# Shear Modulus (GPa) = 6.84421 24.19722 15.52072
#
# Velocity S-wave (km/s) = 1.84326 3.46584 2.77575
# Velocity P-wave (km/s) = 2.78014 6.18211 4.79310
#
# Compressibility (1/GPa) = 0.15517895
#
# Stress axis : x y z
#
# Youngs Moduli (GPa) = 18.58926 9.47249 10.24467
#
# Poissons Ratio (x) = 0.65338 0.44257
# Poissons Ratio (y) = 1.28222 -0.62777
# Poissons Ratio (z) = 0.80305 -0.58046
#
# Static dielectric constant tensor:
#      x y z
#    x 1.807720 -0.099780 0.008510 
#    y -0.099780 1.724630 -0.008500 
#    z 0.008510 -0.008500 1.738150 
# 
# From -- ./inp_files/253789.got.cif
#   From: 2010.05.17/outbox.cif.g08.bks.cpg/sg2_127_cif.got.tgz:253789.got - 2010.06.03 11:33:40.
