data_PCOD9082066
_publ_section_title
;
Structure prediction by ZEFSAII (Michael W. Deem and Ramdas Pophale) SiO2 
 PCOD9082066
Probable space group: P -1
;
_chemical_formula_sum "Si O2"
_cell_formula_units_Z 14
_cell_length_a 6.570726
_cell_length_b 12.737496
_cell_length_c 16.734930
_cell_angle_alpha 33.586660
_cell_angle_beta 131.173491
_cell_angle_gamma 118.325536
_cell_volume 573.952228
_symmetry_space_group_name_H-M "P -1"
_symmetry_group_IT_number 2
_symmetry_cell_setting 'triclinic'
loop_
_space_group_symop_operation_xyz
x,y,z
-x,-y,-z
loop_
_atom_site_type_symbol
_atom_site_label
_atom_site_fract_x
_atom_site_fract_y
_atom_site_fract_z
Si Si1 0.678588 0.059494 0.357653
Si Si2 0.560801 0.591122 0.347327
Si Si3 0.800820 0.883202 0.129577
Si Si4 0.214562 0.208072 0.579033
Si Si5 0.650207 0.246418 0.479623
Si Si6 0.283155 0.573351 0.778892
Si Si7 0.927007 0.795076 0.033582
O O1 0.643055 0.986077 0.304677
O O2 0.517676 0.925927 0.453712
O O3 0.612277 0.281944 0.224415
O O4 0.000000 0.000000 0.500000
O O5 0.622366 0.664912 0.404709
O O6 0.603000 0.370878 0.469306
O O7 0.246438 0.687658 0.187681
O O8 0.781675 0.679415 0.293591
O O9 0.033067 0.012626 0.126112
O O10 0.829101 0.853237 0.061134
O O11 0.500000 0.000000 0.000000
O O12 0.969296 0.160820 0.601535
O O13 0.033218 0.337756 0.383245
O O14 0.574065 0.395179 0.290111
O O15 0.258429 0.362658 0.936723
#
# Coordination Sequence:
#
# PCOD9082066 Si02
#       7
#     2   2   2   2   2   2   2
#     4  10  19  33  47  69 103 138 175 202 235 294
#     4  11  19  32  51  78 107 130 164 204 254 304
#     4   9  19  34  52  74 100 128 166 208 255 296
#     4   9  21  31  48  75 107 139 163 196 255 293
#     4  10  20  31  49  75 106 134 166 205 246 294
#     4   9  19  33  49  74 102 136 172 200 243 289
#     4  10  19  34  53  76 100 131 166 209 251 293
#
# _framework density 24.392274
#
# number of rings (size 3 to 8) (size 9 to 14) (size 15 to 20)
#    0.857    1.429    1.429    2.571    0.000    3.429 
#    0.000    0.000    0.000    0.857    0.000   10.000 
#    0.000    0.000    0.000    0.000    0.000    0.000 
#
# Total GULP energy -78103.453370 kJ/mol
# GULP energy per Si atom -5578.818098 kJ/mol
# Density = 2.433676 g / cm^3
# Si number density = 24.392274 Si / 1000 Ang^3
#
#
#
# Elastic Constant Matrix: (Units=GPa)
#
#
# Indices 1 2 3 4 5 6 
#
# 1 145.8263 70.3001 33.4308 -26.6839 -15.3470 8.0787
# 2 70.3001 184.7149 62.3017 -47.5104 -25.8189 1.0740
# 3 33.4308 62.3017 82.6027 -29.4763 -14.1785 6.5825
# 4 -26.6839 -47.5104 -29.4763 53.0283 11.6121 -7.8163
# 5 -15.3470 -25.8189 -14.1785 11.6121 35.0163 -12.7144
# 6 8.0787 1.0740 6.5825 -7.8163 -12.7144 56.3948
#
#
#
# Elastic Compliance Matrix: (Units=1/GPa)
#
#
# Indices 1 2 3 4 5 6 
#
# 1 0.008653 -0.002522 -0.000937 0.001278 0.000872 -0.000708
# 2 -0.002522 0.009329 -0.004017 0.004406 0.003424 0.002035
# 3 -0.000937 -0.004017 0.017777 0.005309 0.001802 -0.000722
# 4 0.001278 0.004406 0.005309 0.027235 -0.002205 0.002391
# 5 0.000872 0.003424 0.001802 -0.002205 0.035583 0.007316
# 6 -0.000708 0.002035 -0.000722 0.002391 0.007316 0.019860
#
#
# Mechanical properties :
#
#
# Convention : Reuss Voigt Hill
#
# Bulk Modulus (GPa) = 48.06655 82.80100 65.43377
# Shear Modulus (GPa) = 35.63128 45.36195 40.49662
#
# Velocity S-wave (km/s) = 3.82614 4.31709 4.07900
# Velocity P-wave (km/s) = 6.26638 7.67261 7.00487
#
# Compressibility (1/GPa) = 0.02080449
#
# Stress axis : x y z
#
# Youngs Moduli (GPa) = 115.56328 107.19519 56.25195
#
# Poissons Ratio (x) = 0.27039 0.05274
# Poissons Ratio (y) = 0.29150 0.22599
# Poissons Ratio (z) = 0.10834 0.43065
#
# Static dielectric constant tensor:
#      x y z
#    x 1.947660 -0.011140 -0.043200 
#    y -0.011140 1.970190 0.001200 
#    z -0.043200 0.001200 2.029200 
# 
# From -- ./inp_files/582829.got.cif
#   From: 2010.05.17/outbox.cif.g08.bks.cpg/sg2_292_cif.got.tgz:582829.got - 2010.06.03 11:33:40.
