data_PCOD9082372
_publ_section_title
;
Structure prediction by ZEFSAII (Michael W. Deem and Ramdas Pophale) SiO2 
 PCOD9082372
Probable space group: P -1
;
_chemical_formula_sum "Si O2"
_cell_formula_units_Z 13
_cell_length_a 9.148667
_cell_length_b 6.691363
_cell_length_c 9.510267
_cell_angle_alpha 52.990532
_cell_angle_beta 106.111010
_cell_angle_gamma 104.224802
_cell_volume 444.285983
_symmetry_space_group_name_H-M "P -1"
_symmetry_group_IT_number 2
_symmetry_cell_setting 'triclinic'
loop_
_space_group_symop_operation_xyz
x,y,z
-x,-y,-z
loop_
_atom_site_type_symbol
_atom_site_label
_atom_site_fract_x
_atom_site_fract_y
_atom_site_fract_z
Si Si1 0.500000 0.000000 0.500000
Si Si2 0.456061 0.390014 0.808295
Si Si3 0.846299 0.890745 0.132724
Si Si4 0.225503 0.605369 0.249142
Si Si5 0.918297 0.372717 0.237335
Si Si6 0.154252 0.862993 0.382775
Si Si7 0.396698 0.850314 0.787497
O O1 0.319044 0.017020 0.377351
O O2 0.443023 0.093018 0.606060
O O3 0.309800 0.219552 0.783281
O O4 0.604620 0.415465 0.744045
O O5 0.422728 0.673136 0.724435
O O6 0.496821 0.243055 0.024318
O O7 0.873667 0.652325 0.141326
O O8 0.001692 0.951441 0.234646
O O9 0.808516 0.119873 0.930799
O O10 0.188965 0.622549 0.397221
O O11 0.094714 0.410657 0.226087
O O12 0.902397 0.224050 0.441930
O O13 0.775165 0.237545 0.171774
#
# Coordination Sequence:
#
# PCOD9082372 Si02
#       7
#     1   2   2   2   2   2   2
#     4  10  20  38  62  78  98 150 188 216 270 332
#     4  10  21  36  56  82 112 144 180 227 271 317
#     4  10  19  33  54  82 111 141 177 223 270 318
#     4  11  20  33  58  85 109 143 186 225 263 318
#     4   9  19  36  55  78 111 148 178 220 273 322
#     4  10  20  37  58  80 111 144 183 222 271 329
#     4   9  20  39  57  77 110 145 182 222 276 328
#
# _framework density 29.260432999999999
#
# number of rings (size 3 to 8) (size 9 to 14) (size 15 to 20)
#    0.000    2.154    0.000    5.077    0.000    3.077 
#    0.000   15.385    0.000    6.462    0.000    0.000 
#    0.000    0.000    0.000    0.000    0.000    0.000 
#
# Total GULP energy -72714.178929 kJ/mol
# GULP energy per Si atom -5593.398379 kJ/mol
# Density = 2.919383 g / cm^3
# Si number density = 29.260433 Si / 1000 Ang^3
#
#
#
# Elastic Constant Matrix: (Units=GPa)
#
#
# Indices 1 2 3 4 5 6 
#
# 1 246.9954 58.2926 28.9881 8.5736 1.2683 65.1234
# 2 58.2926 150.7108 28.2224 8.3581 19.0939 52.8885
# 3 28.9881 28.2224 125.8446 1.4984 17.6146 8.9401
# 4 8.5736 8.3581 1.4984 30.9627 7.3405 -4.1679
# 5 1.2683 19.0939 17.6146 7.3405 44.7212 6.8141
# 6 65.1234 52.8885 8.9401 -4.1679 6.8141 60.6314
#
#
#
# Elastic Compliance Matrix: (Units=1/GPa)
#
#
# Indices 1 2 3 4 5 6 
#
# 1 0.006057 0.000273 -0.001167 -0.003045 0.001734 -0.006977
# 2 0.000273 0.010498 -0.001448 -0.003635 -0.001910 -0.009273
# 3 -0.001167 -0.001448 0.008869 0.001294 -0.003309 0.001670
# 4 -0.003045 -0.003635 0.001294 0.036847 -0.006367 0.009499
# 5 0.001734 -0.001910 -0.003309 -0.006367 0.025942 -0.003062
# 6 -0.006977 -0.009273 0.001670 0.009499 -0.003062 0.032826
#
#
# Mechanical properties :
#
#
# Convention : Reuss Voigt Hill
#
# Bulk Modulus (GPa) = 48.21527 83.83967 66.02747
# Shear Modulus (GPa) = 37.69681 54.46624 46.08152
#
# Velocity S-wave (km/s) = 3.59321 4.31911 3.97277
# Velocity P-wave (km/s) = 5.80764 7.32039 6.60745
#
# Compressibility (1/GPa) = 0.02074032
#
# Stress axis : x y z
#
# Youngs Moduli (GPa) = 165.08603 95.25288 112.75178
#
# Poissons Ratio (x) = -0.02601 0.13163
# Poissons Ratio (y) = -0.04508 0.16325
# Poissons Ratio (z) = 0.19273 0.13792
#
# Static dielectric constant tensor:
#      x y z
#    x 7.628690 4.390840 -8.182540 
#    y 4.390840 6.361900 -7.024830 
#    z -8.182540 -7.024830 14.996020 
# 
# From -- ./inp_files/375471.got.cif
#   From: 2010.05.17/outbox.cif.g08.bks.cpg/sg2_188_cif.got.tgz:375471.got - 2010.06.03 11:33:40.
