data_PCOD9082471
_publ_section_title
;
Structure prediction by ZEFSAII (Michael W. Deem and Ramdas Pophale) SiO2 
 PCOD9082471
Probable space group: P -1
;
_chemical_formula_sum "Si O2"
_cell_formula_units_Z 16
_cell_length_a 10.596098
_cell_length_b 8.387645
_cell_length_c 16.619282
_cell_angle_alpha 66.138440
_cell_angle_beta 118.751024
_cell_angle_gamma 63.842940
_cell_volume 722.255707
_symmetry_space_group_name_H-M "P -1"
_symmetry_group_IT_number 2
_symmetry_cell_setting 'triclinic'
loop_
_space_group_symop_operation_xyz
x,y,z
-x,-y,-z
loop_
_atom_site_type_symbol
_atom_site_label
_atom_site_fract_x
_atom_site_fract_y
_atom_site_fract_z
Si Si1 0.389769 0.833193 0.218750
Si Si2 0.144357 0.105602 0.854606
Si Si3 0.663411 0.432575 0.629753
Si Si4 0.484961 0.264199 0.094400
Si Si5 0.406093 0.592116 0.132738
Si Si6 0.566296 0.770084 0.673714
Si Si7 0.263068 0.236445 0.602151
Si Si8 0.072761 0.420887 0.911041
O O1 0.286777 0.772954 0.250306
O O2 0.515669 0.628256 0.219806
O O3 0.594782 0.721524 0.357052
O O4 0.194542 0.162089 0.062256
O O5 0.368236 0.892751 0.909612
O O6 0.127829 0.294345 0.864452
O O7 0.180008 0.915538 0.968402
O O8 0.904051 0.285873 0.699496
O O9 0.500000 0.500000 0.500000
O O10 0.555563 0.693859 0.597881
O O11 0.519451 0.412552 0.121728
O O12 0.601457 0.011722 0.240462
O O13 0.212500 0.466774 0.958744
O O14 0.372497 0.451087 0.203394
O O15 0.789044 0.685644 0.772973
O O16 0.325077 0.087831 0.566282
O O17 0.000000 0.500000 0.500000
#
# Coordination Sequence:
#
# PCOD9082471 Si02
#       8
#     2   2   2   2   2   2   2   2
#     4   9  19  36  57  80 107 144 186 229 274 324
#     4  10  19  33  55  82 120 142 176 227 281 334
#     4  10  21  36  56  81 113 151 184 224 273 326
#     4  10  20  33  56  86 114 144 181 228 281 328
#     4   9  18  34  55  85 108 136 184 230 283 320
#     4   9  19  38  59  83 108 142 192 231 269 325
#     4  10  22  38  57  78 110 153 190 225 265 326
#     4   9  18  34  59  83 109 143 180 232 282 323
#
# _framework density 22.152819999999998
#
# number of rings (size 3 to 8) (size 9 to 14) (size 15 to 20)
#    0.000    2.500    0.000    1.500    1.750    8.500 
#    2.250    2.500    0.000    0.000    0.000    0.000 
#    0.000    0.000    0.000    0.000    0.000    0.000 
#
# Total GULP energy -89178.898720 kJ/mol
# GULP energy per Si atom -5573.681170 kJ/mol
# Density = 2.210240 g / cm^3
# Si number density = 22.152820 Si / 1000 Ang^3
#
#
#
# Elastic Constant Matrix: (Units=GPa)
#
#
# Indices 1 2 3 4 5 6 
#
# 1 35.6855 25.0196 3.7511 -2.8527 10.7365 -4.4372
# 2 25.0196 99.6578 33.6138 9.1813 18.3622 -6.1246
# 3 3.7511 33.6138 63.0529 14.1991 17.1094 -2.0776
# 4 -2.8527 9.1813 14.1991 26.0647 -5.0216 1.7113
# 5 10.7365 18.3622 17.1094 -5.0216 26.4193 -0.6990
# 6 -4.4372 -6.1246 -2.0776 1.7113 -0.6990 22.7541
#
#
#
# Elastic Compliance Matrix: (Units=1/GPa)
#
#
# Indices 1 2 3 4 5 6 
#
# 1 0.038323 -0.009083 0.005827 0.001455 -0.012624 0.005063
# 2 -0.009083 0.015497 -0.005481 -0.004437 -0.004317 0.002100
# 3 0.005827 -0.005481 0.027451 -0.016300 -0.019360 0.002799
# 4 0.001455 -0.004437 -0.016300 0.053799 0.023122 -0.005735
# 5 -0.012624 -0.004317 -0.019360 0.023122 0.062777 -0.005202
# 6 0.005063 0.002100 0.002799 -0.005735 -0.005202 0.046028
#
#
# Mechanical properties :
#
#
# Convention : Reuss Voigt Hill
#
# Bulk Modulus (GPa) = 15.67501 35.90726 25.79113
# Shear Modulus (GPa) = 17.69194 24.11508 20.90351
#
# Velocity S-wave (km/s) = 2.82907 3.30294 3.07515
# Velocity P-wave (km/s) = 4.21459 5.54887 4.92710
#
# Compressibility (1/GPa) = 0.06379583
#
# Stress axis : x y z
#
# Youngs Moduli (GPa) = 26.09431 64.52904 36.42819
#
# Poissons Ratio (x) = 0.58615 -0.21228
# Poissons Ratio (y) = 0.23703 0.19967
# Poissons Ratio (z) = -0.15206 0.35370
#
# Static dielectric constant tensor:
#      x y z
#    x 1.874760 -0.000960 -0.033180 
#    y -0.000960 1.870830 0.012760 
#    z -0.033180 0.012760 1.814890 
# 
# From -- ./inp_files/282114.got.cif
#   From: 2010.05.17/outbox.cif.g08.bks.cpg/sg2_142_cif.got.tgz:282114.got - 2010.06.03 11:33:40.
