data_PCOD9082903
_publ_section_title
;
Structure prediction by ZEFSAII (Michael W. Deem and Ramdas Pophale) SiO2 
 PCOD9082903
Probable space group: P -1
;
_chemical_formula_sum "Si O2"
_cell_formula_units_Z 14
_cell_length_a 7.395327
_cell_length_b 12.264265
_cell_length_c 11.460042
_cell_angle_alpha 135.645839
_cell_angle_beta 119.714311
_cell_angle_gamma 76.821033
_cell_volume 617.258550
_symmetry_space_group_name_H-M "P -1"
_symmetry_group_IT_number 2
_symmetry_cell_setting 'triclinic'
loop_
_space_group_symop_operation_xyz
x,y,z
-x,-y,-z
loop_
_atom_site_type_symbol
_atom_site_label
_atom_site_fract_x
_atom_site_fract_y
_atom_site_fract_z
Si Si1 0.398770 0.207850 0.606661
Si Si2 0.725257 0.642727 0.968936
Si Si3 0.153205 0.460581 0.826045
Si Si4 0.662547 0.348547 0.578648
Si Si5 0.523189 0.064203 0.186649
Si Si6 0.360835 0.794879 0.083545
Si Si7 0.969372 0.979757 0.335196
O O1 0.313002 0.366403 0.740150
O O2 0.552015 0.245298 0.574254
O O3 0.525856 0.159968 0.721292
O O4 0.181660 0.078593 0.420376
O O5 0.786174 0.539642 0.018073
O O6 0.530809 0.718334 0.006227
O O7 0.919169 0.795135 0.139355
O O8 0.658516 0.529534 0.751106
O O9 0.915178 0.361643 0.660171
O O10 0.175227 0.640275 0.925361
O O11 0.538874 0.252019 0.356992
O O12 0.347001 0.950369 0.123812
O O13 0.755699 0.040448 0.283528
O O14 0.500000 0.000000 0.000000
O O15 0.000000 0.000000 0.500000
#
# Coordination Sequence:
#
# PCOD9082903 Si02
#       7
#     2   2   2   2   2   2   2
#     4  11  20  36  64  98 127 159 209 258 317 373
#     4  10  19  33  58  94 125 158 206 252 315 372
#     4  11  19  36  59  98 136 154 196 271 322 360
#     4  12  23  36  63  94 126 165 209 262 315 372
#     4  11  25  44  62  91 130 168 213 262 313 377
#     4  10  20  38  62  89 133 167 198 257 324 368
#     4  11  19  40  67  91 129 172 201 257 324 367
#
# _framework density 22.680933
#
# number of rings (size 3 to 8) (size 9 to 14) (size 15 to 20)
#    0.000    1.143    8.571    1.286    0.000    1.714 
#    0.000    4.286    0.000    0.000    0.000    0.000 
#    0.000    0.000    0.000    0.000    0.000    0.000 
#
# Total GULP energy -78238.386680 kJ/mol
# GULP energy per Si atom -5588.456191 kJ/mol
# Density = 2.262931 g / cm^3
# Si number density = 22.680933 Si / 1000 Ang^3
#
#
#
# Elastic Constant Matrix: (Units=GPa)
#
#
# Indices 1 2 3 4 5 6 
#
# 1 85.4779 16.2970 28.3729 13.0610 14.7105 20.6253
# 2 16.2970 49.6599 46.1850 15.7681 13.5507 19.6450
# 3 28.3729 46.1850 178.9920 35.4688 -4.9389 22.2116
# 4 13.0610 15.7681 35.4688 38.6886 12.1874 11.9650
# 5 14.7105 13.5507 -4.9389 12.1874 39.7943 17.6740
# 6 20.6253 19.6450 22.2116 11.9650 17.6740 28.3282
#
#
#
# Elastic Compliance Matrix: (Units=1/GPa)
#
#
# Indices 1 2 3 4 5 6 
#
# 1 0.014486 0.000488 -0.001252 -0.000781 -0.001639 -0.008552
# 2 0.000488 0.034222 -0.007023 -0.001384 -0.005932 -0.014295
# 3 -0.001252 -0.007023 0.009637 -0.006850 0.007817 -0.003758
# 4 -0.000781 -0.001384 -0.006850 0.036916 -0.010424 -0.002189
# 5 -0.001639 -0.005932 0.007817 -0.010424 0.041952 -0.022593
# 6 -0.008552 -0.014295 -0.003758 -0.002189 -0.022593 0.069408
#
#
# Mechanical properties :
#
#
# Convention : Reuss Voigt Hill
#
# Bulk Modulus (GPa) = 23.37969 55.09328 39.23649
# Shear Modulus (GPa) = 21.14601 36.24721 28.69661
#
# Velocity S-wave (km/s) = 3.05671 4.00201 3.56087
# Velocity P-wave (km/s) = 4.77373 6.76003 5.85177
#
# Compressibility (1/GPa) = 0.04277216
#
# Stress axis : x y z
#
# Youngs Moduli (GPa) = 69.03107 29.22135 103.76772
#
# Poissons Ratio (x) = -0.01427 0.12987
# Poissons Ratio (y) = -0.03371 0.72877
# Poissons Ratio (z) = 0.08639 0.20522
#
# Static dielectric constant tensor:
#      x y z
#    x 1.882140 0.001160 -0.035720 
#    y 0.001160 1.888230 0.096330 
#    z -0.035720 0.096330 1.893940 
# 
# From -- ./inp_files/396650.got.cif
#   From: 2010.05.17/outbox.cif.g08.bks.cpg/sg2_199_cif.got.tgz:396650.got - 2010.06.03 11:33:40.
