data_PCOD9082212
_publ_section_title
;
Structure prediction by ZEFSAII (Michael W. Deem and Ramdas Pophale) SiO2 
 PCOD9082212
Probable space group: P -1
;
_chemical_formula_sum "Si O2"
_cell_formula_units_Z 12
_cell_length_a 7.938405
_cell_length_b 14.734060
_cell_length_c 11.001141
_cell_angle_alpha 123.948916
_cell_angle_beta 97.892883
_cell_angle_gamma 37.741621
_cell_volume 523.038686
_symmetry_space_group_name_H-M "P -1"
_symmetry_group_IT_number 2
_symmetry_cell_setting 'triclinic'
loop_
_space_group_symop_operation_xyz
x,y,z
-x,-y,-z
loop_
_atom_site_type_symbol
_atom_site_label
_atom_site_fract_x
_atom_site_fract_y
_atom_site_fract_z
Si Si1 0.920000 0.161732 0.556464
Si Si2 0.482087 0.931802 0.827768
Si Si3 0.029067 0.317569 0.778564
Si Si4 0.688388 0.011850 0.759262
Si Si5 0.720332 0.654359 0.829405
Si Si6 0.799912 0.417950 0.084135
O O1 0.536483 0.408809 0.741362
O O2 0.147015 0.129540 0.617687
O O3 0.000000 0.000000 0.500000
O O4 0.000920 0.123377 0.393671
O O5 0.619571 0.739221 0.744769
O O6 0.693176 0.883924 0.713808
O O7 0.500000 0.000000 0.000000
O O8 0.081466 0.163246 0.925803
O O9 0.345658 0.206481 0.785672
O O10 0.872575 0.457004 0.746226
O O11 0.751145 0.468032 0.973511
O O12 0.604763 0.134357 0.958160
O O13 0.007924 0.583126 0.843289
#
# Coordination Sequence:
#
# PCOD9082212 Si02
#       6
#     2   2   2   2   2   2
#     4  12  22  31  47  78 107 128 161 214 253 279
#     4   7  15  33  55  73  96 132 166 195 239 303
#     4  10  19  33  53  74  98 134 170 198 241 301
#     4   9  18  33  53  76 100 129 164 203 245 294
#     4   9  16  35  58  73  94 134 170 197 238 303
#     4   9  18  33  53  76 100 129 164 203 245 294
#
# _framework density 22.942854000000001
#
# number of rings (size 3 to 8) (size 9 to 14) (size 15 to 20)
#    0.000    3.333    0.000    5.000    0.000    0.000 
#    0.000    9.167    0.000   12.000    0.000    2.333 
#    0.000    0.000    0.000    0.000    0.000    0.000 
#
# Total GULP energy -66906.259767 kJ/mol
# GULP energy per Si atom -5575.521647 kJ/mol
# Density = 2.289064 g / cm^3
# Si number density = 22.942854 Si / 1000 Ang^3
#
#
#
# Elastic Constant Matrix: (Units=GPa)
#
#
# Indices 1 2 3 4 5 6 
#
# 1 55.1624 39.7114 35.5500 3.9049 -9.2252 31.4993
# 2 39.7114 127.1504 21.1143 8.7514 -7.1970 57.8703
# 3 35.5500 21.1143 67.7534 -13.1214 -33.1145 19.2222
# 4 3.9049 8.7514 -13.1214 13.7464 12.6828 1.2562
# 5 -9.2252 -7.1970 -33.1145 12.6828 43.5306 -3.9393
# 6 31.4993 57.8703 19.2222 1.2562 -3.9393 40.6230
#
#
#
# Elastic Compliance Matrix: (Units=1/GPa)
#
#
# Indices 1 2 3 4 5 6 
#
# 1 0.060499 0.010603 -0.031278 -0.051055 0.001539 -0.045488
# 2 0.010603 0.027774 -0.002371 -0.026995 0.008830 -0.044975
# 3 -0.031278 -0.002371 0.045927 0.037403 0.017603 0.006449
# 4 -0.051055 -0.026995 0.037403 0.162490 -0.029424 0.052468
# 5 0.001539 0.008830 0.017603 -0.029424 0.045201 -0.016810
# 6 -0.045488 -0.044975 0.006449 0.052468 -0.016810 0.117654
#
#
# Mechanical properties :
#
#
# Convention : Reuss Voigt Hill
#
# Bulk Modulus (GPa) = 11.34957 49.20194 30.27576
# Shear Modulus (GPa) = 9.34566 29.82604 19.58585
#
# Velocity S-wave (km/s) = 2.02047 3.60948 2.92495
# Velocity P-wave (km/s) = 3.22501 6.23403 4.96305
#
# Compressibility (1/GPa) = 0.08810910
#
# Stress axis : x y z
#
# Youngs Moduli (GPa) = 16.52924 36.00438 21.77355
#
# Poissons Ratio (x) = -0.38176 0.68103
# Poissons Ratio (y) = -0.17526 0.05163
# Poissons Ratio (z) = 0.51700 0.08537
#
# Static dielectric constant tensor:
#      x y z
#    x 1.916620 0.037070 -0.000470 
#    y 0.037070 1.950150 0.011340 
#    z -0.000470 0.011340 1.909330 
# 
# From -- ./inp_files/165855.got.cif
#   From: 2010.05.17/outbox.cif.g08.bks.cpg/sg2_83_cif.got.tgz:165855.got - 2010.06.03 11:33:40.
