data_PCOD9082926
_publ_section_title
;
Structure prediction by ZEFSAII (Michael W. Deem and Ramdas Pophale) SiO2 
 PCOD9082926
Probable space group: P -1
;
_chemical_formula_sum "Si O2"
_cell_formula_units_Z 16
_cell_length_a 11.712002
_cell_length_b 10.718987
_cell_length_c 17.587055
_cell_angle_alpha 30.890112
_cell_angle_beta 53.258647
_cell_angle_gamma 63.423421
_cell_volume 896.587763
_symmetry_space_group_name_H-M "P -1"
_symmetry_group_IT_number 2
_symmetry_cell_setting 'triclinic'
loop_
_space_group_symop_operation_xyz
x,y,z
-x,-y,-z
loop_
_atom_site_type_symbol
_atom_site_label
_atom_site_fract_x
_atom_site_fract_y
_atom_site_fract_z
Si Si1 0.688707 0.371910 0.492815
Si Si2 0.348411 0.865972 0.720732
Si Si3 0.128408 0.620990 0.830834
Si Si4 0.975376 0.278901 0.349055
Si Si5 0.407443 0.411311 0.854670
Si Si6 0.558508 0.831533 0.881451
Si Si7 0.461110 0.410078 0.437183
Si Si8 0.280091 0.571070 0.052853
O O1 0.848157 0.343785 0.419089
O O2 0.600838 0.454089 0.413095
O O3 0.671126 0.546134 0.479995
O O4 0.602550 0.106564 0.691032
O O5 0.222651 0.854191 0.714148
O O6 0.444852 0.668285 0.753834
O O7 0.436857 0.130149 0.563889
O O8 0.276744 0.746391 0.889154
O O9 0.073150 0.689736 0.735421
O O10 0.246372 0.435097 0.877413
O O11 0.000000 0.500000 0.000000
O O12 0.124445 0.464895 0.202722
O O13 0.000000 0.000000 0.500000
O O14 0.509567 0.418980 0.737671
O O15 0.409444 0.201300 0.025490
O O16 0.652020 0.661505 0.885017
O O17 0.393053 0.720755 0.987427
#
# Coordination Sequence:
#
# PCOD9082926 Si02
#       8
#     2   2   2   2   2   2   2   2
#     4  11  23  36  58  82 120 153 192 231 288 340
#     4   9  18  33  59  81 109 144 192 239 275 332
#     4  10  19  34  56  87 111 141 187 235 293 329
#     4  12  22  36  59  90 117 148 185 241 290 340
#     4   9  20  33  61  83 109 144 197 239 281 323
#     4  10  19  36  58  86 111 151 188 241 278 338
#     4  11  21  38  55  83 116 155 193 234 277 345
#     4  10  19  33  59  86 116 139 191 238 290 329
#
# _framework density 17.845435999999999
#
# number of rings (size 3 to 8) (size 9 to 14) (size 15 to 20)
#    0.750    1.000    5.000    0.375    0.000    1.500 
#    0.000    0.625    2.750    1.500    0.000    0.000 
#    0.000    0.000    0.000    0.000    0.000    0.000 
#
# Total GULP energy -89173.627659 kJ/mol
# GULP energy per Si atom -5573.351729 kJ/mol
# Density = 1.780482 g / cm^3
# Si number density = 17.845436 Si / 1000 Ang^3
#
#
#
# Elastic Constant Matrix: (Units=GPa)
#
#
# Indices 1 2 3 4 5 6 
#
# 1 79.7648 16.0138 32.3373 15.9972 4.7166 -6.1466
# 2 16.0138 54.2078 19.9106 27.0005 1.0741 -8.9515
# 3 32.3373 19.9106 72.4965 23.0481 11.9106 -0.5855
# 4 15.9972 27.0005 23.0481 27.7815 -2.0824 -4.1104
# 5 4.7166 1.0741 11.9106 -2.0824 30.9311 5.5290
# 6 -6.1466 -8.9515 -0.5855 -4.1104 5.5290 18.1675
#
#
#
# Elastic Compliance Matrix: (Units=1/GPa)
#
#
# Indices 1 2 3 4 5 6 
#
# 1 0.016072 0.000256 -0.005615 -0.004233 -0.001452 0.004867
# 2 0.000256 0.039122 0.002965 -0.039290 -0.007481 0.012846
# 3 -0.005615 0.002965 0.023335 -0.019907 -0.009331 -0.001351
# 4 -0.004233 -0.039290 -0.019907 0.093602 0.016944 -0.005412
# 5 -0.001452 -0.007481 -0.009331 0.016944 0.039827 -0.012765
# 6 0.004867 0.012846 -0.001351 -0.005412 -0.012765 0.065636
#
#
# Mechanical properties :
#
#
# Convention : Reuss Voigt Hill
#
# Bulk Modulus (GPa) = 13.56121 38.11027 25.83574
# Shear Modulus (GPa) = 16.28857 24.58986 20.43921
#
# Velocity S-wave (km/s) = 3.02447 3.71608 3.38797
# Velocity P-wave (km/s) = 4.45110 6.30987 5.46016
#
# Compressibility (1/GPa) = 0.07373975
#
# Stress axis : x y z
#
# Youngs Moduli (GPa) = 62.22009 25.56090 42.85391
#
# Poissons Ratio (x) = -0.00653 0.24064
# Poissons Ratio (y) = -0.01590 -0.12706
# Poissons Ratio (z) = 0.34939 -0.07579
#
# Static dielectric constant tensor:
#      x y z
#    x 1.616810 0.002920 0.009610 
#    y 0.002920 1.628810 0.004220 
#    z 0.009610 0.004220 1.606290 
# 
# From -- ./inp_files/348699.got.cif
#   From: 2010.05.17/outbox.cif.g08.bks.cpg/sg2_175_cif.got.tgz:348699.got - 2010.06.03 11:33:40.
