data_PCOD9082375
_publ_section_title
;
Structure prediction by ZEFSAII (Michael W. Deem and Ramdas Pophale) SiO2 
 PCOD9082375
Probable space group: P -1
;
_chemical_formula_sum "Si O2"
_cell_formula_units_Z 14
_cell_length_a 10.227608
_cell_length_b 8.304638
_cell_length_c 21.968126
_cell_angle_alpha 31.304211
_cell_angle_beta 134.915262
_cell_angle_gamma 133.431000
_cell_volume 668.322054
_symmetry_space_group_name_H-M "P -1"
_symmetry_group_IT_number 2
_symmetry_cell_setting 'triclinic'
loop_
_space_group_symop_operation_xyz
x,y,z
-x,-y,-z
loop_
_atom_site_type_symbol
_atom_site_label
_atom_site_fract_x
_atom_site_fract_y
_atom_site_fract_z
Si Si1 0.728969 0.258795 0.846628
Si Si2 0.643419 0.816796 0.076718
Si Si3 0.467218 0.735971 0.858641
Si Si4 0.643463 0.927302 0.644927
Si Si5 0.957816 0.800428 0.284374
Si Si6 0.950341 0.250429 0.252115
Si Si7 0.769598 0.117471 0.491408
O O1 0.648280 0.562132 0.746133
O O2 0.941742 0.405613 0.847424
O O3 0.604596 0.071460 0.811366
O O4 0.719234 0.012841 0.977661
O O5 0.523338 0.463804 0.134421
O O6 0.817088 0.816497 0.178143
O O7 0.500000 0.000000 0.000000
O O8 0.251008 0.765839 0.780318
O O9 0.500000 0.500000 0.000000
O O10 0.433663 0.952203 0.586312
O O11 0.704930 0.128270 0.537537
O O12 0.820654 0.069355 0.700686
O O13 0.900922 0.443395 0.406235
O O14 0.921525 0.022981 0.256680
O O15 0.100967 0.138310 0.381965
#
# Coordination Sequence:
#
# PCOD9082375 Si02
#       7
#     2   2   2   2   2   2   2
#     4   9  20  37  57  81 110 141 184 223 262 323
#     4  11  22  36  56  81 111 145 176 222 282 326
#     4  10  21  38  57  78 109 145 182 222 267 324
#     4   9  17  30  55  83 104 139 181 224 263 303
#     4  10  19  33  54  82 113 140 176 222 269 317
#     4  10  20  35  60  84 104 144 186 224 266 310
#     4   9  17  31  53  81 109 138 181 221 258 314
#
# _framework density 20.947984999999999
#
# number of rings (size 3 to 8) (size 9 to 14) (size 15 to 20)
#    0.000    2.571    0.000    5.143    0.000    6.857 
#    0.000    7.857    0.000    4.286    0.000    0.000 
#    0.000    0.000    0.000    0.000    0.000    0.000 
#
# Total GULP energy -78109.966193 kJ/mol
# GULP energy per Si atom -5579.283299 kJ/mol
# Density = 2.090031 g / cm^3
# Si number density = 20.947985 Si / 1000 Ang^3
#
#
#
# Elastic Constant Matrix: (Units=GPa)
#
#
# Indices 1 2 3 4 5 6 
#
# 1 18.3306 14.4961 0.0245 -6.0143 6.8367 -1.8931
# 2 14.4961 113.0198 42.8310 3.4874 -4.6746 7.7539
# 3 0.0245 42.8310 76.5205 4.6058 -6.6926 -0.6264
# 4 -6.0143 3.4874 4.6058 32.6113 13.1363 -4.2774
# 5 6.8367 -4.6746 -6.6926 13.1363 20.0655 -1.2241
# 6 -1.8931 7.7539 -0.6264 -4.2774 -1.2241 17.0021
#
#
#
# Elastic Compliance Matrix: (Units=1/GPa)
#
#
# Indices 1 2 3 4 5 6 
#
# 1 0.145308 -0.029254 0.003091 0.076301 -0.102717 0.041435
# 2 -0.029254 0.017692 -0.007060 -0.017031 0.022012 -0.014286
# 3 0.003091 -0.007060 0.017678 -0.002777 0.005254 0.003895
# 4 0.076301 -0.017031 -0.002777 0.085225 -0.084763 0.031498
# 5 -0.102717 0.022012 0.005254 -0.084763 0.145245 -0.032150
# 6 0.041435 -0.014286 0.003895 0.031498 -0.032150 0.075698
#
#
# Mechanical properties :
#
#
# Convention : Reuss Voigt Hill
#
# Bulk Modulus (GPa) = 8.75423 35.84157 22.29790
# Shear Modulus (GPa) = 8.45496 23.97040 16.21268
#
# Velocity S-wave (km/s) = 2.01120 3.38639 2.78501
# Velocity P-wave (km/s) = 3.09537 5.69536 4.58358
#
# Compressibility (1/GPa) = 0.11423049
#
# Stress axis : x y z
#
# Youngs Moduli (GPa) = 6.88193 56.52358 56.56856
#
# Poissons Ratio (x) = 1.65356 -0.17484
# Poissons Ratio (y) = 0.20133 0.39937
# Poissons Ratio (z) = -0.02127 0.39905
#
# Static dielectric constant tensor:
#      x y z
#    x 1.779590 -0.016170 0.001170 
#    y -0.016170 1.777640 0.020450 
#    z 0.001170 0.020450 1.766240 
# 
# From -- ./inp_files/609460.got.cif
#   From: 2010.05.17/outbox.cif.g08.bks.cpg/sg2_305_cif.got.tgz:609460.got - 2010.06.03 11:33:40.
