data_PCOD9082052
_publ_section_title
;
Structure prediction by ZEFSAII (Michael W. Deem and Ramdas Pophale) SiO2 
 PCOD9082052
Probable space group: P -1
;
_chemical_formula_sum "Si O2"
_cell_formula_units_Z 12
_cell_length_a 15.745323
_cell_length_b 8.790718
_cell_length_c 9.181619
_cell_angle_alpha 111.146027
_cell_angle_beta 124.932345
_cell_angle_gamma 29.214982
_cell_volume 476.851353
_symmetry_space_group_name_H-M "P -1"
_symmetry_group_IT_number 2
_symmetry_cell_setting 'triclinic'
loop_
_space_group_symop_operation_xyz
x,y,z
-x,-y,-z
loop_
_atom_site_type_symbol
_atom_site_label
_atom_site_fract_x
_atom_site_fract_y
_atom_site_fract_z
Si Si1 0.788010 0.200305 0.424552
Si Si2 0.332213 0.367989 0.001706
Si Si3 0.227587 0.164819 0.192074
Si Si4 0.232901 0.836586 0.923946
Si Si5 0.925157 0.738637 0.623326
Si Si6 0.277320 0.458632 0.301118
O O1 0.724087 0.193258 0.213841
O O2 0.661390 0.517049 0.491731
O O3 0.000000 0.000000 0.500000
O O4 0.820997 0.022498 0.521981
O O5 0.325165 0.534114 0.949459
O O6 0.111995 0.575254 0.836240
O O7 0.356917 0.401755 0.201307
O O8 0.500000 0.000000 0.000000
O O9 0.335297 0.189762 0.276771
O O10 0.199132 0.179905 0.341787
O O11 0.000000 0.500000 0.000000
O O12 0.310064 0.884032 0.108310
O O13 0.979847 0.173261 0.824087
O O14 0.000000 0.500000 0.500000
#
# Coordination Sequence:
#
# PCOD9082052 Si02
#       6
#     2   2   2   2   2   2
#     4  10  19  32  63  90 114 146 210 252 287 331
#     4  12  24  38  59  91 128 160 189 245 314 360
#     4  10  19  32  63  90 114 146 210 252 287 331
#     4  10  19  37  61  90 115 156 207 246 289 355
#     4  12  21  35  62  92 121 151 208 254 283 349
#     4  10  19  37  61  90 115 156 207 246 289 355
#
# _framework density 25.165075000000002
#
# number of rings (size 3 to 8) (size 9 to 14) (size 15 to 20)
#    0.000    1.333    6.667    4.500    0.000    0.000 
#    0.000    1.667    0.000    2.000    0.000    0.000 
#    0.000    0.000    0.000    0.000    0.000    0.000 
#
# Total GULP energy -67188.370422 kJ/mol
# GULP energy per Si atom -5599.030868 kJ/mol
# Density = 2.510780 g / cm^3
# Si number density = 25.165075 Si / 1000 Ang^3
#
#
#
# Elastic Constant Matrix: (Units=GPa)
#
#
# Indices 1 2 3 4 5 6 
#
# 1 52.6186 -0.9020 12.7510 -17.0812 -18.9234 7.4706
# 2 -0.9020 123.0701 18.6518 13.3827 -10.5106 15.7090
# 3 12.7510 18.6518 136.8124 37.4965 -19.9072 -6.1866
# 4 -17.0812 13.3827 37.4965 50.2038 4.4694 -6.1001
# 5 -18.9234 -10.5106 -19.9072 4.4694 59.0028 6.8277
# 6 7.4706 15.7090 -6.1866 -6.1001 6.8277 47.9429
#
#
#
# Elastic Compliance Matrix: (Units=1/GPa)
#
#
# Indices 1 2 3 4 5 6 
#
# 1 0.027113 0.000880 -0.005041 0.011582 0.006814 -0.004660
# 2 0.000880 0.009169 -0.000484 -0.002464 0.002385 -0.003857
# 3 -0.005041 -0.000484 0.010993 -0.009948 0.002677 0.000716
# 4 0.011582 -0.002464 -0.009948 0.032469 -0.002801 0.002249
# 5 0.006814 0.002385 0.002677 -0.002801 0.021239 -0.004879
# 6 -0.004660 -0.003857 0.000716 0.002249 -0.004879 0.023922
#
#
# Mechanical properties :
#
#
# Convention : Reuss Voigt Hill
#
# Bulk Modulus (GPa) = 26.32494 41.50028 33.91261
# Shear Modulus (GPa) = 34.04675 50.22993 42.13834
#
# Velocity S-wave (km/s) = 3.68222 4.47253 4.09648
# Velocity P-wave (km/s) = 5.34434 6.57255 5.99000
#
# Compressibility (1/GPa) = 0.03798680
#
# Stress axis : x y z
#
# Youngs Moduli (GPa) = 36.88231 109.05959 90.96307
#
# Poissons Ratio (x) = -0.09597 0.45851
# Poissons Ratio (y) = -0.03245 0.04402
# Poissons Ratio (z) = 0.18591 0.05278
#
# Static dielectric constant tensor:
#      x y z
#    x 1.959240 -0.084350 0.089360 
#    y -0.084350 2.019740 -0.105610 
#    z 0.089360 -0.105610 2.095920 
# 
# From -- ./inp_files/151332.got.cif
#   From: 2010.05.17/outbox.cif.g08.bks.cpg/sg2_76_cif.got.tgz:151332.got - 2010.06.03 11:33:40.
