data_PCOD9082073
_publ_section_title
;
Structure prediction by ZEFSAII (Michael W. Deem and Ramdas Pophale) SiO2 
 PCOD9082073
Probable space group: P -1
;
_chemical_formula_sum "Si O2"
_cell_formula_units_Z 16
_cell_length_a 26.645204
_cell_length_b 26.425750
_cell_length_c 13.245598
_cell_angle_alpha 149.656565
_cell_angle_beta 30.461600
_cell_angle_gamma 168.942380
_cell_volume 892.798159
_symmetry_space_group_name_H-M "P -1"
_symmetry_group_IT_number 2
_symmetry_cell_setting 'triclinic'
loop_
_space_group_symop_operation_xyz
x,y,z
-x,-y,-z
loop_
_atom_site_type_symbol
_atom_site_label
_atom_site_fract_x
_atom_site_fract_y
_atom_site_fract_z
Si Si1 0.058320 0.664037 0.838185
Si Si2 0.466755 0.281877 0.113872
Si Si3 0.062082 0.119123 0.699691
Si Si4 0.622088 0.101459 0.677500
Si Si5 0.602436 0.983692 0.319685
Si Si6 0.316866 0.164953 0.407384
Si Si7 0.743251 0.271604 0.982698
Si Si8 0.856085 0.594172 0.252667
O O1 0.129003 0.766931 0.781628
O O2 0.860369 0.385550 0.700277
O O3 0.338222 0.893084 0.800868
O O4 0.913906 0.608749 0.063949
O O5 0.705260 0.583861 0.213780
O O6 0.364106 0.179037 0.231037
O O7 0.214342 0.086214 0.151078
O O8 0.544239 0.247557 0.874280
O O9 0.174440 0.138432 0.611019
O O10 0.000000 0.000000 0.500000
O O11 0.601004 0.982201 0.440614
O O12 0.715941 0.187680 0.778675
O O13 0.500000 0.000000 0.500000
O O14 0.611904 0.440794 0.413800
O O15 0.129122 0.906759 0.341929
O O16 0.762248 0.406770 0.151377
O O17 0.000000 0.500000 0.000000
O O18 0.500000 0.000000 0.000000
#
# Coordination Sequence:
#
# PCOD9082073 Si02
#       8
#     2   2   2   2   2   2   2   2
#     4  10  19  33  48  74 109 141 176 221 247 300
#     4  11  21  33  52  73 113 150 183 217 267 301
#     4  10  21  36  49  74 105 150 187 225 266 304
#     4  10  21  35  51  72 103 144 187 212 258 315
#     4  10  22  34  52  79 113 149 187 217 246 320
#     4  11  19  33  52  75 105 137 188 225 252 317
#     4  11  22  37  54  74 108 141 176 226 282 324
#     4  11  20  31  55  76 101 137 184 214 271 310
#
# _framework density 17.921184
#
# number of rings (size 3 to 8) (size 9 to 14) (size 15 to 20)
#    0.000    1.500    1.250    7.875    3.500    2.000 
#    0.000    0.000    0.000    0.000    0.000    0.000 
#    0.000   20.000    0.000    0.000    0.000    0.000 
#
# Total GULP energy -89163.984380 kJ/mol
# GULP energy per Si atom -5572.749024 kJ/mol
# Density = 1.788039 g / cm^3
# Si number density = 17.921184 Si / 1000 Ang^3
#
#
#
# Elastic Constant Matrix: (Units=GPa)
#
#
# Indices 1 2 3 4 5 6 
#
# 1 71.5459 36.1726 27.3493 -2.8996 6.6898 -1.0133
# 2 36.1726 149.5885 36.1108 8.4939 -7.6853 0.1790
# 3 27.3493 36.1108 74.8231 11.5976 -7.6952 -0.4308
# 4 -2.8996 8.4939 11.5976 29.1295 3.9698 -13.9571
# 5 6.6898 -7.6853 -7.6952 3.9698 23.1580 2.6899
# 6 -1.0133 0.1790 -0.4308 -13.9571 2.6899 32.9294
#
#
#
# Elastic Compliance Matrix: (Units=1/GPa)
#
#
# Indices 1 2 3 4 5 6 
#
# 1 0.021479 -0.004424 -0.008938 0.012081 -0.013503 0.006791
# 2 -0.004424 0.008572 -0.001419 -0.004120 0.004628 -0.002325
# 3 -0.008938 -0.001419 0.020620 -0.013554 0.012068 -0.006728
# 4 0.012081 -0.004120 -0.013554 0.057922 -0.022379 0.026595
# 5 -0.013503 0.004628 0.012068 -0.022379 0.058151 -0.014518
# 6 0.006791 -0.002325 -0.006728 0.026595 -0.014518 0.042960
#
#
# Mechanical properties :
#
#
# Convention : Reuss Voigt Hill
#
# Bulk Modulus (GPa) = 47.37314 55.02479 51.19896
# Shear Modulus (GPa) = 20.30040 30.13171 25.21605
#
# Velocity S-wave (km/s) = 3.36930 4.10487 3.75514
# Velocity P-wave (km/s) = 6.45196 7.29637 6.88712
#
# Compressibility (1/GPa) = 0.02110901
#
# Stress axis : x y z
#
# Youngs Moduli (GPa) = 46.55766 116.66247 48.49728
#
# Poissons Ratio (x) = 0.51612 0.43346
# Poissons Ratio (y) = 0.20597 0.06880
# Poissons Ratio (z) = 0.41613 0.16550
#
# Static dielectric constant tensor:
#      x y z
#    x 1.667290 0.033360 -0.021980 
#    y 0.033360 1.662150 -0.006800 
#    z -0.021980 -0.006800 1.664600 
# 
# From -- ./inp_files/534873.got.cif
#   From: 2010.05.17/outbox.cif.g08.bks.cpg/sg2_268_cif.got.tgz:534873.got - 2010.06.03 11:33:40.
