data_PCOD9082612
_publ_section_title
;
Structure prediction by ZEFSAII (Michael W. Deem and Ramdas Pophale) SiO2 
 PCOD9082612
Probable space group: P -1
;
_chemical_formula_sum "Si O2"
_cell_formula_units_Z 14
_cell_length_a 7.925197
_cell_length_b 19.725291
_cell_length_c 8.276627
_cell_angle_alpha 138.107804
_cell_angle_beta 123.282164
_cell_angle_gamma 45.849507
_cell_volume 618.657964
_symmetry_space_group_name_H-M "P -1"
_symmetry_group_IT_number 2
_symmetry_cell_setting 'triclinic'
loop_
_space_group_symop_operation_xyz
x,y,z
-x,-y,-z
loop_
_atom_site_type_symbol
_atom_site_label
_atom_site_fract_x
_atom_site_fract_y
_atom_site_fract_z
Si Si1 0.507872 0.221410 0.856685
Si Si2 0.962890 0.627785 0.247703
Si Si3 0.637336 0.215747 0.384214
Si Si4 0.214682 0.229869 0.020466
Si Si5 0.899264 0.962131 0.528552
Si Si6 0.262277 0.626344 0.095421
Si Si7 0.320948 0.640255 0.643268
O O1 0.337560 0.257037 0.985493
O O2 0.309905 0.274906 0.712883
O O3 0.679633 0.081992 0.693851
O O4 0.646181 0.290933 0.069973
O O5 0.109298 0.640489 0.200415
O O6 0.078531 0.644799 0.497418
O O7 0.000000 0.500000 0.000000
O O8 0.645765 0.283096 0.668880
O O9 0.640817 0.294484 0.375414
O O10 0.895692 0.097733 0.333034
O O11 0.410639 0.201690 0.212208
O O12 0.183247 0.123547 0.744807
O O13 0.941348 0.337212 0.082100
O O14 0.000000 0.000000 0.500000
O O15 0.500000 0.500000 0.000000
O O16 0.500000 0.500000 0.500000
#
# Coordination Sequence:
#
# PCOD9082612 Si02
#       7
#     2   2   2   2   2   2   2
#     4  10  21  38  63  88 114 160 200 247 301 348
#     4  10  19  33  56  85 118 148 193 240 285 350
#     4   9  21  39  59  86 121 158 199 249 294 355
#     4   9  20  39  61  84 115 154 206 246 292 355
#     4  11  24  41  61  87 123 155 201 253 302 356
#     4   9  19  35  55  83 119 158 189 234 295 351
#     4  10  19  36  60  90 122 149 197 250 291 350
#
# _framework density 22.629629000000001
#
# number of rings (size 3 to 8) (size 9 to 14) (size 15 to 20)
#    0.000    2.286    1.429    1.286    0.000    6.857 
#    0.000    1.429    0.000    0.000    0.000    0.000 
#    0.000    0.000    0.000    0.000    0.000    0.000 
#
# Total GULP energy -77940.706633 kJ/mol
# GULP energy per Si atom -5567.193331 kJ/mol
# Density = 2.257812 g / cm^3
# Si number density = 22.629629 Si / 1000 Ang^3
#
#
#
# Elastic Constant Matrix: (Units=GPa)
#
#
# Indices 1 2 3 4 5 6 
#
# 1 88.9884 43.5071 22.6903 -19.6482 16.4433 -16.0328
# 2 43.5071 197.9167 83.0719 -9.5750 27.2783 -51.8317
# 3 22.6903 83.0719 127.6963 -33.1493 52.7370 -46.9375
# 4 -19.6482 -9.5750 -33.1493 41.0473 -13.4140 0.8624
# 5 16.4433 27.2783 52.7370 -13.4140 44.5379 -11.1243
# 6 -16.0328 -51.8317 -46.9375 0.8624 -11.1243 29.0442
#
#
#
# Elastic Compliance Matrix: (Units=1/GPa)
#
#
# Indices 1 2 3 4 5 6 
#
# 1 0.035983 0.003820 0.075728 0.058215 -0.056351 0.125750
# 2 0.003820 0.011137 0.018540 0.013665 -0.014591 0.045951
# 3 0.075728 0.018540 0.265291 0.183068 -0.192268 0.424540
# 4 0.058215 0.013665 0.183068 0.156221 -0.124652 0.299990
# 5 -0.056351 -0.014591 -0.192268 -0.124652 0.167368 -0.300060
# 6 0.125750 0.045951 0.424540 0.299990 -0.300060 0.748103
#
#
# Mechanical properties :
#
#
# Convention : Reuss Voigt Hill
#
# Bulk Modulus (GPa) = 1.96623 79.23780 40.60201
# Shear Modulus (GPa) = 3.68336 40.61469 22.14903
#
# Velocity S-wave (km/s) = 1.27719 4.24105 3.13191
# Velocity P-wave (km/s) = 1.74519 7.68590 5.57310
#
# Compressibility (1/GPa) = 0.50858647
#
# Stress axis : x y z
#
# Youngs Moduli (GPa) = 27.79095 89.78738 3.76945
#
# Poissons Ratio (x) = -0.34298 -0.28545
# Poissons Ratio (y) = -0.10616 -0.06988
# Poissons Ratio (z) = -2.10455 -1.66464
#
# Static dielectric constant tensor:
#      x y z
#    x 1.911660 -0.035720 -0.027040 
#    y -0.035720 1.914550 -0.038340 
#    z -0.027040 -0.038340 1.963510 
# 
# From -- ./inp_files/222668.got.cif
#   From: 2010.05.17/outbox.cif.g08.bks.cpg/sg2_112_cif.got.tgz:222668.got - 2010.06.03 11:33:40.
