data_PCOD9082130
_publ_section_title
;
Structure prediction by ZEFSAII (Michael W. Deem and Ramdas Pophale) SiO2 
 PCOD9082130
Probable space group: P -1
;
_chemical_formula_sum "Si O2"
_cell_formula_units_Z 15
_cell_length_a 17.115540
_cell_length_b 9.860687
_cell_length_c 4.924214
_cell_angle_alpha 105.527820
_cell_angle_beta 81.247188
_cell_angle_gamma 49.143614
_cell_volume 541.116104
_symmetry_space_group_name_H-M "P -1"
_symmetry_group_IT_number 2
_symmetry_cell_setting 'triclinic'
loop_
_space_group_symop_operation_xyz
x,y,z
-x,-y,-z
loop_
_atom_site_type_symbol
_atom_site_label
_atom_site_fract_x
_atom_site_fract_y
_atom_site_fract_z
Si Si1 0.104754 0.099921 0.779208
Si Si2 0.000000 0.500000 0.000000
Si Si3 0.515866 0.279381 0.312190
Si Si4 0.233690 0.259350 0.569833
Si Si5 0.977045 0.162718 0.403018
Si Si6 0.290811 0.474701 0.379825
Si Si7 0.401328 0.126462 0.848476
Si Si8 0.340660 0.830813 0.292379
O O1 0.104485 0.263674 0.947738
O O2 0.015000 0.233452 0.639085
O O3 0.228751 0.887193 0.484915
O O4 0.055122 0.076856 0.046544
O O5 0.096853 0.453032 0.732531
O O6 0.376248 0.466343 0.488372
O O7 0.582513 0.227530 0.523207
O O8 0.544021 0.076899 0.116026
O O9 0.571731 0.310445 0.074680
O O10 0.292125 0.310954 0.399218
O O11 0.286082 0.215573 0.815508
O O12 0.271940 0.057559 0.342651
O O13 0.843523 0.325549 0.481789
O O14 0.000000 0.000000 0.500000
O O15 0.363731 0.341972 0.003631
O O16 0.500000 0.000000 0.500000
#
# Coordination Sequence:
#
# PCOD9082130 Si02
#       8
#     2   1   2   2   2   2   2   2
#     4  11  24  46  71  98 140 179 231 290 350 415
#     4  10  20  38  62 100 136 174 218 274 358 426
#     4  11  21  34  58  93 137 169 210 267 343 423
#     4  10  19  33  51  88 131 174 209 261 331 414
#     4  12  28  48  72  98 135 191 247 291 327 390
#     4  12  22  36  62  91 135 177 229 276 334 400
#     4  11  20  33  53  89 137 175 209 264 345 418
#     4  10  22  37  60  95 132 170 204 264 348 420
#
# _framework density 27.720483999999999
#
# number of rings (size 3 to 8) (size 9 to 14) (size 15 to 20)
#    0.000    1.067    4.000    4.000    0.000    0.533 
#    0.000    0.000    0.000    4.800    0.000    0.000 
#    0.000    0.000    0.000    0.000    0.000    0.000 
#
# Total GULP energy -83538.386001 kJ/mol
# GULP energy per Si atom -5569.225733 kJ/mol
# Density = 2.765739 g / cm^3
# Si number density = 27.720484 Si / 1000 Ang^3
#
#
#
# Elastic Constant Matrix: (Units=GPa)
#
#
# Indices 1 2 3 4 5 6 
#
# 1 91.5575 18.9635 9.3834 5.0750 -28.5862 -21.2220
# 2 18.9635 105.6764 0.3231 -0.5775 -6.9574 -7.2270
# 3 9.3834 0.3231 53.8033 -17.1158 -21.7928 1.3606
# 4 5.0750 -0.5775 -17.1158 34.6486 -4.9549 -8.9542
# 5 -28.5862 -6.9574 -21.7928 -4.9549 44.6114 3.7871
# 6 -21.2220 -7.2270 1.3606 -8.9542 3.7871 49.1624
#
#
#
# Elastic Compliance Matrix: (Units=1/GPa)
#
#
# Indices 1 2 3 4 5 6 
#
# 1 0.015585 -0.001712 0.001808 0.001582 0.010275 0.005922
# 2 -0.001712 0.009900 0.001049 0.001300 0.001032 0.000844
# 3 0.001808 0.001049 0.031714 0.018613 0.018711 0.002006
# 4 0.001582 0.001300 0.018613 0.041667 0.014356 0.006842
# 5 0.010275 0.001032 0.018711 0.014356 0.039588 0.003635
# 6 0.005922 0.000844 0.002006 0.006842 0.003635 0.023932
#
#
# Mechanical properties :
#
#
# Convention : Reuss Voigt Hill
#
# Bulk Modulus (GPa) = 16.80998 34.26412 25.53705
# Shear Modulus (GPa) = 27.78952 40.50897 34.14924
#
# Velocity S-wave (km/s) = 3.16965 3.82689 3.51367
# Velocity P-wave (km/s) = 4.41280 5.64927 5.06888
#
# Compressibility (1/GPa) = 0.05948849
#
# Stress axis : x y z
#
# Youngs Moduli (GPa) = 64.16572 101.01337 31.53178
#
# Poissons Ratio (x) = 0.17294 -0.05700
# Poissons Ratio (y) = 0.10985 -0.03309
# Poissons Ratio (z) = -0.11599 -0.10601
#
# Static dielectric constant tensor:
#      x y z
#    x 1.461120 0.014650 -0.987350 
#    y 0.014650 2.152150 0.069520 
#    z -0.987350 0.069520 0.317220 
# 
# From -- ./inp_files/118183.got.cif
#   From: 2010.05.17/outbox.cif.g08.bks.cpg/sg2_60_cif.got.tgz:118183.got - 2010.06.03 11:33:40.
