data_PCOD9082282
_publ_section_title
;
Structure prediction by ZEFSAII (Michael W. Deem and Ramdas Pophale) SiO2 
 PCOD9082282
Probable space group: P -1
;
_chemical_formula_sum "Si O2"
_cell_formula_units_Z 16
_cell_length_a 11.415606
_cell_length_b 8.657810
_cell_length_c 8.526807
_cell_angle_alpha 80.266815
_cell_angle_beta 105.072368
_cell_angle_gamma 55.878811
_cell_volume 619.180369
_symmetry_space_group_name_H-M "P -1"
_symmetry_group_IT_number 2
_symmetry_cell_setting 'triclinic'
loop_
_space_group_symop_operation_xyz
x,y,z
-x,-y,-z
loop_
_atom_site_type_symbol
_atom_site_label
_atom_site_fract_x
_atom_site_fract_y
_atom_site_fract_z
Si Si1 0.359835 0.488667 0.105127
Si Si2 0.843729 0.791741 0.115442
Si Si3 0.789463 0.552704 0.674973
Si Si4 0.618261 0.204675 0.765007
Si Si5 0.591478 0.765245 0.091831
Si Si6 0.216115 0.767864 0.447595
Si Si7 0.110042 0.268009 0.515251
Si Si8 0.902490 0.186647 0.271789
O O1 0.460047 0.329949 0.027969
O O2 0.200699 0.672546 0.930704
O O3 0.325083 0.378179 0.232506
O O4 0.404226 0.605004 0.198393
O O5 0.763498 0.684292 0.116590
O O6 0.824194 0.859603 0.280014
O O7 0.028103 0.617476 0.175252
O O8 0.753958 0.986474 0.935157
O O9 0.762897 0.424398 0.575756
O O10 0.773813 0.733662 0.557073
O O11 0.458264 0.248716 0.750576
O O12 0.669551 0.204955 0.606246
O O13 0.500000 0.000000 0.000000
O O14 0.210920 0.778000 0.632270
O O15 0.037692 0.958185 0.303389
O O16 0.000000 0.500000 0.500000
O O17 0.005977 0.234498 0.386393
#
# Coordination Sequence:
#
# PCOD9082282 Si02
#       8
#     2   2   2   2   2   2   2   2
#     4  11  22  36  64  89 112 153 192 241 293 343
#     4  10  19  36  60  85 117 155 186 234 293 336
#     4  10  20  36  59  92 120 144 186 238 301 348
#     4  10  22  40  60  81 119 155 200 232 278 342
#     4  10  23  40  60  80 114 156 204 240 275 334
#     4  10  21  36  57  91 125 146 180 243 290 344
#     4  10  19  33  53  84 125 147 179 231 291 346
#     4  11  21  34  59  95 121 146 186 233 305 345
#
# _framework density 25.840610999999999
#
# number of rings (size 3 to 8) (size 9 to 14) (size 15 to 20)
#    0.000    1.750    2.500    3.375    1.750    6.000 
#    0.000    0.625    2.750    2.250    0.000    0.000 
#    0.000    0.000    0.000    0.000    0.000    0.000 
#
# Total GULP energy -89458.819710 kJ/mol
# GULP energy per Si atom -5591.176232 kJ/mol
# Density = 2.578180 g / cm^3
# Si number density = 25.840611 Si / 1000 Ang^3
#
#
#
# Elastic Constant Matrix: (Units=GPa)
#
#
# Indices 1 2 3 4 5 6 
#
# 1 114.4548 9.2597 39.6646 -2.8661 -51.1669 20.8882
# 2 9.2597 64.5844 14.7859 -3.4983 8.1771 2.5876
# 3 39.6646 14.7859 74.7274 -12.9422 -23.5414 6.4920
# 4 -2.8661 -3.4983 -12.9422 30.9752 -5.0408 0.6198
# 5 -51.1669 8.1771 -23.5414 -5.0408 54.7962 -3.4944
# 6 20.8882 2.5876 6.4920 0.6198 -3.4944 34.8913
#
#
#
# Elastic Compliance Matrix: (Units=1/GPa)
#
#
# Indices 1 2 3 4 5 6 
#
# 1 0.019498 -0.003800 -0.002801 0.003200 0.017278 -0.009196
# 2 -0.003800 0.017976 -0.004491 -0.001559 -0.008241 0.000980
# 3 -0.002801 -0.004491 0.019614 0.008623 0.007206 -0.001071
# 4 0.003200 -0.001559 0.008623 0.037728 0.010201 -0.003053
# 5 0.017278 -0.008241 0.007206 0.010201 0.039180 -0.007331
# 6 -0.009196 0.000980 -0.001071 -0.003053 -0.007331 0.033613
#
#
# Mechanical properties :
#
#
# Convention : Reuss Voigt Hill
#
# Bulk Modulus (GPa) = 28.65025 42.35410 35.50218
# Shear Modulus (GPa) = 24.82281 36.80296 30.81289
#
# Velocity S-wave (km/s) = 3.10274 3.77799 3.45689
# Velocity P-wave (km/s) = 4.89360 5.95458 5.44997
#
# Compressibility (1/GPa) = 0.03490371
#
# Stress axis : x y z
#
# Youngs Moduli (GPa) = 51.28782 55.62850 50.98400
#
# Poissons Ratio (x) = 0.21139 0.14281
# Poissons Ratio (y) = 0.19489 0.22898
# Poissons Ratio (z) = 0.14366 0.24984
#
# Static dielectric constant tensor:
#      x y z
#    x 2.156040 -0.001410 0.016100 
#    y -0.001410 2.002650 -0.018240 
#    z 0.016100 -0.018240 2.055790 
# 
# From -- ./inp_files/243565.got.cif
#   From: 2010.05.17/outbox.cif.g08.bks.cpg/sg2_122_cif.got.tgz:243565.got - 2010.06.03 11:33:40.
