data_PCOD9082387
_publ_section_title
;
Structure prediction by ZEFSAII (Michael W. Deem and Ramdas Pophale) SiO2 
 PCOD9082387
Probable space group: P -1
;
_chemical_formula_sum "Si O2"
_cell_formula_units_Z 14
_cell_length_a 15.509489
_cell_length_b 11.290503
_cell_length_c 24.953219
_cell_angle_alpha 29.572861
_cell_angle_beta 160.419712
_cell_angle_gamma 142.621599
_cell_volume 714.539958
_symmetry_space_group_name_H-M "P -1"
_symmetry_group_IT_number 2
_symmetry_cell_setting 'triclinic'
loop_
_space_group_symop_operation_xyz
x,y,z
-x,-y,-z
loop_
_atom_site_type_symbol
_atom_site_label
_atom_site_fract_x
_atom_site_fract_y
_atom_site_fract_z
Si Si1 0.649991 0.124477 0.705214
Si Si2 0.626555 0.584248 0.876123
Si Si3 0.719012 0.660999 0.778591
Si Si4 0.805589 0.230913 0.273972
Si Si5 0.108365 0.471238 0.264527
Si Si6 0.673323 0.633811 0.126021
Si Si7 0.775419 0.198557 0.627075
O O1 0.368743 0.285279 0.482719
O O2 0.822729 0.256966 0.795174
O O3 0.762190 0.162380 0.697154
O O4 0.615090 0.844282 0.797052
O O5 0.598378 0.619597 0.782704
O O6 0.433111 0.432864 0.852498
O O7 0.918803 0.457172 0.109404
O O8 0.491071 0.633768 0.613482
O O9 0.770091 0.939036 0.698338
O O10 0.000000 0.500000 0.000000
O O11 0.707092 0.393848 0.203114
O O12 0.960355 0.389984 0.262233
O O13 0.552622 0.185649 0.108902
O O14 0.000000 0.000000 0.500000
O O15 0.954069 0.713775 0.262618
#
# Coordination Sequence:
#
# PCOD9082387 Si02
#       7
#     2   2   2   2   2   2   2
#     4  10  19  34  54  82 111 148 181 228 273 326
#     4  10  21  36  56  79 112 147 181 230 281 323
#     4  10  22  40  60  81 106 147 194 236 277 326
#     4  10  20  35  54  82 120 153 182 219 275 336
#     4  10  19  33  54  83 112 146 188 222 267 338
#     4  10  21  37  55  83 116 147 184 227 277 337
#     4  10  21  39  58  82 114 145 187 235 278 324
#
# _framework density 19.593025000000001
#
# number of rings (size 3 to 8) (size 9 to 14) (size 15 to 20)
#    0.000    2.000    1.429    2.143    0.000    1.714 
#   10.286    0.714    0.000    0.000    0.000    0.000 
#    0.000    0.000    0.000    0.000    0.000    0.000 
#
# Total GULP energy -78097.927527 kJ/mol
# GULP energy per Si atom -5578.423395 kJ/mol
# Density = 1.954843 g / cm^3
# Si number density = 19.593025 Si / 1000 Ang^3
#
#
#
# Elastic Constant Matrix: (Units=GPa)
#
#
# Indices 1 2 3 4 5 6 
#
# 1 33.0320 31.6083 3.7775 5.6681 3.7283 21.5141
# 2 31.6083 44.4228 35.5059 34.4405 -0.2441 16.5597
# 3 3.7775 35.5059 104.0476 8.6281 11.2960 12.5494
# 4 5.6681 34.4405 8.6281 27.2679 3.3016 12.1974
# 5 3.7283 -0.2441 11.2960 3.3016 30.9266 -1.7483
# 6 21.5141 16.5597 12.5494 12.1974 -1.7483 23.6642
#
#
#
# Elastic Compliance Matrix: (Units=1/GPa)
#
#
# Indices 1 2 3 4 5 6 
#
# 1 0.008766 0.034122 -0.008574 -0.040244 0.006296 -0.006092
# 2 0.034122 -0.012355 0.006971 0.025712 -0.011775 -0.040196
# 3 -0.008574 0.006971 0.007981 -0.011579 -0.000329 0.004628
# 4 -0.040244 0.025712 -0.011579 0.004689 0.010087 0.023063
# 5 0.006296 -0.011775 -0.000329 0.010087 0.030511 -0.000255
# 6 -0.006092 -0.040196 0.004628 0.023063 -0.000255 0.061564
#
#
# Mechanical properties :
#
#
# Convention : Reuss Voigt Hill
#
# Bulk Modulus (GPa) = 14.40281 35.92065 25.16173
# Shear Modulus (GPa) = 84.37237 23.74580 54.05908
#
# Velocity S-wave (km/s) = 6.56932 3.48509 5.25841
# Velocity P-wave (km/s) = 8.05656 5.87942 7.05251
#
# Compressibility (1/GPa) = 0.06943088
#
# Stress axis : x y z
#
# Youngs Moduli (GPa) = 114.08272 -80.94063 125.29824
#
# Poissons Ratio (x) = 2.76185 1.07428
# Poissons Ratio (y) = -3.89272 -0.87351
# Poissons Ratio (z) = 0.97812 0.56427
#
# Static dielectric constant tensor:
#      x y z
#    x 1.698250 -0.011420 -0.027180 
#    y -0.011420 1.686580 0.001970 
#    z -0.027180 0.001970 1.728540 
# 
# From -- ./inp_files/74406.got.cif
#   From: 2010.05.17/outbox.cif.g08.bks.cpg/sg2_38_cif.got.tgz:74406.got - 2010.06.03 11:33:40.
