data_PCOD9082433
_publ_section_title
;
Structure prediction by ZEFSAII (Michael W. Deem and Ramdas Pophale) SiO2 
 PCOD9082433
Probable space group: P -1
;
_chemical_formula_sum "Si O2"
_cell_formula_units_Z 16
_cell_length_a 9.742148
_cell_length_b 11.475427
_cell_length_c 12.237346
_cell_angle_alpha 122.215409
_cell_angle_beta 125.568694
_cell_angle_gamma 38.087177
_cell_volume 678.684187
_symmetry_space_group_name_H-M "P -1"
_symmetry_group_IT_number 2
_symmetry_cell_setting 'triclinic'
loop_
_space_group_symop_operation_xyz
x,y,z
-x,-y,-z
loop_
_atom_site_type_symbol
_atom_site_label
_atom_site_fract_x
_atom_site_fract_y
_atom_site_fract_z
Si Si1 0.913860 0.277259 0.606094
Si Si2 0.631691 0.170836 0.461253
Si Si3 0.631000 0.743823 0.398786
Si Si4 0.303276 0.917490 0.136339
Si Si5 0.871926 0.074249 0.152705
Si Si6 0.821658 0.811820 0.116630
Si Si7 0.669288 0.831508 0.834423
Si Si8 0.057899 0.670900 0.590474
O O1 0.710916 0.282786 0.538822
O O2 0.873132 0.386608 0.532900
O O3 0.986139 0.321272 0.768469
O O4 0.143157 0.053024 0.571890
O O5 0.550734 0.188665 0.555982
O O6 0.433046 0.234716 0.315949
O O7 0.523000 0.817587 0.265965
O O8 0.810119 0.514665 0.368025
O O9 0.782941 0.790441 0.527600
O O10 0.207242 0.123683 0.161772
O O11 0.320042 0.828999 0.984437
O O12 0.117413 0.939983 0.134630
O O13 0.868236 0.217831 0.288092
O O14 0.856386 0.950432 0.160471
O O15 0.566212 0.955510 0.125932
O O16 0.812920 0.727674 0.960043
#
# Coordination Sequence:
#
# PCOD9082433 Si02
#       8
#     2   2   2   2   2   2   2   2
#     4  10  19  33  55  78 102 132 171 218 262 304
#     4  10  19  33  55  78 102 132 171 217 263 305
#     4  11  23  36  51  75 108 144 178 210 252 308
#     4  10  20  34  55  79 102 133 172 216 262 306
#     4  10  20  35  55  79 103 130 172 219 262 308
#     4   9  17  30  50  77 102 124 160 210 259 304
#     4   9  17  29  50  77 101 126 160 207 259 304
#     4  11  23  36  51  75 108 144 178 211 251 307
#
# _framework density 23.575030000000002
#
# number of rings (size 3 to 8) (size 9 to 14) (size 15 to 20)
#    0.000    2.000    0.000    6.000    0.000    2.500 
#    0.000    0.000    0.000    0.750    0.000    0.000 
#    0.000    6.000    0.000    0.000    0.000    0.000 
#
# Total GULP energy -89491.384729 kJ/mol
# GULP energy per Si atom -5593.211546 kJ/mol
# Density = 2.352137 g / cm^3
# Si number density = 23.575030 Si / 1000 Ang^3
#
#
#
# Elastic Constant Matrix: (Units=GPa)
#
#
# Indices 1 2 3 4 5 6 
#
# 1 111.4610 -0.4383 18.8230 4.9879 3.4881 -0.1551
# 2 -0.4383 42.2353 33.0511 -4.4033 -3.3609 3.2513
# 3 18.8230 33.0511 205.0823 -23.2993 -0.5070 7.9833
# 4 4.9879 -4.4033 -23.2993 23.4172 11.5620 -2.5759
# 5 3.4881 -3.3609 -0.5070 11.5620 38.3792 -6.8077
# 6 -0.1551 3.2513 7.9833 -2.5759 -6.8077 9.9151
#
#
#
# Elastic Compliance Matrix: (Units=1/GPa)
#
#
# Indices 1 2 3 4 5 6 
#
# 1 0.009348 0.000828 -0.001377 -0.003296 0.000251 0.000299
# 2 0.000828 0.027549 -0.004420 -0.000728 0.001703 -0.004482
# 3 -0.001377 -0.004420 0.006686 0.007173 -0.003081 -0.004207
# 4 -0.003296 -0.000728 0.007173 0.058954 -0.017882 -0.002550
# 5 0.000251 0.001703 -0.003081 -0.017882 0.035351 0.021553
# 6 0.000299 -0.004482 -0.004207 -0.002550 0.021553 0.119854
#
#
# Mechanical properties :
#
#
# Convention : Reuss Voigt Hill
#
# Bulk Modulus (GPa) = 29.72252 51.29446 40.50849
# Shear Modulus (GPa) = 17.92794 34.83182 26.37988
#
# Velocity S-wave (km/s) = 2.76064 3.84798 3.34874
# Velocity P-wave (km/s) = 4.77457 6.44576 5.67205
#
# Compressibility (1/GPa) = 0.03364452
#
# Stress axis : x y z
#
# Youngs Moduli (GPa) = 106.97942 36.29918 149.57123
#
# Poissons Ratio (x) = -0.03005 0.20594
# Poissons Ratio (y) = -0.08855 0.66106
# Poissons Ratio (z) = 0.14730 0.16043
#
# Static dielectric constant tensor:
#      x y z
#    x 1.861790 -0.039340 0.003010 
#    y -0.039340 1.907260 -0.011410 
#    z 0.003010 -0.011410 1.920520 
# 
# From -- ./inp_files/271216.got.cif
#   From: 2010.05.17/outbox.cif.g08.bks.cpg/sg2_136_cif.got.tgz:271216.got - 2010.06.03 11:33:40.
