data_PCOD9082172
_publ_section_title
;
Structure prediction by ZEFSAII (Michael W. Deem and Ramdas Pophale) SiO2 
 PCOD9082172
Probable space group: P -1
;
_chemical_formula_sum "Si O2"
_cell_formula_units_Z 15
_cell_length_a 7.303797
_cell_length_b 13.167795
_cell_length_c 8.317605
_cell_angle_alpha 72.580347
_cell_angle_beta 54.652598
_cell_angle_gamma 90.841497
_cell_volume 604.144202
_symmetry_space_group_name_H-M "P -1"
_symmetry_group_IT_number 2
_symmetry_cell_setting 'triclinic'
loop_
_space_group_symop_operation_xyz
x,y,z
-x,-y,-z
loop_
_atom_site_type_symbol
_atom_site_label
_atom_site_fract_x
_atom_site_fract_y
_atom_site_fract_z
Si Si1 0.500000 0.500000 0.500000
Si Si2 0.370894 0.983735 0.315158
Si Si3 0.385976 0.583990 0.858916
Si Si4 0.765964 0.225033 0.323740
Si Si5 0.918270 0.904561 0.381971
Si Si6 0.106595 0.337070 0.349316
Si Si7 0.976596 0.388318 0.719014
Si Si8 0.861122 0.137073 0.997075
O O1 0.396401 0.507547 0.736481
O O2 0.753061 0.574607 0.394048
O O3 0.363979 0.861236 0.437140
O O4 0.162361 0.974303 0.298258
O O5 0.619375 0.055998 0.109502
O O6 0.290764 0.049055 0.472510
O O7 0.381826 0.701844 0.723016
O O8 0.625093 0.605183 0.824419
O O9 0.171837 0.558441 0.105287
O O10 0.872806 0.156001 0.172163
O O11 0.967651 0.313041 0.267499
O O12 0.896720 0.784255 0.522850
O O13 0.938227 0.900033 0.182840
O O14 0.968486 0.392358 0.525397
O O15 0.875251 0.259053 0.866206
#
# Coordination Sequence:
#
# PCOD9082172 Si02
#       8
#     1   2   2   2   2   2   2   2
#     4  10  20  38  66  86 106 144 186 236 294 336
#     4  10  19  33  52  80 117 153 186 227 271 321
#     4  10  20  39  62  84 113 146 185 233 283 339
#     4  10  21  36  57  85 118 151 188 229 276 330
#     4   9  18  32  52  78 113 153 192 226 266 321
#     4   9  19  37  56  82 117 152 185 228 277 327
#     4   9  19  36  61  85 110 146 188 231 283 338
#     4  10  19  33  54  81 111 149 190 226 271 329
#
# _framework density 24.828510000000001
#
# number of rings (size 3 to 8) (size 9 to 14) (size 15 to 20)
#    0.000    2.400    0.000    2.800    0.000    0.533 
#    0.000   16.000    0.000   14.400    0.000    0.000 
#    0.000    0.000    0.000    0.000    0.000    0.000 
#
# Total GULP energy -83654.911341 kJ/mol
# GULP energy per Si atom -5576.994089 kJ/mol
# Density = 2.477200 g / cm^3
# Si number density = 24.828510 Si / 1000 Ang^3
#
#
#
# Elastic Constant Matrix: (Units=GPa)
#
#
# Indices 1 2 3 4 5 6 
#
# 1 72.6634 20.3158 25.7339 -13.2180 -12.6606 4.6165
# 2 20.3158 79.2203 33.6344 4.7524 -10.4309 12.6540
# 3 25.7339 33.6344 146.2384 16.7284 -23.7537 12.9074
# 4 -13.2180 4.7524 16.7284 51.6071 4.8449 2.4034
# 5 -12.6606 -10.4309 -23.7537 4.8449 24.4927 -4.6431
# 6 4.6165 12.6540 12.9074 2.4034 -4.6431 46.7003
#
#
#
# Elastic Compliance Matrix: (Units=1/GPa)
#
#
# Indices 1 2 3 4 5 6 
#
# 1 0.017075 -0.003186 -0.002112 0.004937 0.004435 -0.000054
# 2 -0.003186 0.015225 -0.002073 -0.001656 0.002606 -0.002893
# 3 -0.002112 -0.002073 0.009522 -0.004139 0.007916 -0.000861
# 4 0.004937 -0.001656 -0.004139 0.022811 -0.006822 -0.000747
# 5 0.004435 0.002606 0.007916 -0.006822 0.053704 0.002358
# 6 -0.000054 -0.002893 -0.000861 -0.000747 0.002358 0.022713
#
#
# Mechanical properties :
#
#
# Convention : Reuss Voigt Hill
#
# Bulk Modulus (GPa) = 36.92713 50.83223 43.87968
# Shear Modulus (GPa) = 30.33652 39.12256 34.72954
#
# Velocity S-wave (km/s) = 3.49928 3.97383 3.74408
# Velocity P-wave (km/s) = 5.58854 6.44770 6.03343
#
# Compressibility (1/GPa) = 0.02708036
#
# Stress axis : x y z
#
# Youngs Moduli (GPa) = 58.56538 65.68271 105.02191
#
# Poissons Ratio (x) = 0.20926 0.22177
# Poissons Ratio (y) = 0.18658 0.21771
# Poissons Ratio (z) = 0.12367 0.13616
#
# Static dielectric constant tensor:
#      x y z
#    x 1.943320 -0.059340 0.070930 
#    y -0.059340 2.011260 -0.015050 
#    z 0.070930 -0.015050 1.988170 
# 
# From -- ./inp_files/196776.got.cif
#   From: 2010.05.17/outbox.cif.g08.bks.cpg/sg2_99_cif.got.tgz:196776.got - 2010.06.03 11:33:40.
