data_PCOD9082881
_publ_section_title
;
Structure prediction by ZEFSAII (Michael W. Deem and Ramdas Pophale) SiO2 
 PCOD9082881
Probable space group: P -1
;
_chemical_formula_sum "Si O2"
_cell_formula_units_Z 10
_cell_length_a 10.106763
_cell_length_b 9.226218
_cell_length_c 16.310598
_cell_angle_alpha 141.465158
_cell_angle_beta 143.589121
_cell_angle_gamma 66.028526
_cell_volume 448.367431
_symmetry_space_group_name_H-M "P -1"
_symmetry_group_IT_number 2
_symmetry_cell_setting 'triclinic'
loop_
_space_group_symop_operation_xyz
x,y,z
-x,-y,-z
loop_
_atom_site_type_symbol
_atom_site_label
_atom_site_fract_x
_atom_site_fract_y
_atom_site_fract_z
Si Si1 0.478555 0.550021 0.415588
Si Si2 0.193117 0.756216 0.274135
Si Si3 0.931805 0.065941 0.085004
Si Si4 0.198524 0.158641 0.788634
Si Si5 0.831551 0.547804 0.261615
O O1 0.500000 0.500000 0.500000
O O2 0.269631 0.630205 0.331336
O O3 0.798251 0.811976 0.670245
O O4 0.346321 0.248930 0.168634
O O5 0.017167 0.860406 0.265334
O O6 0.500000 0.000000 0.500000
O O7 0.000000 0.500000 0.000000
O O8 0.888538 0.313436 0.169574
O O9 0.000000 0.000000 0.000000
O O10 0.186249 0.314575 0.770263
O O11 0.522848 0.366013 0.067847
O O12 0.077356 0.829175 0.559087
#
# Coordination Sequence:
#
# PCOD9082881 Si02
#       5
#     2   2   2   2   2
#     4  10  21  37  62  90 119 156 209 260 299 355
#     4  12  25  42  65  93 130 168 206 256 315 379
#     4  10  19  33  58  90 120 149 198 257 310 354
#     4  10  21  37  58  89 126 163 205 252 316 368
#     4  10  20  35  61  92 122 157 206 268 306 355
#
# _framework density 22.303137
#
# number of rings (size 3 to 8) (size 9 to 14) (size 15 to 20)
#    0.000    1.600    0.000    6.000    0.000    9.600 
#    0.000    0.000    0.000   24.000    0.000    0.000 
#    0.000    0.000    0.000    0.000    0.000    0.000 
#
# Total GULP energy -55841.807268 kJ/mol
# GULP energy per Si atom -5584.180727 kJ/mol
# Density = 2.225237 g / cm^3
# Si number density = 22.303137 Si / 1000 Ang^3
#
#
#
# Elastic Constant Matrix: (Units=GPa)
#
#
# Indices 1 2 3 4 5 6 
#
# 1 97.4031 29.9919 39.5630 13.4160 18.3437 -17.5809
# 2 29.9919 71.9629 20.3907 -2.0412 -3.1424 -20.9835
# 3 39.5630 20.3907 193.9724 13.6020 20.5667 -10.0972
# 4 13.4160 -2.0412 13.6020 37.1458 -8.6031 -8.2068
# 5 18.3437 -3.1424 20.5667 -8.6031 28.4593 4.7915
# 6 -17.5809 -20.9835 -10.0972 -8.2068 4.7915 36.4326
#
#
#
# Elastic Compliance Matrix: (Units=1/GPa)
#
#
# Indices 1 2 3 4 5 6 
#
# 1 0.017402 -0.006810 -0.000361 -0.009088 -0.015183 0.004325
# 2 -0.006810 0.020398 -0.001840 0.008247 0.009013 0.008624
# 3 -0.000361 -0.001840 0.006289 -0.003478 -0.005646 0.000468
# 4 -0.009088 0.008247 -0.003478 0.037679 0.019782 0.005287
# 5 -0.015183 0.009013 -0.005646 0.019782 0.057117 -0.006756
# 6 0.004325 0.008624 0.000468 0.005287 -0.006756 0.036711
#
#
# Mechanical properties :
#
#
# Convention : Reuss Voigt Hill
#
# Bulk Modulus (GPa) = 38.36369 60.35885 49.36127
# Shear Modulus (GPa) = 24.71477 38.63373 31.67425
#
# Velocity S-wave (km/s) = 3.33247 4.16650 3.77260
# Velocity P-wave (km/s) = 5.66088 7.08999 6.41535
#
# Compressibility (1/GPa) = 0.02606631
#
# Stress axis : x y z
#
# Youngs Moduli (GPa) = 57.46489 49.02455 158.99934
#
# Poissons Ratio (x) = 0.33385 0.05744
# Poissons Ratio (y) = 0.39133 0.29260
# Poissons Ratio (z) = 0.02076 0.09022
#
# Static dielectric constant tensor:
#      x y z
#    x 2.021870 0.182460 0.171880 
#    y 0.182460 1.944680 0.114550 
#    z 0.171880 0.114550 1.946460 
# 
# From -- ./inp_files/17507.got.cif
#   From: 2010.05.17/outbox.cif.g08.bks.cpg/sg2_9_cif.got.tgz:17507.got - 2010.06.03 11:33:40.
