data_PCOD9082034
_publ_section_title
;
Structure prediction by ZEFSAII (Michael W. Deem and Ramdas Pophale) SiO2 
 PCOD9082034
Probable space group: P -1
;
_chemical_formula_sum "Si O2"
_cell_formula_units_Z 16
_cell_length_a 13.471591
_cell_length_b 13.491892
_cell_length_c 7.092740
_cell_angle_alpha 147.598949
_cell_angle_beta 102.931232
_cell_angle_gamma 66.468970
_cell_volume 616.266682
_symmetry_space_group_name_H-M "P -1"
_symmetry_group_IT_number 2
_symmetry_cell_setting 'triclinic'
loop_
_space_group_symop_operation_xyz
x,y,z
-x,-y,-z
loop_
_atom_site_type_symbol
_atom_site_label
_atom_site_fract_x
_atom_site_fract_y
_atom_site_fract_z
Si Si1 0.740283 0.680897 0.419361
Si Si2 0.934321 0.716238 0.730912
Si Si3 0.474412 0.987454 0.188754
Si Si4 0.751616 0.321333 0.581003
Si Si5 0.205838 0.071736 0.619832
Si Si6 0.681815 0.635418 0.757724
Si Si7 0.405197 0.726927 0.295470
Si Si8 0.002666 0.035880 0.332720
O O1 0.861923 0.677868 0.476213
O O2 0.655911 0.900231 0.665718
O O3 0.711288 0.640639 0.558329
O O4 0.727086 0.509312 0.014760
O O5 0.000000 0.500000 0.500000
O O6 0.851768 0.857900 0.083942
O O7 0.014572 0.828684 0.903348
O O8 0.527419 0.141087 0.529526
O O9 0.500000 0.000000 0.000000
O O10 0.549046 0.762904 0.924340
O O11 0.723186 0.418091 0.518920
O O12 0.662552 0.232111 0.467869
O O13 0.881860 0.191201 0.463292
O O14 0.109327 0.090973 0.462046
O O15 0.295092 0.838127 0.294948
O O16 0.262552 0.232457 0.893593
O O17 0.500000 0.500000 0.000000
O O18 0.000000 0.000000 0.500000
#
# Coordination Sequence:
#
# PCOD9082034 Si02
#       8
#     2   2   2   2   2   2   2   2
#     4  10  20  38  61  85 123 166 205 248 311 372
#     4  10  19  32  61  92 118 160 213 250 304 377
#     4   9  19  37  60  79 123 166 197 246 312 356
#     4  12  22  37  68  90 126 161 211 255 308 370
#     4   9  19  39  59  86 131 162 204 258 311 368
#     4   9  22  39  60  95 123 163 206 258 308 364
#     4  11  20  35  60  94 120 166 208 250 308 371
#     4  10  19  35  62  93 118 167 206 251 316 365
#
# _framework density 25.962786000000001
#
# number of rings (size 3 to 8) (size 9 to 14) (size 15 to 20)
#    0.000    2.000    3.750    2.250    0.000    1.000 
#    0.000    2.500    5.500    7.500    0.000    0.000 
#    0.000    0.000    0.000    0.000    0.000    0.000 
#
# Total GULP energy -89303.116474 kJ/mol
# GULP energy per Si atom -5581.444780 kJ/mol
# Density = 2.590369 g / cm^3
# Si number density = 25.962786 Si / 1000 Ang^3
#
#
#
# Elastic Constant Matrix: (Units=GPa)
#
#
# Indices 1 2 3 4 5 6 
#
# 1 67.2709 50.4764 11.6829 10.7481 -15.6838 -19.6035
# 2 50.4764 108.2106 15.8007 36.2301 -26.8163 -1.9380
# 3 11.6829 15.8007 78.3886 9.4615 -13.2163 -11.7209
# 4 10.7481 36.2301 9.4615 54.4129 -13.7598 -16.3094
# 5 -15.6838 -26.8163 -13.2163 -13.7598 27.9548 4.0289
# 6 -19.6035 -1.9380 -11.7209 -16.3094 4.0289 48.7083
#
#
#
# Elastic Compliance Matrix: (Units=1/GPa)
#
#
# Indices 1 2 3 4 5 6 
#
# 1 0.031141 -0.016717 0.000508 0.010629 0.004722 0.015159
# 2 -0.016717 0.023386 -0.000991 -0.013548 0.007530 -0.011196
# 3 0.000508 -0.000991 0.014302 0.000553 0.005892 0.003305
# 4 0.010629 -0.013548 0.000553 0.030950 0.006488 0.013698
# 5 0.004722 0.007530 0.005892 0.006488 0.051403 0.001539
# 6 0.015159 -0.011196 0.003305 0.013698 0.001539 0.031441
#
#
# Mechanical properties :
#
#
# Convention : Reuss Voigt Hill
#
# Bulk Modulus (GPa) = 29.04667 45.53224 37.28946
# Shear Modulus (GPa) = 21.88201 37.94255 29.91228
#
# Velocity S-wave (km/s) = 2.90629 3.82700 3.39797
# Velocity P-wave (km/s) = 4.74069 6.09126 5.45791
#
# Compressibility (1/GPa) = 0.03442735
#
# Stress axis : x y z
#
# Youngs Moduli (GPa) = 32.11196 42.76102 69.92179
#
# Poissons Ratio (x) = 0.71486 -0.03554
# Poissons Ratio (y) = 0.53683 0.06932
# Poissons Ratio (z) = -0.01632 0.04239
#
# Static dielectric constant tensor:
#      x y z
#    x 2.179180 0.049690 0.049880 
#    y 0.049690 2.111680 -0.032390 
#    z 0.049880 -0.032390 2.121200 
# 
# From -- ./inp_files/316198.got.cif
#   From: 2010.05.17/outbox.cif.g08.bks.cpg/sg2_159_cif.got.tgz:316198.got - 2010.06.03 11:33:40.
