data_PCOD9082545
_publ_section_title
;
Structure prediction by ZEFSAII (Michael W. Deem and Ramdas Pophale) SiO2 
 PCOD9082545
Probable space group: P -1
;
_chemical_formula_sum "Si O2"
_cell_formula_units_Z 16
_cell_length_a 8.994869
_cell_length_b 12.640967
_cell_length_c 12.354880
_cell_angle_alpha 46.529651
_cell_angle_beta 123.848782
_cell_angle_gamma 140.838120
_cell_volume 642.978938
_symmetry_space_group_name_H-M "P -1"
_symmetry_group_IT_number 2
_symmetry_cell_setting 'triclinic'
loop_
_space_group_symop_operation_xyz
x,y,z
-x,-y,-z
loop_
_atom_site_type_symbol
_atom_site_label
_atom_site_fract_x
_atom_site_fract_y
_atom_site_fract_z
Si Si1 0.252583 0.287427 0.177927
Si Si2 0.908134 0.618130 0.391114
Si Si3 0.056837 0.307099 0.413938
Si Si4 0.751221 0.726725 0.065089
Si Si5 0.592362 0.231567 0.760108
Si Si6 0.386904 0.252158 0.469659
Si Si7 0.131817 0.716328 0.865103
Si Si8 0.653101 0.950983 0.002747
O O1 0.483807 0.516479 0.108458
O O2 0.313269 0.192917 0.356836
O O3 0.032811 0.249284 0.171678
O O4 0.195411 0.224610 0.074586
O O5 0.021595 0.746039 0.455592
O O6 0.914011 0.706052 0.218410
O O7 0.627573 0.472912 0.404272
O O8 0.000000 0.500000 0.500000
O O9 0.242636 0.540600 0.323856
O O10 0.193225 0.239491 0.468038
O O11 0.870190 0.257542 0.282957
O O12 0.757212 0.884122 0.016335
O O13 0.473681 0.166358 0.639602
O O14 0.737416 0.162238 0.893018
O O15 0.388725 0.135549 0.834488
O O16 0.390412 0.838319 0.929751
O O17 0.000000 0.500000 0.000000
#
# Coordination Sequence:
#
# PCOD9082545 Si02
#       8
#     2   2   2   2   2   2   2   2
#     4   9  19  32  55  78 106 140 177 225 269 310
#     4  10  20  29  51  82 104 133 176 228 268 303
#     4  10  19  35  58  78 107 144 181 222 263 317
#     4  10  19  34  51  79 111 138 177 221 273 327
#     4  10  19  33  56  79 109 142 186 216 264 325
#     4   9  18  36  56  77 103 147 185 218 264 319
#     4  11  19  32  56  84 106 131 185 227 261 307
#     4  11  21  33  55  84 107 145 176 224 270 319
#
# _framework density 24.884174999999999
#
# number of rings (size 3 to 8) (size 9 to 14) (size 15 to 20)
#    0.000    2.000    2.500    3.750    1.750    1.000 
#    0.000    3.125    0.000   18.000    0.000    0.000 
#    0.000    0.000    0.000    0.000    0.000    0.000 
#
# Total GULP energy -89464.211529 kJ/mol
# GULP energy per Si atom -5591.513221 kJ/mol
# Density = 2.482754 g / cm^3
# Si number density = 24.884175 Si / 1000 Ang^3
#
#
#
# Elastic Constant Matrix: (Units=GPa)
#
#
# Indices 1 2 3 4 5 6 
#
# 1 89.8027 18.4362 29.1228 21.7200 -18.5724 -20.7028
# 2 18.4362 83.4153 46.9683 16.5589 -12.3951 -19.8683
# 3 29.1228 46.9683 166.9326 48.8644 -18.5806 -27.4018
# 4 21.7200 16.5589 48.8644 52.4605 -13.7881 -8.6560
# 5 -18.5724 -12.3951 -18.5806 -13.7881 36.8246 9.5994
# 6 -20.7028 -19.8683 -27.4018 -8.6560 9.5994 40.6414
#
#
#
# Elastic Compliance Matrix: (Units=1/GPa)
#
#
# Indices 1 2 3 4 5 6 
#
# 1 0.014226 -0.000581 0.000143 -0.003862 0.004241 0.005235
# 2 -0.000581 0.015332 -0.003125 -0.000427 0.001947 0.004541
# 3 0.000143 -0.003125 0.009587 -0.007389 0.000208 0.003386
# 4 -0.003862 -0.000427 -0.007389 0.028751 0.005557 -0.002347
# 5 0.004241 0.001947 0.000208 0.005557 0.033012 -0.003361
# 6 0.005235 0.004541 0.003386 -0.002347 -0.003361 0.032069
#
#
# Mechanical properties :
#
#
# Convention : Reuss Voigt Hill
#
# Bulk Modulus (GPa) = 31.23166 58.80058 45.01612
# Shear Modulus (GPa) = 33.16143 42.36018 37.76080
#
# Velocity S-wave (km/s) = 3.65448 4.13036 3.89969
# Velocity P-wave (km/s) = 5.51226 6.81378 6.19728
#
# Compressibility (1/GPa) = 0.03201879
#
# Stress axis : x y z
#
# Youngs Moduli (GPa) = 70.29191 65.22231 104.31171
#
# Poissons Ratio (x) = 0.03791 -0.01497
# Poissons Ratio (y) = 0.04086 0.32602
# Poissons Ratio (z) = -0.01008 0.20385
#
# Static dielectric constant tensor:
#      x y z
#    x 1.977220 0.037850 -0.039590 
#    y 0.037850 2.055520 -0.011470 
#    z -0.039590 -0.011470 2.019550 
# 
# From -- ./inp_files/253993.got.cif
#   From: 2010.05.17/outbox.cif.g08.bks.cpg/sg2_127_cif.got.tgz:253993.got - 2010.06.03 11:33:40.
