data_PCOD9082975
_publ_section_title
;
Structure prediction by ZEFSAII (Michael W. Deem and Ramdas Pophale) SiO2 
 PCOD9082975
Probable space group: P -1
;
_chemical_formula_sum "Si O2"
_cell_formula_units_Z 12
_cell_length_a 14.213347
_cell_length_b 11.704026
_cell_length_c 14.399144
_cell_angle_alpha 120.591665
_cell_angle_beta 130.474930
_cell_angle_gamma 21.048832
_cell_volume 611.905881
_symmetry_space_group_name_H-M "P -1"
_symmetry_group_IT_number 2
_symmetry_cell_setting 'triclinic'
loop_
_space_group_symop_operation_xyz
x,y,z
-x,-y,-z
loop_
_atom_site_type_symbol
_atom_site_label
_atom_site_fract_x
_atom_site_fract_y
_atom_site_fract_z
Si Si1 0.331660 0.415590 0.708172
Si Si2 0.271609 0.607846 0.932648
Si Si3 0.333522 0.738523 0.578189
Si Si4 0.217304 0.144927 0.594182
Si Si5 0.288538 0.195960 0.353368
Si Si6 0.398328 0.587591 0.188998
O O1 0.306130 0.455997 0.818874
O O2 0.346857 0.549578 0.731351
O O3 0.034296 0.636517 0.560620
O O4 0.647668 0.018573 0.724462
O O5 0.500000 0.500000 0.000000
O O6 0.369937 0.498284 0.057897
O O7 0.925741 0.011412 0.865320
O O8 0.500000 0.500000 0.500000
O O9 0.545806 0.515478 0.714268
O O10 0.279210 0.943995 0.599869
O O11 0.000000 0.000000 0.500000
O O12 0.046278 0.413781 0.667965
O O13 0.534168 0.891164 0.646995
O O14 0.500000 0.000000 0.500000
#
# Coordination Sequence:
#
# PCOD9082975 Si02
#       6
#     2   2   2   2   2   2
#     4  10  19  33  60  81 117 148 196 242 291 341
#     4   9  20  36  56  87 111 149 200 248 292 333
#     4  12  24  38  61  87 124 160 187 234 300 364
#     4  11  22  37  54  90 122 153 190 232 296 352
#     4  10  22  35  56  84 120 155 192 240 284 342
#     4  10  21  36  58  88 116 151 195 245 296 343
#
# _framework density 19.610858
#
# number of rings (size 3 to 8) (size 9 to 14) (size 15 to 20)
#    0.000    1.667    1.667    4.000   11.667    0.000 
#    0.000    0.000    0.000    2.000    0.000    0.000 
#    0.000    0.000    0.000    0.000    0.000    0.000 
#
# Total GULP energy -66954.723074 kJ/mol
# GULP energy per Si atom -5579.560256 kJ/mol
# Density = 1.956622 g / cm^3
# Si number density = 19.610858 Si / 1000 Ang^3
#
#
#
# Elastic Constant Matrix: (Units=GPa)
#
#
# Indices 1 2 3 4 5 6 
#
# 1 116.9645 39.1484 33.0950 6.8851 -13.5173 2.1997
# 2 39.1484 104.6300 46.2991 38.3365 -18.1062 -4.2901
# 3 33.0950 46.2991 107.8734 23.9248 -31.8750 -2.5859
# 4 6.8851 38.3365 23.9248 34.1987 -11.8373 0.5611
# 5 -13.5173 -18.1062 -31.8750 -11.8373 35.5599 -0.0376
# 6 2.1997 -4.2901 -2.5859 0.5611 -0.0376 37.9119
#
#
#
# Elastic Compliance Matrix: (Units=1/GPa)
#
#
# Indices 1 2 3 4 5 6 
#
# 1 0.010596 -0.004786 -0.001895 0.005133 0.001600 -0.001360
# 2 -0.004786 0.019704 -0.002853 -0.019454 -0.000817 0.002600
# 3 -0.001895 -0.002853 0.014779 -0.003323 0.009970 0.000854
# 4 0.005133 -0.019454 -0.003323 0.054943 0.007353 -0.003532
# 5 0.001600 -0.000817 0.009970 0.007353 0.039698 0.000425
# 6 -0.001360 0.002600 0.000854 -0.003532 0.000425 0.026861
#
#
# Mechanical properties :
#
#
# Convention : Reuss Voigt Hill
#
# Bulk Modulus (GPa) = 38.44556 62.95031 50.69794
# Shear Modulus (GPa) = 25.73086 35.59579 30.66332
#
# Velocity S-wave (km/s) = 3.62618 4.26503 3.95851
# Velocity P-wave (km/s) = 6.09746 7.51155 6.84114
#
# Compressibility (1/GPa) = 0.02601080
#
# Stress axis : x y z
#
# Youngs Moduli (GPa) = 94.37585 50.75194 67.66190
#
# Poissons Ratio (x) = 0.24289 0.12823
# Poissons Ratio (y) = 0.45166 0.19305
# Poissons Ratio (z) = 0.17886 0.14480
#
# Static dielectric constant tensor:
#      x y z
#    x 1.748330 -0.039740 0.039600 
#    y -0.039740 1.727350 0.026070 
#    z 0.039600 0.026070 1.722560 
# 
# From -- ./inp_files/51001.got.cif
#   From: 2010.05.17/outbox.cif.g08.bks.cpg/sg2_26_cif.got.tgz:51001.got - 2010.06.03 11:33:40.
