data_PCOD9082017
_publ_section_title
;
Structure prediction by ZEFSAII (Michael W. Deem and Ramdas Pophale) SiO2 
 PCOD9082017
Probable space group: P -1
;
_chemical_formula_sum "Si O2"
_cell_formula_units_Z 16
_cell_length_a 7.534174
_cell_length_b 17.896233
_cell_length_c 9.200154
_cell_angle_alpha 142.747607
_cell_angle_beta 119.976373
_cell_angle_gamma 72.700096
_cell_volume 638.435814
_symmetry_space_group_name_H-M "P -1"
_symmetry_group_IT_number 2
_symmetry_cell_setting 'triclinic'
loop_
_space_group_symop_operation_xyz
x,y,z
-x,-y,-z
loop_
_atom_site_type_symbol
_atom_site_label
_atom_site_fract_x
_atom_site_fract_y
_atom_site_fract_z
Si Si1 0.989136 0.385940 0.931889
Si Si2 0.305407 0.469891 0.685735
Si Si3 0.279153 0.547831 0.505048
Si Si4 0.904068 0.923336 0.700609
Si Si5 0.459944 0.244453 0.227264
Si Si6 0.283229 0.338459 0.750856
Si Si7 0.311376 0.857934 0.598879
Si Si8 0.240062 0.035300 0.604338
O O1 0.154311 0.317783 0.814574
O O2 0.772993 0.290175 0.706883
O O3 0.099561 0.440118 0.205392
O O4 0.000000 0.500000 0.000000
O O5 0.230211 0.556455 0.666956
O O6 0.356220 0.347676 0.430923
O O7 0.191767 0.407792 0.686868
O O8 0.509598 0.565243 0.973674
O O9 0.500000 0.500000 0.500000
O O10 0.324157 0.675285 0.627618
O O11 0.740251 0.806021 0.521966
O O12 0.774944 0.971918 0.588636
O O13 0.116752 0.897694 0.668012
O O14 0.000000 0.000000 0.000000
O O15 0.511119 0.146651 0.216383
O O16 0.335472 0.170218 0.926776
O O17 0.347868 0.937668 0.589593
O O18 0.000000 0.000000 0.500000
#
# Coordination Sequence:
#
# PCOD9082017 Si02
#       8
#     2   2   2   2   2   2   2   2
#     4  11  19  37  59  86 118 151 189 239 297 348
#     4  10  21  33  61  90 117 148 194 243 289 347
#     4  10  19  32  60  87 113 151 194 231 287 344
#     4  10  23  40  61  82 120 158 195 244 294 346
#     4  11  20  38  63  88 120 151 198 249 295 342
#     4  10  20  36  56  87 117 151 194 231 298 346
#     4  10  22  37  62  85 118 152 202 242 289 349
#     4  10  23  37  61  87 110 154 208 240 282 357
#
# _framework density 25.061250999999999
#
# number of rings (size 3 to 8) (size 9 to 14) (size 15 to 20)
#    0.000    1.750    3.750    1.125   12.250    0.000 
#    0.000    1.250    8.250    0.000    0.000    0.000 
#    0.000    0.000    0.000    0.000    0.000    0.000 
#
# Total GULP energy -89223.847002 kJ/mol
# GULP energy per Si atom -5576.490438 kJ/mol
# Density = 2.500421 g / cm^3
# Si number density = 25.061251 Si / 1000 Ang^3
#
#
#
# Elastic Constant Matrix: (Units=GPa)
#
#
# Indices 1 2 3 4 5 6 
#
# 1 52.5035 15.3932 13.3619 -7.8841 -7.8325 11.2997
# 2 15.3932 156.0755 51.1750 -23.3110 -13.1623 19.5760
# 3 13.3619 51.1750 180.6566 -20.0075 0.0975 15.8858
# 4 -7.8841 -23.3110 -20.0075 47.9078 8.0211 -4.3041
# 5 -7.8325 -13.1623 0.0975 8.0211 18.5390 -0.3265
# 6 11.2997 19.5760 15.8858 -4.3041 -0.3265 36.1039
#
#
#
# Elastic Compliance Matrix: (Units=1/GPa)
#
#
# Indices 1 2 3 4 5 6 
#
# 1 0.022129 -0.000209 -0.000908 0.001166 0.008592 -0.006196
# 2 -0.000209 0.008131 -0.001770 0.002097 0.004729 -0.003271
# 3 -0.000908 -0.001770 0.006447 0.001986 -0.002558 -0.001379
# 4 0.001166 0.002097 0.001986 0.024391 -0.008575 0.000455
# 5 0.008592 0.004729 -0.002558 -0.008575 0.064571 -0.004566
# 6 -0.006196 -0.003271 -0.001379 0.000455 -0.004566 0.032031
#
#
# Mechanical properties :
#
#
# Convention : Reuss Voigt Hill
#
# Bulk Modulus (GPa) = 32.32971 61.01064 46.67017
# Shear Modulus (GPa) = 28.77135 41.13050 34.95092
#
# Velocity S-wave (km/s) = 3.39195 4.05557 3.73851
# Velocity P-wave (km/s) = 5.31683 6.80644 6.10722
#
# Compressibility (1/GPa) = 0.03093130
#
# Stress axis : x y z
#
# Youngs Moduli (GPa) = 45.18928 122.99348 155.12112
#
# Poissons Ratio (x) = 0.02568 0.14089
# Poissons Ratio (y) = 0.00944 0.27462
# Poissons Ratio (z) = 0.04104 0.21774
#
# Static dielectric constant tensor:
#      x y z
#    x 2.204590 -0.138760 -0.165160 
#    y -0.138760 2.085090 0.107650 
#    z -0.165160 0.107650 2.154990 
# 
# From -- ./inp_files/274500.got.cif
#   From: 2010.05.17/outbox.cif.g08.bks.cpg/sg2_138_cif.got.tgz:274500.got - 2010.06.03 11:33:40.
