data_PCOD9082142
_publ_section_title
;
Structure prediction by ZEFSAII (Michael W. Deem and Ramdas Pophale) SiO2 
 PCOD9082142
Probable space group: P -1
;
_chemical_formula_sum "Si O2"
_cell_formula_units_Z 14
_cell_length_a 17.755881
_cell_length_b 9.094854
_cell_length_c 7.040647
_cell_angle_alpha 79.453155
_cell_angle_beta 122.917439
_cell_angle_gamma 138.791931
_cell_volume 573.983199
_symmetry_space_group_name_H-M "P -1"
_symmetry_group_IT_number 2
_symmetry_cell_setting 'triclinic'
loop_
_space_group_symop_operation_xyz
x,y,z
-x,-y,-z
loop_
_atom_site_type_symbol
_atom_site_label
_atom_site_fract_x
_atom_site_fract_y
_atom_site_fract_z
Si Si1 0.569384 0.656508 0.860849
Si Si2 0.883932 0.892940 0.524865
Si Si3 0.118988 0.809927 0.700866
Si Si4 0.221458 0.639026 0.970768
Si Si5 0.868881 0.565526 0.715170
Si Si6 0.351271 0.534386 0.988078
Si Si7 0.537688 0.182648 0.266250
O O1 0.475432 0.677404 0.670313
O O2 0.500000 0.500000 0.000000
O O3 0.586765 0.525523 0.798736
O O4 0.731001 0.939435 0.046623
O O5 0.894899 0.779720 0.725265
O O6 0.739189 0.658252 0.263866
O O7 0.892041 0.082824 0.511139
O O8 0.000000 0.000000 0.500000
O O9 0.152607 0.680134 0.738825
O O10 0.014994 0.338808 0.302454
O O11 0.126147 0.509516 0.060356
O O12 0.393031 0.901149 0.187362
O O13 0.239091 0.497686 0.942896
O O14 0.697944 0.323238 0.475234
O O15 0.473882 0.789904 0.981548
#
# Coordination Sequence:
#
# PCOD9082142 Si02
#       7
#     2   2   2   2   2   2   2
#     4   8  15  31  54  73  92 131 177 203 238 307
#     4   8  16  34  53  67  94 137 172 196 240 309
#     4   9  18  33  54  74 100 139 173 198 247 320
#     4  11  20  31  52  81 105 129 168 219 258 289
#     4  10  19  33  52  76 104 136 170 209 253 304
#     4   9  17  31  53  78 100 129 173 216 248 296
#     4   9  18  33  52  71 100 141 173 201 250 313
#
# _framework density 24.390957
#
# number of rings (size 3 to 8) (size 9 to 14) (size 15 to 20)
#    0.000    2.857    0.000    2.143    0.000    0.000 
#    0.000   13.571    0.000   13.714    0.000    0.000 
#    0.000    0.000    0.000    0.000    0.000    0.000 
#
# Total GULP energy -77964.208334 kJ/mol
# GULP energy per Si atom -5568.872024 kJ/mol
# Density = 2.433544 g / cm^3
# Si number density = 24.390957 Si / 1000 Ang^3
#
#
#
# Elastic Constant Matrix: (Units=GPa)
#
#
# Indices 1 2 3 4 5 6 
#
# 1 122.3810 49.1695 28.7393 7.1925 32.2765 -5.1395
# 2 49.1695 87.8597 28.3998 -4.7487 4.3198 13.6913
# 3 28.7393 28.3998 38.7111 4.3047 18.9404 1.3489
# 4 7.1925 -4.7487 4.3047 24.4992 2.9905 16.2904
# 5 32.2765 4.3198 18.9404 2.9905 37.1720 -2.1309
# 6 -5.1395 13.6913 1.3489 16.2904 -2.1309 52.6385
#
#
#
# Elastic Compliance Matrix: (Units=1/GPa)
#
#
# Indices 1 2 3 4 5 6 
#
# 1 0.016422 -0.011504 0.003857 -0.010947 -0.013587 0.007335
# 2 -0.011504 0.026431 -0.019679 0.018568 0.014726 -0.012644
# 3 0.003857 -0.019679 0.051396 -0.016320 -0.025467 0.008198
# 4 -0.010947 0.018568 -0.016320 0.066512 0.008839 -0.025706
# 5 -0.013587 0.014726 -0.025467 0.008839 0.048952 -0.005258
# 6 0.007335 -0.012644 0.008198 -0.025706 -0.005258 0.030535
#
#
# Mechanical properties :
#
#
# Convention : Reuss Voigt Hill
#
# Bulk Modulus (GPa) = 25.25454 51.28545 38.27000
# Shear Modulus (GPa) = 16.22860 32.37151 24.30006
#
# Velocity S-wave (km/s) = 2.58224 3.64702 3.15980
# Velocity P-wave (km/s) = 4.38944 6.22948 5.38858
#
# Compressibility (1/GPa) = 0.03959683
#
# Stress axis : x y z
#
# Youngs Moduli (GPa) = 60.89368 37.83486 19.45687
#
# Poissons Ratio (x) = 0.43525 -0.07505
# Poissons Ratio (y) = 0.70051 0.38289
# Poissons Ratio (z) = -0.23487 0.74456
#
# Static dielectric constant tensor:
#      x y z
#    x 2.039100 -0.046760 0.084830 
#    y -0.046760 2.101370 -0.025890 
#    z 0.084830 -0.025890 2.061770 
# 
# From -- ./inp_files/341648.got.cif
#   From: 2010.05.17/outbox.cif.g08.bks.cpg/sg2_171_cif.got.tgz:341648.got - 2010.06.03 11:33:40.
