data_PCOD9082269
_publ_section_title
;
Structure prediction by ZEFSAII (Michael W. Deem and Ramdas Pophale) SiO2 
 PCOD9082269
Probable space group: P -1
;
_chemical_formula_sum "Si O2"
_cell_formula_units_Z 14
_cell_length_a 12.449384
_cell_length_b 11.816262
_cell_length_c 15.393507
_cell_angle_alpha 39.174404
_cell_angle_beta 30.115945
_cell_angle_gamma 56.291997
_cell_volume 668.259074
_symmetry_space_group_name_H-M "P -1"
_symmetry_group_IT_number 2
_symmetry_cell_setting 'triclinic'
loop_
_space_group_symop_operation_xyz
x,y,z
-x,-y,-z
loop_
_atom_site_type_symbol
_atom_site_label
_atom_site_fract_x
_atom_site_fract_y
_atom_site_fract_z
Si Si1 0.233704 0.091142 0.439624
Si Si2 0.623381 0.976613 0.319320
Si Si3 0.114985 0.342498 0.515905
Si Si4 0.877339 0.711578 0.979617
Si Si5 0.896256 0.942794 0.989709
Si Si6 0.257280 0.596962 0.873457
Si Si7 0.596713 0.573510 0.985274
O O1 0.118195 0.215045 0.504013
O O2 0.463699 0.088581 0.328785
O O3 0.302106 0.198584 0.236170
O O4 0.057552 0.873643 0.695790
O O5 0.459808 0.804485 0.596156
O O6 0.707948 0.891327 0.226797
O O7 0.867333 0.086755 0.130200
O O8 0.381832 0.477580 0.256473
O O9 0.000000 0.500000 0.500000
O O10 0.990618 0.174621 0.771234
O O11 0.797504 0.828762 0.038416
O O12 0.024461 0.615241 0.990174
O O13 0.705732 0.553975 0.131585
O O14 0.228719 0.509030 0.042336
O O15 0.500000 0.500000 0.000000
#
# Coordination Sequence:
#
# PCOD9082269 Si02
#       7
#     2   2   2   2   2   2   2
#     4   9  20  35  56  82 111 154 179 235 280 334
#     4  10  20  35  59  84 114 142 197 231 282 325
#     4  10  19  33  53  82 117 142 185 234 282 329
#     4   9  21  36  59  81 116 151 186 232 276 340
#     4  10  20  34  57  87 110 148 186 242 274 328
#     4  10  20  38  56  84 115 151 188 226 284 338
#     4  10  20  33  54  83 111 149 184 232 278 327
#
# _framework density 20.949960000000001
#
# number of rings (size 3 to 8) (size 9 to 14) (size 15 to 20)
#    0.000    2.286    1.429    0.857    4.000    2.857 
#    2.571    0.000    0.000    7.714    0.000    0.000 
#    0.000    0.000    0.000    0.000    0.000    0.000 
#
# Total GULP energy -77965.624785 kJ/mol
# GULP energy per Si atom -5568.973199 kJ/mol
# Density = 2.090228 g / cm^3
# Si number density = 20.949960 Si / 1000 Ang^3
#
#
#
# Elastic Constant Matrix: (Units=GPa)
#
#
# Indices 1 2 3 4 5 6 
#
# 1 86.3074 35.1522 24.0596 -17.3879 15.0480 -3.9348
# 2 35.1522 96.4440 16.8925 -8.5872 3.5210 -12.6837
# 3 24.0596 16.8925 43.6824 -8.3806 20.4155 -12.6716
# 4 -17.3879 -8.5872 -8.3806 31.8790 -7.8246 8.8503
# 5 15.0480 3.5210 20.4155 -7.8246 28.8328 -12.8501
# 6 -3.9348 -12.6837 -12.6716 8.8503 -12.8501 41.5785
#
#
#
# Elastic Compliance Matrix: (Units=1/GPa)
#
#
# Indices 1 2 3 4 5 6 
#
# 1 0.017098 -0.005137 -0.005208 0.006628 -0.004782 -0.004425
# 2 -0.005137 0.013224 -0.003654 0.000001 0.005495 0.004132
# 3 -0.005208 -0.003654 0.038776 -0.000133 -0.022922 0.003154
# 4 0.006628 0.000001 -0.000133 0.037668 0.004112 -0.006160
# 5 -0.004782 0.005495 -0.022922 0.004112 0.059026 0.011605
# 6 -0.004425 0.004132 0.003154 -0.006160 0.011605 0.030752
#
#
# Mechanical properties :
#
#
# Convention : Reuss Voigt Hill
#
# Bulk Modulus (GPa) = 24.33023 42.07139 33.20081
# Shear Modulus (GPa) = 20.98711 30.48003 25.73357
#
# Velocity S-wave (km/s) = 3.16851 3.81845 3.50856
# Velocity P-wave (km/s) = 5.00247 6.29017 5.68291
#
# Compressibility (1/GPa) = 0.04110113
#
# Stress axis : x y z
#
# Youngs Moduli (GPa) = 58.48732 75.62036 25.78890
#
# Poissons Ratio (x) = 0.38845 0.13430
# Poissons Ratio (y) = 0.30044 0.09423
# Poissons Ratio (z) = 0.30459 0.27630
#
# Static dielectric constant tensor:
#      x y z
#    x 1.847090 -0.036280 -0.012100 
#    y -0.036280 1.859880 -0.006510 
#    z -0.012100 -0.006510 1.803550 
# 
# From -- ./inp_files/239128.got.cif
#   From: 2010.05.17/outbox.cif.g08.bks.cpg/sg2_120_cif.got.tgz:239128.got - 2010.06.03 11:33:40.
