data_PCOD9082840
_publ_section_title
;
Structure prediction by ZEFSAII (Michael W. Deem and Ramdas Pophale) SiO2 
 PCOD9082840
Probable space group: P -1
;
_chemical_formula_sum "Si O2"
_cell_formula_units_Z 16
_cell_length_a 5.210086
_cell_length_b 12.022694
_cell_length_c 11.421589
_cell_angle_alpha 88.754343
_cell_angle_beta 100.770293
_cell_angle_gamma 95.331100
_cell_volume 699.789810
_symmetry_space_group_name_H-M "P -1"
_symmetry_group_IT_number 2
_symmetry_cell_setting 'triclinic'
loop_
_space_group_symop_operation_xyz
x,y,z
-x,-y,-z
loop_
_atom_site_type_symbol
_atom_site_label
_atom_site_fract_x
_atom_site_fract_y
_atom_site_fract_z
Si Si1 0.363889 0.916580 0.723116
Si Si2 0.269060 0.961749 0.070471
Si Si3 0.886375 0.868122 0.340000
Si Si4 0.027657 0.707281 0.731168
Si Si5 0.316297 0.763563 0.226082
Si Si6 0.717460 0.400221 0.458740
Si Si7 0.254819 0.515330 0.296646
Si Si8 0.632690 0.814090 0.556789
O O1 0.257740 0.801237 0.781746
O O2 0.432469 0.893587 0.593867
O O3 0.619632 0.976610 0.804367
O O4 0.147749 0.006027 0.706750
O O5 0.239741 0.830541 0.102507
O O6 0.500000 0.000000 0.000000
O O7 0.000000 0.000000 0.000000
O O8 0.625442 0.797285 0.269008
O O9 0.829953 0.862772 0.473950
O O10 0.140000 0.815476 0.312330
O O11 0.111788 0.668381 0.610006
O O12 0.918853 0.587757 0.777064
O O13 0.780421 0.775646 0.685742
O O14 0.267221 0.630132 0.225005
O O15 0.537330 0.474549 0.361318
O O16 0.854364 0.457148 0.583007
O O17 0.510888 0.302909 0.497893
#
# Coordination Sequence:
#
# PCOD9082840 Si02
#       8
#     2   2   2   2   2   2   2   2
#     4  10  24  39  61  91 126 162 220 254 326 384
#     4  11  25  48  72  92 116 156 214 283 336 373
#     4  11  23  38  59  94 136 174 207 252 300 377
#     4  10  21  33  56  86 126 178 205 251 299 366
#     4  11  24  40  67  96 125 168 216 263 312 371
#     4   9  18  33  50  90 124 183 215 240 284 362
#     4  10  19  33  58  85 133 167 220 246 294 367
#     4  10  20  34  56  90 136 177 207 244 304 372
#
# _framework density 22.864007000000001
#
# number of rings (size 3 to 8) (size 9 to 14) (size 15 to 20)
#    0.000    1.750    1.250    3.000    8.750    0.500 
#    0.000    0.000    0.000    1.500    0.000    0.000 
#    0.000    0.000    0.000    0.000    0.000    0.000 
#
# Total GULP energy -89298.797868 kJ/mol
# GULP energy per Si atom -5581.174867 kJ/mol
# Density = 2.281197 g / cm^3
# Si number density = 22.864007 Si / 1000 Ang^3
#
#
#
# Elastic Constant Matrix: (Units=GPa)
#
#
# Indices 1 2 3 4 5 6 
#
# 1 94.0951 42.0149 16.1814 -15.6788 1.1673 -3.1383
# 2 42.0149 182.0608 37.3382 -35.8886 6.2906 16.2803
# 3 16.1814 37.3382 42.2048 -31.1862 1.2727 0.8563
# 4 -15.6788 -35.8886 -31.1862 35.5007 0.0322 0.2326
# 5 1.1673 6.2906 1.2727 0.0322 31.8806 1.0672
# 6 -3.1383 16.2803 0.8563 0.2326 1.0672 36.3709
#
#
#
# Elastic Compliance Matrix: (Units=1/GPa)
#
#
# Indices 1 2 3 4 5 6 
#
# 1 0.012302 -0.002404 -0.001211 0.001925 -0.000002 0.002154
# 2 -0.002404 0.007853 -0.002318 0.004865 -0.001251 -0.003662
# 3 -0.001211 -0.002318 0.068905 0.057661 -0.002274 -0.000991
# 4 0.001925 0.004865 0.057661 0.084619 -0.003290 -0.003814
# 5 -0.000002 -0.001251 -0.002274 -0.003290 0.031718 -0.000296
# 6 0.002154 -0.003662 -0.000991 -0.003814 -0.000296 0.029376
#
#
# Mechanical properties :
#
#
# Convention : Reuss Voigt Hill
#
# Bulk Modulus (GPa) = 12.95451 56.60329 34.77890
# Shear Modulus (GPa) = 18.35738 35.60551 26.98145
#
# Velocity S-wave (km/s) = 2.83661 3.95051 3.43896
# Velocity P-wave (km/s) = 4.05052 6.75418 5.56892
#
# Compressibility (1/GPa) = 0.07719317
#
# Stress axis : x y z
#
# Youngs Moduli (GPa) = 81.28974 127.34611 14.51264
#
# Poissons Ratio (x) = 0.30608 0.01758
# Poissons Ratio (y) = 0.19538 0.03365
# Poissons Ratio (z) = 0.09847 0.29524
#
# Static dielectric constant tensor:
#      x y z
#    x 1.895480 0.051470 -0.000270 
#    y 0.051470 1.926440 -0.014840 
#    z -0.000270 -0.014840 1.877940 
# 
# From -- ./inp_files/66451.got.cif
#   From: 2010.05.17/outbox.cif.g08.bks.cpg/sg2_34_cif.got.tgz:66451.got - 2010.06.03 11:33:40.
