data_PCOD9082757
_publ_section_title
;
Structure prediction by ZEFSAII (Michael W. Deem and Ramdas Pophale) SiO2 
 PCOD9082757
Probable space group: P -1
;
_chemical_formula_sum "Si O2"
_cell_formula_units_Z 16
_cell_length_a 7.952536
_cell_length_b 9.487255
_cell_length_c 12.314966
_cell_angle_alpha 49.020623
_cell_angle_beta 80.472846
_cell_angle_gamma 57.185477
_cell_volume 562.501489
_symmetry_space_group_name_H-M "P -1"
_symmetry_group_IT_number 2
_symmetry_cell_setting 'triclinic'
loop_
_space_group_symop_operation_xyz
x,y,z
-x,-y,-z
loop_
_atom_site_type_symbol
_atom_site_label
_atom_site_fract_x
_atom_site_fract_y
_atom_site_fract_z
Si Si1 0.232813 0.363488 0.002981
Si Si2 0.915548 0.130774 0.559357
Si Si3 0.331460 0.209535 0.837052
Si Si4 0.816156 0.695037 0.600925
Si Si5 0.514486 0.477979 0.647314
Si Si6 0.478705 0.019836 0.324196
Si Si7 0.040222 0.789095 0.173822
Si Si8 0.676476 0.297959 0.207076
O O1 0.366093 0.116085 0.172334
O O2 0.207141 0.375796 0.869877
O O3 0.339475 0.493595 0.956005
O O4 0.000000 0.500000 0.000000
O O5 0.663552 0.289198 0.517506
O O6 0.995878 0.295833 0.467250
O O7 0.000000 0.000000 0.500000
O O8 0.072699 0.908192 0.727870
O O9 0.433026 0.320756 0.713816
O O10 0.191368 0.154168 0.809485
O O11 0.500000 0.000000 0.000000
O O12 0.698801 0.880992 0.614015
O O13 0.863504 0.461503 0.761328
O O14 0.660950 0.768178 0.476803
O O15 0.769804 0.300644 0.715718
O O16 0.432163 0.583268 0.725140
O O17 0.581079 0.158986 0.260825
O O18 0.000000 0.000000 0.000000
#
# Coordination Sequence:
#
# PCOD9082757 Si02
#       8
#     2   2   2   2   2   2   2   2
#     4  11  24  36  60  92 131 160 198 266 323 379
#     4   9  18  31  55  89 127 161 202 256 323 374
#     4  11  23  42  60  88 123 166 217 255 308 378
#     4  10  20  35  60  91 127 157 212 266 309 384
#     4  10  19  33  57  87 123 160 205 261 299 366
#     4  10  20  36  58  90 123 162 203 259 329 376
#     4  12  22  35  60  93 116 162 219 262 300 363
#     4   9  19  34  55  88 128 166 192 252 327 388
#
# _framework density 28.444369999999999
#
# number of rings (size 3 to 8) (size 9 to 14) (size 15 to 20)
#    0.000    1.750    3.750    1.125    5.250    0.000 
#    0.000    0.000    0.000    1.500    3.250    0.000 
#    0.000    0.000    0.000    0.000    0.000    0.000 
#
# Total GULP energy -89289.651736 kJ/mol
# GULP energy per Si atom -5580.603233 kJ/mol
# Density = 2.837963 g / cm^3
# Si number density = 28.444370 Si / 1000 Ang^3
#
#
#
# Elastic Constant Matrix: (Units=GPa)
#
#
# Indices 1 2 3 4 5 6 
#
# 1 197.2136 42.6328 28.0322 -2.3925 22.8268 -21.5803
# 2 42.6328 75.3025 51.2930 -9.0446 -5.0443 -7.2220
# 3 28.0322 51.2930 144.5164 -23.9647 12.5514 -6.4422
# 4 -2.3925 -9.0446 -23.9647 55.0463 -1.0923 0.3292
# 5 22.8268 -5.0443 12.5514 -1.0923 48.3145 -8.3567
# 6 -21.5803 -7.2220 -6.4422 0.3292 -8.3567 38.1037
#
#
#
# Elastic Compliance Matrix: (Units=1/GPa)
#
#
# Indices 1 2 3 4 5 6 
#
# 1 0.006497 -0.004062 0.000526 -0.000234 -0.003239 0.002290
# 2 -0.004062 0.021050 -0.007095 0.000307 0.006290 0.001866
# 3 0.000526 -0.007095 0.010174 0.003216 -0.003584 -0.000140
# 4 -0.000234 0.000307 0.003216 0.019601 -0.000206 0.000255
# 5 -0.003239 0.006290 -0.003584 -0.000206 0.024526 0.004132
# 6 0.002290 0.001866 -0.000140 0.000255 0.004132 0.028775
#
#
# Mechanical properties :
#
#
# Convention : Reuss Voigt Hill
#
# Bulk Modulus (GPa) = 60.76004 73.43871 67.09938
# Shear Modulus (GPa) = 36.39751 47.96453 42.18102
#
# Velocity S-wave (km/s) = 3.58103 4.11086 3.85506
# Velocity P-wave (km/s) = 6.20530 6.95749 6.59213
#
# Compressibility (1/GPa) = 0.01645818
#
# Stress axis : x y z
#
# Youngs Moduli (GPa) = 153.92518 47.50639 98.28674
#
# Poissons Ratio (x) = 0.19297 -0.05172
# Poissons Ratio (y) = 0.62524 0.69739
# Poissons Ratio (z) = -0.08099 0.33708
#
# Static dielectric constant tensor:
#      x y z
#    x 2.362010 -0.084420 0.125740 
#    y -0.084420 2.462550 -0.049660 
#    z 0.125740 -0.049660 2.189270 
# 
# From -- ./inp_files/498759.got.cif
#   From: 2010.05.17/outbox.cif.g08.bks.cpg/sg2_250_cif.got.tgz:498759.got - 2010.06.03 11:33:40.
