data_PCOD9082936
_publ_section_title
;
Structure prediction by ZEFSAII (Michael W. Deem and Ramdas Pophale) SiO2 
 PCOD9082936
Probable space group: P -1
;
_chemical_formula_sum "Si O2"
_cell_formula_units_Z 14
_cell_length_a 5.077469
_cell_length_b 8.940297
_cell_length_c 18.435509
_cell_angle_alpha 111.161632
_cell_angle_beta 56.236012
_cell_angle_gamma 79.537377
_cell_volume 564.464338
_symmetry_space_group_name_H-M "P -1"
_symmetry_group_IT_number 2
_symmetry_cell_setting 'triclinic'
loop_
_space_group_symop_operation_xyz
x,y,z
-x,-y,-z
loop_
_atom_site_type_symbol
_atom_site_label
_atom_site_fract_x
_atom_site_fract_y
_atom_site_fract_z
Si Si1 0.115737 0.569368 0.320223
Si Si2 0.688561 0.841490 0.225232
Si Si3 0.787589 0.332469 0.259165
Si Si4 0.829487 0.543581 0.954329
Si Si5 0.454717 0.328087 0.454232
Si Si6 0.649791 0.071306 0.868081
Si Si7 0.268624 0.050217 0.616162
O O1 0.528928 0.413915 0.243715
O O2 0.903571 0.477829 0.296880
O O3 0.907981 0.640908 0.442948
O O4 0.062991 0.746210 0.313572
O O5 0.503177 0.909720 0.187186
O O6 0.512353 0.935962 0.345237
O O7 0.866784 0.621087 0.167978
O O8 0.027640 0.880035 0.178388
O O9 0.517111 0.314121 0.356235
O O10 0.153538 0.134822 0.167012
O O11 0.500000 0.500000 0.000000
O O12 0.662467 0.762020 0.007252
O O13 0.000000 0.500000 0.000000
O O14 0.500000 0.500000 0.500000
O O15 0.772723 0.129081 0.397142
O O16 0.500000 0.000000 0.500000
#
# Coordination Sequence:
#
# PCOD9082936 Si02
#       7
#     2   2   2   2   2   2   2
#     4  10  23  37  52  81 115 155 185 231 287 343
#     4  10  19  35  57  86 115 149 190 238 291 340
#     4  11  20  37  57  80 112 147 194 239 282 333
#     4   8  16  30  52  84 116 138 181 243 293 332
#     4   9  19  38  58  81 107 149 195 242 279 332
#     4  10  19  33  59  88 111 146 192 245 289 330
#     4  10  21  40  58  85 120 158 193 235 287 351
#
# _framework density 24.802274000000001
#
# number of rings (size 3 to 8) (size 9 to 14) (size 15 to 20)
#    0.000    2.286    1.429    1.286    0.000    1.143 
#    5.143    6.429    0.000    1.714    0.000    0.000 
#    0.000    0.000    0.000    0.000    0.000    0.000 
#
# Total GULP energy -78126.647349 kJ/mol
# GULP energy per Si atom -5580.474811 kJ/mol
# Density = 2.474582 g / cm^3
# Si number density = 24.802274 Si / 1000 Ang^3
#
#
#
# Elastic Constant Matrix: (Units=GPa)
#
#
# Indices 1 2 3 4 5 6 
#
# 1 137.1929 36.7835 27.0127 2.1347 4.2298 -30.9635
# 2 36.7835 154.5704 42.6858 37.7001 -0.7776 -21.4905
# 3 27.0127 42.6858 114.3723 39.2487 12.6236 -10.1878
# 4 2.1347 37.7001 39.2487 47.6191 -5.2842 -11.5061
# 5 4.2298 -0.7776 12.6236 -5.2842 23.9057 5.9126
# 6 -30.9635 -21.4905 -10.1878 -11.5061 5.9126 32.7756
#
#
#
# Elastic Compliance Matrix: (Units=1/GPa)
#
#
# Indices 1 2 3 4 5 6 
#
# 1 0.010519 -0.001655 -0.002505 0.005158 -0.001985 0.010242
# 2 -0.001655 0.008765 -0.000504 -0.006058 -0.001010 0.002082
# 3 -0.002505 -0.000504 0.015166 -0.013328 -0.010330 -0.000799
# 4 0.005158 -0.006058 -0.013328 0.040014 0.012666 0.008521
# 5 -0.001985 -0.001010 -0.010330 0.012666 0.053095 -0.010880
# 6 0.010242 0.002082 -0.000799 0.008521 -0.010880 0.046257
#
#
# Mechanical properties :
#
#
# Convention : Reuss Voigt Hill
#
# Bulk Modulus (GPa) = 39.81026 68.78884 54.29955
# Shear Modulus (GPa) = 26.10718 40.83701 33.47209
#
# Velocity S-wave (km/s) = 3.24792 4.06211 3.67762
# Velocity P-wave (km/s) = 5.49101 7.05664 6.32247
#
# Compressibility (1/GPa) = 0.02511915
#
# Stress axis : x y z
#
# Youngs Moduli (GPa) = 95.07001 114.09386 65.93696
#
# Poissons Ratio (x) = 0.18888 0.16519
# Poissons Ratio (y) = 0.15739 0.03325
# Poissons Ratio (z) = 0.23818 0.05754
#
# Static dielectric constant tensor:
#      x y z
#    x 1.952510 0.002780 -0.056190 
#    y 0.002780 1.989340 -0.004210 
#    z -0.056190 -0.004210 2.076370 
# 
# From -- ./inp_files/90911.got.cif
#   From: 2010.05.17/outbox.cif.g08.bks.cpg/sg2_46_cif.got.tgz:90911.got - 2010.06.03 11:33:40.
