data_PCOD9082946
_publ_section_title
;
Structure prediction by ZEFSAII (Michael W. Deem and Ramdas Pophale) SiO2 
 PCOD9082946
Probable space group: P -1
;
_chemical_formula_sum "Si O2"
_cell_formula_units_Z 12
_cell_length_a 16.322265
_cell_length_b 11.460393
_cell_length_c 9.997189
_cell_angle_alpha 124.405730
_cell_angle_beta 56.925046
_cell_angle_gamma 156.802592
_cell_volume 605.750645
_symmetry_space_group_name_H-M "P -1"
_symmetry_group_IT_number 2
_symmetry_cell_setting 'triclinic'
loop_
_space_group_symop_operation_xyz
x,y,z
-x,-y,-z
loop_
_atom_site_type_symbol
_atom_site_label
_atom_site_fract_x
_atom_site_fract_y
_atom_site_fract_z
Si Si1 0.415331 0.312974 0.823000
Si Si2 0.181869 0.326369 0.369296
Si Si3 0.985819 0.193462 0.722443
Si Si4 0.474504 0.357464 0.309956
Si Si5 0.691522 0.349858 0.066127
Si Si6 0.961123 0.784378 0.863407
O O1 0.574272 0.391798 0.693180
O O2 0.429963 0.443913 0.775170
O O3 0.500000 0.500000 0.000000
O O4 0.172179 0.969496 0.830309
O O5 0.124441 0.334785 0.560653
O O6 0.090568 0.284136 0.291883
O O7 0.080790 0.040312 0.297078
O O8 0.117183 0.449422 0.878478
O O9 0.768146 0.979038 0.725149
O O10 0.500000 0.500000 0.500000
O O11 0.601047 0.376981 0.231506
O O12 0.780107 0.499346 0.937517
O O13 0.500000 0.000000 0.000000
O O14 0.000000 0.000000 0.000000
#
# Coordination Sequence:
#
# PCOD9082946 Si02
#       6
#     2   2   2   2   2   2
#     4  11  18  29  55  87 112 140 193 245 285 329
#     4  10  19  33  59  90 113 143 201 251 286 334
#     4  10  20  36  58  87 120 152 194 247 293 346
#     4  11  21  36  63  90 114 153 201 242 290 351
#     4  12  25  40  57  88 126 158 192 244 301 351
#     4  12  19  35  58  85 116 153 200 243 286 346
#
# _framework density 19.810130999999998
#
# number of rings (size 3 to 8) (size 9 to 14) (size 15 to 20)
#    0.000    1.000    5.000    5.000    0.000    0.667 
#    0.000    0.833    0.000    7.000    0.000    0.000 
#    0.000    0.000    0.000    0.000    0.000    0.000 
#
# Total GULP energy -67048.722149 kJ/mol
# GULP energy per Si atom -5587.393512 kJ/mol
# Density = 1.976504 g / cm^3
# Si number density = 19.810131 Si / 1000 Ang^3
#
#
#
# Elastic Constant Matrix: (Units=GPa)
#
#
# Indices 1 2 3 4 5 6 
#
# 1 51.8707 34.3780 24.2251 -4.6204 15.6602 25.7470
# 2 34.3780 113.6801 37.2339 -15.2121 11.8668 13.7412
# 3 24.2251 37.2339 88.0727 -20.0677 27.8489 -3.5706
# 4 -4.6204 -15.2121 -20.0677 31.8786 7.4348 1.6102
# 5 15.6602 11.8668 27.8489 7.4348 33.6816 -5.6225
# 6 25.7470 13.7412 -3.5706 1.6102 -5.6225 33.2167
#
#
#
# Elastic Compliance Matrix: (Units=1/GPa)
#
#
# Indices 1 2 3 4 5 6 
#
# 1 0.065910 -0.006062 -0.000191 0.019208 -0.042047 -0.056649
# 2 -0.006062 0.012036 -0.002729 0.003181 0.000011 -0.000726
# 3 -0.000191 -0.002729 0.024510 0.019689 -0.023739 -0.001061
# 4 0.019208 0.003181 0.019689 0.059443 -0.043514 -0.024334
# 5 -0.042047 0.000011 -0.023739 -0.043514 0.086272 0.046748
# 6 -0.056649 -0.000726 -0.001061 -0.024334 0.046748 0.083294
#
#
# Mechanical properties :
#
#
# Convention : Reuss Voigt Hill
#
# Bulk Modulus (GPa) = 11.83554 49.47750 30.65652
# Shear Modulus (GPa) = 13.24179 30.27446 21.75813
#
# Velocity S-wave (km/s) = 2.58822 3.91350 3.31771
# Velocity P-wave (km/s) = 3.86255 6.74172 5.49409
#
# Compressibility (1/GPa) = 0.08449130
#
# Stress axis : x y z
#
# Youngs Moduli (GPa) = 15.17227 83.08435 40.79966
#
# Poissons Ratio (x) = 0.50368 0.00778
# Poissons Ratio (y) = 0.09198 0.11135
# Poissons Ratio (z) = 0.00289 0.22675
#
# Static dielectric constant tensor:
#      x y z
#    x 1.721020 0.055440 -0.002040 
#    y 0.055440 1.722030 -0.014470 
#    z -0.002040 -0.014470 1.675160 
# 
# From -- ./inp_files/188800.got.cif
#   From: 2010.05.17/outbox.cif.g08.bks.cpg/sg2_95_cif.got.tgz:188800.got - 2010.06.03 11:33:40.
