data_PCOD9082092
_publ_section_title
;
Structure prediction by ZEFSAII (Michael W. Deem and Ramdas Pophale) SiO2 
 PCOD9082092
Probable space group: P -1
;
_chemical_formula_sum "Si O2"
_cell_formula_units_Z 16
_cell_length_a 15.452673
_cell_length_b 22.004502
_cell_length_c 5.491182
_cell_angle_alpha 70.345388
_cell_angle_beta 96.131589
_cell_angle_gamma 152.036576
_cell_volume 744.053052
_symmetry_space_group_name_H-M "P -1"
_symmetry_group_IT_number 2
_symmetry_cell_setting 'triclinic'
loop_
_space_group_symop_operation_xyz
x,y,z
-x,-y,-z
loop_
_atom_site_type_symbol
_atom_site_label
_atom_site_fract_x
_atom_site_fract_y
_atom_site_fract_z
Si Si1 0.037004 0.955457 0.443095
Si Si2 0.485792 0.193985 0.233563
Si Si3 0.839567 0.133315 0.898534
Si Si4 0.658018 0.740396 0.401194
Si Si5 0.661755 0.051498 0.459285
Si Si6 0.805093 0.684471 0.988599
Si Si7 0.474410 0.563459 0.097209
Si Si8 0.548441 0.809792 0.264247
O O1 0.880967 0.856211 0.300473
O O2 0.947267 0.838141 0.738022
O O3 0.000000 0.000000 0.500000
O O4 0.268385 0.087433 0.292870
O O5 0.577081 0.273688 0.411342
O O6 0.444663 0.090341 0.373568
O O7 0.589565 0.280615 0.895256
O O8 0.773779 0.127878 0.129154
O O9 0.073542 0.271317 0.828850
O O10 0.699013 0.973195 0.075974
O O11 0.799554 0.142180 0.621718
O O12 0.521973 0.632091 0.269332
O O13 0.674557 0.828389 0.287086
O O14 0.568468 0.660180 0.748776
O O15 0.500000 0.000000 0.500000
O O16 0.749170 0.604395 0.842893
O O17 0.595809 0.577450 0.152721
#
# Coordination Sequence:
#
# PCOD9082092 Si02
#       8
#     2   2   2   2   2   2   2   2
#     4  11  20  33  55  78 106 147 178 220 259 321
#     4  10  20  32  49  80 103 140 165 212 272 309
#     4  10  20  34  57  78 107 144 167 223 272 322
#     4  11  22  35  51  74 107 146 189 216 258 306
#     4  10  20  34  52  81 113 138 169 213 277 339
#     4  10  21  39  51  76 111 147 190 217 261 310
#     4  10  25  35  52  71 107 159 183 227 249 295
#     4  10  19  33  50  77 105 133 181 213 264 316
#
# _framework density 21.503841999999999
#
# number of rings (size 3 to 8) (size 9 to 14) (size 15 to 20)
#    0.000    1.750    3.750    1.125    5.250    6.000 
#    0.000    0.000    0.000    0.000    0.000    0.000 
#    0.000   80.000    0.000    0.000    0.000    0.000 
#
# Total GULP energy -89252.442775 kJ/mol
# GULP energy per Si atom -5578.277673 kJ/mol
# Density = 2.145490 g / cm^3
# Si number density = 21.503842 Si / 1000 Ang^3
#
#
#
# Elastic Constant Matrix: (Units=GPa)
#
#
# Indices 1 2 3 4 5 6 
#
# 1 100.0354 30.9197 32.5367 17.4963 5.4668 -1.6055
# 2 30.9197 86.0295 43.3802 33.4947 1.5054 -5.3887
# 3 32.5367 43.3802 121.4059 43.8203 -3.4951 -7.2741
# 4 17.4963 33.4947 43.8203 42.1482 -2.7205 -0.4839
# 5 5.4668 1.5054 -3.4951 -2.7205 15.3746 7.8973
# 6 -1.6055 -5.3887 -7.2741 -0.4839 7.8973 18.4573
#
#
#
# Elastic Compliance Matrix: (Units=1/GPa)
#
#
# Indices 1 2 3 4 5 6 
#
# 1 0.011981 -0.002657 -0.001845 -0.001285 -0.005630 0.001915
# 2 -0.002657 0.018844 -0.001001 -0.013223 -0.007426 0.007707
# 3 -0.001845 -0.001001 0.014102 -0.013107 -0.001032 0.005203
# 4 -0.001285 -0.013223 -0.013107 0.049184 0.014748 -0.014158
# 5 -0.005630 -0.007426 -0.001032 0.014748 0.091669 -0.041900
# 6 0.001915 0.007707 0.005203 -0.014158 -0.041900 0.076203
#
#
# Mechanical properties :
#
#
# Convention : Reuss Voigt Hill
#
# Bulk Modulus (GPa) = 29.47933 57.90490 43.69211
# Shear Modulus (GPa) = 17.58739 28.57164 23.07952
#
# Velocity S-wave (km/s) = 2.86295 3.64906 3.27964
# Velocity P-wave (km/s) = 4.96661 6.68882 5.89099
#
# Compressibility (1/GPa) = 0.03392207
#
# Stress axis : x y z
#
# Youngs Moduli (GPa) = 83.46571 53.06636 70.91355
#
# Poissons Ratio (x) = 0.14099 0.13083
# Poissons Ratio (y) = 0.22175 0.07096
# Poissons Ratio (z) = 0.15399 0.05310
#
# Static dielectric constant tensor:
#      x y z
#    x 1.773110 -0.047140 -0.044540 
#    y -0.047140 1.872930 0.040780 
#    z -0.044540 0.040780 1.897300 
# 
# From -- ./inp_files/100362.got.cif
#   From: 2010.05.17/outbox.cif.g08.bks.cpg/sg2_51_cif.got.tgz:100362.got - 2010.06.03 11:33:40.
