data_PCOD9082208
_publ_section_title
;
Structure prediction by ZEFSAII (Michael W. Deem and Ramdas Pophale) SiO2 
 PCOD9082208
Probable space group: P -1
;
_chemical_formula_sum "Si O2"
_cell_formula_units_Z 16
_cell_length_a 9.166727
_cell_length_b 9.433302
_cell_length_c 14.140050
_cell_angle_alpha 92.429264
_cell_angle_beta 56.761603
_cell_angle_gamma 129.724653
_cell_volume 690.609864
_symmetry_space_group_name_H-M "P -1"
_symmetry_group_IT_number 2
_symmetry_cell_setting 'triclinic'
loop_
_space_group_symop_operation_xyz
x,y,z
-x,-y,-z
loop_
_atom_site_type_symbol
_atom_site_label
_atom_site_fract_x
_atom_site_fract_y
_atom_site_fract_z
Si Si1 0.018524 0.395182 0.368357
Si Si2 0.792386 0.671829 0.329346
Si Si3 0.643269 0.404809 0.557826
Si Si4 0.264416 0.537654 0.831589
Si Si5 0.794915 0.177848 0.111815
Si Si6 0.934160 0.775108 0.822674
Si Si7 0.295646 0.810991 0.162475
Si Si8 0.510403 0.299412 0.045632
O O1 0.212427 0.480542 0.389874
O O2 0.990642 0.242015 0.306596
O O3 0.146296 0.596124 0.265467
O O4 0.751074 0.311528 0.492709
O O5 0.740154 0.578644 0.450081
O O6 0.662802 0.745305 0.351772
O O7 0.658862 0.489639 0.292927
O O8 0.093596 0.814808 0.215224
O O9 0.183665 0.651618 0.846743
O O10 0.465442 0.668353 0.849410
O O11 0.021915 0.309531 0.957286
O O12 0.842263 0.097148 0.176321
O O13 0.522882 0.991333 0.156085
O O14 0.772902 0.821578 0.884452
O O15 0.719104 0.533829 0.933554
O O16 0.404545 0.799553 0.029919
#
# Coordination Sequence:
#
# PCOD9082208 Si02
#       8
#     2   2   2   2   2   2   2   2
#     4   9  17  34  58  78 100 135 175 219 258 296
#     4  10  19  33  54  78 104 137 175 216 253 298
#     4   9  18  32  57  81  98 130 183 219 251 301
#     4  10  19  33  53  74 102 141 174 203 256 318
#     4  10  20  33  51  77 107 139 170 205 258 320
#     4   9  17  32  52  72 101 136 170 206 251 310
#     4  10  20  33  50  78 113 136 164 214 260 302
#     4   9  18  31  49  76 103 134 171 203 249 313
#
# _framework density 23.167929000000001
#
# number of rings (size 3 to 8) (size 9 to 14) (size 15 to 20)
#    0.000    2.500    0.000    4.500    0.000    3.500 
#    0.000    1.250    0.000   24.000    0.000    0.000 
#    0.000    0.000    0.000    0.000    0.000    0.000 
#
# Total GULP energy -89325.577841 kJ/mol
# GULP energy per Si atom -5582.848615 kJ/mol
# Density = 2.311520 g / cm^3
# Si number density = 23.167929 Si / 1000 Ang^3
#
#
#
# Elastic Constant Matrix: (Units=GPa)
#
#
# Indices 1 2 3 4 5 6 
#
# 1 168.1765 38.0314 53.5346 7.5768 -21.7114 34.4116
# 2 38.0314 68.7568 29.5750 11.4414 -9.3917 22.2282
# 3 53.5346 29.5750 78.9958 13.5372 -15.2464 20.0904
# 4 7.5768 11.4414 13.5372 26.0064 9.8500 3.8183
# 5 -21.7114 -9.3917 -15.2464 9.8500 39.6910 -11.5908
# 6 34.4116 22.2282 20.0904 3.8183 -11.5908 45.7310
#
#
#
# Elastic Compliance Matrix: (Units=1/GPa)
#
#
# Indices 1 2 3 4 5 6 
#
# 1 0.008499 -0.001693 -0.003967 0.000201 0.001675 -0.003422
# 2 -0.001693 0.020296 -0.003272 -0.006842 0.002587 -0.005927
# 3 -0.003967 -0.003272 0.020049 -0.010172 0.006797 -0.001661
# 4 0.000201 -0.006842 -0.010172 0.054323 -0.019428 -0.001817
# 5 0.001675 0.002587 0.006797 -0.019428 0.035661 0.005157
# 6 -0.003422 -0.005927 -0.001661 -0.001817 0.005157 0.029511
#
#
# Mechanical properties :
#
#
# Convention : Reuss Voigt Hill
#
# Bulk Modulus (GPa) = 32.27851 62.02345 47.15098
# Shear Modulus (GPa) = 25.44131 35.27156 30.35643
#
# Velocity S-wave (km/s) = 3.31739 3.90607 3.62370
# Velocity P-wave (km/s) = 5.35127 6.86822 6.15665
#
# Compressibility (1/GPa) = 0.03098036
#
# Stress axis : x y z
#
# Youngs Moduli (GPa) = 117.65868 49.27101 49.87703
#
# Poissons Ratio (x) = 0.08343 0.19785
# Poissons Ratio (y) = 0.19923 0.16320
# Poissons Ratio (z) = 0.46672 0.16121
#
# Static dielectric constant tensor:
#      x y z
#    x 1.918980 -0.021420 0.000310 
#    y -0.021420 1.869390 -0.056700 
#    z 0.000310 -0.056700 1.959990 
# 
# From -- ./inp_files/203054.got.cif
#   From: 2010.05.17/outbox.cif.g08.bks.cpg/sg2_102_cif.got.tgz:203054.got - 2010.06.03 11:33:40.
