data_PCOD9082635
_publ_section_title
;
Structure prediction by ZEFSAII (Michael W. Deem and Ramdas Pophale) SiO2 
 PCOD9082635
Probable space group: P -1
;
_chemical_formula_sum "Si O2"
_cell_formula_units_Z 16
_cell_length_a 25.756393
_cell_length_b 10.526634
_cell_length_c 12.903944
_cell_angle_alpha 146.528386
_cell_angle_beta 156.337179
_cell_angle_gamma 32.178533
_cell_volume 718.829873
_symmetry_space_group_name_H-M "P -1"
_symmetry_group_IT_number 2
_symmetry_cell_setting 'triclinic'
loop_
_space_group_symop_operation_xyz
x,y,z
-x,-y,-z
loop_
_atom_site_type_symbol
_atom_site_label
_atom_site_fract_x
_atom_site_fract_y
_atom_site_fract_z
Si Si1 0.568093 0.753777 0.385975
Si Si2 0.402176 0.394001 0.360553
Si Si3 0.186121 0.444380 0.687210
Si Si4 0.289923 0.778903 0.239851
Si Si5 0.037027 0.203138 0.136798
Si Si6 0.421661 0.369629 0.911860
Si Si7 0.206944 0.621529 0.348573
Si Si8 0.677976 0.969821 0.180208
O O1 0.561268 0.779680 0.266532
O O2 0.732504 0.580583 0.588039
O O3 0.500000 0.000000 0.500000
O O4 0.478303 0.585010 0.134661
O O5 0.353972 0.640696 0.369868
O O6 0.567664 0.281230 0.603588
O O7 0.319857 0.475380 0.369621
O O8 0.344695 0.215406 0.070393
O O9 0.043678 0.423150 0.372343
O O10 0.273409 0.467687 0.762612
O O11 0.260190 0.188539 0.712670
O O12 0.192735 0.655006 0.920869
O O13 0.191731 0.054858 0.275038
O O14 0.937036 0.306291 0.926410
O O15 0.000000 0.000000 0.000000
O O16 0.525482 0.183140 0.058156
O O17 0.228966 0.878272 0.586068
#
# Coordination Sequence:
#
# PCOD9082635 Si02
#       8
#     2   2   2   2   2   2   2   2
#     4  10  22  41  64  86 117 159 209 263 302 345
#     4  10  19  33  56  87 118 157 202 241 294 364
#     4  11  22  36  59  89 128 163 195 246 304 369
#     4  10  21  34  54  86 124 160 195 240 300 363
#     4  12  23  39  57  89 133 168 198 239 302 378
#     4  10  21  37  60  92 118 152 206 256 308 360
#     4  11  22  39  61  89 123 165 206 244 304 363
#     4  10  19  33  59  90 124 155 189 249 311 362
#
# _framework density 22.258396999999999
#
# number of rings (size 3 to 8) (size 9 to 14) (size 15 to 20)
#    0.000    1.500    2.500    3.375    0.000    4.500 
#    0.000    0.625    0.000    2.250    0.000    0.000 
#    0.000    0.000    0.000    0.000    0.000    0.000 
#
# Total GULP energy -89328.541758 kJ/mol
# GULP energy per Si atom -5583.033860 kJ/mol
# Density = 2.220774 g / cm^3
# Si number density = 22.258397 Si / 1000 Ang^3
#
#
#
# Elastic Constant Matrix: (Units=GPa)
#
#
# Indices 1 2 3 4 5 6 
#
# 1 44.5420 6.7987 -4.6866 -4.9920 -3.6350 1.1781
# 2 6.7987 83.1784 26.3364 -5.4449 -10.7636 7.2608
# 3 -4.6866 26.3364 106.4442 -1.2346 -23.7459 -2.1152
# 4 -4.9920 -5.4449 -1.2346 38.7970 0.2614 -7.6374
# 5 -3.6350 -10.7636 -23.7459 0.2614 18.6068 -3.5417
# 6 1.1781 7.2608 -2.1152 -7.6374 -3.5417 27.4807
#
#
#
# Elastic Compliance Matrix: (Units=1/GPa)
#
#
# Indices 1 2 3 4 5 6 
#
# 1 0.024101 -0.001931 0.003458 0.003220 0.008284 0.001706
# 2 -0.001931 0.013844 -0.002783 0.000978 0.003481 -0.003069
# 3 0.003458 -0.002783 0.014416 0.001257 0.018284 0.004402
# 4 0.003220 0.000978 0.001257 0.027908 0.003922 0.007962
# 5 0.008284 0.003481 0.018284 0.003922 0.082921 0.011909
# 6 0.001706 -0.003069 0.004402 0.007962 0.011909 0.041213
#
#
# Mechanical properties :
#
#
# Convention : Reuss Voigt Hill
#
# Bulk Modulus (GPa) = 20.06054 32.34015 26.20034
# Shear Modulus (GPa) = 22.36814 30.69131 26.52973
#
# Velocity S-wave (km/s) = 3.17350 3.71733 3.45613
# Velocity P-wave (km/s) = 4.73923 5.74332 5.26526
#
# Compressibility (1/GPa) = 0.04984912
#
# Stress axis : x y z
#
# Youngs Moduli (GPa) = 41.49180 72.23430 69.36558
#
# Poissons Ratio (x) = 0.13949 -0.23988
# Poissons Ratio (y) = 0.08012 0.19306
# Poissons Ratio (z) = -0.14349 0.20105
#
# Static dielectric constant tensor:
#      x y z
#    x 1.852820 0.050730 -0.020080 
#    y 0.050730 1.869080 0.014330 
#    z -0.020080 0.014330 1.903410 
# 
# From -- ./inp_files/535396.got.cif
#   From: 2010.05.17/outbox.cif.g08.bks.cpg/sg2_268_cif.got.tgz:535396.got - 2010.06.03 11:33:40.
