data_PCOD9082697
_publ_section_title
;
Structure prediction by ZEFSAII (Michael W. Deem and Ramdas Pophale) SiO2 
 PCOD9082697
Probable space group: P -1
;
_chemical_formula_sum "Si O2"
_cell_formula_units_Z 16
_cell_length_a 14.142701
_cell_length_b 13.590507
_cell_length_c 11.925952
_cell_angle_alpha 50.059905
_cell_angle_beta 137.129010
_cell_angle_gamma 149.521084
_cell_volume 790.668751
_symmetry_space_group_name_H-M "P -1"
_symmetry_group_IT_number 2
_symmetry_cell_setting 'triclinic'
loop_
_space_group_symop_operation_xyz
x,y,z
-x,-y,-z
loop_
_atom_site_type_symbol
_atom_site_label
_atom_site_fract_x
_atom_site_fract_y
_atom_site_fract_z
Si Si1 0.629832 0.826436 0.938168
Si Si2 0.361282 0.823823 0.839077
Si Si3 0.352215 0.720527 0.578044
Si Si4 0.676865 0.255123 0.712860
Si Si5 0.212655 0.573170 0.099564
Si Si6 0.914249 0.266768 0.527874
Si Si7 0.097754 0.190279 0.881179
Si Si8 0.018032 0.283257 0.960597
O O1 0.440541 0.746225 0.908297
O O2 0.547605 0.813507 0.754630
O O3 0.836046 0.050472 0.991118
O O4 0.695987 0.724777 0.060978
O O5 0.167774 0.751261 0.653806
O O6 0.541315 0.051683 0.804592
O O7 0.325685 0.755537 0.984384
O O8 0.415927 0.770547 0.467727
O O9 0.255680 0.784766 0.498868
O O10 0.148585 0.487501 0.583129
O O11 0.690483 0.375042 0.730441
O O12 0.893190 0.332552 0.807597
O O13 0.000000 0.500000 0.000000
O O14 0.164908 0.414500 0.099296
O O15 0.948730 0.146567 0.688242
O O16 0.121261 0.311222 0.912592
O O17 0.000000 0.000000 0.000000
#
# Coordination Sequence:
#
# PCOD9082697 Si02
#       8
#     2   2   2   2   2   2   2   2
#     4   9  21  34  54  85 115 145 179 224 284 334
#     4  10  21  34  56  87 111 141 185 239 280 324
#     4  10  20  34  55  86 114 143 184 235 281 321
#     4  10  19  33  57  82 113 143 186 236 276 319
#     4  10  20  35  56  83 108 145 190 232 279 324
#     4  10  20  33  56  82 119 145 181 231 281 334
#     4  10  20  34  54  83 116 153 182 212 285 341
#     4   9  18  33  53  77 112 144 181 222 269 330
#
# _framework density 20.236034
#
# number of rings (size 3 to 8) (size 9 to 14) (size 15 to 20)
#    0.000    2.250    1.250    1.875    7.000    2.000 
#    0.000    0.000    0.000    0.750    6.500   10.500 
#    0.000    0.000    0.000    0.000    0.000    0.000 
#
# Total GULP energy -89114.902871 kJ/mol
# GULP energy per Si atom -5569.681429 kJ/mol
# Density = 2.018998 g / cm^3
# Si number density = 20.236034 Si / 1000 Ang^3
#
#
#
# Elastic Constant Matrix: (Units=GPa)
#
#
# Indices 1 2 3 4 5 6 
#
# 1 103.4391 21.2772 53.0666 2.2874 -17.3289 -9.6264
# 2 21.2772 55.5972 16.0355 6.8500 -5.6740 -8.5954
# 3 53.0666 16.0355 91.5999 -2.4907 -5.5324 -2.8263
# 4 2.2874 6.8500 -2.4907 15.4614 -1.2280 -12.4736
# 5 -17.3289 -5.6740 -5.5324 -1.2280 43.7964 2.8886
# 6 -9.6264 -8.5954 -2.8263 -12.4736 2.8886 25.5568
#
#
#
# Elastic Compliance Matrix: (Units=1/GPa)
#
#
# Indices 1 2 3 4 5 6 
#
# 1 0.015462 -0.002649 -0.008056 0.001313 0.004519 0.004172
# 2 -0.002649 0.020990 -0.002220 -0.007563 0.001046 0.002006
# 3 -0.008056 -0.002220 0.016055 0.005212 -0.001347 0.000690
# 4 0.001313 -0.007563 0.005212 0.111321 -0.000168 0.052879
# 5 0.004519 0.001046 -0.001347 -0.000168 0.024645 -0.000963
# 6 0.004172 0.002006 0.000690 0.052879 -0.000963 0.067369
#
#
# Mechanical properties :
#
#
# Convention : Reuss Voigt Hill
#
# Bulk Modulus (GPa) = 37.51735 47.93276 42.72505
# Shear Modulus (GPa) = 17.20716 27.64670 22.42693
#
# Velocity S-wave (km/s) = 2.91919 3.70024 3.33268
# Velocity P-wave (km/s) = 5.47196 6.48027 5.99735
#
# Compressibility (1/GPa) = 0.02665434
#
# Stress axis : x y z
#
# Youngs Moduli (GPa) = 64.67563 47.64276 62.28717
#
# Poissons Ratio (x) = 0.12622 0.50181
# Poissons Ratio (y) = 0.17134 0.13829
# Poissons Ratio (z) = 0.52105 0.10578
#
# Static dielectric constant tensor:
#      x y z
#    x 1.763320 -0.005230 -0.021900 
#    y -0.005230 1.826770 0.036330 
#    z -0.021900 0.036330 1.750460 
# 
# From -- ./inp_files/454674.got.cif
#   From: 2010.05.17/outbox.cif.g08.bks.cpg/sg2_228_cif.got.tgz:454674.got - 2010.06.03 11:33:40.
