data_PCOD9082173
_publ_section_title
;
Structure prediction by ZEFSAII (Michael W. Deem and Ramdas Pophale) SiO2 
 PCOD9082173
Probable space group: P -1
;
_chemical_formula_sum "Si O2"
_cell_formula_units_Z 16
_cell_length_a 27.871810
_cell_length_b 5.454693
_cell_length_c 11.920593
_cell_angle_alpha 67.212778
_cell_angle_beta 150.336175
_cell_angle_gamma 98.778950
_cell_volume 756.766087
_symmetry_space_group_name_H-M "P -1"
_symmetry_group_IT_number 2
_symmetry_cell_setting 'triclinic'
loop_
_space_group_symop_operation_xyz
x,y,z
-x,-y,-z
loop_
_atom_site_type_symbol
_atom_site_label
_atom_site_fract_x
_atom_site_fract_y
_atom_site_fract_z
Si Si1 0.884309 0.399564 0.421487
Si Si2 0.701752 0.627692 0.179791
Si Si3 0.668003 0.165291 0.891743
Si Si4 0.993742 0.193112 0.342712
Si Si5 0.583343 0.750794 0.373998
Si Si6 0.780786 0.499803 0.953914
Si Si7 0.411086 0.365840 0.842437
Si Si8 0.483034 0.339676 0.351475
O O1 0.944365 0.597196 0.551743
O O2 0.958663 0.061468 0.607791
O O3 0.794493 0.417311 0.325761
O O4 0.827871 0.542229 0.162216
O O5 0.586012 0.692936 0.883021
O O6 0.711831 0.932601 0.121067
O O7 0.688669 0.523240 0.295216
O O8 0.751516 0.225050 0.974274
O O9 0.584762 0.089917 0.659829
O O10 0.598988 0.472778 0.754041
O O11 0.000000 0.000000 0.500000
O O12 0.869932 0.405640 0.055964
O O13 0.675056 0.752321 0.643832
O O14 0.628856 0.626398 0.366597
O O15 0.537044 0.543613 0.375416
O O16 0.482705 0.040392 0.087271
O O17 0.500000 0.500000 0.000000
#
# Coordination Sequence:
#
# PCOD9082173 Si02
#       8
#     2   2   2   2   2   2   2   2
#     4  11  23  38  61  94 124 157 199 249 316 365
#     4  12  21  33  58  82 119 162 197 241 304 365
#     4  10  20  32  50  88 117 151 190 236 306 364
#     4  10  21  40  59  91 128 155 195 255 307 371
#     4  10  22  40  59  83 120 161 206 245 296 358
#     4  10  20  39  62  90 119 159 196 248 310 369
#     4  11  23  40  55  84 120 162 206 249 287 354
#     4  10  19  33  52  80 121 147 190 243 292 369
#
# _framework density 21.142596999999999
#
# number of rings (size 3 to 8) (size 9 to 14) (size 15 to 20)
#    0.000    1.500    3.750    3.375    0.000    1.000 
#    6.750    0.000    0.000    1.500    0.000    0.000 
#    0.000    0.000    0.000    0.000    0.000    0.000 
#
# Total GULP energy -89173.566879 kJ/mol
# GULP energy per Si atom -5573.347930 kJ/mol
# Density = 2.109448 g / cm^3
# Si number density = 21.142597 Si / 1000 Ang^3
#
#
#
# Elastic Constant Matrix: (Units=GPa)
#
#
# Indices 1 2 3 4 5 6 
#
# 1 154.2748 27.5581 27.4070 3.7131 12.9449 -13.4682
# 2 27.5581 59.6037 9.7825 14.2929 13.7570 -11.3414
# 3 27.4070 9.7825 51.9066 9.6338 12.1691 1.0553
# 4 3.7131 14.2929 9.6338 25.3956 1.2446 4.5573
# 5 12.9449 13.7570 12.1691 1.2446 29.3762 3.2330
# 6 -13.4682 -11.3414 1.0553 4.5573 3.2330 22.2920
#
#
#
# Elastic Compliance Matrix: (Units=1/GPa)
#
#
# Indices 1 2 3 4 5 6 
#
# 1 0.007973 -0.002220 -0.003700 0.000858 -0.001406 0.003891
# 2 -0.002220 0.029478 0.002492 -0.020027 -0.015194 0.019836
# 3 -0.003700 0.002492 0.024823 -0.010043 -0.009536 0.001293
# 4 0.000858 -0.020027 -0.010043 0.057799 0.013236 -0.022931
# 5 -0.001406 -0.015194 -0.009536 0.013236 0.047109 -0.017666
# 6 0.003891 0.019836 0.001293 -0.022931 -0.017666 0.064491
#
#
# Mechanical properties :
#
#
# Convention : Reuss Voigt Hill
#
# Bulk Modulus (GPa) = 18.04464 43.92003 30.98234
# Shear Modulus (GPa) = 19.45516 28.81527 24.13521
#
# Velocity S-wave (km/s) = 3.03675 3.69575 3.38234
# Velocity P-wave (km/s) = 4.56608 6.24738 5.47169
#
# Compressibility (1/GPa) = 0.05541811
#
# Stress axis : x y z
#
# Youngs Moduli (GPa) = 125.42651 33.92317 40.28563
#
# Poissons Ratio (x) = 0.07531 0.14906
# Poissons Ratio (y) = 0.27843 -0.10040
# Poissons Ratio (z) = 0.46410 -0.08454
#
# Static dielectric constant tensor:
#      x y z
#    x 1.855940 -0.024490 0.014920 
#    y -0.024490 1.897280 -0.009860 
#    z 0.014920 -0.009860 1.861270 
# 
# From -- ./inp_files/476010.got.cif
#   From: 2010.05.17/outbox.cif.g08.bks.cpg/sg2_239_cif.got.tgz:476010.got - 2010.06.03 11:33:40.
