data_PCOD9082320
_publ_section_title
;
Structure prediction by ZEFSAII (Michael W. Deem and Ramdas Pophale) SiO2 
 PCOD9082320
Probable space group: P -1
;
_chemical_formula_sum "Si O2"
_cell_formula_units_Z 16
_cell_length_a 17.386323
_cell_length_b 6.323558
_cell_length_c 15.571722
_cell_angle_alpha 100.774534
_cell_angle_beta 146.267819
_cell_angle_gamma 65.118198
_cell_volume 816.077409
_symmetry_space_group_name_H-M "P -1"
_symmetry_group_IT_number 2
_symmetry_cell_setting 'triclinic'
loop_
_space_group_symop_operation_xyz
x,y,z
-x,-y,-z
loop_
_atom_site_type_symbol
_atom_site_label
_atom_site_fract_x
_atom_site_fract_y
_atom_site_fract_z
Si Si1 0.000209 0.127228 0.134228
Si Si2 0.546168 0.011952 0.196303
Si Si3 0.872222 0.789604 0.899454
Si Si4 0.244987 0.293425 0.051682
Si Si5 0.144585 0.474945 0.513640
Si Si6 0.510555 0.722608 0.985692
Si Si7 0.861032 0.370944 0.287683
Si Si8 0.979771 0.889299 0.262412
O O1 0.136183 0.137623 0.203135
O O2 0.045602 0.003362 0.260087
O O3 0.856319 0.409009 0.026578
O O4 0.938462 0.958112 0.016656
O O5 0.692579 0.780152 0.356916
O O6 0.479853 0.905432 0.050606
O O7 0.412794 0.178281 0.151887
O O8 0.595546 0.167508 0.189278
O O9 0.739622 0.797875 0.841614
O O10 0.000000 0.500000 0.000000
O O11 0.139207 0.190169 0.898681
O O12 0.142002 0.608088 0.610767
O O13 0.001064 0.414226 0.385323
O O14 0.111178 0.654258 0.416583
O O15 0.694866 0.593833 0.118641
O O16 0.500000 0.500000 0.000000
O O17 0.885999 0.110832 0.258872
#
# Coordination Sequence:
#
# PCOD9082320 Si02
#       8
#     2   2   2   2   2   2   2   2
#     4   9  17  30  52  82 105 127 164 208 256 307
#     4  10  21  34  48  73 103 133 172 211 255 305
#     4   8  16  31  52  80 107 128 157 207 260 303
#     4  10  19  33  54  78 104 132 167 213 257 303
#     4  10  22  35  48  70 105 143 176 214 252 298
#     4  10  20  34  52  71  96 132 175 221 259 292
#     4  10  21  36  51  70  99 139 184 217 251 295
#     4  11  19  31  53  76 101 135 174 214 255 299
#
# _framework density 19.605982000000001
#
# number of rings (size 3 to 8) (size 9 to 14) (size 15 to 20)
#    0.000    2.250    0.000    3.375    0.000    7.000 
#    0.000    0.000    0.000    0.750    0.000   35.875 
#    0.000    0.000    0.000    0.000    0.000    0.000 
#
# Total GULP energy -89178.191134 kJ/mol
# GULP energy per Si atom -5573.636946 kJ/mol
# Density = 1.956136 g / cm^3
# Si number density = 19.605982 Si / 1000 Ang^3
#
#
#
# Elastic Constant Matrix: (Units=GPa)
#
#
# Indices 1 2 3 4 5 6 
#
# 1 127.2946 39.4600 40.4844 -31.2966 -18.8953 3.1542
# 2 39.4600 116.9861 31.1224 -16.6460 1.7299 -4.9092
# 3 40.4844 31.1224 65.7374 -31.3622 -13.1170 4.0268
# 4 -31.2966 -16.6460 -31.3622 32.0456 9.2465 -6.6510
# 5 -18.8953 1.7299 -13.1170 9.2465 20.5050 -9.8759
# 6 3.1542 -4.9092 4.0268 -6.6510 -9.8759 29.6640
#
#
#
# Elastic Compliance Matrix: (Units=1/GPa)
#
#
# Indices 1 2 3 4 5 6 
#
# 1 0.012104 -0.002755 -0.001002 0.007490 0.008816 0.003008
# 2 -0.002755 0.010866 -0.004490 0.000503 -0.006192 0.000752
# 3 -0.001002 -0.004490 0.032223 0.026129 0.010355 0.004295
# 4 0.007490 0.000503 0.026129 0.066963 -0.001718 0.010182
# 5 0.008816 -0.006192 0.010355 -0.001718 0.075038 0.021229
# 6 0.003008 0.000752 0.004295 0.010182 0.021229 0.042283
#
#
# Mechanical properties :
#
#
# Convention : Reuss Voigt Hill
#
# Bulk Modulus (GPa) = 25.83860 59.12796 42.48328
# Shear Modulus (GPa) = 18.59633 29.70635 24.15134
#
# Velocity S-wave (km/s) = 3.08312 3.89674 3.51356
# Velocity P-wave (km/s) = 5.08741 7.10420 6.17865
#
# Compressibility (1/GPa) = 0.03870178
#
# Stress axis : x y z
#
# Youngs Moduli (GPa) = 82.61768 92.02816 31.03332
#
# Poissons Ratio (x) = 0.25350 0.03109
# Poissons Ratio (y) = 0.22758 0.13933
# Poissons Ratio (z) = 0.08276 0.41317
#
# Static dielectric constant tensor:
#      x y z
#    x 1.783460 0.050420 -0.039510 
#    y 0.050420 1.765840 -0.010230 
#    z -0.039510 -0.010230 1.706800 
# 
# From -- ./inp_files/51184.got.cif
#   From: 2010.05.17/outbox.cif.g08.bks.cpg/sg2_26_cif.got.tgz:51184.got - 2010.06.03 11:33:40.
