data_PCOD9082965
_publ_section_title
;
Structure prediction by ZEFSAII (Michael W. Deem and Ramdas Pophale) SiO2 
 PCOD9082965
Probable space group: P -1
;
_chemical_formula_sum "Si O2"
_cell_formula_units_Z 14
_cell_length_a 10.112495
_cell_length_b 16.026859
_cell_length_c 15.996498
_cell_angle_alpha 33.268168
_cell_angle_beta 149.431153
_cell_angle_gamma 146.475844
_cell_volume 660.436637
_symmetry_space_group_name_H-M "P -1"
_symmetry_group_IT_number 2
_symmetry_cell_setting 'triclinic'
loop_
_space_group_symop_operation_xyz
x,y,z
-x,-y,-z
loop_
_atom_site_type_symbol
_atom_site_label
_atom_site_fract_x
_atom_site_fract_y
_atom_site_fract_z
Si Si1 0.396556 0.371291 0.476603
Si Si2 0.805538 0.805410 0.051842
Si Si3 0.523823 0.426911 0.794209
Si Si4 0.043877 0.686862 0.964867
Si Si5 0.076438 0.024931 0.619574
Si Si6 0.198111 0.750035 0.689492
Si Si7 0.158848 0.432954 0.862057
O O1 0.500000 0.500000 0.500000
O O2 0.553277 0.451999 0.410014
O O3 0.372245 0.190574 0.641893
O O4 0.058340 0.331287 0.314118
O O5 0.503169 0.787934 0.862059
O O6 0.727289 0.712846 0.175575
O O7 0.924175 0.696967 0.149737
O O8 0.000000 0.000000 0.000000
O O9 0.758117 0.546599 0.886143
O O10 0.683454 0.341604 0.894799
O O11 0.991344 0.661863 0.055935
O O12 0.078211 0.864557 0.798849
O O13 0.854182 0.085136 0.495506
O O14 0.000000 0.000000 0.500000
O O15 0.124241 0.608376 0.697111
O O16 0.500000 0.500000 0.000000
#
# Coordination Sequence:
#
# PCOD9082965 Si02
#       7
#     2   2   2   2   2   2   2
#     4  10  21  38  61  92 126 153 198 255 311 356
#     4  11  23  40  64  93 122 158 212 256 298 363
#     4  11  19  37  64  89 121 157 211 252 304 360
#     4  11  18  36  68  95 111 164 208 251 305 366
#     4  10  19  33  59  95 123 150 196 256 303 353
#     4   9  19  41  58  87 123 163 191 247 313 352
#     4  10  19  38  63  86 122 164 198 242 310 365
#
# _framework density 21.198097000000001
#
# number of rings (size 3 to 8) (size 9 to 14) (size 15 to 20)
#    0.857    0.857    5.714    1.714    0.000    1.143 
#    5.143    4.286    0.000    1.714    0.000    0.000 
#    0.000    0.000    0.000    0.000    0.000    0.000 
#
# Total GULP energy -78041.496671 kJ/mol
# GULP energy per Si atom -5574.392619 kJ/mol
# Density = 2.114985 g / cm^3
# Si number density = 21.198097 Si / 1000 Ang^3
#
#
#
# Elastic Constant Matrix: (Units=GPa)
#
#
# Indices 1 2 3 4 5 6 
#
# 1 120.8840 48.1029 27.2603 -20.5233 -5.9645 -4.9226
# 2 48.1029 127.5568 38.4311 -28.3230 -9.6248 -2.3569
# 3 27.2603 38.4311 60.6391 -29.7531 11.5324 5.8679
# 4 -20.5233 -28.3230 -29.7531 45.5388 -0.0787 3.7775
# 5 -5.9645 -9.6248 11.5324 -0.0787 36.4846 -10.9586
# 6 -4.9226 -2.3569 5.8679 3.7775 -10.9586 28.2993
#
#
#
# Elastic Compliance Matrix: (Units=1/GPa)
#
#
# Indices 1 2 3 4 5 6 
#
# 1 0.010514 -0.002298 -0.004214 0.000241 0.003609 0.003877
# 2 -0.002298 0.011805 -0.007692 0.000911 0.006552 0.004594
# 3 -0.004214 -0.007692 0.039535 0.020821 -0.021365 -0.020624
# 4 0.000241 0.000911 0.020821 0.037309 -0.010160 -0.013114
# 5 0.003609 0.006552 -0.021365 -0.010160 0.043623 0.023852
# 6 0.003877 0.004594 -0.020624 -0.013114 0.023852 0.051657
#
#
# Mechanical properties :
#
#
# Convention : Reuss Voigt Hill
#
# Bulk Modulus (GPa) = 29.89810 59.62982 44.76396
# Shear Modulus (GPa) = 21.36752 35.08359 28.22555
#
# Velocity S-wave (km/s) = 3.17833 4.07263 3.65295
# Velocity P-wave (km/s) = 5.25394 7.09267 6.24138
#
# Compressibility (1/GPa) = 0.03344694
#
# Stress axis : x y z
#
# Youngs Moduli (GPa) = 95.11277 84.70700 25.29373
#
# Poissons Ratio (x) = 0.19465 0.10658
# Poissons Ratio (y) = 0.21856 0.19457
# Poissons Ratio (z) = 0.40076 0.65160
#
# Static dielectric constant tensor:
#      x y z
#    x 1.785020 -0.009090 0.034630 
#    y -0.009090 1.808540 0.005220 
#    z 0.034630 0.005220 1.832340 
# 
# From -- ./inp_files/502731.got.cif
#   From: 2010.05.17/outbox.cif.g08.bks.cpg/sg2_252_cif.got.tgz:502731.got - 2010.06.03 11:33:40.
