data_PCOD9082541
_publ_section_title
;
Structure prediction by ZEFSAII (Michael W. Deem and Ramdas Pophale) SiO2 
 PCOD9082541
Probable space group: P -1
;
_chemical_formula_sum "Si O2"
_cell_formula_units_Z 15
_cell_length_a 4.997950
_cell_length_b 18.917807
_cell_length_c 8.758313
_cell_angle_alpha 61.703409
_cell_angle_beta 69.206353
_cell_angle_gamma 98.609533
_cell_volume 628.739732
_symmetry_space_group_name_H-M "P -1"
_symmetry_group_IT_number 2
_symmetry_cell_setting 'triclinic'
loop_
_space_group_symop_operation_xyz
x,y,z
-x,-y,-z
loop_
_atom_site_type_symbol
_atom_site_label
_atom_site_fract_x
_atom_site_fract_y
_atom_site_fract_z
Si Si1 0.817420 0.107012 0.402167
Si Si2 0.722288 0.231297 0.848954
Si Si3 0.307242 0.287890 0.118607
Si Si4 0.000000 0.500000 0.500000
Si Si5 0.398648 0.067025 0.236786
Si Si6 0.746817 0.374104 0.488612
Si Si7 0.214458 0.372051 0.774255
Si Si8 0.358512 0.562267 0.876413
O O1 0.576765 0.106978 0.319612
O O2 0.023748 0.202772 0.320630
O O3 0.064152 0.073922 0.302637
O O4 0.654324 0.034023 0.636864
O O5 0.706392 0.277841 0.645509
O O6 0.063667 0.283845 0.795076
O O7 0.503809 0.255876 0.990014
O O8 0.601867 0.128054 0.998234
O O9 0.520338 0.350328 0.135934
O O10 0.172385 0.344652 0.984257
O O11 0.083469 0.440370 0.402591
O O12 0.938739 0.564300 0.313560
O O13 0.586398 0.411240 0.623931
O O14 0.608561 0.393234 0.345411
O O15 0.500000 0.500000 0.000000
O O16 0.000000 0.500000 0.000000
#
# Coordination Sequence:
#
# PCOD9082541 Si02
#       8
#     2   2   2   1   2   2   2   2
#     4   9  17  29  55  81 122 139 177 224 286 332
#     4   9  19  34  61  82 114 137 192 230 283 332
#     4  10  21  38  55  83 113 151 187 233 285 333
#     4  10  20  32  56  72 102 130 198 236 278 324
#     4   9  16  30  51  92 112 142 174 229 279 334
#     4  10  23  37  53  77 105 150 184 238 280 333
#     4  10  19  33  56  79 101 145 184 236 281 326
#     4  12  30  42  57  79 115 153 196 235 280 339
#
# _framework density 23.857251000000002
#
# number of rings (size 3 to 8) (size 9 to 14) (size 15 to 20)
#    0.000    2.133    1.333    1.200   11.200    0.000 
#    0.000    0.000    0.000    0.800    0.000    0.933 
#    0.000    0.000    0.000    0.000    0.000    0.000 
#
# Total GULP energy -83534.937659 kJ/mol
# GULP energy per Si atom -5568.995844 kJ/mol
# Density = 2.380295 g / cm^3
# Si number density = 23.857251 Si / 1000 Ang^3
#
#
#
# Elastic Constant Matrix: (Units=GPa)
#
#
# Indices 1 2 3 4 5 6 
#
# 1 130.3181 27.8998 52.6909 -3.1694 31.9167 28.9244
# 2 27.8998 68.3139 61.1319 -20.3383 6.8115 23.5408
# 3 52.6909 61.1319 183.4593 -43.2770 35.2288 12.1572
# 4 -3.1694 -20.3383 -43.2770 39.3593 10.0182 -2.2245
# 5 31.9167 6.8115 35.2288 10.0182 40.2582 -5.9727
# 6 28.9244 23.5408 12.1572 -2.2245 -5.9727 20.3331
#
#
#
# Elastic Compliance Matrix: (Units=1/GPa)
#
#
# Indices 1 2 3 4 5 6 
#
# 1 0.074747 0.076831 0.017306 0.088104 -0.144712 -0.238498
# 2 0.076831 0.120886 0.015360 0.111180 -0.166255 -0.295107
# 3 0.017306 0.015360 0.019434 0.040525 -0.053080 -0.065179
# 4 0.088104 0.111180 0.040525 0.170877 -0.214505 -0.322594
# 5 -0.144712 -0.166255 -0.053080 -0.214505 0.342788 0.507299
# 6 -0.238498 -0.295107 -0.065179 -0.322594 0.507299 0.882806
#
#
# Mechanical properties :
#
#
# Convention : Reuss Voigt Hill
#
# Bulk Modulus (GPa) = 2.30382 73.94849 38.12616
# Shear Modulus (GPa) = 3.25260 36.01469 19.63365
#
# Velocity S-wave (km/s) = 1.16890 3.88956 2.87185
# Velocity P-wave (km/s) = 1.67019 7.15787 5.19734
#
# Compressibility (1/GPa) = 0.43406124
#
# Stress axis : x y z
#
# Youngs Moduli (GPa) = 13.37843 8.27225 51.45706
#
# Poissons Ratio (x) = -0.63557 -0.89053
# Poissons Ratio (y) = -1.02788 -0.79036
# Poissons Ratio (z) = -0.23153 -0.12706
#
# Static dielectric constant tensor:
#      x y z
#    x 2.244910 0.119260 -0.264220 
#    y 0.119260 2.059450 -0.070930 
#    z -0.264220 -0.070930 2.139730 
# 
# From -- ./inp_files/55129.got.cif
#   From: 2010.05.17/outbox.cif.g08.bks.cpg/sg2_28_cif.got.tgz:55129.got - 2010.06.03 11:33:40.
