data_PCOD9082559
_publ_section_title
;
Structure prediction by ZEFSAII (Michael W. Deem and Ramdas Pophale) SiO2 
 PCOD9082559
Probable space group: P -1
;
_chemical_formula_sum "Si O2"
_cell_formula_units_Z 16
_cell_length_a 10.941991
_cell_length_b 17.423408
_cell_length_c 8.633170
_cell_angle_alpha 83.320577
_cell_angle_beta 48.655741
_cell_angle_gamma 45.518060
_cell_volume 672.235505
_symmetry_space_group_name_H-M "P -1"
_symmetry_group_IT_number 2
_symmetry_cell_setting 'triclinic'
loop_
_space_group_symop_operation_xyz
x,y,z
-x,-y,-z
loop_
_atom_site_type_symbol
_atom_site_label
_atom_site_fract_x
_atom_site_fract_y
_atom_site_fract_z
Si Si1 0.358662 0.473860 0.180388
Si Si2 0.556561 0.478969 0.277561
Si Si3 0.095176 0.168227 0.962743
Si Si4 0.705425 0.755136 0.581812
Si Si5 0.228347 0.761998 0.467831
Si Si6 0.658962 0.942931 0.714985
Si Si7 0.789420 0.030309 0.274712
Si Si8 0.293513 0.818285 0.130907
O O1 0.337566 0.505155 0.371837
O O2 0.034552 0.590307 0.353942
O O3 0.500000 0.500000 0.000000
O O4 0.567013 0.317301 0.021829
O O5 0.500000 0.500000 0.500000
O O6 0.480188 0.597068 0.271591
O O7 0.114921 0.685581 0.975806
O O8 0.918260 0.195247 0.249911
O O9 0.171787 0.071742 0.799222
O O10 0.398918 0.084073 0.795194
O O11 0.720959 0.838353 0.599447
O O12 0.537149 0.813546 0.544390
O O13 0.497349 0.800867 0.879041
O O14 0.336606 0.797984 0.286761
O O15 0.974002 0.846798 0.533335
O O16 0.500000 0.000000 0.000000
O O17 0.959353 0.965851 0.310944
O O18 0.000000 0.000000 0.000000
#
# Coordination Sequence:
#
# PCOD9082559 Si02
#       8
#     2   2   2   2   2   2   2   2
#     4  12  21  37  59  83 109 142 188 228 267 327
#     4  10  19  33  56  82 107 140 180 227 273 315
#     4   9  18  33  56  79 107 145 178 222 276 317
#     4  10  21  37  55  80 112 147 179 222 278 327
#     4  10  19  35  56  84 108 136 186 227 268 323
#     4   9  17  34  55  78 103 141 182 220 266 323
#     4   9  19  36  54  76 110 149 178 214 274 329
#     4  11  21  36  57  83 111 145 181 227 273 324
#
# _framework density 23.801183000000002
#
# number of rings (size 3 to 8) (size 9 to 14) (size 15 to 20)
#    0.000    2.000    3.750    0.375    0.000    0.000 
#    2.250   11.875    0.000    6.000    0.000    0.000 
#    0.000    0.000    0.000    0.000    0.000    0.000 
#
# Total GULP energy -89216.335190 kJ/mol
# GULP energy per Si atom -5576.020949 kJ/mol
# Density = 2.374701 g / cm^3
# Si number density = 23.801183 Si / 1000 Ang^3
#
#
#
# Elastic Constant Matrix: (Units=GPa)
#
#
# Indices 1 2 3 4 5 6 
#
# 1 29.7553 15.4692 20.0976 10.1286 5.1996 -6.3300
# 2 15.4692 143.0596 39.4077 8.9909 -5.5589 -29.7244
# 3 20.0976 39.4077 82.6360 12.0276 0.3256 -16.8092
# 4 10.1286 8.9909 12.0276 51.0107 -9.9907 -4.1391
# 5 5.1996 -5.5589 0.3256 -9.9907 32.8321 11.2838
# 6 -6.3300 -29.7244 -16.8092 -4.1391 11.2838 27.0069
#
#
#
# Elastic Compliance Matrix: (Units=1/GPa)
#
#
# Indices 1 2 3 4 5 6 
#
# 1 0.046738 -0.000949 -0.007606 -0.009204 -0.013524 0.009415
# 2 -0.000949 0.009706 -0.002367 -0.000506 -0.001633 0.009592
# 3 -0.007606 -0.002367 0.016721 -0.001912 -0.002233 0.006660
# 4 -0.009204 -0.000506 -0.001912 0.023587 0.010121 -0.004518
# 5 -0.013524 -0.001633 -0.002233 0.010121 0.043294 -0.022895
# 6 0.009415 0.009592 0.006660 -0.004518 -0.022895 0.062810
#
#
# Mechanical properties :
#
#
# Convention : Reuss Voigt Hill
#
# Bulk Modulus (GPa) = 19.48508 45.04445 32.26477
# Shear Modulus (GPa) = 20.67767 34.20169 27.43968
#
# Velocity S-wave (km/s) = 2.95068 3.79486 3.39908
# Velocity P-wave (km/s) = 4.45119 6.17800 5.38427
#
# Compressibility (1/GPa) = 0.05132131
#
# Stress axis : x y z
#
# Youngs Moduli (GPa) = 21.39607 103.02941 59.80329
#
# Poissons Ratio (x) = 0.09781 0.45486
# Poissons Ratio (y) = 0.02031 0.14152
# Poissons Ratio (z) = 0.16274 0.24382
#
# Static dielectric constant tensor:
#      x y z
#    x 1.960860 -0.062280 -0.062390 
#    y -0.062280 2.228300 -0.143940 
#    z -0.062390 -0.143940 2.083810 
# 
# From -- ./inp_files/283033.got.cif
#   From: 2010.05.17/outbox.cif.g08.bks.cpg/sg2_142_cif.got.tgz:283033.got - 2010.06.03 11:33:40.
