data_PCOD9082943
_publ_section_title
;
Structure prediction by ZEFSAII (Michael W. Deem and Ramdas Pophale) SiO2 
 PCOD9082943
Probable space group: P -1
;
_chemical_formula_sum "Si O2"
_cell_formula_units_Z 16
_cell_length_a 14.221368
_cell_length_b 9.006765
_cell_length_c 7.806827
_cell_angle_alpha 51.175234
_cell_angle_beta 104.668513
_cell_angle_gamma 104.968816
_cell_volume 747.047174
_symmetry_space_group_name_H-M "P -1"
_symmetry_group_IT_number 2
_symmetry_cell_setting 'triclinic'
loop_
_space_group_symop_operation_xyz
x,y,z
-x,-y,-z
loop_
_atom_site_type_symbol
_atom_site_label
_atom_site_fract_x
_atom_site_fract_y
_atom_site_fract_z
Si Si1 0.886283 0.442645 0.019941
Si Si2 0.209503 0.218517 0.109313
Si Si3 0.116251 0.987606 0.554601
Si Si4 0.755712 0.911076 0.145499
Si Si5 0.282295 0.653742 0.221061
Si Si6 0.452296 0.819183 0.350811
Si Si7 0.450340 0.231189 0.936087
Si Si8 0.407045 0.408442 0.209635
O O1 0.869904 0.233566 0.249618
O O2 0.845838 0.597545 0.012290
O O3 0.829196 0.428419 0.820195
O O4 0.000000 0.500000 0.000000
O O5 0.168675 0.071216 0.346086
O O6 0.325025 0.299458 0.125941
O O7 0.192955 0.115301 0.993495
O O8 0.172708 0.105387 0.652171
O O9 0.000000 0.000000 0.500000
O O10 0.657691 0.760447 0.195362
O O11 0.717435 0.120159 0.996002
O O12 0.344547 0.692342 0.397670
O O13 0.339117 0.510446 0.238868
O O14 0.489249 0.792792 0.192960
O O15 0.530829 0.742717 0.564019
O O16 0.447706 0.045178 0.190827
O O17 0.511259 0.410959 0.925361
#
# Coordination Sequence:
#
# PCOD9082943 Si02
#       8
#     2   2   2   2   2   2   2   2
#     4  10  20  41  64  90 120 157 203 260 310 366
#     4  11  24  41  64  94 126 161 206 253 307 368
#     4  11  23  44  68  87 118 166 202 252 321 363
#     4  10  22  40  62  93 128 161 205 255 304 368
#     4   8  17  33  56  83 121 160 195 248 304 345
#     4   9  16  30  55  87 116 163 211 239 288 367
#     4   9  17  32  54  84 127 163 194 249 303 344
#     4  10  19  33  59  89 120 165 209 241 294 365
#
# _framework density 21.417659
#
# number of rings (size 3 to 8) (size 9 to 14) (size 15 to 20)
#    0.000    2.250    1.250    3.000    0.000    5.000 
#    0.000   10.625    0.000    0.000    0.000    0.000 
#    0.000    0.000    0.000    0.000    0.000    0.000 
#
# Total GULP energy -89163.170425 kJ/mol
# GULP energy per Si atom -5572.698152 kJ/mol
# Density = 2.136891 g / cm^3
# Si number density = 21.417659 Si / 1000 Ang^3
#
#
#
# Elastic Constant Matrix: (Units=GPa)
#
#
# Indices 1 2 3 4 5 6 
#
# 1 123.3236 56.9323 39.3482 11.2358 15.7991 27.3670
# 2 56.9323 81.6220 63.6468 -0.1272 -9.8727 0.8836
# 3 39.3482 63.6468 77.7301 -14.7679 11.0056 -2.8873
# 4 11.2358 -0.1272 -14.7679 31.5532 4.4711 -1.0495
# 5 15.7991 -9.8727 11.0056 4.4711 31.2541 3.4922
# 6 27.3670 0.8836 -2.8873 -1.0495 3.4922 39.2024
#
#
#
# Elastic Compliance Matrix: (Units=1/GPa)
#
#
# Indices 1 2 3 4 5 6 
#
# 1 0.034424 -0.083648 0.065847 0.027775 -0.069830 -0.010332
# 2 -0.083648 0.354494 -0.319382 -0.159452 0.289898 -0.003212
# 3 0.065847 -0.319382 0.309397 0.158325 -0.267119 0.012053
# 4 0.027775 -0.159452 0.158325 0.115174 -0.137891 0.011232
# 5 -0.069830 0.289898 -0.267119 -0.137891 0.273271 -0.005494
# 6 -0.010332 -0.003212 0.012053 0.011232 -0.005494 0.034471
#
#
# Mechanical properties :
#
#
# Convention : Reuss Voigt Hill
#
# Bulk Modulus (GPa) = 41.75639 66.94780 54.35209
# Shear Modulus (GPa) = 2.77226 28.58517 15.67872
#
# Velocity S-wave (km/s) = 1.13894 3.65726 2.70857
# Velocity P-wave (km/s) = 4.61174 7.01143 5.93415
#
# Compressibility (1/GPa) = 0.02394843
#
# Stress axis : x y z
#
# Youngs Moduli (GPa) = 29.04990 2.82092 3.23209
#
# Poissons Ratio (x) = 0.23596 -0.21282
# Poissons Ratio (y) = 2.42995 1.03227
# Poissons Ratio (z) = -1.91284 0.90095
#
# Static dielectric constant tensor:
#      x y z
#    x 1.804340 0.009040 -0.003490 
#    y 0.009040 1.820540 0.000720 
#    z -0.003490 0.000720 1.798220 
# 
# From -- ./inp_files/297553.got.cif
#   From: 2010.05.17/outbox.cif.g08.bks.cpg/sg2_149_cif.got.tgz:297553.got - 2010.06.03 11:33:40.
