data_PCOD9082341
_publ_section_title
;
Structure prediction by ZEFSAII (Michael W. Deem and Ramdas Pophale) SiO2 
 PCOD9082341
Probable space group: P -1
;
_chemical_formula_sum "Si O2"
_cell_formula_units_Z 16
_cell_length_a 14.638070
_cell_length_b 10.572855
_cell_length_c 8.405527
_cell_angle_alpha 47.140248
_cell_angle_beta 126.382471
_cell_angle_gamma 125.728372
_cell_volume 730.928020
_symmetry_space_group_name_H-M "P -1"
_symmetry_group_IT_number 2
_symmetry_cell_setting 'triclinic'
loop_
_space_group_symop_operation_xyz
x,y,z
-x,-y,-z
loop_
_atom_site_type_symbol
_atom_site_label
_atom_site_fract_x
_atom_site_fract_y
_atom_site_fract_z
Si Si1 0.393782 0.178706 0.190998
Si Si2 0.131225 0.120587 0.972645
Si Si3 0.579968 0.624174 0.257592
Si Si4 0.849964 0.675121 0.886984
Si Si5 0.498849 0.083562 0.674744
Si Si6 0.722663 0.947911 0.347378
Si Si7 0.075497 0.924653 0.764312
Si Si8 0.350577 0.614121 0.219163
O O1 0.468321 0.218178 0.396895
O O2 0.448405 0.049557 0.253952
O O3 0.254981 0.077176 0.171811
O O4 0.402289 0.344373 0.938546
O O5 0.121307 0.084981 0.804666
O O6 0.151999 0.302573 0.942925
O O7 0.000000 0.000000 0.000000
O O8 0.642225 0.813843 0.249179
O O9 0.444438 0.574278 0.224008
O O10 0.645950 0.498654 0.519704
O O11 0.787063 0.821989 0.622810
O O12 0.776253 0.479925 0.911712
O O13 0.986598 0.749107 0.905888
O O14 0.367892 0.987053 0.693579
O O15 0.587833 0.186646 0.816347
O O16 0.818624 0.096844 0.216612
O O17 0.000000 0.000000 0.500000
#
# Coordination Sequence:
#
# PCOD9082341 Si02
#       8
#     2   2   2   2   2   2   2   2
#     4  11  21  36  53  88 107 149 191 220 279 331
#     4  10  19  33  54  80 110 140 184 239 265 315
#     4   9  18  31  53  76 107 138 186 221 268 324
#     4   9  17  31  52  75 111 139 180 227 273 314
#     4  10  22  35  55  79 122 146 176 230 279 332
#     4   9  15  30  48  77 106 136 177 229 264 312
#     4   9  17  29  51  79 106 135 186 228 275 312
#     4   9  19  36  51  81 113 148 175 231 280 324
#
# _framework density 21.889982
#
# number of rings (size 3 to 8) (size 9 to 14) (size 15 to 20)
#    0.000    2.500    2.500    0.750    0.000    2.500 
#    0.000    0.000    0.000    3.000    0.000    2.625 
#    0.000    0.000    0.000    0.000    0.000    0.000 
#
# Total GULP energy -89090.754011 kJ/mol
# GULP energy per Si atom -5568.172126 kJ/mol
# Density = 2.184016 g / cm^3
# Si number density = 21.889982 Si / 1000 Ang^3
#
#
#
# Elastic Constant Matrix: (Units=GPa)
#
#
# Indices 1 2 3 4 5 6 
#
# 1 148.7656 43.6055 5.8724 4.4757 -2.2781 13.6110
# 2 43.6055 100.7161 15.5989 31.8876 -1.1165 0.5685
# 3 5.8724 15.5989 77.2939 19.0688 -19.6413 -1.1005
# 4 4.4757 31.8876 19.0688 31.7414 -5.9397 -4.2163
# 5 -2.2781 -1.1165 -19.6413 -5.9397 28.5720 6.5752
# 6 13.6110 0.5685 -1.1005 -4.2163 6.5752 28.3258
#
#
#
# Elastic Compliance Matrix: (Units=1/GPa)
#
#
# Indices 1 2 3 4 5 6 
#
# 1 0.008372 -0.004642 -0.000073 0.003390 0.002038 -0.003901
# 2 -0.004642 0.017444 0.000417 -0.017699 -0.003076 -0.000024
# 3 -0.000073 0.000417 0.018010 -0.009577 0.011157 -0.003289
# 4 0.003390 -0.017699 -0.009577 0.055958 0.003264 0.005926
# 5 0.002038 -0.003076 0.011157 0.003264 0.045838 -0.010639
# 6 -0.003901 -0.000024 -0.003289 0.005926 -0.010639 0.040402
#
#
# Mechanical properties :
#
#
# Convention : Reuss Voigt Hill
#
# Bulk Modulus (GPa) = 28.38602 50.76991 39.57796
# Shear Modulus (GPa) = 24.22906 35.17442 29.70174
#
# Velocity S-wave (km/s) = 3.33055 4.01293 3.68756
# Velocity P-wave (km/s) = 5.27123 6.68693 6.02083
#
# Compressibility (1/GPa) = 0.03522861
#
# Stress axis : x y z
#
# Youngs Moduli (GPa) = 119.45132 57.32748 55.52428
#
# Poissons Ratio (x) = 0.26611 0.00406
# Poissons Ratio (y) = 0.55448 -0.02314
# Poissons Ratio (z) = 0.00874 -0.02389
#
# Static dielectric constant tensor:
#      x y z
#    x 1.864830 0.014630 0.003380 
#    y 0.014630 1.863320 -0.050170 
#    z 0.003380 -0.050170 1.879960 
# 
# From -- ./inp_files/274377.got.cif
#   From: 2010.05.17/outbox.cif.g08.bks.cpg/sg2_138_cif.got.tgz:274377.got - 2010.06.03 11:33:40.
