data_PCOD9082530
_publ_section_title
;
Structure prediction by ZEFSAII (Michael W. Deem and Ramdas Pophale) SiO2 
 PCOD9082530
Probable space group: P -1
;
_chemical_formula_sum "Si O2"
_cell_formula_units_Z 14
_cell_length_a 5.765689
_cell_length_b 9.325489
_cell_length_c 13.125650
_cell_angle_alpha 98.300075
_cell_angle_beta 80.394618
_cell_angle_gamma 123.613564
_cell_volume 578.329587
_symmetry_space_group_name_H-M "P -1"
_symmetry_group_IT_number 2
_symmetry_cell_setting 'triclinic'
loop_
_space_group_symop_operation_xyz
x,y,z
-x,-y,-z
loop_
_atom_site_type_symbol
_atom_site_label
_atom_site_fract_x
_atom_site_fract_y
_atom_site_fract_z
Si Si1 0.962693 0.730281 0.495162
Si Si2 0.422126 0.649752 0.408497
Si Si3 0.974287 0.931601 0.110836
Si Si4 0.403335 0.453097 0.203688
Si Si5 0.841549 0.113252 0.297272
Si Si6 0.573992 0.203035 0.183414
Si Si7 0.925398 0.633250 0.980510
O O1 0.732717 0.739167 0.445057
O O2 0.772058 0.537054 0.539524
O O3 0.235005 0.734305 0.431583
O O4 0.093610 0.877392 0.588299
O O5 0.455963 0.605959 0.286216
O O6 0.282160 0.051975 0.146356
O O7 0.884724 0.735908 0.083260
O O8 0.795009 0.963758 0.208788
O O9 0.000000 0.000000 0.000000
O O10 0.612369 0.389070 0.198169
O O11 0.121132 0.284714 0.252419
O O12 0.320551 0.451490 0.093238
O O13 0.607679 0.153022 0.289381
O O14 0.804621 0.224382 0.089434
O O15 0.000000 0.500000 0.000000
#
# Coordination Sequence:
#
# PCOD9082530 Si02
#       7
#     2   2   2   2   2   2   2
#     4   9  18  28  45  77 108 141 180 230 277 330
#     4   9  18  28  47  72 111 145 176 224 288 331
#     4  11  19  36  53  80 105 148 187 219 276 339
#     4   9  19  32  48  75 106 145 183 219 276 340
#     4   9  19  29  51  75 107 140 184 224 271 332
#     4  10  19  33  56  73 111 146 183 220 281 324
#     4  11  23  36  53  81 112 142 186 232 274 329
#
# _framework density 24.207649
#
# number of rings (size 3 to 8) (size 9 to 14) (size 15 to 20)
#    0.000    2.286    4.286    0.429   14.000    0.571 
#    0.000    0.000    0.000    0.000    0.000    2.000 
#    0.000    0.000    0.000    0.000    0.000    0.000 
#
# Total GULP energy -78119.999379 kJ/mol
# GULP energy per Si atom -5579.999956 kJ/mol
# Density = 2.415255 g / cm^3
# Si number density = 24.207649 Si / 1000 Ang^3
#
#
#
# Elastic Constant Matrix: (Units=GPa)
#
#
# Indices 1 2 3 4 5 6 
#
# 1 132.3728 35.7563 80.1233 19.3512 6.7755 -20.3441
# 2 35.7563 92.7272 44.3969 16.5473 4.8162 -22.7577
# 3 80.1233 44.3969 177.3954 40.6970 3.6731 -30.3653
# 4 19.3512 16.5473 40.6970 16.8155 -0.9495 -14.2627
# 5 6.7755 4.8162 3.6731 -0.9495 33.6691 7.5060
# 6 -20.3441 -22.7577 -30.3653 -14.2627 7.5060 31.0210
#
#
#
# Elastic Compliance Matrix: (Units=1/GPa)
#
#
# Indices 1 2 3 4 5 6 
#
# 1 0.010973 -0.001603 -0.004553 0.002645 -0.002143 0.003299
# 2 -0.001603 0.014602 -0.000262 -0.005533 -0.003618 0.007736
# 3 -0.004553 -0.000262 0.014879 -0.034011 -0.000720 -0.004077
# 4 0.002645 -0.005533 -0.034011 0.187354 -0.002125 0.051039
# 5 -0.002143 -0.003618 -0.000720 -0.002125 0.033770 -0.013913
# 6 0.003299 0.007736 -0.004077 0.051039 -0.013913 0.062917
#
#
# Mechanical properties :
#
#
# Convention : Reuss Voigt Hill
#
# Bulk Modulus (GPa) = 36.20777 80.33869 58.27323
# Shear Modulus (GPa) = 14.42855 32.44905 23.43880
#
# Velocity S-wave (km/s) = 2.44403 3.66518 3.11503
# Velocity P-wave (km/s) = 4.79103 7.15338 6.08789
#
# Compressibility (1/GPa) = 0.02761838
#
# Stress axis : x y z
#
# Youngs Moduli (GPa) = 91.13212 68.48514 67.21015
#
# Poissons Ratio (x) = 0.10975 0.30600
# Poissons Ratio (y) = 0.14604 0.01762
# Poissons Ratio (z) = 0.41491 0.01795
#
# Static dielectric constant tensor:
#      x y z
#    x 2.058550 -0.084680 -0.053890 
#    y -0.084680 2.022030 -0.018030 
#    z -0.053890 -0.018030 1.946330 
# 
# From -- ./inp_files/36304.got.cif
#   From: 2010.05.17/outbox.cif.g08.bks.cpg/sg2_19_cif.got.tgz:36304.got - 2010.06.03 11:33:40.
