data_PCOD9082608
_publ_section_title
;
Structure prediction by ZEFSAII (Michael W. Deem and Ramdas Pophale) SiO2 
 PCOD9082608
Probable space group: P -1
;
_chemical_formula_sum "Si O2"
_cell_formula_units_Z 16
_cell_length_a 8.741793
_cell_length_b 9.126268
_cell_length_c 21.634965
_cell_angle_alpha 52.544136
_cell_angle_beta 136.324626
_cell_angle_gamma 103.101550
_cell_volume 871.724513
_symmetry_space_group_name_H-M "P -1"
_symmetry_group_IT_number 2
_symmetry_cell_setting 'triclinic'
loop_
_space_group_symop_operation_xyz
x,y,z
-x,-y,-z
loop_
_atom_site_type_symbol
_atom_site_label
_atom_site_fract_x
_atom_site_fract_y
_atom_site_fract_z
Si Si1 0.289321 0.924429 0.974186
Si Si2 0.609768 0.332192 0.808616
Si Si3 0.442800 0.447269 0.928608
Si Si4 0.730392 0.583154 0.421222
Si Si5 0.024036 0.662035 0.185022
Si Si6 0.712273 0.283661 0.304448
Si Si7 0.724268 0.867786 0.459376
Si Si8 0.468186 0.374452 0.464274
O O1 0.324720 0.831961 0.076769
O O2 0.334045 0.742148 0.986582
O O3 0.950425 0.875971 0.143407
O O4 0.500000 0.000000 0.000000
O O5 0.451072 0.298672 0.715880
O O6 0.843050 0.338705 0.840638
O O7 0.438211 0.538210 0.738464
O O8 0.372296 0.627410 0.811565
O O9 0.213128 0.384294 0.880488
O O10 0.500000 0.500000 0.000000
O O11 0.711054 0.728877 0.434794
O O12 0.661854 0.395143 0.468359
O O13 0.000000 0.500000 0.500000
O O14 0.213777 0.498643 0.326016
O O15 0.999911 0.219888 0.412870
O O16 0.663388 0.089416 0.359788
O O17 0.543679 0.833765 0.465104
O O18 0.500000 0.500000 0.500000
#
# Coordination Sequence:
#
# PCOD9082608 Si02
#       8
#     2   2   2   2   2   2   2   2
#     4   9  20  35  59  81 107 148 188 239 286 335
#     4  10  20  36  57  84 113 150 187 237 296 332
#     4  10  21  39  59  83 112 154 195 230 289 339
#     4  10  19  33  56  85 112 144 193 239 283 341
#     4  10  19  37  58  83 114 143 190 243 285 341
#     4  10  20  36  57  80 117 157 184 233 287 346
#     4  10  19  35  55  81 117 151 189 228 289 342
#     4   9  19  34  57  83 111 149 184 238 284 335
#
# _framework density 18.354422
#
# number of rings (size 3 to 8) (size 9 to 14) (size 15 to 20)
#    0.000    2.250    2.500    0.375    0.000    2.000 
#    0.000   11.250    0.000    0.000    0.000    0.000 
#    0.000    0.000    0.000    0.000    0.000    0.000 
#
# Total GULP energy -89133.940872 kJ/mol
# GULP energy per Si atom -5570.871304 kJ/mol
# Density = 1.831265 g / cm^3
# Si number density = 18.354422 Si / 1000 Ang^3
#
#
#
# Elastic Constant Matrix: (Units=GPa)
#
#
# Indices 1 2 3 4 5 6 
#
# 1 73.2641 20.1873 38.4975 -0.7002 -9.3572 14.9279
# 2 20.1873 71.5390 48.4961 -1.5857 -14.5656 14.1276
# 3 38.4975 48.4961 75.9326 -4.1493 -23.0280 3.9017
# 4 -0.7002 -1.5857 -4.1493 32.4958 -0.1172 -7.4975
# 5 -9.3572 -14.5656 -23.0280 -0.1172 30.4916 1.3074
# 6 14.9279 14.1276 3.9017 -7.4975 1.3074 25.5308
#
#
#
# Elastic Compliance Matrix: (Units=1/GPa)
#
#
# Indices 1 2 3 4 5 6 
#
# 1 0.023441 0.007501 -0.016355 -0.005099 -0.000874 -0.016810
# 2 0.007501 0.031352 -0.022860 -0.005839 0.000849 -0.019999
# 3 -0.016355 -0.022860 0.039582 0.007731 0.013222 0.017757
# 4 -0.005099 -0.005839 0.007731 0.034882 0.000966 0.015225
# 5 -0.000874 0.000849 0.013222 0.000966 0.043090 -0.003902
# 6 -0.016810 -0.019999 0.017757 0.015225 -0.003902 0.062021
#
#
# Mechanical properties :
#
#
# Convention : Reuss Voigt Hill
#
# Bulk Modulus (GPa) = 32.31494 48.34415 40.32955
# Shear Modulus (GPa) = 16.22790 25.27396 20.75093
#
# Velocity S-wave (km/s) = 2.97668 3.71482 3.36604
# Velocity P-wave (km/s) = 5.42756 6.69300 6.09322
#
# Compressibility (1/GPa) = 0.03094543
#
# Stress axis : x y z
#
# Youngs Moduli (GPa) = 42.65994 31.89640 25.26408
#
# Poissons Ratio (x) = -0.23926 0.41320
# Poissons Ratio (y) = -0.32000 0.57755
# Poissons Ratio (z) = 0.69771 0.72917
#
# Static dielectric constant tensor:
#      x y z
#    x 1.669200 0.002710 -0.008710 
#    y 0.002710 1.622280 -0.025050 
#    z -0.008710 -0.025050 1.646460 
# 
# From -- ./inp_files/586617.got.cif
#   From: 2010.05.17/outbox.cif.g08.bks.cpg/sg2_294_cif.got.tgz:586617.got - 2010.06.03 11:33:40.
