data_PCOD9082266
_publ_section_title
;
Structure prediction by ZEFSAII (Michael W. Deem and Ramdas Pophale) SiO2 
 PCOD9082266
Probable space group: P -1
;
_chemical_formula_sum "Si O2"
_cell_formula_units_Z 16
_cell_length_a 10.298497
_cell_length_b 23.776787
_cell_length_c 16.160499
_cell_angle_alpha 24.605679
_cell_angle_beta 146.688719
_cell_angle_gamma 145.812319
_cell_volume 864.677383
_symmetry_space_group_name_H-M "P -1"
_symmetry_group_IT_number 2
_symmetry_cell_setting 'triclinic'
loop_
_space_group_symop_operation_xyz
x,y,z
-x,-y,-z
loop_
_atom_site_type_symbol
_atom_site_label
_atom_site_fract_x
_atom_site_fract_y
_atom_site_fract_z
Si Si1 0.695111 0.828399 0.625057
Si Si2 0.305884 0.592155 0.641790
Si Si3 0.220563 0.847747 0.804972
Si Si4 0.658074 0.377862 0.945749
Si Si5 0.121325 0.429953 0.329372
Si Si6 0.477158 0.703870 0.246658
Si Si7 0.262272 0.523295 0.517025
Si Si8 0.441644 0.644820 0.881701
O O1 0.471091 0.741888 0.562453
O O2 0.614629 0.773488 0.748591
O O3 0.947918 0.798586 0.767679
O O4 0.736917 0.994594 0.415440
O O5 0.300165 0.570664 0.568675
O O6 0.016092 0.546055 0.567632
O O7 0.437803 0.481443 0.895828
O O8 0.255089 0.745495 0.886228
O O9 0.421537 0.835105 0.997785
O O10 0.846108 0.524779 0.811959
O O11 0.405697 0.405509 0.739980
O O12 0.598841 0.343863 0.056132
O O13 0.294317 0.569508 0.279881
O O14 0.247010 0.309862 0.582463
O O15 0.837000 0.394108 0.248714
O O16 0.378056 0.665711 0.336954
#
# Coordination Sequence:
#
# PCOD9082266 Si02
#       8
#     2   2   2   2   2   2   2   2
#     4  11  23  36  54  77 107 147 182 212 262 321
#     4  10  19  33  53  82 111 133 169 225 272 312
#     4  10  22  39  53  73 109 148 181 216 257 314
#     4   9  19  35  56  80 108 138 171 220 268 310
#     4   9  17  29  52  83 105 129 171 219 270 313
#     4   9  16  31  51  72 105 140 169 212 263 312
#     4   9  18  32  56  83 106 133 172 220 272 316
#     4  11  20  33  57  83 105 135 179 226 267 309
#
# _framework density 18.504010999999998
#
# number of rings (size 3 to 8) (size 9 to 14) (size 15 to 20)
#    0.000    2.250    0.000    4.500    0.000    2.500 
#    0.000    3.125    0.000    1.500    0.000    0.000 
#    0.000    0.000    0.000    0.000    0.000    0.000 
#
# Total GULP energy -89082.561745 kJ/mol
# GULP energy per Si atom -5567.660109 kJ/mol
# Density = 1.846190 g / cm^3
# Si number density = 18.504011 Si / 1000 Ang^3
#
#
#
# Elastic Constant Matrix: (Units=GPa)
#
#
# Indices 1 2 3 4 5 6 
#
# 1 116.8346 34.3047 52.4578 6.1383 -4.8086 10.8233
# 2 34.3047 46.3385 23.7443 9.3033 1.6308 14.1094
# 3 52.4578 23.7443 71.4904 7.9695 -0.5613 5.2883
# 4 6.1383 9.3033 7.9695 24.9741 1.1443 2.1596
# 5 -4.8086 1.6308 -0.5613 1.1443 38.0900 7.8770
# 6 10.8233 14.1094 5.2883 2.1596 7.8770 29.1824
#
#
#
# Elastic Compliance Matrix: (Units=1/GPa)
#
#
# Indices 1 2 3 4 5 6 
#
# 1 0.014349 -0.006187 -0.008516 0.001523 0.002215 -0.001498
# 2 -0.006187 0.034340 -0.004945 -0.008603 0.000610 -0.012940
# 3 -0.008516 -0.004945 0.022085 -0.003248 -0.000858 0.002019
# 4 0.001523 -0.008603 -0.003248 0.043851 -0.001058 0.001223
# 5 0.002215 0.000610 -0.000858 -0.001058 0.028288 -0.008518
# 6 -0.001498 -0.012940 0.002019 0.001223 -0.008518 0.042922
#
#
# Mechanical properties :
#
#
# Convention : Reuss Voigt Hill
#
# Bulk Modulus (GPa) = 31.76685 50.63080 41.19883
# Shear Modulus (GPa) = 21.22038 26.72641 23.97340
#
# Velocity S-wave (km/s) = 3.39012 3.80459 3.60332
# Velocity P-wave (km/s) = 5.70339 6.83530 6.29484
#
# Compressibility (1/GPa) = 0.03147936
#
# Stress axis : x y z
#
# Youngs Moduli (GPa) = 69.69083 29.12051 45.27999
#
# Poissons Ratio (x) = 0.18016 0.38559
# Poissons Ratio (y) = 0.43117 0.22389
# Poissons Ratio (z) = 0.59347 0.14399
#
# Static dielectric constant tensor:
#      x y z
#    x 1.731350 -0.014060 -0.025620 
#    y -0.014060 1.633900 0.043400 
#    z -0.025620 0.043400 1.658630 
# 
# From -- ./inp_files/560745.got.cif
#   From: 2010.05.17/outbox.cif.g08.bks.cpg/sg2_281_cif.got.tgz:560745.got - 2010.06.03 11:33:40.
