data_PCOD9082055
_publ_section_title
;
Structure prediction by ZEFSAII (Michael W. Deem and Ramdas Pophale) SiO2 
 PCOD9082055
Probable space group: P -1
;
_chemical_formula_sum "Si O2"
_cell_formula_units_Z 16
_cell_length_a 10.586587
_cell_length_b 11.261223
_cell_length_c 14.062372
_cell_angle_alpha 46.277138
_cell_angle_beta 94.534984
_cell_angle_gamma 58.661106
_cell_volume 728.224658
_symmetry_space_group_name_H-M "P -1"
_symmetry_group_IT_number 2
_symmetry_cell_setting 'triclinic'
loop_
_space_group_symop_operation_xyz
x,y,z
-x,-y,-z
loop_
_atom_site_type_symbol
_atom_site_label
_atom_site_fract_x
_atom_site_fract_y
_atom_site_fract_z
Si Si1 0.197414 0.498644 0.953127
Si Si2 0.750923 0.827023 0.705582
Si Si3 0.672809 0.638174 0.656531
Si Si4 0.869144 0.254445 0.424117
Si Si5 0.889015 0.916528 0.974670
Si Si6 0.087481 0.917043 0.812351
Si Si7 0.599948 0.370044 0.860375
Si Si8 0.695099 0.763636 0.073241
O O1 0.356995 0.275310 0.006228
O O2 0.953770 0.732786 0.773192
O O3 0.228390 0.649402 0.905229
O O4 0.208751 0.362917 0.115659
O O5 0.716680 0.768827 0.635699
O O6 0.528193 0.138749 0.546447
O O7 0.595282 0.573025 0.758832
O O8 0.901653 0.335445 0.810522
O O9 0.631178 0.452187 0.273400
O O10 0.860161 0.462799 0.295238
O O11 0.938676 0.151696 0.594278
O O12 0.000000 0.000000 0.500000
O O13 0.791500 0.836285 0.002973
O O14 0.958671 0.935702 0.870808
O O15 0.728539 0.190757 0.872377
O O16 0.252227 0.847736 0.924804
O O17 0.500000 0.000000 0.000000
#
# Coordination Sequence:
#
# PCOD9082055 Si02
#       8
#     2   2   2   2   2   2   2   2
#     4  11  19  40  65  94 136 174 229 283 342 409
#     4  10  19  32  64 103 125 164 221 288 338 398
#     4  10  19  35  62 102 129 164 221 287 342 393
#     4  12  27  47  73 102 142 188 236 284 344 424
#     4  11  22  45  71  96 146 180 227 295 346 414
#     4  11  23  45  74 106 132 180 241 289 343 412
#     4  11  24  44  68 102 143 182 227 294 355 400
#     4  12  25  47  67  97 142 189 224 283 356 413
#
# _framework density 21.971240000000002
#
# number of rings (size 3 to 8) (size 9 to 14) (size 15 to 20)
#    0.000    1.000    6.250    3.000    0.000    1.000 
#    4.500    0.625    0.000    0.000    0.000    0.000 
#    0.000    0.000    0.000    0.000    0.000    0.000 
#
# Total GULP energy -89132.469803 kJ/mol
# GULP energy per Si atom -5570.779363 kJ/mol
# Density = 2.192123 g / cm^3
# Si number density = 21.971240 Si / 1000 Ang^3
#
#
#
# Elastic Constant Matrix: (Units=GPa)
#
#
# Indices 1 2 3 4 5 6 
#
# 1 63.6340 14.2634 36.7295 7.3267 5.2996 2.3861
# 2 14.2634 103.4176 27.0983 -9.0719 8.0839 -5.6877
# 3 36.7295 27.0983 117.8556 8.6160 8.0064 -12.4538
# 4 7.3267 -9.0719 8.6160 35.2079 -0.4401 5.0222
# 5 5.2996 8.0839 8.0064 -0.4401 37.5615 -9.1641
# 6 2.3861 -5.6877 -12.4538 5.0222 -9.1641 24.7558
#
#
#
# Elastic Compliance Matrix: (Units=1/GPa)
#
#
# Indices 1 2 3 4 5 6 
#
# 1 0.020396 -0.001479 -0.006304 -0.002258 -0.002712 -0.006023
# 2 -0.001479 0.010895 -0.002175 0.003593 -0.001572 0.000241
# 3 -0.006304 -0.002175 0.011875 -0.003132 0.000471 0.006891
# 4 -0.002258 0.003593 -0.003132 0.031604 -0.001221 -0.007396
# 5 -0.002712 -0.001572 0.000471 -0.001221 0.030036 0.011504
# 6 -0.006023 0.000241 0.006891 -0.007396 0.011504 0.050256
#
#
# Mechanical properties :
#
#
# Convention : Reuss Voigt Hill
#
# Bulk Modulus (GPa) = 43.00743 49.00993 46.00868
# Shear Modulus (GPa) = 27.36335 33.29277 30.32806
#
# Velocity S-wave (km/s) = 3.53287 3.89689 3.71934
# Velocity P-wave (km/s) = 6.02150 6.52706 6.27937
#
# Compressibility (1/GPa) = 0.02325179
#
# Stress axis : x y z
#
# Youngs Moduli (GPa) = 49.02830 91.78892 84.21300
#
# Poissons Ratio (x) = 0.13572 0.53085
# Poissons Ratio (y) = 0.07250 0.18313
# Poissons Ratio (z) = 0.30906 0.19960
#
# Static dielectric constant tensor:
#      x y z
#    x 1.896390 0.012420 -0.029110 
#    y 0.012420 1.832600 -0.000850 
#    z -0.029110 -0.000850 1.867130 
# 
# From -- ./inp_files/518755.got.cif
#   From: 2010.05.17/outbox.cif.g08.bks.cpg/sg2_260_cif.got.tgz:518755.got - 2010.06.03 11:33:40.
