data_PCOD9082507
_publ_section_title
;
Structure prediction by ZEFSAII (Michael W. Deem and Ramdas Pophale) SiO2 
 PCOD9082507
Probable space group: P -1
;
_chemical_formula_sum "Si O2"
_cell_formula_units_Z 14
_cell_length_a 14.066586
_cell_length_b 5.288412
_cell_length_c 12.465093
_cell_angle_alpha 75.995445
_cell_angle_beta 113.952260
_cell_angle_gamma 121.788114
_cell_volume 719.839065
_symmetry_space_group_name_H-M "P -1"
_symmetry_group_IT_number 2
_symmetry_cell_setting 'triclinic'
loop_
_space_group_symop_operation_xyz
x,y,z
-x,-y,-z
loop_
_atom_site_type_symbol
_atom_site_label
_atom_site_fract_x
_atom_site_fract_y
_atom_site_fract_z
Si Si1 0.745639 0.949991 0.794429
Si Si2 0.660323 0.581892 0.182865
Si Si3 0.649833 0.007874 0.304399
Si Si4 0.995210 0.699526 0.073945
Si Si5 0.259571 0.485411 0.985930
Si Si6 0.425112 0.001994 0.125060
Si Si7 0.417563 0.153013 0.474233
O O1 0.667785 0.878830 0.660086
O O2 0.883587 0.187119 0.815725
O O3 0.682557 0.064036 0.838972
O O4 0.741939 0.671569 0.885939
O O5 0.686994 0.821730 0.261873
O O6 0.715195 0.687112 0.080060
O O7 0.706548 0.352292 0.263134
O O8 0.517940 0.355649 0.128310
O O9 0.509656 0.883706 0.226981
O O10 0.656710 0.978917 0.437224
O O11 0.866570 0.528913 0.087168
O O12 0.000000 0.500000 0.000000
O O13 0.000000 0.000000 0.000000
O O14 0.367489 0.822602 0.008219
O O15 0.500000 0.500000 0.500000
O O16 0.500000 0.000000 0.500000
#
# Coordination Sequence:
#
# PCOD9082507 Si02
#       7
#     2   2   2   2   2   2   2
#     4  11  23  36  62  88 119 151 194 243 294 344
#     4  10  23  36  56  82 122 153 190 229 292 346
#     4  10  22  38  51  86 115 155 189 230 290 345
#     4  10  22  39  57  83 117 154 195 236 287 342
#     4  11  22  37  58  85 120 153 193 237 287 351
#     4  10  19  33  55  86 115 146 186 227 294 344
#     4  12  22  38  60  85 119 153 192 241 293 345
#
# _framework density 19.448791
#
# number of rings (size 3 to 8) (size 9 to 14) (size 15 to 20)
#    0.857    0.571    2.857    3.857    2.000    1.143 
#    0.000    0.000    0.000    1.714    0.000    0.000 
#    0.000    0.000    0.000    0.000    0.000    0.000 
#
# Total GULP energy -78086.116298 kJ/mol
# GULP energy per Si atom -5577.579736 kJ/mol
# Density = 1.940452 g / cm^3
# Si number density = 19.448791 Si / 1000 Ang^3
#
#
#
# Elastic Constant Matrix: (Units=GPa)
#
#
# Indices 1 2 3 4 5 6 
#
# 1 104.8967 28.8891 49.4435 15.2776 0.9210 -12.4462
# 2 28.8891 82.1531 40.2281 9.3016 -2.6057 -26.4932
# 3 49.4435 40.2281 135.5884 5.2600 -3.3992 -4.2429
# 4 15.2776 9.3016 5.2600 24.1066 3.2526 -7.4977
# 5 0.9210 -2.6057 -3.3992 3.2526 31.4479 11.1137
# 6 -12.4462 -26.4932 -4.2429 -7.4977 11.1137 35.1893
#
#
#
# Elastic Compliance Matrix: (Units=1/GPa)
#
#
# Indices 1 2 3 4 5 6 
#
# 1 0.012938 -0.001167 -0.004096 -0.006000 -0.001101 0.002273
# 2 -0.001167 0.019886 -0.005084 -0.000553 -0.004162 0.015142
# 3 -0.004096 -0.005084 0.010270 0.000534 0.002409 -0.004685
# 4 -0.006000 -0.000553 0.000534 0.049991 -0.008862 0.010976
# 5 -0.001101 -0.004162 0.002409 -0.008862 0.038803 -0.017376
# 6 0.002273 0.015142 -0.004685 0.010976 -0.017376 0.047884
#
#
# Mechanical properties :
#
#
# Convention : Reuss Voigt Hill
#
# Bulk Modulus (GPa) = 44.63796 62.19551 53.41674
# Shear Modulus (GPa) = 24.04634 31.75394 27.90014
#
# Velocity S-wave (km/s) = 3.52005 4.04505 3.79165
# Velocity P-wave (km/s) = 6.28668 7.33928 6.83328
#
# Compressibility (1/GPa) = 0.02240246
#
# Stress axis : x y z
#
# Youngs Moduli (GPa) = 77.29014 50.28712 97.37002
#
# Poissons Ratio (x) = 0.05867 0.39879
# Poissons Ratio (y) = 0.09017 0.49499
# Poissons Ratio (z) = 0.31655 0.25564
#
# Static dielectric constant tensor:
#      x y z
#    x 1.707820 -0.003050 -0.014890 
#    y -0.003050 1.769240 -0.035670 
#    z -0.014890 -0.035670 1.712360 
# 
# From -- ./inp_files/410606.got.cif
#   From: 2010.05.17/outbox.cif.g08.bks.cpg/sg2_206_cif.got.tgz:410606.got - 2010.06.03 11:33:40.
