data_PCOD9082246
_publ_section_title
;
Structure prediction by ZEFSAII (Michael W. Deem and Ramdas Pophale) SiO2 
 PCOD9082246
Probable space group: P -1
;
_chemical_formula_sum "Si O2"
_cell_formula_units_Z 14
_cell_length_a 9.841087
_cell_length_b 9.769360
_cell_length_c 9.390862
_cell_angle_alpha 61.150813
_cell_angle_beta 100.141364
_cell_angle_gamma 132.315882
_cell_volume 569.119484
_symmetry_space_group_name_H-M "P -1"
_symmetry_group_IT_number 2
_symmetry_cell_setting 'triclinic'
loop_
_space_group_symop_operation_xyz
x,y,z
-x,-y,-z
loop_
_atom_site_type_symbol
_atom_site_label
_atom_site_fract_x
_atom_site_fract_y
_atom_site_fract_z
Si Si1 0.460892 0.180597 0.680796
Si Si2 0.925888 0.661257 0.821672
Si Si3 0.448197 0.246550 0.320024
Si Si4 0.099235 0.458273 0.429180
Si Si5 0.655239 0.249568 0.142221
Si Si6 0.019578 0.968279 0.352351
Si Si7 0.497462 0.380474 0.856133
O O1 0.429922 0.223306 0.497372
O O2 0.685715 0.319620 0.665569
O O3 0.411727 0.266828 0.748528
O O4 0.351584 0.934699 0.808310
O O5 0.997781 0.638805 0.698044
O O6 0.018448 0.888496 0.790293
O O7 0.722423 0.573397 0.775014
O O8 0.848893 0.481640 0.015437
O O9 0.581927 0.212138 0.306872
O O10 0.235064 0.080383 0.306345
O O11 0.556974 0.489605 0.169779
O O12 0.000000 0.500000 0.500000
O O13 0.098834 0.279043 0.577489
O O14 0.499321 0.233228 0.034433
O O15 0.000000 0.000000 0.500000
#
# Coordination Sequence:
#
# PCOD9082246 Si02
#       7
#     2   2   2   2   2   2   2
#     4  11  21  34  55  88 114 132 176 244 280 294
#     4   7  17  32  53  75 100 138 189 216 246 314
#     4  11  20  34  58  87 105 140 186 233 266 311
#     4  10  19  33  53  80 109 145 179 214 267 337
#     4  10  19  34  54  85 109 141 182 227 267 324
#     4   9  18  35  54  78 104 147 185 211 257 338
#     4   8  18  32  52  79 107 137 177 220 266 320
#
# _framework density 24.599402000000001
#
# number of rings (size 3 to 8) (size 9 to 14) (size 15 to 20)
#    0.857    1.714    0.000    3.429    0.000    0.000 
#    0.000    0.000    0.000    8.571    3.714    0.000 
#    0.000    0.000    0.000    0.000    0.000    0.000 
#
# Total GULP energy -78070.376095 kJ/mol
# GULP energy per Si atom -5576.455435 kJ/mol
# Density = 2.454341 g / cm^3
# Si number density = 24.599402 Si / 1000 Ang^3
#
#
#
# Elastic Constant Matrix: (Units=GPa)
#
#
# Indices 1 2 3 4 5 6 
#
# 1 81.3171 22.8544 11.1920 -2.9537 -14.8811 -16.6359
# 2 22.8544 89.8021 25.7152 -25.5564 6.1904 -29.3752
# 3 11.1920 25.7152 78.0458 -13.7526 13.7274 -10.9782
# 4 -2.9537 -25.5564 -13.7526 40.7127 -15.3255 3.5122
# 5 -14.8811 6.1904 13.7274 -15.3255 27.4182 4.1291
# 6 -16.6359 -29.3752 -10.9782 3.5122 4.1291 34.8624
#
#
#
# Elastic Compliance Matrix: (Units=1/GPa)
#
#
# Indices 1 2 3 4 5 6 
#
# 1 0.016258 -0.002234 -0.002679 0.003058 0.011879 0.003317
# 2 -0.002234 0.019861 -0.002300 0.009884 -0.001142 0.014084
# 3 -0.002679 -0.002300 0.016021 -0.000024 -0.009413 0.002946
# 4 0.003058 0.009884 -0.000024 0.038334 0.020338 0.003509
# 5 0.011879 -0.001142 -0.009413 0.020338 0.060381 -0.007458
# 6 0.003317 0.014084 0.002946 0.003509 -0.007458 0.043592
#
#
# Mechanical properties :
#
#
# Convention : Reuss Voigt Hill
#
# Bulk Modulus (GPa) = 26.51618 40.96534 33.74076
# Shear Modulus (GPa) = 22.57898 33.22556 27.90227
#
# Velocity S-wave (km/s) = 3.03292 3.67913 3.37154
# Velocity P-wave (km/s) = 4.80285 5.89382 5.37608
#
# Compressibility (1/GPa) = 0.03771282
#
# Stress axis : x y z
#
# Youngs Moduli (GPa) = 61.50925 50.34893 62.41868
#
# Poissons Ratio (x) = 0.11248 0.16724
# Poissons Ratio (y) = 0.13742 0.14357
# Poissons Ratio (z) = 0.16481 0.11581
#
# Static dielectric constant tensor:
#      x y z
#    x 1.996590 0.018540 0.045120 
#    y 0.018540 1.996180 -0.032930 
#    z 0.045120 -0.032930 2.021170 
# 
# From -- ./inp_files/237675.got.cif
#   From: 2010.05.17/outbox.cif.g08.bks.cpg/sg2_119_cif.got.tgz:237675.got - 2010.06.03 11:33:40.
