data_PCOD9082117
_publ_section_title
;
Structure prediction by ZEFSAII (Michael W. Deem and Ramdas Pophale) SiO2 
 PCOD9082117
Probable space group: P -1
;
_chemical_formula_sum "Si O2"
_cell_formula_units_Z 16
_cell_length_a 8.400816
_cell_length_b 8.162839
_cell_length_c 17.635067
_cell_angle_alpha 116.940389
_cell_angle_beta 47.400573
_cell_angle_gamma 127.247822
_cell_volume 706.662821
_symmetry_space_group_name_H-M "P -1"
_symmetry_group_IT_number 2
_symmetry_cell_setting 'triclinic'
loop_
_space_group_symop_operation_xyz
x,y,z
-x,-y,-z
loop_
_atom_site_type_symbol
_atom_site_label
_atom_site_fract_x
_atom_site_fract_y
_atom_site_fract_z
Si Si1 0.653893 0.059932 0.387039
Si Si2 0.674723 0.072122 0.687374
Si Si3 0.302186 0.796833 0.063647
Si Si4 0.083045 0.209997 0.920094
Si Si5 0.846714 0.161044 0.148491
Si Si6 0.978894 0.469817 0.287960
Si Si7 0.144315 0.045378 0.268130
Si Si8 0.559784 0.588949 0.865175
O O1 0.461950 0.969650 0.359269
O O2 0.873627 0.999225 0.320166
O O3 0.500000 0.000000 0.500000
O O4 0.806010 0.304363 0.370566
O O5 0.898312 0.301223 0.670174
O O6 0.796368 0.935956 0.657355
O O7 0.434836 0.004661 0.804147
O O8 0.197850 0.857785 0.183104
O O9 0.074974 0.717773 0.064854
O O10 0.433932 0.653854 0.987269
O O11 0.500000 0.000000 0.000000
O O12 0.358359 0.373103 0.854221
O O13 0.050177 0.978320 0.867509
O O14 0.990191 0.210134 0.034855
O O15 0.840753 0.360374 0.231234
O O16 0.214978 0.439857 0.187006
O O17 0.335120 0.242746 0.200766
#
# Coordination Sequence:
#
# PCOD9082117 Si02
#       8
#     2   2   2   2   2   2   2   2
#     4  10  24  48  72  95 126 161 207 273 336 402
#     4  11  22  43  66  94 133 163 210 272 324 385
#     4  10  19  33  51  80 128 170 220 256 297 362
#     4  11  20  33  52  84 128 183 230 261 303 357
#     4  10  21  35  55  87 132 173 221 268 305 365
#     4  10  22  40  64  93 128 172 215 260 328 384
#     4  10  23  41  65  95 131 170 216 267 321 379
#     4  10  20  35  55  88 127 184 218 253 307 365
#
# _framework density 22.641632999999999
#
# number of rings (size 3 to 8) (size 9 to 14) (size 15 to 20)
#    0.000    1.750    1.250    4.875    1.750    2.500 
#    2.250    0.625    0.000    0.000    0.000    0.000 
#    0.000    0.000    0.000    0.000    0.000    0.000 
#
# Total GULP energy -89092.023207 kJ/mol
# GULP energy per Si atom -5568.251450 kJ/mol
# Density = 2.259010 g / cm^3
# Si number density = 22.641633 Si / 1000 Ang^3
#
#
#
# Elastic Constant Matrix: (Units=GPa)
#
#
# Indices 1 2 3 4 5 6 
#
# 1 113.3410 26.0926 51.2658 -7.9927 16.5627 9.4621
# 2 26.0926 101.2841 30.4916 -17.8772 4.8778 30.2524
# 3 51.2658 30.4916 93.4473 -22.3842 12.2736 9.4134
# 4 -7.9927 -17.8772 -22.3842 16.0010 2.3188 -6.8734
# 5 16.5627 4.8778 12.2736 2.3188 18.4096 -5.1293
# 6 9.4621 30.2524 9.4134 -6.8734 -5.1293 24.8278
#
#
#
# Elastic Compliance Matrix: (Units=1/GPa)
#
#
# Indices 1 2 3 4 5 6 
#
# 1 0.013174 -0.000123 -0.006359 -0.003435 -0.008592 -0.005186
# 2 -0.000123 0.020172 0.002070 0.017435 -0.015406 -0.023673
# 3 -0.006359 0.002070 0.023984 0.033635 -0.015938 -0.003173
# 4 -0.003435 0.017435 0.033635 0.131229 -0.041878 -0.005010
# 5 -0.008592 -0.015406 -0.015938 -0.041878 0.091920 0.035486
# 6 -0.005186 -0.023673 -0.003173 -0.005010 0.035486 0.078247
#
#
# Mechanical properties :
#
#
# Convention : Reuss Voigt Hill
#
# Bulk Modulus (GPa) = 20.61602 58.19695 39.40648
# Shear Modulus (GPa) = 13.03036 25.19585 19.11310
#
# Velocity S-wave (km/s) = 2.40157 3.33950 2.90859
# Velocity P-wave (km/s) = 4.10063 6.37409 5.35930
#
# Compressibility (1/GPa) = 0.04850598
#
# Stress axis : x y z
#
# Youngs Moduli (GPa) = 75.90807 49.57350 41.69384
#
# Poissons Ratio (x) = 0.00610 0.26513
# Poissons Ratio (y) = 0.00934 -0.08630
# Poissons Ratio (z) = 0.48271 -0.10261
#
# Static dielectric constant tensor:
#      x y z
#    x 1.856750 -0.048910 0.061730 
#    y -0.048910 1.913380 0.072600 
#    z 0.061730 0.072600 1.830530 
# 
# From -- ./inp_files/557365.got.cif
#   From: 2010.05.17/outbox.cif.g08.bks.cpg/sg2_279_cif.got.tgz:557365.got - 2010.06.03 11:33:40.
