data_PCOD9082381
_publ_section_title
;
Structure prediction by ZEFSAII (Michael W. Deem and Ramdas Pophale) SiO2 
 PCOD9082381
Probable space group: P -1
;
_chemical_formula_sum "Si O2"
_cell_formula_units_Z 16
_cell_length_a 18.042871
_cell_length_b 23.100599
_cell_length_c 8.307779
_cell_angle_alpha 135.464834
_cell_angle_beta 138.409175
_cell_angle_gamma 18.666924
_cell_volume 735.542426
_symmetry_space_group_name_H-M "P -1"
_symmetry_group_IT_number 2
_symmetry_cell_setting 'triclinic'
loop_
_space_group_symop_operation_xyz
x,y,z
-x,-y,-z
loop_
_atom_site_type_symbol
_atom_site_label
_atom_site_fract_x
_atom_site_fract_y
_atom_site_fract_z
Si Si1 0.907983 0.437331 0.454419
Si Si2 0.553535 0.930540 0.247130
Si Si3 0.436801 0.631275 0.722828
Si Si4 0.420755 0.910038 0.275837
Si Si5 0.173733 0.495435 0.912111
Si Si6 0.195027 0.332380 0.112498
Si Si7 0.962593 0.990721 0.103557
Si Si8 0.483741 0.603880 0.134720
O O1 0.925681 0.417739 0.253172
O O2 0.755697 0.621369 0.604510
O O3 0.736748 0.481460 0.341769
O O4 0.173866 0.258966 0.609144
O O5 0.382997 0.989060 0.206892
O O6 0.525901 0.048263 0.432471
O O7 0.581693 0.861035 0.991108
O O8 0.500000 0.500000 0.500000
O O9 0.176321 0.847033 0.699852
O O10 0.639428 0.558245 0.835330
O O11 0.460314 0.623230 0.940007
O O12 0.664315 0.694573 0.218026
O O13 0.204998 0.984088 0.110891
O O14 0.959512 0.627888 0.952418
O O15 0.000000 0.500000 0.000000
O O16 0.244843 0.792954 0.215088
O O17 0.000000 0.000000 0.000000
O O18 0.500000 0.500000 0.000000
#
# Coordination Sequence:
#
# PCOD9082381 Si02
#       8
#     2   2   2   2   2   2   2   2
#     4  10  20  35  58  80 112 144 183 226 280 332
#     4  10  21  35  58  85 108 144 186 228 277 333
#     4   9  20  36  58  82 109 146 190 229 273 331
#     4  10  19  35  57  81 111 144 183 227 279 333
#     4  10  19  35  58  80 111 143 180 228 283 326
#     4  10  19  33  54  83 104 140 186 221 268 329
#     4   9  19  36  57  80 110 150 190 223 272 341
#     4  10  20  36  57  83 111 149 186 225 280 331
#
# _framework density 21.752655000000001
#
# number of rings (size 3 to 8) (size 9 to 14) (size 15 to 20)
#    0.000    2.250    2.500    1.875    0.000    4.000 
#    0.000    1.250   11.000    0.000    0.000    0.000 
#    0.000    0.000    0.000    0.000    0.000    0.000 
#
# Total GULP energy -89168.546831 kJ/mol
# GULP energy per Si atom -5573.034177 kJ/mol
# Density = 2.170314 g / cm^3
# Si number density = 21.752655 Si / 1000 Ang^3
#
#
#
# Elastic Constant Matrix: (Units=GPa)
#
#
# Indices 1 2 3 4 5 6 
#
# 1 100.4839 27.0540 23.2688 3.5055 33.3535 -29.8410
# 2 27.0540 46.2252 24.1594 14.7254 13.3356 -4.5719
# 3 23.2688 24.1594 62.6652 32.9413 20.7930 -12.8963
# 4 3.5055 14.7254 32.9413 38.6252 1.7193 2.4194
# 5 33.3535 13.3356 20.7930 1.7193 38.5597 1.7831
# 6 -29.8410 -4.5719 -12.8963 2.4194 1.7831 32.8248
#
#
#
# Elastic Compliance Matrix: (Units=1/GPa)
#
#
# Indices 1 2 3 4 5 6 
#
# 1 0.033304 -0.009987 0.023911 -0.020486 -0.039273 0.041923
# 2 -0.009987 0.031563 -0.010993 -0.001364 0.004133 -0.009126
# 3 0.023911 -0.010993 0.075796 -0.063679 -0.057587 0.057807
# 4 -0.020486 -0.001364 -0.063679 0.083602 0.051242 -0.052777
# 5 -0.039273 0.004133 -0.057587 0.051242 0.090315 -0.066435
# 6 0.041923 -0.009126 0.057807 -0.052777 -0.066435 0.097516
#
#
# Mechanical properties :
#
#
# Convention : Reuss Voigt Hill
#
# Bulk Modulus (GPa) = 6.82472 39.81541 23.32006
# Shear Modulus (GPa) = 10.98722 30.99477 20.99099
#
# Velocity S-wave (km/s) = 2.24988 3.77884 3.10979
# Velocity P-wave (km/s) = 3.14539 6.11416 4.86192
#
# Compressibility (1/GPa) = 0.14652613
#
# Stress axis : x y z
#
# Youngs Moduli (GPa) = 30.02638 31.68267 13.19338
#
# Poissons Ratio (x) = 0.31641 -0.31547
# Poissons Ratio (y) = 0.29986 0.14503
# Poissons Ratio (z) = -0.71797 0.34828
#
# Static dielectric constant tensor:
#      x y z
#    x 2.025200 -0.061310 -0.041040 
#    y -0.061310 1.868380 0.032920 
#    z -0.041040 0.032920 1.845350 
# 
# From -- ./inp_files/338620.got.cif
#   From: 2010.05.17/outbox.cif.g08.bks.cpg/sg2_170_cif.got.tgz:338620.got - 2010.06.03 11:33:40.
