data_PCOD9082447
_publ_section_title
;
Structure prediction by ZEFSAII (Michael W. Deem and Ramdas Pophale) SiO2 
 PCOD9082447
Probable space group: P -1
;
_chemical_formula_sum "Si O2"
_cell_formula_units_Z 16
_cell_length_a 14.598972
_cell_length_b 5.392397
_cell_length_c 19.440669
_cell_angle_alpha 122.901092
_cell_angle_beta 45.921856
_cell_angle_gamma 111.734664
_cell_volume 923.038733
_symmetry_space_group_name_H-M "P -1"
_symmetry_group_IT_number 2
_symmetry_cell_setting 'triclinic'
loop_
_space_group_symop_operation_xyz
x,y,z
-x,-y,-z
loop_
_atom_site_type_symbol
_atom_site_label
_atom_site_fract_x
_atom_site_fract_y
_atom_site_fract_z
Si Si1 0.495278 0.330922 0.641738
Si Si2 0.418704 0.288472 0.061806
Si Si3 0.326700 0.902198 0.827765
Si Si4 0.995212 0.614986 0.099016
Si Si5 0.845056 0.172174 0.211301
Si Si6 0.739832 0.155393 0.999470
Si Si7 0.506845 0.406996 0.804505
Si Si8 0.615594 0.299928 0.437141
O O1 0.387690 0.586462 0.729407
O O2 0.543876 0.355994 0.698351
O O3 0.608251 0.349941 0.530132
O O4 0.425601 0.029262 0.612630
O O5 0.396178 0.471866 0.171454
O O6 0.500000 0.500000 0.000000
O O7 0.500000 0.000000 0.000000
O O8 0.298606 0.143552 0.064608
O O9 0.246376 0.009217 0.820743
O O10 0.238054 0.905363 0.940702
O O11 0.446882 0.100409 0.813403
O O12 0.923327 0.387465 0.152466
O O13 0.925208 0.933556 0.176410
O O14 0.000000 0.500000 0.000000
O O15 0.136132 0.675338 0.064071
O O16 0.750083 0.351461 0.338441
O O17 0.615193 0.368968 0.096685
O O18 0.500000 0.500000 0.500000
#
# Coordination Sequence:
#
# PCOD9082447 Si02
#       8
#     2   2   2   2   2   2   2   2
#     4  10  20  32  52  81 109 142 175 223 291 327
#     4  10  20  34  54  81 108 143 183 228 276 323
#     4  11  18  32  53  77 112 141 182 221 266 331
#     4  12  25  36  53  76 112 154 192 209 257 323
#     4  12  24  36  52  80 107 150 185 219 258 328
#     4  10  22  34  52  76 114 149 182 223 264 317
#     4  10  19  33  55  79 110 144 180 225 280 333
#     4  11  21  34  54  76 112 144 179 232 284 324
#
# _framework density 17.334050000000001
#
# number of rings (size 3 to 8) (size 9 to 14) (size 15 to 20)
#    0.000    1.250    5.000    1.875    3.500    0.000 
#    0.000    0.000    0.000    0.000    0.000    1.750 
#    0.000    0.000    0.000    0.000    0.000    0.000 
#
# Total GULP energy -89203.126014 kJ/mol
# GULP energy per Si atom -5575.195376 kJ/mol
# Density = 1.729460 g / cm^3
# Si number density = 17.334050 Si / 1000 Ang^3
#
#
#
# Elastic Constant Matrix: (Units=GPa)
#
#
# Indices 1 2 3 4 5 6 
#
# 1 48.6070 18.3600 33.8242 1.0674 16.2350 12.5916
# 2 18.3600 88.4978 38.7908 -1.9823 7.6078 5.5889
# 3 33.8242 38.7908 94.0456 -14.3120 21.8451 7.8134
# 4 1.0674 -1.9823 -14.3120 31.9560 -1.8402 1.1149
# 5 16.2350 7.6078 21.8451 -1.8402 26.1769 5.4667
# 6 12.5916 5.5889 7.8134 1.1149 5.4667 32.5910
#
#
#
# Elastic Compliance Matrix: (Units=1/GPa)
#
#
# Indices 1 2 3 4 5 6 
#
# 1 0.033509 -0.001687 -0.008813 -0.005544 -0.011570 -0.008414
# 2 -0.001687 0.014035 -0.005787 -0.001539 0.001818 -0.000620
# 3 -0.008813 -0.005787 0.019343 0.008070 -0.008621 0.000930
# 4 -0.005544 -0.001539 0.008070 0.035007 -0.000245 -0.000685
# 5 -0.011570 0.001818 -0.008621 -0.000245 0.052566 -0.002584
# 6 -0.008414 -0.000620 0.000930 -0.000685 -0.002584 0.034274
#
#
# Mechanical properties :
#
#
# Convention : Reuss Voigt Hill
#
# Bulk Modulus (GPa) = 29.14382 45.90003 37.52193
# Shear Modulus (GPa) = 21.48268 27.48980 24.48624
#
# Velocity S-wave (km/s) = 3.52424 3.98664 3.76255
# Velocity P-wave (km/s) = 5.78013 6.90856 6.36938
#
# Compressibility (1/GPa) = 0.03431259
#
# Stress axis : x y z
#
# Youngs Moduli (GPa) = 29.84276 71.25188 51.69788
#
# Poissons Ratio (x) = 0.12021 0.45561
# Poissons Ratio (y) = 0.05035 0.29918
# Poissons Ratio (z) = 0.26300 0.41234
#
# Static dielectric constant tensor:
#      x y z
#    x 1.916810 -0.242880 -0.087460 
#    y -0.242880 1.800700 0.056950 
#    z -0.087460 0.056950 1.671460 
# 
# From -- ./inp_files/70667.got.cif
#   From: 2010.05.17/outbox.cif.g08.bks.cpg/sg2_36_cif.got.tgz:70667.got - 2010.06.03 11:33:40.
