data_PCOD9082991
_publ_section_title
;
Structure prediction by ZEFSAII (Michael W. Deem and Ramdas Pophale) SiO2 
 PCOD9082991
Probable space group: P -1
;
_chemical_formula_sum "Si O2"
_cell_formula_units_Z 14
_cell_length_a 8.236441
_cell_length_b 16.302076
_cell_length_c 8.195356
_cell_angle_alpha 52.801418
_cell_angle_beta 127.581354
_cell_angle_gamma 87.651691
_cell_volume 528.450524
_symmetry_space_group_name_H-M "P -1"
_symmetry_group_IT_number 2
_symmetry_cell_setting 'triclinic'
loop_
_space_group_symop_operation_xyz
x,y,z
-x,-y,-z
loop_
_atom_site_type_symbol
_atom_site_label
_atom_site_fract_x
_atom_site_fract_y
_atom_site_fract_z
Si Si1 0.611003 0.613893 0.823099
Si Si2 0.064802 0.602242 0.121245
Si Si3 0.885488 0.364153 0.528236
Si Si4 0.415188 0.071483 0.122071
Si Si5 0.680281 0.079728 0.948690
Si Si6 0.378137 0.698667 0.177241
Si Si7 0.684357 0.154645 0.366272
O O1 0.393826 0.602029 0.638216
O O2 0.438242 0.741832 0.685080
O O3 0.812714 0.471985 0.218556
O O4 0.819965 0.625860 0.854131
O O5 0.008629 0.620531 0.258704
O O6 0.133833 0.697730 0.006939
O O7 0.342368 0.451328 0.446487
O O8 0.111248 0.211357 0.790072
O O9 0.531348 0.081518 0.012926
O O10 0.583849 0.071043 0.369248
O O11 0.424535 0.946611 0.243055
O O12 0.667476 0.205864 0.818891
O O13 0.995308 0.951354 0.302375
O O14 0.399366 0.754749 0.955554
#
# Coordination Sequence:
#
# PCOD9082991 Si02
#       7
#     2   2   2   2   2   2   2
#     4  11  21  35  63  90 112 148 199 239 286 334
#     4  11  22  41  59  85 122 152 186 239 294 344
#     4  11  21  36  61  89 114 148 197 244 279 340
#     4  10  19  33  60  86 112 148 192 237 287 323
#     4  10  21  37  57  90 117 148 197 237 277 349
#     4  10  22  39  61  84 119 157 186 234 297 340
#     4  11  19  38  63  88 113 149 197 243 276 341
#
# _framework density 26.492547999999999
#
# number of rings (size 3 to 8) (size 9 to 14) (size 15 to 20)
#    0.000    1.429    4.286    3.857    0.000    0.000 
#    0.000   10.000    0.000    0.000    0.000    0.000 
#    0.000    0.000    0.000    0.000    0.000    0.000 
#
# Total GULP energy -78475.345059 kJ/mol
# GULP energy per Si atom -5605.381790 kJ/mol
# Density = 2.643225 g / cm^3
# Si number density = 26.492548 Si / 1000 Ang^3
#
#
#
# Elastic Constant Matrix: (Units=GPa)
#
#
# Indices 1 2 3 4 5 6 
#
# 1 63.3123 39.3876 27.2735 2.5383 19.8441 16.8058
# 2 39.3876 170.2836 29.5167 3.3654 7.8070 8.3969
# 3 27.2735 29.5167 60.3864 -2.4825 31.0786 0.7082
# 4 2.5383 3.3654 -2.4825 53.3366 4.6205 7.6904
# 5 19.8441 7.8070 31.0786 4.6205 41.4485 -6.1925
# 6 16.8058 8.3969 0.7082 7.6904 -6.1925 48.3797
#
#
#
# Elastic Compliance Matrix: (Units=1/GPa)
#
#
# Indices 1 2 3 4 5 6 
#
# 1 0.026011 -0.004352 -0.004348 0.001088 -0.009938 -0.009662
# 2 -0.004352 0.007290 -0.003461 -0.000847 0.003532 0.000884
# 3 -0.004348 -0.003461 0.031526 0.004018 -0.021615 -0.001756
# 4 0.001088 -0.000847 0.004018 0.020097 -0.006255 -0.004285
# 5 -0.009938 0.003532 -0.021615 -0.006255 0.046636 0.010119
# 6 -0.009662 0.000884 -0.001756 -0.004285 0.010119 0.025875
#
#
# Mechanical properties :
#
#
# Convention : Reuss Voigt Hill
#
# Bulk Modulus (GPa) = 24.68790 54.03756 39.36273
# Shear Modulus (GPa) = 25.60711 41.81992 33.71351
#
# Velocity S-wave (km/s) = 3.11236 3.97741 3.57117
# Velocity P-wave (km/s) = 4.71749 6.44474 5.64754
#
# Compressibility (1/GPa) = 0.04050568
#
# Stress axis : x y z
#
# Youngs Moduli (GPa) = 38.44486 137.16662 31.72033
#
# Poissons Ratio (x) = 0.59700 0.13791
# Poissons Ratio (y) = 0.16733 0.10978
# Poissons Ratio (z) = 0.16714 0.47471
#
# Static dielectric constant tensor:
#      x y z
#    x 2.133700 0.009890 -0.103390 
#    y 0.009890 2.049800 0.008910 
#    z -0.103390 0.008910 2.040000 
# 
# From -- ./inp_files/260850.got.cif
#   From: 2010.05.17/outbox.cif.g08.bks.cpg/sg2_131_cif.got.tgz:260850.got - 2010.06.03 11:33:40.
