data_PCOD9082050
_publ_section_title
;
Structure prediction by ZEFSAII (Michael W. Deem and Ramdas Pophale) SiO2 
 PCOD9082050
Probable space group: P -1
;
_chemical_formula_sum "Si O2"
_cell_formula_units_Z 14
_cell_length_a 7.164117
_cell_length_b 15.180771
_cell_length_c 7.575223
_cell_angle_alpha 124.119391
_cell_angle_beta 71.628983
_cell_angle_gamma 101.784985
_cell_volume 646.891603
_symmetry_space_group_name_H-M "P -1"
_symmetry_group_IT_number 2
_symmetry_cell_setting 'triclinic'
loop_
_space_group_symop_operation_xyz
x,y,z
-x,-y,-z
loop_
_atom_site_type_symbol
_atom_site_label
_atom_site_fract_x
_atom_site_fract_y
_atom_site_fract_z
Si Si1 0.375915 0.476650 0.786796
Si Si2 0.752674 0.423080 0.398463
Si Si3 0.449864 0.323916 0.877540
Si Si4 0.263216 0.810514 0.948340
Si Si5 0.084951 0.895086 0.772655
Si Si6 0.365098 0.896328 0.388045
Si Si7 0.098233 0.283260 0.182272
O O1 0.597657 0.461680 0.629870
O O2 0.244368 0.497340 0.678477
O O3 0.330726 0.375985 0.811080
O O4 0.386068 0.584561 0.020151
O O5 0.659190 0.308499 0.227481
O O6 0.963893 0.385525 0.359887
O O7 0.658989 0.124694 0.836929
O O8 0.308072 0.307846 0.069510
O O9 0.265609 0.865684 0.817904
O O10 0.457441 0.788228 0.313028
O O11 0.026956 0.784462 0.006192
O O12 0.162939 0.909017 0.568936
O O13 0.929441 0.795580 0.732792
O O14 0.000000 0.000000 0.000000
O O15 0.500000 0.000000 0.500000
#
# Coordination Sequence:
#
# PCOD9082050 Si02
#       7
#     2   2   2   2   2   2   2
#     4  10  19  32  63  79 121 148 191 246 283 343
#     4   8  17  38  52  80 112 160 179 238 295 333
#     4  11  20  35  54  94 109 152 199 237 288 342
#     4   8  20  40  59  81 123 148 193 242 280 355
#     4   9  20  40  59  82 112 155 195 240 287 339
#     4  12  23  38  64  86 117 155 195 240 294 347
#     4   8  19  37  56  75 128 145 192 241 279 353
#
# _framework density 21.641957999999999
#
# number of rings (size 3 to 8) (size 9 to 14) (size 15 to 20)
#    1.714    0.571    1.429    2.571    0.000    2.286 
#    0.000    2.857    0.000    0.000    0.000    0.000 
#    0.000    0.000    0.000    0.000    0.000    0.000 
#
# Total GULP energy -77945.882795 kJ/mol
# GULP energy per Si atom -5567.563057 kJ/mol
# Density = 2.159270 g / cm^3
# Si number density = 21.641958 Si / 1000 Ang^3
#
#
#
# Elastic Constant Matrix: (Units=GPa)
#
#
# Indices 1 2 3 4 5 6 
#
# 1 29.3709 2.4801 9.2271 6.0192 5.2207 -4.6586
# 2 2.4801 53.0422 16.5974 -4.3260 0.5275 -4.3695
# 3 9.2271 16.5974 92.3422 9.9139 4.7153 5.3370
# 4 6.0192 -4.3260 9.9139 32.0761 -1.6135 0.1463
# 5 5.2207 0.5275 4.7153 -1.6135 37.9351 0.6591
# 6 -4.6586 -4.3695 5.3370 0.1463 0.6591 26.3768
#
#
#
# Elastic Compliance Matrix: (Units=1/GPa)
#
#
# Indices 1 2 3 4 5 6 
#
# 1 0.038607 -0.000679 -0.003184 -0.006654 -0.005322 0.007520
# 2 -0.000679 0.020967 -0.004433 0.004329 0.000464 0.004215
# 3 -0.003184 -0.004433 0.012648 -0.003951 -0.001174 -0.003805
# 4 -0.006654 0.004329 -0.003951 0.034371 0.002807 0.000081
# 5 -0.005322 0.000464 -0.001174 0.002807 0.027375 -0.001325
# 6 0.007520 0.004215 -0.003805 0.000081 -0.001325 0.040741
#
#
# Mechanical properties :
#
#
# Convention : Reuss Voigt Hill
#
# Bulk Modulus (GPa) = 17.97565 25.70715 21.84140
# Shear Modulus (GPa) = 23.82701 29.04098 26.43399
#
# Velocity S-wave (km/s) = 3.32168 3.66715 3.49868
# Velocity P-wave (km/s) = 4.79951 5.46212 5.14150
#
# Compressibility (1/GPa) = 0.05563082
#
# Stress axis : x y z
#
# Youngs Moduli (GPa) = 25.90174 47.69291 79.06198
#
# Poissons Ratio (x) = 0.03239 0.25175
# Poissons Ratio (y) = 0.01759 0.35047
# Poissons Ratio (z) = 0.08248 0.21142
#
# Static dielectric constant tensor:
#      x y z
#    x 1.852150 -0.006400 0.047800 
#    y -0.006400 1.843770 0.039420 
#    z 0.047800 0.039420 1.787390 
# 
# From -- ./inp_files/194313.got.cif
#   From: 2010.05.17/outbox.cif.g08.bks.cpg/sg2_98_cif.got.tgz:194313.got - 2010.06.03 11:33:40.
