data_PCOD9082277
_publ_section_title
;
Structure prediction by ZEFSAII (Michael W. Deem and Ramdas Pophale) SiO2 
 PCOD9082277
Probable space group: P -1
;
_chemical_formula_sum "Si O2"
_cell_formula_units_Z 14
_cell_length_a 9.802164
_cell_length_b 14.224513
_cell_length_c 7.960432
_cell_angle_alpha 142.042266
_cell_angle_beta 97.125651
_cell_angle_gamma 70.123835
_cell_volume 621.808676
_symmetry_space_group_name_H-M "P -1"
_symmetry_group_IT_number 2
_symmetry_cell_setting 'triclinic'
loop_
_space_group_symop_operation_xyz
x,y,z
-x,-y,-z
loop_
_atom_site_type_symbol
_atom_site_label
_atom_site_fract_x
_atom_site_fract_y
_atom_site_fract_z
Si Si1 0.812615 0.051483 0.155830
Si Si2 0.491665 0.725181 0.483596
Si Si3 0.889038 0.203726 0.068964
Si Si4 0.908803 0.595656 0.891005
Si Si5 0.199955 0.410080 0.478825
Si Si6 0.102688 0.774110 0.275448
Si Si7 0.339652 0.483155 0.063271
O O1 0.644098 0.098890 0.258085
O O2 0.803781 0.131675 0.083721
O O3 0.878462 0.141183 0.431535
O O4 0.944304 0.870119 0.927926
O O5 0.637810 0.693034 0.568775
O O6 0.423574 0.584459 0.313217
O O7 0.545388 0.684305 0.240953
O O8 0.821557 0.403447 0.325031
O O9 0.894826 0.146386 0.794125
O O10 0.831017 0.669668 0.807553
O O11 0.793078 0.540647 0.892300
O O12 0.066561 0.450799 0.652387
O O13 0.961087 0.722893 0.177871
O O14 0.253298 0.604175 0.066658
#
# Coordination Sequence:
#
# PCOD9082277 Si02
#       7
#     2   2   2   2   2   2   2
#     4  10  22  36  58  84 114 148 183 234 282 326
#     4  10  20  35  53  86 112 139 186 237 280 314
#     4  10  20  37  55  85 112 148 188 227 277 334
#     4  10  20  33  57  86 112 148 183 228 280 335
#     4  10  20  36  57  87 110 143 190 235 270 332
#     4  10  19  36  57  84 109 145 192 228 265 337
#     4  10  19  33  53  84 115 143 177 236 284 323
#
# _framework density 22.514963000000002
#
# number of rings (size 3 to 8) (size 9 to 14) (size 15 to 20)
#    0.000    2.000    2.857    2.571    0.000    2.286 
#    0.000    0.000    0.000   11.143    0.000    0.000 
#    0.000    0.000    0.000    0.000    0.000    0.000 
#
# Total GULP energy -78078.239397 kJ/mol
# GULP energy per Si atom -5577.017100 kJ/mol
# Density = 2.246372 g / cm^3
# Si number density = 22.514963 Si / 1000 Ang^3
#
#
#
# Elastic Constant Matrix: (Units=GPa)
#
#
# Indices 1 2 3 4 5 6 
#
# 1 134.6528 35.7445 14.2576 -17.3320 -13.2445 -19.7166
# 2 35.7445 54.2875 21.4661 -21.0407 -17.0269 14.4445
# 3 14.2576 21.4661 35.5167 -8.4909 -4.8366 -1.2058
# 4 -17.3320 -21.0407 -8.4909 29.4473 -6.7285 -7.1707
# 5 -13.2445 -17.0269 -4.8366 -6.7285 41.7458 -2.1989
# 6 -19.7166 14.4445 -1.2058 -7.1707 -2.1989 38.9589
#
#
#
# Elastic Compliance Matrix: (Units=1/GPa)
#
#
# Indices 1 2 3 4 5 6 
#
# 1 0.011879 -0.009944 0.002569 0.003433 0.001116 0.010473
# 2 -0.009944 0.055886 -0.021003 0.027840 0.020634 -0.020114
# 3 0.002569 -0.021003 0.039765 -0.000162 -0.002636 0.010140
# 4 0.003433 0.027840 -0.000162 0.061994 0.022633 0.004098
# 5 0.001116 0.020634 -0.002636 0.022633 0.036016 -0.000969
# 6 0.010473 -0.020114 0.010140 0.004098 -0.000969 0.039439
#
#
# Mechanical properties :
#
#
# Convention : Reuss Voigt Hill
#
# Bulk Modulus (GPa) = 19.69441 40.82149 30.25795
# Shear Modulus (GPa) = 15.69069 32.22965 23.96017
#
# Velocity S-wave (km/s) = 2.64275 3.78759 3.26573
# Velocity P-wave (km/s) = 4.25187 6.10721 5.26196
#
# Compressibility (1/GPa) = 0.05077583
#
# Stress axis : x y z
#
# Youngs Moduli (GPa) = 84.18061 17.89346 25.14782
#
# Poissons Ratio (x) = 0.17793 -0.06462
# Poissons Ratio (y) = 0.83707 0.52818
# Poissons Ratio (z) = -0.21630 0.37582
#
# Static dielectric constant tensor:
#      x y z
#    x 1.862420 0.019470 0.021620 
#    y 0.019470 1.870330 0.041020 
#    z 0.021620 0.041020 1.966760 
# 
# From -- ./inp_files/175102.got.cif
#   From: 2010.05.17/outbox.cif.g08.bks.cpg/sg2_88_cif.got.tgz:175102.got - 2010.06.03 11:33:40.
