data_PCOD9082111
_publ_section_title
;
Structure prediction by ZEFSAII (Michael W. Deem and Ramdas Pophale) SiO2 
 PCOD9082111
Probable space group: P -1
;
_chemical_formula_sum "Si O2"
_cell_formula_units_Z 16
_cell_length_a 9.892691
_cell_length_b 9.604264
_cell_length_c 7.508525
_cell_angle_alpha 75.132357
_cell_angle_beta 98.228449
_cell_angle_gamma 111.974685
_cell_volume 638.538714
_symmetry_space_group_name_H-M "P -1"
_symmetry_group_IT_number 2
_symmetry_cell_setting 'triclinic'
loop_
_space_group_symop_operation_xyz
x,y,z
-x,-y,-z
loop_
_atom_site_type_symbol
_atom_site_label
_atom_site_fract_x
_atom_site_fract_y
_atom_site_fract_z
Si Si1 0.829084 0.422779 0.478396
Si Si2 0.686693 0.780642 0.820206
Si Si3 0.934410 0.815560 0.573687
Si Si4 0.724603 0.130895 0.761518
Si Si5 0.737537 0.766120 0.247424
Si Si6 0.360888 0.649489 0.853693
Si Si7 0.589448 0.361420 0.733711
Si Si8 0.203272 0.871024 0.835174
O O1 0.764545 0.446497 0.270373
O O2 0.722499 0.450375 0.600605
O O3 0.000000 0.500000 0.500000
O O4 0.795779 0.240902 0.574642
O O5 0.795696 0.772553 0.691800
O O6 0.518411 0.679175 0.790016
O O7 0.689485 0.955678 0.767349
O O8 0.734620 0.750619 0.037927
O O9 0.060060 0.783611 0.720551
O O10 0.000000 0.000000 0.500000
O O11 0.590703 0.186018 0.770615
O O12 0.128489 0.250253 0.610432
O O13 0.823314 0.167967 0.946437
O O14 0.577350 0.657398 0.319970
O O15 0.753552 0.945092 0.227856
O O16 0.329956 0.808508 0.821290
O O17 0.364200 0.587458 0.072493
#
# Coordination Sequence:
#
# PCOD9082111 Si02
#       8
#     2   2   2   2   2   2   2   2
#     4  10  21  33  48  76 103 129 168 215 257 297
#     4  10  19  33  51  78 103 137 167 200 247 303
#     4  10  21  29  45  73 114 142 163 192 239 308
#     4   8  18  31  49  72 107 131 164 207 249 292
#     4   9  17  30  49  71 105 134 165 200 240 297
#     4  10  19  33  56  74  99 134 168 205 257 299
#     4   8  17  32  48  75  97 128 166 210 251 288
#     4   9  18  33  46  77 110 135 162 200 251 301
#
# _framework density 25.057213999999998
#
# number of rings (size 3 to 8) (size 9 to 14) (size 15 to 20)
#    0.750    2.000    0.000    1.500    3.500    8.500 
#    0.000    0.000    0.000    0.000    0.000    7.000 
#    0.000    0.000    0.000    0.000    0.000    0.000 
#
# Total GULP energy -89460.722382 kJ/mol
# GULP energy per Si atom -5591.295149 kJ/mol
# Density = 2.500018 g / cm^3
# Si number density = 25.057214 Si / 1000 Ang^3
#
#
#
# Elastic Constant Matrix: (Units=GPa)
#
#
# Indices 1 2 3 4 5 6 
#
# 1 125.4185 32.2400 56.6984 6.4465 17.1645 9.6908
# 2 32.2400 80.0429 37.1662 9.5276 10.1318 -3.6319
# 3 56.6984 37.1662 93.4659 17.1118 10.1287 19.3896
# 4 6.4465 9.5276 17.1118 38.2368 5.6921 12.1418
# 5 17.1645 10.1318 10.1287 5.6921 47.0760 3.3266
# 6 9.6908 -3.6319 19.3896 12.1418 3.3266 38.8941
#
#
#
# Elastic Compliance Matrix: (Units=1/GPa)
#
#
# Indices 1 2 3 4 5 6 
#
# 1 0.011552 -0.001564 -0.006380 0.001750 -0.002703 -0.000159
# 2 -0.001564 0.016910 -0.006346 -0.002798 -0.001801 0.006160
# 3 -0.006380 -0.006346 0.019264 -0.003657 0.000520 -0.007509
# 4 0.001750 -0.002798 -0.003657 0.031225 -0.002430 -0.008414
# 5 -0.002703 -0.001801 0.000520 -0.002430 0.022864 -0.000951
# 6 -0.000159 0.006160 -0.007509 -0.008414 -0.000951 0.032777
#
#
# Mechanical properties :
#
#
# Convention : Reuss Voigt Hill
#
# Bulk Modulus (GPa) = 52.23114 61.23742 56.73428
# Shear Modulus (GPa) = 29.48884 36.36291 32.92588
#
# Velocity S-wave (km/s) = 3.43426 3.81359 3.62888
# Velocity P-wave (km/s) = 6.05108 6.62445 6.34425
#
# Compressibility (1/GPa) = 0.01914567
#
# Stress axis : x y z
#
# Youngs Moduli (GPa) = 86.56557 59.13541 51.91000
#
# Poissons Ratio (x) = 0.09247 0.33121
# Poissons Ratio (y) = 0.13536 0.32943
# Poissons Ratio (z) = 0.55233 0.37529
#
# Static dielectric constant tensor:
#      x y z
#    x 1.952640 -0.093170 0.008830 
#    y -0.093170 2.044780 0.006640 
#    z 0.008830 0.006640 1.951780 
# 
# From -- ./inp_files/179126.got.cif
#   From: 2010.05.17/outbox.cif.g08.bks.cpg/sg2_90_cif.got.tgz:179126.got - 2010.06.03 11:33:40.
