data_PCOD9082365
_publ_section_title
;
Structure prediction by ZEFSAII (Michael W. Deem and Ramdas Pophale) SiO2 
 PCOD9082365
Probable space group: P -1
;
_chemical_formula_sum "Si O2"
_cell_formula_units_Z 14
_cell_length_a 13.801887
_cell_length_b 9.930728
_cell_length_c 17.097574
_cell_angle_alpha 91.991536
_cell_angle_beta 156.282854
_cell_angle_gamma 76.599128
_cell_volume 817.214758
_symmetry_space_group_name_H-M "P -1"
_symmetry_group_IT_number 2
_symmetry_cell_setting 'triclinic'
loop_
_space_group_symop_operation_xyz
x,y,z
-x,-y,-z
loop_
_atom_site_type_symbol
_atom_site_label
_atom_site_fract_x
_atom_site_fract_y
_atom_site_fract_z
Si Si1 0.312483 0.053337 0.438568
Si Si2 0.563713 0.062253 0.302907
Si Si3 0.006014 0.619976 0.717929
Si Si4 0.768441 0.536154 0.395257
Si Si5 0.209119 0.823474 0.780446
Si Si6 0.693228 0.116969 0.982575
Si Si7 0.483630 0.339523 0.151111
O O1 0.226069 0.227015 0.406910
O O2 0.016318 0.062097 0.205321
O O3 0.500000 0.000000 0.500000
O O4 0.459458 0.947275 0.620925
O O5 0.461329 0.232079 0.197620
O O6 0.895448 0.954318 0.530688
O O7 0.410746 0.984471 0.142384
O O8 0.883601 0.550383 0.563965
O O9 0.177498 0.684230 0.795116
O O10 0.199941 0.490126 0.919399
O O11 0.686197 0.403524 0.328085
O O12 0.000000 0.500000 0.500000
O O13 0.503352 0.704536 0.184738
O O14 0.327226 0.884785 0.937999
O O15 0.392400 0.761569 0.838087
#
# Coordination Sequence:
#
# PCOD9082365 Si02
#       7
#     2   2   2   2   2   2   2
#     4  10  22  42  64  80 103 147 201 247 283 335
#     4  10  22  37  54  86 117 146 188 237 285 335
#     4  10  20  34  55  84 112 144 202 227 267 340
#     4  12  19  32  59  86 118 159 184 217 273 340
#     4  10  19  33  54  81 119 158 189 214 265 349
#     4  10  19  37  58  80 115 147 198 226 271 346
#     4  12  21  33  55  86 124 150 180 237 278 323
#
# _framework density 17.131359
#
# number of rings (size 3 to 8) (size 9 to 14) (size 15 to 20)
#    0.000    1.714    7.143    1.714    0.000    3.429 
#    0.000    0.714    0.000    1.714    0.000    0.000 
#    0.000    0.000    0.000    0.000    0.000    0.000 
#
# Total GULP energy -78127.818018 kJ/mol
# GULP energy per Si atom -5580.558430 kJ/mol
# Density = 1.709237 g / cm^3
# Si number density = 17.131359 Si / 1000 Ang^3
#
#
#
# Elastic Constant Matrix: (Units=GPa)
#
#
# Indices 1 2 3 4 5 6 
#
# 1 122.4705 51.0961 42.1630 -6.8863 -10.5741 -11.3559
# 2 51.0961 71.5231 45.4171 3.1680 -17.9161 3.8821
# 3 42.1630 45.4171 84.1858 4.4288 -26.8328 6.6854
# 4 -6.8863 3.1680 4.4288 32.3359 0.2013 -9.9261
# 5 -10.5741 -17.9161 -26.8328 0.2013 19.5289 -5.2485
# 6 -11.3559 3.8821 6.6854 -9.9261 -5.2485 16.5392
#
#
#
# Elastic Compliance Matrix: (Units=1/GPa)
#
#
# Indices 1 2 3 4 5 6 
#
# 1 0.017932 -0.011414 -0.006515 0.013418 -0.003226 0.024654
# 2 -0.011414 0.029060 -0.005357 -0.009249 0.009145 -0.015142
# 3 -0.006515 -0.005357 0.027987 -0.008184 0.027191 -0.010812
# 4 0.013418 -0.009249 -0.008184 0.049294 -0.001174 0.043903
# 5 -0.003226 0.009145 0.027191 -0.001174 0.099383 0.015480
# 6 0.024654 -0.015142 -0.010812 0.043903 0.015480 0.116576
#
#
# Mechanical properties :
#
#
# Convention : Reuss Voigt Hill
#
# Bulk Modulus (GPa) = 35.20316 61.72576 48.46446
# Shear Modulus (GPa) = 12.61755 22.98102 17.79928
#
# Velocity S-wave (km/s) = 2.71683 3.66657 3.22683
# Velocity P-wave (km/s) = 5.51680 7.35078 6.49881
#
# Compressibility (1/GPa) = 0.02840654
#
# Stress axis : x y z
#
# Youngs Moduli (GPa) = 55.76522 34.41184 35.73033
#
# Poissons Ratio (x) = 0.39279 0.23279
# Poissons Ratio (y) = 0.63652 0.19140
# Poissons Ratio (z) = 0.36333 0.18434
#
# Static dielectric constant tensor:
#      x y z
#    x 1.558680 -0.001510 -0.014430 
#    y -0.001510 1.581620 0.005960 
#    z -0.014430 0.005960 1.598330 
# 
# From -- ./inp_files/134365.got.cif
#   From: 2010.05.17/outbox.cif.g08.bks.cpg/sg2_68_cif.got.tgz:134365.got - 2010.06.03 11:33:40.
