data_PCOD9082352
_publ_section_title
;
Structure prediction by ZEFSAII (Michael W. Deem and Ramdas Pophale) SiO2 
 PCOD9082352
Probable space group: P -1
;
_chemical_formula_sum "Si O2"
_cell_formula_units_Z 14
_cell_length_a 13.500317
_cell_length_b 9.894091
_cell_length_c 17.082610
_cell_angle_alpha 151.044146
_cell_angle_beta 34.841643
_cell_angle_gamma 143.734909
_cell_volume 598.210394
_symmetry_space_group_name_H-M "P -1"
_symmetry_group_IT_number 2
_symmetry_cell_setting 'triclinic'
loop_
_space_group_symop_operation_xyz
x,y,z
-x,-y,-z
loop_
_atom_site_type_symbol
_atom_site_label
_atom_site_fract_x
_atom_site_fract_y
_atom_site_fract_z
Si Si1 0.104053 0.137509 0.876345
Si Si2 0.668089 0.312343 0.348120
Si Si3 0.665144 0.872292 0.822226
Si Si4 0.209023 0.022210 0.380580
Si Si5 0.408058 0.299022 0.641748
Si Si6 0.082286 0.393543 0.181516
Si Si7 0.215325 0.747633 0.920712
O O1 0.263568 0.111826 0.703643
O O2 0.950885 0.824541 0.834477
O O3 0.164026 0.269242 0.990753
O O4 0.995694 0.349567 0.018791
O O5 0.507625 0.178867 0.447318
O O6 0.870278 0.358921 0.277916
O O7 0.667229 0.153974 0.185510
O O8 0.677591 0.653495 0.499334
O O9 0.577761 0.522845 0.692828
O O10 0.745981 0.991914 0.746714
O O11 0.500000 0.000000 0.000000
O O12 0.776255 0.006248 0.894842
O O13 0.203162 0.731300 0.284357
O O14 0.000000 0.000000 0.500000
O O15 0.294643 0.499299 0.777603
#
# Coordination Sequence:
#
# PCOD9082352 Si02
#       7
#     2   2   2   2   2   2   2
#     4  10  20  32  54  80 109 141 176 218 257 317
#     4   9  19  33  56  80 105 136 175 225 265 307
#     4   9  18  32  54  78 104 135 173 218 262 309
#     4   9  17  32  54  77 102 136 174 216 260 309
#     4  10  19  33  54  81 108 137 173 220 269 310
#     4   9  18  34  52  77 109 145 177 207 265 322
#     4  10  19  34  54  83 108 135 179 219 262 311
#
# _framework density 23.403137000000001
#
# number of rings (size 3 to 8) (size 9 to 14) (size 15 to 20)
#    0.000    2.571    0.000    2.571    0.000    2.857 
#    0.000    0.000    0.000   46.286    0.000    2.000 
#    0.000    0.000    0.000    0.000    0.000    0.000 
#
# Total GULP energy -78061.426032 kJ/mol
# GULP energy per Si atom -5575.816145 kJ/mol
# Density = 2.334987 g / cm^3
# Si number density = 23.403137 Si / 1000 Ang^3
#
#
#
# Elastic Constant Matrix: (Units=GPa)
#
#
# Indices 1 2 3 4 5 6 
#
# 1 43.0300 20.3269 0.0683 0.3179 10.1970 -9.2290
# 2 20.3269 115.9009 58.5517 -22.5241 8.3639 -5.5954
# 3 0.0683 58.5517 109.6017 -41.7241 8.9347 -4.1136
# 4 0.3179 -22.5241 -41.7241 55.7668 0.1521 -2.3838
# 5 10.1970 8.3639 8.9347 0.1521 28.4699 -3.9509
# 6 -9.2290 -5.5954 -4.1136 -2.3838 -3.9509 18.1434
#
#
#
# Elastic Compliance Matrix: (Units=1/GPa)
#
#
# Indices 1 2 3 4 5 6 
#
# 1 0.031378 -0.006592 0.005451 0.001835 -0.009162 0.013410
# 2 -0.006592 0.013343 -0.007197 0.000009 0.000597 -0.000739
# 3 0.005451 -0.007197 0.017473 0.010355 -0.004704 0.004851
# 4 0.001835 0.000009 0.010355 0.025938 -0.003217 0.005991
# 5 -0.009162 0.000597 -0.004704 -0.003217 0.040108 0.002769
# 6 0.013410 -0.000739 0.004851 0.005991 0.002769 0.064200
#
#
# Mechanical properties :
#
#
# Convention : Reuss Voigt Hill
#
# Bulk Modulus (GPa) = 21.96914 47.38071 34.67492
# Shear Modulus (GPa) = 22.29264 33.11508 27.70386
#
# Velocity S-wave (km/s) = 3.08969 3.76571 3.44432
# Velocity P-wave (km/s) = 4.70488 6.26074 5.53772
#
# Compressibility (1/GPa) = 0.04551840
#
# Stress axis : x y z
#
# Youngs Moduli (GPa) = 31.86897 74.94602 57.23096
#
# Poissons Ratio (x) = 0.49402 -0.31194
# Poissons Ratio (y) = 0.21007 0.41189
# Poissons Ratio (z) = -0.17371 0.53939
#
# Static dielectric constant tensor:
#      x y z
#    x 1.992190 -0.007400 0.024540 
#    y -0.007400 1.982310 0.068840 
#    z 0.024540 0.068840 1.941770 
# 
# From -- ./inp_files/378067.got.cif
#   From: 2010.05.17/outbox.cif.g08.bks.cpg/sg2_190_cif.got.tgz:378067.got - 2010.06.03 11:33:40.
