data_PCOD9082558
_publ_section_title
;
Structure prediction by ZEFSAII (Michael W. Deem and Ramdas Pophale) SiO2 
 PCOD9082558
Probable space group: P -1
;
_chemical_formula_sum "Si O2"
_cell_formula_units_Z 16
_cell_length_a 13.845781
_cell_length_b 12.553339
_cell_length_c 8.656265
_cell_angle_alpha 112.946009
_cell_angle_beta 78.248063
_cell_angle_gamma 152.542116
_cell_volume 601.921860
_symmetry_space_group_name_H-M "P -1"
_symmetry_group_IT_number 2
_symmetry_cell_setting 'triclinic'
loop_
_space_group_symop_operation_xyz
x,y,z
-x,-y,-z
loop_
_atom_site_type_symbol
_atom_site_label
_atom_site_fract_x
_atom_site_fract_y
_atom_site_fract_z
Si Si1 0.106131 0.801260 0.064210
Si Si2 0.370899 0.273050 0.060954
Si Si3 0.731383 0.696070 0.608956
Si Si4 0.386131 0.157059 0.697769
Si Si5 0.490656 0.146539 0.361202
Si Si6 0.291013 0.696551 0.257011
Si Si7 0.928270 0.551511 0.501776
Si Si8 0.151713 0.297267 0.711955
O O1 0.057150 0.003582 0.343462
O O2 0.195508 0.991479 0.021308
O O3 0.325282 0.991525 0.186385
O O4 0.940903 0.537700 0.890175
O O5 0.290023 0.302723 0.199133
O O6 0.939984 0.682123 0.176033
O O7 0.373299 0.258178 0.865999
O O8 0.500000 0.500000 0.500000
O O9 0.381370 0.498718 0.831304
O O10 0.792750 0.649223 0.458504
O O11 0.466561 0.232780 0.534736
O O12 0.521475 0.203446 0.783810
O O13 0.138597 0.850555 0.582258
O O14 0.725289 0.344485 0.333405
O O15 0.391105 0.929518 0.361470
O O16 0.207940 0.553951 0.362928
O O17 0.000000 0.500000 0.500000
#
# Coordination Sequence:
#
# PCOD9082558 Si02
#       8
#     2   2   2   2   2   2   2   2
#     4  11  22  34  51  82 113 137 178 228 272 318
#     4  10  19  33  56  82 106 139 182 217 262 320
#     4   8  16  30  54  86 108 135 172 217 260 318
#     4  11  20  36  56  74 102 145 185 226 263 313
#     4  11  24  34  51  78 108 145 183 225 277 313
#     4  11  20  36  54  74 104 145 190 224 264 317
#     4  11  19  37  55  70  99 145 192 227 263 315
#     4   9  17  33  54  79 115 138 167 220 270 312
#
# _framework density 26.581524999999999
#
# number of rings (size 3 to 8) (size 9 to 14) (size 15 to 20)
#    0.000    1.750    5.000    1.125    0.000    1.000 
#    0.000    1.250    0.000    0.750    0.000   30.625 
#    0.000    0.000    0.000    0.000    0.000    0.000 
#
# Total GULP energy -89303.678109 kJ/mol
# GULP energy per Si atom -5581.479882 kJ/mol
# Density = 2.652102 g / cm^3
# Si number density = 26.581525 Si / 1000 Ang^3
#
#
#
# Elastic Constant Matrix: (Units=GPa)
#
#
# Indices 1 2 3 4 5 6 
#
# 1 59.7955 11.8108 12.8569 7.0967 2.0759 18.2270
# 2 11.8108 170.7468 44.8628 -4.9669 -0.7518 18.5173
# 3 12.8569 44.8628 86.9423 11.9080 -6.9740 9.7527
# 4 7.0967 -4.9669 11.9080 60.3296 4.2375 12.4779
# 5 2.0759 -0.7518 -6.9740 4.2375 29.7566 -0.4789
# 6 18.2270 18.5173 9.7527 12.4779 -0.4789 36.8221
#
#
#
# Elastic Compliance Matrix: (Units=1/GPa)
#
#
# Indices 1 2 3 4 5 6 
#
# 1 0.020126 0.000228 -0.002217 0.000220 -0.002104 -0.009592
# 2 0.000228 0.007267 -0.003766 0.002114 -0.001072 -0.003500
# 3 -0.002217 -0.003766 0.014499 -0.003250 0.003925 0.000303
# 4 0.000220 0.002114 -0.003250 0.019021 -0.003542 -0.006803
# 5 -0.002104 -0.001072 0.003925 -0.003542 0.035185 0.002199
# 6 -0.009592 -0.003500 0.000303 -0.006803 0.002199 0.035919
#
#
# Mechanical properties :
#
#
# Convention : Reuss Voigt Hill
#
# Bulk Modulus (GPa) = 32.91513 50.72728 41.82120
# Shear Modulus (GPa) = 32.54035 41.91193 37.22614
#
# Velocity S-wave (km/s) = 3.50261 3.97512 3.74632
# Velocity P-wave (km/s) = 5.36352 6.33986 5.87202
#
# Compressibility (1/GPa) = 0.03038117
#
# Stress axis : x y z
#
# Youngs Moduli (GPa) = 49.68694 137.61204 68.96995
#
# Poissons Ratio (x) = -0.03133 0.15288
# Poissons Ratio (y) = -0.01131 0.25977
# Poissons Ratio (z) = 0.11014 0.51830
#
# Static dielectric constant tensor:
#      x y z
#    x 2.197500 0.071760 0.116320 
#    y 0.071760 2.148880 0.039780 
#    z 0.116320 0.039780 2.350290 
# 
# From -- ./inp_files/336560.got.cif
#   From: 2010.05.17/outbox.cif.g08.bks.cpg/sg2_169_cif.got.tgz:336560.got - 2010.06.03 11:33:40.
