data_PCOD9082532
_publ_section_title
;
Structure prediction by ZEFSAII (Michael W. Deem and Ramdas Pophale) SiO2 
 PCOD9082532
Probable space group: P -1
;
_chemical_formula_sum "Si O2"
_cell_formula_units_Z 14
_cell_length_a 14.168530
_cell_length_b 6.789367
_cell_length_c 13.313857
_cell_angle_alpha 104.928444
_cell_angle_beta 27.223053
_cell_angle_gamma 118.237765
_cell_volume 471.989947
_symmetry_space_group_name_H-M "P -1"
_symmetry_group_IT_number 2
_symmetry_cell_setting 'triclinic'
loop_
_space_group_symop_operation_xyz
x,y,z
-x,-y,-z
loop_
_atom_site_type_symbol
_atom_site_label
_atom_site_fract_x
_atom_site_fract_y
_atom_site_fract_z
Si Si1 0.054432 0.854491 0.304796
Si Si2 0.789813 0.963799 0.426332
Si Si3 0.726078 0.315754 0.782800
Si Si4 0.185117 0.912766 0.794775
Si Si5 0.552258 0.589525 0.331552
Si Si6 0.491380 0.544498 0.157336
Si Si7 0.246852 0.718146 0.920338
O O1 0.243544 0.886043 0.217305
O O2 0.007668 0.036908 0.308560
O O3 0.787962 0.688506 0.589271
O O4 0.094445 0.712177 0.158700
O O5 0.839259 0.136389 0.308409
O O6 0.689236 0.680698 0.450993
O O7 0.533671 0.902237 0.707074
O O8 0.536908 0.285186 0.870700
O O9 0.000000 0.500000 0.500000
O O10 0.654192 0.446444 0.950926
O O11 0.443643 0.193382 0.588465
O O12 0.192035 0.797260 0.877781
O O13 0.000000 0.000000 0.000000
O O14 0.568283 0.656778 0.208839
O O15 0.762381 0.526933 0.131811
#
# Coordination Sequence:
#
# PCOD9082532 Si02
#       7
#     2   2   2   2   2   2   2
#     4  10  15  32  54  82 113 147 186 231 279 334
#     4   9  20  37  55  79 113 150 194 232 281 334
#     4   9  16  27  56  89 112 140 189 231 276 344
#     4  12  22  37  57  85 112 152 199 237 278 334
#     4   9  21  37  57  80 119 149 190 234 283 337
#     4   9  17  31  53  86 115 146 186 229 284 340
#     4  10  21  36  57  78 118 150 191 231 288 325
#
# _framework density 29.661650000000002
#
# number of rings (size 3 to 8) (size 9 to 14) (size 15 to 20)
#    0.857    1.429    2.857    0.857    0.000    0.571 
#    0.000    1.429    0.000    0.857    0.000    6.000 
#    0.000    0.000    0.000    0.000    0.000    0.000 
#
# Total GULP energy -78240.295242 kJ/mol
# GULP energy per Si atom -5588.592517 kJ/mol
# Density = 2.959414 g / cm^3
# Si number density = 29.661650 Si / 1000 Ang^3
#
#
#
# Elastic Constant Matrix: (Units=GPa)
#
#
# Indices 1 2 3 4 5 6 
#
# 1 246.9023 61.5930 37.3731 15.6248 -8.3944 -81.0072
# 2 61.5930 138.7063 31.1406 5.8024 10.8231 -25.8423
# 3 37.3731 31.1406 152.6987 26.2249 15.3333 -12.4156
# 4 15.6248 5.8024 26.2249 37.0020 -11.9135 12.8815
# 5 -8.3944 10.8231 15.3333 -11.9135 58.6844 9.2162
# 6 -81.0072 -25.8423 -12.4156 12.8815 9.2162 58.8220
#
#
#
# Elastic Compliance Matrix: (Units=1/GPa)
#
#
# Indices 1 2 3 4 5 6 
#
# 1 0.010765 -0.000822 0.001819 -0.013586 -0.004450 0.018520
# 2 -0.000822 0.008693 -0.000531 -0.002767 -0.002710 0.003605
# 3 0.001819 -0.000531 0.009485 -0.011985 -0.005779 0.007804
# 4 -0.013586 -0.002767 -0.011985 0.061920 0.020427 -0.039216
# 5 -0.004450 -0.002710 -0.005779 0.020427 0.025225 -0.016965
# 6 0.018520 0.003605 0.007804 -0.039216 -0.016965 0.056982
#
#
# Mechanical properties :
#
#
# Convention : Reuss Voigt Hill
#
# Bulk Modulus (GPa) = 33.47443 88.72452 61.09948
# Shear Modulus (GPa) = 27.45811 58.11505 42.78658
#
# Velocity S-wave (km/s) = 3.04585 4.43116 3.80213
# Velocity P-wave (km/s) = 4.86616 7.49382 6.31811
#
# Compressibility (1/GPa) = 0.02987355
#
# Stress axis : x y z
#
# Youngs Moduli (GPa) = 92.89549 115.03892 105.43006
#
# Poissons Ratio (x) = 0.09462 -0.19179
# Poissons Ratio (y) = 0.07641 0.05599
# Poissons Ratio (z) = -0.16899 0.06109
#
# Static dielectric constant tensor:
#      x y z
#    x 2.390000 0.156050 -0.220190 
#    y 0.156050 2.379910 -0.226280 
#    z -0.220190 -0.226280 2.433140 
# 
# From -- ./inp_files/527500.got.cif
#   From: 2010.05.17/outbox.cif.g08.bks.cpg/sg2_264_cif.got.tgz:527500.got - 2010.06.03 11:33:40.
