data_PCOD9082419
_publ_section_title
;
Structure prediction by ZEFSAII (Michael W. Deem and Ramdas Pophale) SiO2 
 PCOD9082419
Probable space group: P -1
;
_chemical_formula_sum "Si O2"
_cell_formula_units_Z 16
_cell_length_a 22.882987
_cell_length_b 14.439737
_cell_length_c 8.188716
_cell_angle_alpha 76.984402
_cell_angle_beta 72.620188
_cell_angle_gamma 14.943427
_cell_volume 643.398288
_symmetry_space_group_name_H-M "P -1"
_symmetry_group_IT_number 2
_symmetry_cell_setting 'triclinic'
loop_
_space_group_symop_operation_xyz
x,y,z
-x,-y,-z
loop_
_atom_site_type_symbol
_atom_site_label
_atom_site_fract_x
_atom_site_fract_y
_atom_site_fract_z
Si Si1 0.563629 0.306789 0.175444
Si Si2 0.105799 0.725509 0.943524
Si Si3 0.324385 0.508771 0.107757
Si Si4 0.097468 0.534247 0.933550
Si Si5 0.764057 0.746434 0.751788
Si Si6 0.826123 0.966416 0.685434
Si Si7 0.694276 0.019635 0.500495
Si Si8 0.878781 0.367920 0.691616
O O1 0.519794 0.290647 0.084813
O O2 0.372183 0.678799 0.187693
O O3 0.835253 0.932645 0.079042
O O4 0.532928 0.302441 0.378978
O O5 0.192812 0.499065 0.876518
O O6 0.309052 0.488006 0.945974
O O7 0.988446 0.869026 0.160016
O O8 0.920258 0.060846 0.856454
O O9 0.293983 0.461949 0.266681
O O10 0.249697 0.238245 0.043492
O O11 0.026351 0.618206 0.774022
O O12 0.635028 0.004835 0.622027
O O13 0.751421 0.655341 0.744574
O O14 0.036576 0.375789 0.640464
O O15 0.700603 0.079034 0.628530
O O16 0.957469 0.844990 0.507312
#
# Coordination Sequence:
#
# PCOD9082419 Si02
#       8
#     2   2   2   2   2   2   2   2
#     4  11  21  33  50  78 111 132 165 209 259 309
#     4   8  16  33  50  69 100 137 171 195 244 312
#     4   9  17  32  53  74 101 135 175 198 251 311
#     4  10  19  33  55  75 102 138 169 208 256 295
#     4   8  16  35  55  68  97 138 178 204 241 311
#     4  11  20  31  50  81 108 129 165 215 256 299
#     4   9  19  33  50  75 102 134 170 212 256 285
#     4   8  17  32  53  74  98 133 172 205 248 294
#
# _framework density 24.867954999999998
#
# number of rings (size 3 to 8) (size 9 to 14) (size 15 to 20)
#    0.750    2.000    1.250    1.500    0.000    1.000 
#    0.000    0.625    0.000    0.000    0.000    1.750 
#    0.000    0.000    0.000    0.000    0.000    0.000 
#
# Total GULP energy -89241.161259 kJ/mol
# GULP energy per Si atom -5577.572579 kJ/mol
# Density = 2.481135 g / cm^3
# Si number density = 24.867955 Si / 1000 Ang^3
#
#
#
# Elastic Constant Matrix: (Units=GPa)
#
#
# Indices 1 2 3 4 5 6 
#
# 1 122.6828 1.7808 4.4046 -5.5154 -0.3583 9.7582
# 2 1.7808 50.7260 21.0187 -19.8066 -14.7125 -6.8593
# 3 4.4046 21.0187 92.2957 -8.6000 -11.0974 15.3451
# 4 -5.5154 -19.8066 -8.6000 31.9234 1.2128 -15.1720
# 5 -0.3583 -14.7125 -11.0974 1.2128 40.8662 -17.2001
# 6 9.7582 -6.8593 15.3451 -15.1720 -17.2001 13.8601
#
#
#
# Elastic Compliance Matrix: (Units=1/GPa)
#
#
# Indices 1 2 3 4 5 6 
#
# 1 0.008118 0.002354 -0.000793 0.003798 0.001664 0.002550
# 2 0.002354 0.001896 0.002912 -0.016641 -0.015363 -0.041225
# 3 -0.000793 0.002912 0.010301 0.008973 0.007846 0.010155
# 4 0.003798 -0.016641 0.008973 0.001904 -0.024019 -0.048566
# 5 0.001664 -0.015363 0.007846 -0.024019 0.007079 -0.034968
# 6 0.002550 -0.041225 0.010155 -0.048566 -0.034968 -0.057849
#
#
# Mechanical properties :
#
#
# Convention : Reuss Voigt Hill
#
# Bulk Modulus (GPa) = 34.17629 35.56807 34.87218
# Shear Modulus (GPa) = -180.23113 33.22998 -73.50057
#
# Velocity S-wave (km/s) = -8.52248 3.65945 -5.44247
# Velocity P-wave (km/s) = 9.11430 5.67356 5.04387
#
# Compressibility (1/GPa) = 0.02926005
#
# Stress axis : x y z
#
# Youngs Moduli (GPa) = 123.17965 527.39770 97.08176
#
# Poissons Ratio (x) = -1.24148 0.07703
# Poissons Ratio (y) = -0.28996 -0.28271
# Poissons Ratio (z) = 0.09774 -1.53583
#
# Static dielectric constant tensor:
#      x y z
#    x 1.946660 0.012290 -0.000620 
#    y 0.012290 2.017140 0.010470 
#    z -0.000620 0.010470 1.997500 
# 
# From -- ./inp_files/310775.got.cif
#   From: 2010.05.17/outbox.cif.g08.bks.cpg/sg2_156_cif.got.tgz:310775.got - 2010.06.03 11:33:40.
