data_PCOD9082261
_publ_section_title
;
Structure prediction by ZEFSAII (Michael W. Deem and Ramdas Pophale) SiO2 
 PCOD9082261
Probable space group: P -1
;
_chemical_formula_sum "Si O2"
_cell_formula_units_Z 16
_cell_length_a 13.738800
_cell_length_b 7.807286
_cell_length_c 7.811285
_cell_angle_alpha 109.629457
_cell_angle_beta 129.137246
_cell_angle_gamma 68.575399
_cell_volume 598.489655
_symmetry_space_group_name_H-M "P -1"
_symmetry_group_IT_number 2
_symmetry_cell_setting 'triclinic'
loop_
_space_group_symop_operation_xyz
x,y,z
-x,-y,-z
loop_
_atom_site_type_symbol
_atom_site_label
_atom_site_fract_x
_atom_site_fract_y
_atom_site_fract_z
Si Si1 0.001496 0.819582 0.332309
Si Si2 0.516096 0.876833 0.712855
Si Si3 0.342163 0.626772 0.824020
Si Si4 0.926787 0.574545 0.764466
Si Si5 0.760048 0.013023 0.979470
Si Si6 0.400378 0.239716 0.848329
Si Si7 0.333016 0.466162 0.400114
Si Si8 0.864782 0.230477 0.894856
O O1 0.051562 0.612180 0.387025
O O2 0.087139 0.829398 0.262042
O O3 0.854278 0.841552 0.115047
O O4 0.000000 0.000000 0.500000
O O5 0.541520 0.683136 0.571172
O O6 0.396324 0.048849 0.677535
O O7 0.573685 0.820038 0.947206
O O8 0.621129 0.976102 0.777520
O O9 0.247225 0.812205 0.842066
O O10 0.305006 0.439268 0.794027
O O11 0.357430 0.598933 0.627011
O O12 0.475117 0.682257 0.051793
O O13 0.777417 0.630638 0.668409
O O14 0.000000 0.500000 0.000000
O O15 0.014334 0.715166 0.854274
O O16 0.819930 0.071069 0.893766
O O17 0.255903 0.595617 0.208866
#
# Coordination Sequence:
#
# PCOD9082261 Si02
#       8
#     2   2   2   2   2   2   2   2
#     4  10  19  33  53  81 113 142 182 229 264 302
#     4  10  20  37  59  76 105 140 183 222 272 328
#     4  10  21  37  58  80 108 135 182 227 275 330
#     4   8  17  34  52  74 110 145 173 208 260 313
#     4  11  20  35  56  78 107 152 185 213 263 332
#     4   9  21  40  56  78 105 143 174 225 286 329
#     4  10  19  35  57  83 105 138 179 226 265 318
#     4  10  20  35  55  79 114 150 181 211 264 323
#
# _framework density 26.733962999999999
#
# number of rings (size 3 to 8) (size 9 to 14) (size 15 to 20)
#    0.000    2.500    0.000    4.875    0.000    1.000 
#    0.000   10.000    0.000    0.000    0.000    0.000 
#    0.000    0.000    0.000    0.000    0.000    0.000 
#
# Total GULP energy -89325.999812 kJ/mol
# GULP energy per Si atom -5582.874988 kJ/mol
# Density = 2.667311 g / cm^3
# Si number density = 26.733963 Si / 1000 Ang^3
#
#
#
# Elastic Constant Matrix: (Units=GPa)
#
#
# Indices 1 2 3 4 5 6 
#
# 1 60.5621 15.9742 2.2098 11.6143 -2.5382 2.9319
# 2 15.9742 152.0551 28.3563 30.3371 -17.1732 -27.1351
# 3 2.2098 28.3563 81.2386 35.9219 -9.1402 -16.1564
# 4 11.6143 30.3371 35.9219 50.2134 -12.0983 -11.5821
# 5 -2.5382 -17.1732 -9.1402 -12.0983 32.5547 10.2339
# 6 2.9319 -27.1351 -16.1564 -11.5821 10.2339 40.1669
#
#
#
# Elastic Compliance Matrix: (Units=1/GPa)
#
#
# Indices 1 2 3 4 5 6 
#
# 1 0.018059 -0.001788 0.001727 -0.005073 0.000109 -0.003321
# 2 -0.001788 0.008403 -0.000576 -0.002841 0.001718 0.004319
# 3 0.001727 -0.000576 0.018756 -0.012846 -0.000785 0.003525
# 4 -0.005073 -0.002841 -0.012846 0.033917 0.006675 0.001363
# 5 0.000109 0.001718 -0.000785 0.006675 0.035900 -0.006385
# 6 -0.003321 0.004319 0.003525 0.001363 -0.006385 0.031494
#
#
# Mechanical properties :
#
#
# Convention : Reuss Voigt Hill
#
# Bulk Modulus (GPa) = 22.75527 42.99295 32.87411
# Shear Modulus (GPa) = 30.77862 41.07469 35.92665
#
# Velocity S-wave (km/s) = 3.39675 3.92398 3.66984
# Velocity P-wave (km/s) = 4.89021 6.05366 5.50277
#
# Compressibility (1/GPa) = 0.04394586
#
# Stress axis : x y z
#
# Youngs Moduli (GPa) = 55.37522 118.99886 53.31556
#
# Poissons Ratio (x) = 0.21273 -0.09210
# Poissons Ratio (y) = 0.09899 0.03071
# Poissons Ratio (z) = -0.09566 0.06854
#
# Static dielectric constant tensor:
#      x y z
#    x 2.103440 -0.020170 0.051790 
#    y -0.020170 2.265320 0.010540 
#    z 0.051790 0.010540 2.172040 
# 
# From -- ./inp_files/206081.got.cif
#   From: 2010.05.17/outbox.cif.g08.bks.cpg/sg2_104_cif.got.tgz:206081.got - 2010.06.03 11:33:40.
