data_PCOD9082357
_publ_section_title
;
Structure prediction by ZEFSAII (Michael W. Deem and Ramdas Pophale) SiO2 
 PCOD9082357
Probable space group: P -1
;
_chemical_formula_sum "Si O2"
_cell_formula_units_Z 16
_cell_length_a 7.734972
_cell_length_b 15.880081
_cell_length_c 10.599257
_cell_angle_alpha 68.152478
_cell_angle_beta 76.697508
_cell_angle_gamma 33.074914
_cell_volume 650.833391
_symmetry_space_group_name_H-M "P -1"
_symmetry_group_IT_number 2
_symmetry_cell_setting 'triclinic'
loop_
_space_group_symop_operation_xyz
x,y,z
-x,-y,-z
loop_
_atom_site_type_symbol
_atom_site_label
_atom_site_fract_x
_atom_site_fract_y
_atom_site_fract_z
Si Si1 0.434292 0.338737 0.376903
Si Si2 0.234703 0.186196 0.721341
Si Si3 0.524095 0.486328 0.788824
Si Si4 0.728829 0.038945 0.389513
Si Si5 0.610940 0.262906 0.941030
Si Si6 0.078813 0.232304 0.427032
Si Si7 0.327640 0.352355 0.667150
Si Si8 0.723058 0.026916 0.123437
O O1 0.505408 0.394136 0.244450
O O2 0.670130 0.157241 0.402983
O O3 0.442937 0.352551 0.519316
O O4 0.058441 0.471307 0.351704
O O5 0.155644 0.217588 0.568588
O O6 0.381424 0.221049 0.710153
O O7 0.886413 0.327402 0.765514
O O8 0.414871 0.016888 0.824996
O O9 0.494575 0.411129 0.926065
O O10 0.257702 0.591865 0.665012
O O11 0.368295 0.158401 0.349308
O O12 0.888519 0.973679 0.262369
O O13 0.877083 0.894615 0.526156
O O14 0.488252 0.314061 0.789689
O O15 0.509535 0.207987 0.042262
O O16 0.999673 0.093716 0.962807
#
# Coordination Sequence:
#
# PCOD9082357 Si02
#       8
#     2   2   2   2   2   2   2   2
#     4  10  21  34  52  86 116 135 175 222 280 323
#     4   9  18  34  56  82 108 136 180 227 269 312
#     4  10  21  32  55  79 110 144 181 222 262 319
#     4  10  20  36  53  77 116 142 171 225 276 322
#     4  10  21  38  58  79 105 145 193 218 259 314
#     4  10  19  33  54  81 110 142 174 221 276 327
#     4  10  20  33  57  83 110 141 174 230 267 320
#     4   9  21  39  57  78 107 147 184 223 259 321
#
# _framework density 24.583863000000001
#
# number of rings (size 3 to 8) (size 9 to 14) (size 15 to 20)
#    0.000    2.250    1.250    1.125    8.750    1.000 
#    0.000    3.125    0.000    0.000    0.000    0.000 
#    0.000    0.000    0.000    0.000    0.000    0.000 
#
# Total GULP energy -89289.793549 kJ/mol
# GULP energy per Si atom -5580.612097 kJ/mol
# Density = 2.452791 g / cm^3
# Si number density = 24.583863 Si / 1000 Ang^3
#
#
#
# Elastic Constant Matrix: (Units=GPa)
#
#
# Indices 1 2 3 4 5 6 
#
# 1 82.0522 32.7905 24.5478 -22.6084 -32.5712 17.7851
# 2 32.7905 46.7188 26.6488 -23.6056 -26.0769 30.8427
# 3 24.5478 26.6488 85.4591 -23.8846 -33.6287 14.2108
# 4 -22.6084 -23.6056 -23.8846 32.9746 22.9582 -17.6939
# 5 -32.5712 -26.0769 -33.6287 22.9582 41.6252 -20.9345
# 6 17.7851 30.8427 14.2108 -17.6939 -20.9345 37.6511
#
#
#
# Elastic Compliance Matrix: (Units=1/GPa)
#
#
# Indices 1 2 3 4 5 6 
#
# 1 0.020545 -0.012954 0.002410 0.001892 0.012925 0.008072
# 2 -0.012954 0.067754 -0.007580 0.013295 -0.001947 -0.041357
# 3 0.002410 -0.007580 0.018708 0.004349 0.013715 0.007679
# 4 0.001892 0.013295 0.004349 0.058315 -0.016395 0.004863
# 5 0.012925 -0.001947 0.013715 -0.016395 0.061489 0.016796
# 6 0.008072 -0.041357 0.007679 0.004863 0.016796 0.065351
#
#
# Mechanical properties :
#
#
# Convention : Reuss Voigt Hill
#
# Bulk Modulus (GPa) = 14.13225 42.46715 28.29970
# Shear Modulus (GPa) = 14.20465 31.13305 22.66885
#
# Velocity S-wave (km/s) = 2.40636 3.56251 3.03991
# Velocity P-wave (km/s) = 3.67176 5.85098 4.88445
#
# Compressibility (1/GPa) = 0.07076015
#
# Stress axis : x y z
#
# Youngs Moduli (GPa) = 48.67319 14.75921 53.45202
#
# Poissons Ratio (x) = 0.19119 -0.12884
# Poissons Ratio (y) = 0.63052 0.40517
# Poissons Ratio (z) = -0.11732 0.11188
#
# Static dielectric constant tensor:
#      x y z
#    x 2.030730 0.046330 -0.050720 
#    y 0.046330 1.972860 -0.023110 
#    z -0.050720 -0.023110 1.960470 
# 
# From -- ./inp_files/258921.got.cif
#   From: 2010.05.17/outbox.cif.g08.bks.cpg/sg2_130_cif.got.tgz:258921.got - 2010.06.03 11:33:40.
