data_PCOD9082749
_publ_section_title
;
Structure prediction by ZEFSAII (Michael W. Deem and Ramdas Pophale) SiO2 
 PCOD9082749
Probable space group: P -1
;
_chemical_formula_sum "Si O2"
_cell_formula_units_Z 14
_cell_length_a 8.905770
_cell_length_b 9.011176
_cell_length_c 15.866630
_cell_angle_alpha 58.409060
_cell_angle_beta 119.320901
_cell_angle_gamma 149.617149
_cell_volume 546.462945
_symmetry_space_group_name_H-M "P -1"
_symmetry_group_IT_number 2
_symmetry_cell_setting 'triclinic'
loop_
_space_group_symop_operation_xyz
x,y,z
-x,-y,-z
loop_
_atom_site_type_symbol
_atom_site_label
_atom_site_fract_x
_atom_site_fract_y
_atom_site_fract_z
Si Si1 0.734477 0.868236 0.053309
Si Si2 0.389621 0.690817 0.416208
Si Si3 0.560174 0.887776 0.639485
Si Si4 0.350787 0.224889 0.129924
Si Si5 0.834931 0.696151 0.378784
Si Si6 0.092348 0.776435 0.712362
Si Si7 0.495850 0.242359 0.804715
O O1 0.639016 0.585439 0.107312
O O2 0.552644 0.813361 0.092655
O O3 0.686305 0.888827 0.938443
O O4 0.081207 0.141182 0.089907
O O5 0.431913 0.899194 0.421213
O O6 0.301562 0.460835 0.521472
O O7 0.108224 0.485111 0.336432
O O8 0.701186 0.931178 0.379469
O O9 0.810300 0.007358 0.613328
O O10 0.636741 0.895123 0.753745
O O11 0.255597 0.543913 0.632301
O O12 0.709956 0.763514 0.279103
O O13 0.820345 0.570573 0.765625
O O14 0.361244 0.968147 0.796680
#
# Coordination Sequence:
#
# PCOD9082749 Si02
#       7
#     2   2   2   2   2   2   2
#     4  10  19  34  56  88 116 135 175 233 286 348
#     4  11  24  40  54  80 117 155 199 219 267 337
#     4  12  21  38  59  85 118 147 181 232 286 342
#     4  10  19  33  57  87 115 141 171 224 301 335
#     4  12  23  35  60  88 111 148 184 242 288 323
#     4  10  24  39  57  77 110 162 192 232 266 321
#     4  11  20  37  59  82 114 141 191 238 281 325
#
# _framework density 25.619306999999999
#
# number of rings (size 3 to 8) (size 9 to 14) (size 15 to 20)
#    0.000    1.143    2.857    4.286    0.000    3.429 
#    0.000    0.000    0.000    5.143    0.000    0.000 
#    0.000    0.000    0.000    0.000    0.000    0.000 
#
# Total GULP energy -78127.037201 kJ/mol
# GULP energy per Si atom -5580.502657 kJ/mol
# Density = 2.556100 g / cm^3
# Si number density = 25.619307 Si / 1000 Ang^3
#
#
#
# Elastic Constant Matrix: (Units=GPa)
#
#
# Indices 1 2 3 4 5 6 
#
# 1 52.7407 23.3179 29.4291 -9.2245 -13.3909 7.2723
# 2 23.3179 122.2680 12.6001 0.7317 -11.5714 9.3731
# 3 29.4291 12.6001 107.8022 -0.9583 -34.4415 16.6789
# 4 -9.2245 0.7317 -0.9583 28.6422 -0.0014 -23.7622
# 5 -13.3909 -11.5714 -34.4415 -0.0014 50.4490 -8.1107
# 6 7.2723 9.3731 16.6789 -23.7622 -8.1107 37.4411
#
#
#
# Elastic Compliance Matrix: (Units=1/GPa)
#
#
# Indices 1 2 3 4 5 6 
#
# 1 0.028004 -0.005292 -0.007798 0.018724 0.002801 0.011850
# 2 -0.005292 0.009652 0.001517 -0.007329 0.000793 -0.006544
# 3 -0.007798 0.001517 0.015035 -0.011525 0.006706 -0.011425
# 4 0.018724 -0.007329 -0.011525 0.094081 0.005759 0.064288
# 5 0.002801 0.000793 0.006706 0.005759 0.026227 0.005607
# 6 0.011850 -0.006544 -0.011425 0.064288 0.005607 0.073150
#
#
# Mechanical properties :
#
#
# Convention : Reuss Voigt Hill
#
# Bulk Modulus (GPa) = 33.84703 45.94499 39.89601
# Shear Modulus (GPa) = 17.91185 37.80405 27.85795
#
# Velocity S-wave (km/s) = 2.64702 3.84553 3.30112
# Velocity P-wave (km/s) = 4.75211 6.13923 5.48966
#
# Compressibility (1/GPa) = 0.02954469
#
# Stress axis : x y z
#
# Youngs Moduli (GPa) = 35.70893 103.60244 66.51015
#
# Poissons Ratio (x) = 0.54831 0.51867
# Poissons Ratio (y) = 0.18899 -0.10091
# Poissons Ratio (z) = 0.27847 -0.15719
#
# Static dielectric constant tensor:
#      x y z
#    x 2.088720 -0.053200 -0.055460 
#    y -0.053200 1.934740 0.022160 
#    z -0.055460 0.022160 2.021580 
# 
# From -- ./inp_files/128536.got.cif
#   From: 2010.05.17/outbox.cif.g08.bks.cpg/sg2_65_cif.got.tgz:128536.got - 2010.06.03 11:33:40.
