data_PCOD9082979
_publ_section_title
;
Structure prediction by ZEFSAII (Michael W. Deem and Ramdas Pophale) SiO2 
 PCOD9082979
Probable space group: P -1
;
_chemical_formula_sum "Si O2"
_cell_formula_units_Z 16
_cell_length_a 12.604397
_cell_length_b 9.748446
_cell_length_c 7.746207
_cell_angle_alpha 106.030589
_cell_angle_beta 106.593163
_cell_angle_gamma 38.773045
_cell_volume 568.957160
_symmetry_space_group_name_H-M "P -1"
_symmetry_group_IT_number 2
_symmetry_cell_setting 'triclinic'
loop_
_space_group_symop_operation_xyz
x,y,z
-x,-y,-z
loop_
_atom_site_type_symbol
_atom_site_label
_atom_site_fract_x
_atom_site_fract_y
_atom_site_fract_z
Si Si1 0.211627 0.474639 0.532002
Si Si2 0.284874 0.104411 0.565325
Si Si3 0.608974 0.805748 0.849163
Si Si4 0.445604 0.708441 0.282382
Si Si5 0.645638 0.263579 0.145572
Si Si6 0.160765 0.200705 0.899274
Si Si7 0.993879 0.072455 0.326502
Si Si8 0.821346 0.369320 0.817889
O O1 0.226027 0.291659 0.482006
O O2 0.383230 0.363087 0.663835
O O3 0.045809 0.720241 0.615976
O O4 0.217884 0.533354 0.361105
O O5 0.153565 0.260894 0.719902
O O6 0.479424 0.933668 0.671824
O O7 0.311892 0.926704 0.414808
O O8 0.662701 0.606470 0.906314
O O9 0.778157 0.741820 0.916380
O O10 0.500000 0.000000 0.000000
O O11 0.517825 0.479250 0.282794
O O12 0.397053 0.728070 0.068837
O O13 0.819937 0.184231 0.201360
O O14 0.701575 0.057546 0.171245
O O15 0.996619 0.276485 0.915706
O O16 0.000000 0.000000 0.500000
O O17 0.144128 0.832188 0.224521
#
# Coordination Sequence:
#
# PCOD9082979 Si02
#       8
#     2   2   2   2   2   2   2   2
#     4  10  19  33  60  84 112 153 195 239 286 345
#     4  11  22  35  57  89 120 154 191 246 295 342
#     4  10  21  37  58  89 119 148 194 246 288 345
#     4  10  19  34  57  88 115 152 205 243 290 345
#     4   9  19  34  57  85 115 156 198 245 285 343
#     4  10  22  37  55  86 121 154 194 239 292 353
#     4   8  17  34  57  88 109 146 202 237 277 349
#     4  10  19  36  61  85 111 161 191 236 296 345
#
# _framework density 28.121624000000001
#
# number of rings (size 3 to 8) (size 9 to 14) (size 15 to 20)
#    0.000    2.250    1.250    1.500    1.750    1.000 
#    0.000    0.000    0.000    3.000    0.000    0.000 
#    0.000    0.000    0.000    0.000    0.000    0.000 
#
# Total GULP energy -89326.409868 kJ/mol
# GULP energy per Si atom -5582.900617 kJ/mol
# Density = 2.805762 g / cm^3
# Si number density = 28.121624 Si / 1000 Ang^3
#
#
#
# Elastic Constant Matrix: (Units=GPa)
#
#
# Indices 1 2 3 4 5 6 
#
# 1 55.0775 25.9228 29.8205 12.6289 15.8108 10.4272
# 2 25.9228 172.3276 29.8672 42.7396 17.8579 10.8587
# 3 29.8205 29.8672 161.8961 3.5420 27.4462 7.1779
# 4 12.6289 42.7396 3.5420 47.7555 -0.2489 12.0883
# 5 15.8108 17.8579 27.4462 -0.2489 47.1072 8.8393
# 6 10.4272 10.8587 7.1779 12.0883 8.8393 55.4055
#
#
#
# Elastic Compliance Matrix: (Units=1/GPa)
#
#
# Indices 1 2 3 4 5 6 
#
# 1 0.023223 -0.001231 -0.002979 -0.004351 -0.005248 -0.001957
# 2 -0.001231 0.008059 -0.000733 -0.007011 -0.002375 0.000656
# 3 -0.002979 -0.000733 0.007350 0.000872 -0.003008 0.000042
# 4 -0.004351 -0.007011 0.000872 0.029626 0.004730 -0.005139
# 5 -0.005248 -0.002375 -0.003008 0.004730 0.026302 -0.003386
# 6 -0.001957 0.000656 0.000042 -0.005139 -0.003386 0.019944
#
#
# Mechanical properties :
#
#
# Convention : Reuss Voigt Hill
#
# Bulk Modulus (GPa) = 34.78776 62.28023 48.53400
# Shear Modulus (GPa) = 37.32144 50.29969 43.81056
#
# Velocity S-wave (km/s) = 3.64695 4.23383 3.95130
# Velocity P-wave (km/s) = 5.48917 6.78935 6.17358
#
# Compressibility (1/GPa) = 0.02874574
#
# Stress axis : x y z
#
# Youngs Moduli (GPa) = 43.06077 124.09039 136.06029
#
# Poissons Ratio (x) = 0.15274 0.40530
# Poissons Ratio (y) = 0.05300 0.09974
# Poissons Ratio (z) = 0.12827 0.09097
#
# Static dielectric constant tensor:
#      x y z
#    x 2.429040 -0.045980 0.053620 
#    y -0.045980 2.711410 0.261050 
#    z 0.053620 0.261050 2.562640 
# 
# From -- ./inp_files/332398.got.cif
#   From: 2010.05.17/outbox.cif.g08.bks.cpg/sg2_167_cif.got.tgz:332398.got - 2010.06.03 11:33:40.
