data_PCOD9082910
_publ_section_title
;
Structure prediction by ZEFSAII (Michael W. Deem and Ramdas Pophale) SiO2 
 PCOD9082910
Probable space group: P -1
;
_chemical_formula_sum "Si O2"
_cell_formula_units_Z 14
_cell_length_a 31.201949
_cell_length_b 15.330889
_cell_length_c 8.767635
_cell_angle_alpha 41.745673
_cell_angle_beta 34.442826
_cell_angle_gamma 14.102295
_cell_volume 532.226533
_symmetry_space_group_name_H-M "P -1"
_symmetry_group_IT_number 2
_symmetry_cell_setting 'triclinic'
loop_
_space_group_symop_operation_xyz
x,y,z
-x,-y,-z
loop_
_atom_site_type_symbol
_atom_site_label
_atom_site_fract_x
_atom_site_fract_y
_atom_site_fract_z
Si Si1 0.030879 0.912221 0.195648
Si Si2 0.851052 0.613342 0.778419
Si Si3 0.725308 0.238333 0.330159
Si Si4 0.769536 0.678361 0.284383
Si Si5 0.744273 0.423999 0.631199
Si Si6 0.302377 0.217920 0.313034
Si Si7 0.301446 0.794634 0.881908
O O1 0.090829 0.664006 0.369739
O O2 0.239083 0.669478 0.944063
O O3 0.802318 0.326892 0.409051
O O4 0.000000 0.000000 0.000000
O O5 0.718875 0.827810 0.723737
O O6 0.000000 0.500000 0.500000
O O7 0.744623 0.766335 0.063798
O O8 0.031303 0.204575 0.751700
O O9 0.504360 0.555560 0.656928
O O10 0.708275 0.181088 0.302731
O O11 0.676352 0.679526 0.548724
O O12 0.671989 0.892362 0.451817
O O13 0.038640 0.249323 0.090461
O O14 0.638321 0.455270 0.933928
O O15 0.000000 0.000000 0.500000
O O16 0.500000 0.000000 0.000000
#
# Coordination Sequence:
#
# PCOD9082910 Si02
#       7
#     2   2   2   2   2   2   2
#     4  12  20  39  67  91 130 166 222 275 327 388
#     4  11  25  45  62  94 140 185 219 280 345 403
#     4  10  19  35  63  95 126 165 217 271 329 388
#     4  10  20  42  68  91 137 179 222 276 343 399
#     4  10  15  33  62  93 118 165 207 265 326 379
#     4  12  26  42  69 102 132 181 233 275 333 414
#     4   9  17  31  61  98 121 159 212 265 329 394
#
# _framework density 26.304590999999999
#
# number of rings (size 3 to 8) (size 9 to 14) (size 15 to 20)
#    0.000    1.429    8.571    0.000    0.000    5.714 
#    0.000    4.286    0.000    0.000    0.000    0.000 
#    0.000    0.000    0.000    0.000    0.000    0.000 
#
# Total GULP energy -78001.475467 kJ/mol
# GULP energy per Si atom -5571.533962 kJ/mol
# Density = 2.624472 g / cm^3
# Si number density = 26.304591 Si / 1000 Ang^3
#
#
#
# Elastic Constant Matrix: (Units=GPa)
#
#
# Indices 1 2 3 4 5 6 
#
# 1 150.1276 26.9071 72.5116 -5.8143 35.1813 -5.4207
# 2 26.9071 63.5920 9.7597 -11.2013 4.3612 2.7378
# 3 72.5116 9.7597 139.9246 -2.4423 11.2959 4.6651
# 4 -5.8143 -11.2013 -2.4423 32.8731 3.3666 -8.5543
# 5 35.1813 4.3612 11.2959 3.3666 45.0900 -10.9245
# 6 -5.4207 2.7378 4.6651 -8.5543 -10.9245 35.9441
#
#
#
# Elastic Compliance Matrix: (Units=1/GPa)
#
#
# Indices 1 2 3 4 5 6 
#
# 1 0.011561 -0.003373 -0.005166 0.001468 -0.007317 0.000797
# 2 -0.003373 0.018029 0.000590 0.005412 0.000187 -0.000614
# 3 -0.005166 0.000590 0.009745 -0.000595 0.001119 -0.001890
# 4 0.001468 0.005412 -0.000595 0.034650 -0.002306 0.007432
# 5 -0.007317 0.000187 0.001119 -0.002306 0.029493 0.007152
# 6 0.000797 -0.000614 -0.001890 0.007432 0.007152 0.032176
#
#
# Mechanical properties :
#
#
# Convention : Reuss Voigt Hill
#
# Bulk Modulus (GPa) = 42.66743 63.55567 53.11155
# Shear Modulus (GPa) = 31.37499 39.07916 35.22707
#
# Velocity S-wave (km/s) = 3.45738 3.85858 3.66348
# Velocity P-wave (km/s) = 5.67395 6.63818 6.17491
#
# Compressibility (1/GPa) = 0.02343708
#
# Stress axis : x y z
#
# Youngs Moduli (GPa) = 86.49823 55.46769 102.61625
#
# Poissons Ratio (x) = 0.18707 0.53013
# Poissons Ratio (y) = 0.29173 -0.06055
# Poissons Ratio (z) = 0.44686 -0.03273
#
# Static dielectric constant tensor:
#      x y z
#    x 2.295990 -0.113470 -0.017020 
#    y -0.113470 2.353330 0.086000 
#    z -0.017020 0.086000 2.151560 
# 
# From -- ./inp_files/358678.got.cif
#   From: 2010.05.17/outbox.cif.g08.bks.cpg/sg2_180_cif.got.tgz:358678.got - 2010.06.03 11:33:40.
