data_PCOD9082067
_publ_section_title
;
Structure prediction by ZEFSAII (Michael W. Deem and Ramdas Pophale) SiO2 
 PCOD9082067
Probable space group: P -1
;
_chemical_formula_sum "Si O2"
_cell_formula_units_Z 14
_cell_length_a 7.603108
_cell_length_b 21.500128
_cell_length_c 9.046544
_cell_angle_alpha 142.505191
_cell_angle_beta 103.777225
_cell_angle_gamma 49.954495
_cell_volume 559.156829
_symmetry_space_group_name_H-M "P -1"
_symmetry_group_IT_number 2
_symmetry_cell_setting 'triclinic'
loop_
_space_group_symop_operation_xyz
x,y,z
-x,-y,-z
loop_
_atom_site_type_symbol
_atom_site_label
_atom_site_fract_x
_atom_site_fract_y
_atom_site_fract_z
Si Si1 0.087694 0.753335 0.465121
Si Si2 0.623764 0.210945 0.821143
Si Si3 0.639154 0.298856 0.303875
Si Si4 0.161046 0.064010 0.515787
Si Si5 0.684735 0.566713 0.083769
Si Si6 0.844057 0.606054 0.469368
Si Si7 0.061318 0.638631 0.815986
O O1 0.104075 0.787303 0.699418
O O2 0.384675 0.660793 0.273944
O O3 0.840929 0.903749 0.595082
O O4 0.990705 0.565343 0.755014
O O5 0.377660 0.365791 0.965057
O O6 0.892276 0.105231 0.565820
O O7 0.597444 0.107055 0.680339
O O8 0.687082 0.251704 0.055301
O O9 0.464706 0.278526 0.298482
O O10 0.402614 0.491858 0.629547
O O11 0.086586 0.198883 0.843189
O O12 0.791627 0.609622 0.294184
O O13 0.882315 0.381557 0.784098
O O14 0.018726 0.354279 0.354771
#
# Coordination Sequence:
#
# PCOD9082067 Si02
#       7
#     2   2   2   2   2   2   2
#     4   9  15  27  50  67  91 122 169 184 221 274
#     4  10  21  30  46  72 108 118 145 193 256 271
#     4   9  17  30  48  75  93 120 156 202 227 271
#     4  10  19  33  47  71  97 132 147 189 238 291
#     4   9  15  29  47  72  90 125 155 194 225 283
#     4   8  16  31  54  69  87 121 170 195 217 269
#     4   9  16  31  55  68  88 122 172 189 220 272
#
# _framework density 25.037700000000001
#
# number of rings (size 3 to 8) (size 9 to 14) (size 15 to 20)
#    0.857    2.000    1.429    1.714    0.000    2.857 
#    0.000    2.143    0.000    0.000    0.000    0.000 
#    0.000    0.000    0.000    0.000    0.000    0.000 
#
# Total GULP energy -78203.110847 kJ/mol
# GULP energy per Si atom -5585.936489 kJ/mol
# Density = 2.498071 g / cm^3
# Si number density = 25.037700 Si / 1000 Ang^3
#
#
#
# Elastic Constant Matrix: (Units=GPa)
#
#
# Indices 1 2 3 4 5 6 
#
# 1 68.8047 45.2884 12.8387 2.8028 4.3595 11.1757
# 2 45.2884 192.9229 57.6652 -41.3337 32.0626 23.0532
# 3 12.8387 57.6652 62.3357 -14.8189 23.3365 10.1774
# 4 2.8028 -41.3337 -14.8189 47.3936 -2.6775 8.6670
# 5 4.3595 32.0626 23.3365 -2.6775 39.5852 -1.0668
# 6 11.1757 23.0532 10.1774 8.6670 -1.0668 34.6721
#
#
#
# Elastic Compliance Matrix: (Units=1/GPa)
#
#
# Indices 1 2 3 4 5 6 
#
# 1 0.018724 -0.005955 -0.000928 -0.006408 0.002871 -0.000114
# 2 -0.005955 0.011959 -0.003614 0.010726 -0.006386 -0.007849
# 3 -0.000928 -0.003614 0.026827 0.005865 -0.012578 -0.007025
# 4 -0.006408 0.010726 0.005865 0.035027 -0.009497 -0.015836
# 5 0.002871 -0.006386 -0.012578 -0.009497 0.037174 0.010530
# 6 -0.000114 -0.007849 -0.007025 -0.015836 0.010530 0.040442
#
#
# Mechanical properties :
#
#
# Convention : Reuss Voigt Hill
#
# Bulk Modulus (GPa) = 27.38487 61.73866 44.56177
# Shear Modulus (GPa) = 24.59202 38.21492 31.40347
#
# Velocity S-wave (km/s) = 3.13741 3.91102 3.54538
# Velocity P-wave (km/s) = 4.90771 6.71614 5.88185
#
# Compressibility (1/GPa) = 0.03651651
#
# Stress axis : x y z
#
# Youngs Moduli (GPa) = 53.40759 83.61974 37.27602
#
# Poissons Ratio (x) = 0.49792 0.03458
# Poissons Ratio (y) = 0.31802 0.13473
# Poissons Ratio (z) = 0.04954 0.30224
#
# Static dielectric constant tensor:
#      x y z
#    x 2.043850 -0.001510 -0.060100 
#    y -0.001510 2.005290 0.014010 
#    z -0.060100 0.014010 1.997680 
# 
# From -- ./inp_files/285367.got.cif
#   From: 2010.05.17/outbox.cif.g08.bks.cpg/sg2_143_cif.got.tgz:285367.got - 2010.06.03 11:33:40.
