data_PCOD9082107
_publ_section_title
;
Structure prediction by ZEFSAII (Michael W. Deem and Ramdas Pophale) SiO2 
 PCOD9082107
Probable space group: P -1
;
_chemical_formula_sum "Si O2"
_cell_formula_units_Z 14
_cell_length_a 12.279089
_cell_length_b 12.759723
_cell_length_c 11.614407
_cell_angle_alpha 53.140909
_cell_angle_beta 55.591943
_cell_angle_gamma 23.474039
_cell_volume 579.334007
_symmetry_space_group_name_H-M "P -1"
_symmetry_group_IT_number 2
_symmetry_cell_setting 'triclinic'
loop_
_space_group_symop_operation_xyz
x,y,z
-x,-y,-z
loop_
_atom_site_type_symbol
_atom_site_label
_atom_site_fract_x
_atom_site_fract_y
_atom_site_fract_z
Si Si1 0.204602 0.751761 0.454814
Si Si2 0.367562 0.811443 0.943564
Si Si3 0.309480 0.919422 0.161004
Si Si4 0.182138 0.674841 0.165678
Si Si5 0.901248 0.414069 0.249516
Si Si6 0.851985 0.699227 0.623516
Si Si7 0.385292 0.273603 0.439419
O O1 0.500000 0.500000 0.500000
O O2 0.228847 0.834548 0.281800
O O3 0.126642 0.667571 0.574299
O O4 0.000000 0.000000 0.500000
O O5 0.351773 0.903754 0.010699
O O6 0.248719 0.769126 0.065182
O O7 0.666350 0.518281 0.909243
O O8 0.143274 0.064077 0.821233
O O9 0.594685 0.704076 0.197575
O O10 0.073493 0.204793 0.179123
O O11 0.327009 0.476157 0.316354
O O12 0.076835 0.372627 0.236923
O O13 0.664076 0.754868 0.635125
O O14 0.141876 0.436603 0.559175
O O15 0.670819 0.985423 0.513495
#
# Coordination Sequence:
#
# PCOD9082107 Si02
#       7
#     2   2   2   2   2   2   2
#     4   8  16  28  42  68 101 134 166 195 250 314
#     4  10  21  36  56  81 106 145 187 217 271 322
#     4  10  19  33  51  76 110 143 172 218 266 321
#     4  10  21  38  56  79 107 142 186 231 265 310
#     4  10  19  33  51  78 110 140 172 216 270 327
#     4  10  21  36  58  85 107 142 182 218 279 332
#     4  10  21  38  58  81 109 141 182 231 272 313
#
# _framework density 24.165679999999998
#
# number of rings (size 3 to 8) (size 9 to 14) (size 15 to 20)
#    0.000    2.286    0.000    2.571    2.000    0.000 
#    7.714    0.000    0.000    5.143    0.000    0.000 
#    0.000    0.000    0.000    0.000    0.000    0.000 
#
# Total GULP energy -78109.527662 kJ/mol
# GULP energy per Si atom -5579.251976 kJ/mol
# Density = 2.411068 g / cm^3
# Si number density = 24.165680 Si / 1000 Ang^3
#
#
#
# Elastic Constant Matrix: (Units=GPa)
#
#
# Indices 1 2 3 4 5 6 
#
# 1 52.3990 21.4158 6.8581 2.5958 13.8371 -10.1425
# 2 21.4158 126.7017 8.2750 1.4971 6.5068 -20.2123
# 3 6.8581 8.2750 27.3227 1.1982 11.0871 -0.9740
# 4 2.5958 1.4971 1.1982 31.7996 7.1329 5.2973
# 5 13.8371 6.5068 11.0871 7.1329 19.4154 4.3019
# 6 -10.1425 -20.2123 -0.9740 5.2973 4.3019 28.5931
#
#
#
# Elastic Compliance Matrix: (Units=1/GPa)
#
#
# Indices 1 2 3 4 5 6 
#
# 1 0.028238 -0.001779 0.003982 0.001161 -0.024985 0.012438
# 2 -0.001779 0.009440 -0.001186 -0.000808 -0.002363 0.006506
# 3 0.003982 -0.001186 0.049765 0.004371 -0.033919 0.006563
# 4 0.001161 -0.000808 0.004371 0.035322 -0.015079 -0.004286
# 5 -0.024985 -0.002363 -0.033919 -0.015079 0.100328 -0.023989
# 6 0.012438 0.006506 0.006563 -0.004286 -0.023989 0.048612
#
#
# Mechanical properties :
#
#
# Convention : Reuss Voigt Hill
#
# Bulk Modulus (GPa) = 11.17612 31.05791 21.11701
# Shear Modulus (GPa) = 16.69461 27.28659 21.99060
#
# Velocity S-wave (km/s) = 2.63123 3.36392 3.01988
# Velocity P-wave (km/s) = 3.72371 5.28847 4.57351
#
# Compressibility (1/GPa) = 0.08947652
#
# Stress axis : x y z
#
# Youngs Moduli (GPa) = 35.41269 105.93634 20.09433
#
# Poissons Ratio (x) = 0.18850 -0.08002
# Poissons Ratio (y) = 0.06301 0.02383
# Poissons Ratio (z) = -0.14102 0.12566
#
# Static dielectric constant tensor:
#      x y z
#    x 1.992080 0.027160 -0.069700 
#    y 0.027160 1.855840 -0.026660 
#    z -0.069700 -0.026660 2.004090 
# 
# From -- ./inp_files/67280.got.cif
#   From: 2010.05.17/outbox.cif.g08.bks.cpg/sg2_34_cif.got.tgz:67280.got - 2010.06.03 11:33:40.
