data_PCOD9082085
_publ_section_title
;
Structure prediction by ZEFSAII (Michael W. Deem and Ramdas Pophale) SiO2 
 PCOD9082085
Probable space group: P -1
;
_chemical_formula_sum "Si O2"
_cell_formula_units_Z 16
_cell_length_a 15.536347
_cell_length_b 5.605616
_cell_length_c 12.531728
_cell_angle_alpha 121.018644
_cell_angle_beta 98.671378
_cell_angle_gamma 116.535798
_cell_volume 726.174744
_symmetry_space_group_name_H-M "P -1"
_symmetry_group_IT_number 2
_symmetry_cell_setting 'triclinic'
loop_
_space_group_symop_operation_xyz
x,y,z
-x,-y,-z
loop_
_atom_site_type_symbol
_atom_site_label
_atom_site_fract_x
_atom_site_fract_y
_atom_site_fract_z
Si Si1 0.842867 0.695466 0.820885
Si Si2 0.219691 0.794715 0.516395
Si Si3 0.606266 0.103768 0.310887
Si Si4 0.124215 0.776701 0.203247
Si Si5 0.895036 0.893049 0.521818
Si Si6 0.617252 0.610320 0.586483
Si Si7 0.624458 0.511364 0.808956
Si Si8 0.567705 0.874724 0.032237
O O1 0.796960 0.429813 0.645296
O O2 0.894138 0.076985 0.870396
O O3 0.742666 0.601544 0.854520
O O4 0.914834 0.612113 0.876139
O O5 0.346493 0.052576 0.642153
O O6 0.161920 0.499465 0.531630
O O7 0.171580 0.005205 0.535948
O O8 0.645947 0.448670 0.461869
O O9 0.473120 0.849772 0.234471
O O10 0.640680 0.141845 0.203899
O O11 0.079112 0.874171 0.314050
O O12 0.260593 0.011971 0.289060
O O13 0.000000 0.000000 0.500000
O O14 0.500000 0.500000 0.500000
O O15 0.593851 0.453932 0.664868
O O16 0.624093 0.813753 0.933429
O O17 0.500000 0.500000 0.000000
O O18 0.500000 0.000000 0.000000
#
# Coordination Sequence:
#
# PCOD9082085 Si02
#       8
#     2   2   2   2   2   2   2   2
#     4   9  17  31  45  70  98 123 161 210 240 286
#     4  10  20  32  49  76 100 127 169 214 255 306
#     4  11  20  33  50  73 105 141 173 221 253 289
#     4   9  18  30  44  72 101 121 164 205 245 295
#     4  10  19  33  50  71 106 135 158 205 273 321
#     4  11  19  27  50  77 101 136 174 209 251 295
#     4  10  20  32  49  70 102 140 182 199 249 298
#     4  10  23  38  47  67 101 143 181 214 248 294
#
# _framework density 22.033265
#
# number of rings (size 3 to 8) (size 9 to 14) (size 15 to 20)
#    0.000    2.000    3.750    2.250    3.500    5.000 
#    0.000    0.000    0.000    0.000    0.000    0.000 
#    0.000   38.000    0.000    0.000    0.000    0.000 
#
# Total GULP energy -89109.799173 kJ/mol
# GULP energy per Si atom -5569.362448 kJ/mol
# Density = 2.198312 g / cm^3
# Si number density = 22.033265 Si / 1000 Ang^3
#
#
#
# Elastic Constant Matrix: (Units=GPa)
#
#
# Indices 1 2 3 4 5 6 
#
# 1 125.1347 52.8941 44.0118 -15.8494 -20.2391 -22.3650
# 2 52.8941 127.3331 27.0225 -4.2662 -6.0042 -25.5779
# 3 44.0118 27.0225 91.5405 -3.0921 -5.2314 -16.7861
# 4 -15.8494 -4.2662 -3.0921 19.4398 -7.9374 -0.7453
# 5 -20.2391 -6.0042 -5.2314 -7.9374 31.4609 -5.4140
# 6 -22.3650 -25.5779 -16.7861 -0.7453 -5.4140 44.4927
#
#
#
# Elastic Compliance Matrix: (Units=1/GPa)
#
#
# Indices 1 2 3 4 5 6 
#
# 1 0.017345 -0.003379 -0.004417 0.019500 0.015968 0.007379
# 2 -0.003379 0.010186 -0.000660 -0.000375 0.000242 0.003931
# 3 -0.004417 -0.000660 0.013579 -0.001801 -0.000751 0.002402
# 4 0.019500 -0.000375 -0.001801 0.081969 0.035363 0.014583
# 5 0.015968 0.000242 -0.000751 0.035363 0.053480 0.014983
# 6 0.007379 0.003931 0.002402 0.014583 0.014983 0.031418
#
#
# Mechanical properties :
#
#
# Convention : Reuss Voigt Hill
#
# Bulk Modulus (GPa) = 41.32732 65.76279 53.54506
# Shear Modulus (GPa) = 21.46333 33.75067 27.60700
#
# Velocity S-wave (km/s) = 3.12450 3.91807 3.54357
# Velocity P-wave (km/s) = 5.64040 7.09790 6.41071
#
# Compressibility (1/GPa) = 0.02419707
#
# Stress axis : x y z
#
# Youngs Moduli (GPa) = 57.65444 98.17712 73.64042
#
# Poissons Ratio (x) = 0.33174 0.32529
# Poissons Ratio (y) = 0.19481 0.04861
# Poissons Ratio (z) = 0.25468 0.06481
#
# Static dielectric constant tensor:
#      x y z
#    x 1.854670 -0.017700 0.040750 
#    y -0.017700 1.926620 0.045110 
#    z 0.040750 0.045110 1.861860 
# 
# From -- ./inp_files/95533.got.cif
#   From: 2010.05.17/outbox.cif.g08.bks.cpg/sg2_48_cif.got.tgz:95533.got - 2010.06.03 11:33:40.
