data_PCOD9082675
_publ_section_title
;
Structure prediction by ZEFSAII (Michael W. Deem and Ramdas Pophale) SiO2 
 PCOD9082675
Probable space group: P -1
;
_chemical_formula_sum "Si O2"
_cell_formula_units_Z 14
_cell_length_a 15.067471
_cell_length_b 15.892723
_cell_length_c 10.006448
_cell_angle_alpha 82.237684
_cell_angle_beta 52.827302
_cell_angle_gamma 36.599744
_cell_volume 769.727747
_symmetry_space_group_name_H-M "P -1"
_symmetry_group_IT_number 2
_symmetry_cell_setting 'triclinic'
loop_
_space_group_symop_operation_xyz
x,y,z
-x,-y,-z
loop_
_atom_site_type_symbol
_atom_site_label
_atom_site_fract_x
_atom_site_fract_y
_atom_site_fract_z
Si Si1 0.952036 0.949175 0.375792
Si Si2 0.744745 0.273552 0.136362
Si Si3 0.792566 0.249919 0.537789
Si Si4 0.943281 0.671323 0.950260
Si Si5 0.446335 0.302188 0.408931
Si Si6 0.420592 0.236862 0.715591
Si Si7 0.848351 0.931563 0.969693
O O1 0.843317 0.119331 0.468524
O O2 0.683469 0.077227 0.595846
O O3 0.160743 0.780223 0.339892
O O4 0.095949 0.845835 0.123041
O O5 0.500334 0.510730 0.289721
O O6 0.603796 0.281018 0.295349
O O7 0.943644 0.166426 0.095559
O O8 0.022798 0.144931 0.276194
O O9 0.126148 0.541048 0.675750
O O10 0.167576 0.481158 0.896409
O O11 0.707088 0.765809 0.142832
O O12 0.843097 0.835908 0.028708
O O13 0.514896 0.185749 0.487220
O O14 0.561411 0.180148 0.196659
#
# Coordination Sequence:
#
# PCOD9082675 Si02
#       7
#     2   2   2   2   2   2   2
#     4  11  22  38  52  81 114 142 172 218 271 322
#     4  12  20  35  58  81 110 137 177 226 266 313
#     4  11  23  34  55  82 111 142 175 215 274 322
#     4   9  20  35  55  82 107 139 180 223 259 312
#     4  10  19  33  57  79 109 132 178 227 261 305
#     4   9  18  39  53  78 112 141 172 224 264 310
#     4  12  20  33  58  84 106 138 181 222 264 313
#
# _framework density 18.18825
#
# number of rings (size 3 to 8) (size 9 to 14) (size 15 to 20)
#    0.857    0.571    4.286    3.000    0.000    0.571 
#    0.000    0.714    0.000    0.857    0.000    0.000 
#    0.000    0.000    0.000    0.000    0.000    0.000 
#
# Total GULP energy -78018.112811 kJ/mol
# GULP energy per Si atom -5572.722344 kJ/mol
# Density = 1.814685 g / cm^3
# Si number density = 18.188250 Si / 1000 Ang^3
#
#
#
# Elastic Constant Matrix: (Units=GPa)
#
#
# Indices 1 2 3 4 5 6 
#
# 1 40.0749 15.0901 34.6584 -14.1345 -16.0208 18.0373
# 2 15.0901 46.8936 24.0697 -0.5571 -4.0790 13.5991
# 3 34.6584 24.0697 76.7482 -9.9877 -10.6901 9.7467
# 4 -14.1345 -0.5571 -9.9877 25.9126 5.8300 -2.3390
# 5 -16.0208 -4.0790 -10.6901 5.8300 29.5957 -10.1059
# 6 18.0373 13.5991 9.7467 -2.3390 -10.1059 27.6607
#
#
#
# Elastic Compliance Matrix: (Units=1/GPa)
#
#
# Indices 1 2 3 4 5 6 
#
# 1 0.077259 -0.000818 -0.024782 0.025906 0.016360 -0.033078
# 2 -0.000818 0.028942 -0.007992 -0.003366 -0.002845 -0.012203
# 3 -0.024782 -0.007992 0.024818 -0.002859 -0.001369 0.010602
# 4 0.025906 -0.003366 -0.002859 0.050845 -0.001005 -0.010299
# 5 0.016360 -0.002845 -0.001369 -0.001005 0.044475 0.007377
# 6 -0.033078 -0.012203 0.010602 -0.010299 0.007377 0.061810
#
#
# Mechanical properties :
#
#
# Convention : Reuss Voigt Hill
#
# Bulk Modulus (GPa) = 15.66523 34.59478 25.13000
# Shear Modulus (GPa) = 13.27632 22.62703 17.95167
#
# Velocity S-wave (km/s) = 2.70467 3.53093 3.14505
# Velocity P-wave (km/s) = 4.28779 5.97369 5.19953
#
# Compressibility (1/GPa) = 0.06383566
#
# Stress axis : x y z
#
# Youngs Moduli (GPa) = 12.94346 34.55223 40.29340
#
# Poissons Ratio (x) = 0.02827 0.99854
# Poissons Ratio (y) = 0.01059 0.32201
# Poissons Ratio (z) = 0.32076 0.27613
#
# Static dielectric constant tensor:
#      x y z
#    x 1.597840 0.006190 0.010300 
#    y 0.006190 1.631010 0.006450 
#    z 0.010300 0.006450 1.658880 
# 
# From -- ./inp_files/315035.got.cif
#   From: 2010.05.17/outbox.cif.g08.bks.cpg/sg2_158_cif.got.tgz:315035.got - 2010.06.03 11:33:40.
