data_PCOD9082744
_publ_section_title
;
Structure prediction by ZEFSAII (Michael W. Deem and Ramdas Pophale) SiO2 
 PCOD9082744
Probable space group: P -1
;
_chemical_formula_sum "Si O2"
_cell_formula_units_Z 16
_cell_length_a 24.203964
_cell_length_b 8.312896
_cell_length_c 24.564134
_cell_angle_alpha 38.966402
_cell_angle_beta 11.818585
_cell_angle_gamma 40.226891
_cell_volume 636.468414
_symmetry_space_group_name_H-M "P -1"
_symmetry_group_IT_number 2
_symmetry_cell_setting 'triclinic'
loop_
_space_group_symop_operation_xyz
x,y,z
-x,-y,-z
loop_
_atom_site_type_symbol
_atom_site_label
_atom_site_fract_x
_atom_site_fract_y
_atom_site_fract_z
Si Si1 0.308204 0.010999 0.885524
Si Si2 0.224297 0.089568 0.624083
Si Si3 0.809490 0.891719 0.840743
Si Si4 0.644221 0.981151 0.678734
Si Si5 0.655741 0.424656 0.792136
Si Si6 0.763562 0.819161 0.297009
Si Si7 0.612011 0.434401 0.350871
Si Si8 0.923409 0.705317 0.663928
O O1 0.238688 0.313785 0.877443
O O2 0.497858 0.933126 0.671364
O O3 0.482609 0.961237 0.783737
O O4 0.025582 0.878534 0.183511
O O5 0.205024 0.272520 0.647026
O O6 0.206542 0.817045 0.745768
O O7 0.770091 0.175956 0.778382
O O8 0.059980 0.905336 0.636623
O O9 0.871541 0.707529 0.778293
O O10 0.535044 0.858617 0.147378
O O11 0.671878 0.679027 0.745860
O O12 0.837112 0.451988 0.555264
O O13 0.354298 0.365608 0.078794
O O14 0.653793 0.600716 0.420887
O O15 0.500000 0.000000 0.500000
O O16 0.000000 0.000000 0.000000
O O17 0.500000 0.500000 0.500000
O O18 0.000000 0.000000 0.500000
#
# Coordination Sequence:
#
# PCOD9082744 Si02
#       8
#     2   2   2   2   2   2   2   2
#     4  11  23  39  56  82 117 154 189 234 291 345
#     4  10  20  38  59  81 111 152 192 236 281 342
#     4  11  21  39  61  87 116 154 199 249 293 346
#     4  12  24  38  58  88 123 156 195 246 296 351
#     4  11  21  38  62  88 116 156 198 241 295 357
#     4  10  19  33  57  87 110 137 185 237 277 327
#     4   9  19  36  61  86 111 146 188 233 283 338
#     4  10  20  37  62  89 115 149 198 250 294 348
#
# _framework density 25.138717
#
# number of rings (size 3 to 8) (size 9 to 14) (size 15 to 20)
#    0.000    1.500    0.000    8.625    0.000    3.000 
#    0.000    3.750    0.000    0.000    0.000    0.000 
#    0.000    0.000    0.000    0.000    0.000    0.000 
#
# Total GULP energy -89454.769573 kJ/mol
# GULP energy per Si atom -5590.923098 kJ/mol
# Density = 2.508150 g / cm^3
# Si number density = 25.138717 Si / 1000 Ang^3
#
#
#
# Elastic Constant Matrix: (Units=GPa)
#
#
# Indices 1 2 3 4 5 6 
#
# 1 91.4897 7.8647 2.4629 3.1009 -7.2592 21.9089
# 2 7.8647 57.6223 17.7117 -1.3163 1.0979 2.6541
# 3 2.4629 17.7117 136.0270 11.9680 -6.0190 19.9501
# 4 3.1009 -1.3163 11.9680 27.0066 10.7761 1.9665
# 5 -7.2592 1.0979 -6.0190 10.7761 51.0045 3.0766
# 6 21.9089 2.6541 19.9501 1.9665 3.0766 38.4354
#
#
#
# Elastic Compliance Matrix: (Units=1/GPa)
#
#
# Indices 1 2 3 4 5 6 
#
# 1 0.013478 -0.002105 0.001703 -0.003115 0.003337 -0.008529
# 2 -0.002105 0.018583 -0.002938 0.003055 -0.001778 0.001428
# 3 0.001703 -0.002938 0.009070 -0.005069 0.002775 -0.005438
# 4 -0.003115 0.003055 -0.005069 0.043777 -0.010525 0.002799
# 5 0.003337 -0.001778 0.002775 -0.010525 0.022943 -0.004518
# 6 -0.008529 0.001428 -0.005438 0.002799 -0.004518 0.033822
#
#
# Mechanical properties :
#
#
# Convention : Reuss Voigt Hill
#
# Bulk Modulus (GPa) = 29.02813 37.91306 33.47060
# Shear Modulus (GPa) = 31.28200 40.42928 35.85564
#
# Velocity S-wave (km/s) = 3.53140 4.01465 3.78075
# Velocity P-wave (km/s) = 5.31036 6.05013 5.69228
#
# Compressibility (1/GPa) = 0.03444934
#
# Stress axis : x y z
#
# Youngs Moduli (GPa) = 74.19464 53.81336 110.25860
#
# Poissons Ratio (x) = 0.11327 -0.18773
# Poissons Ratio (y) = 0.15617 0.32398
# Poissons Ratio (z) = -0.12633 0.15812
#
# Static dielectric constant tensor:
#      x y z
#    x 2.083250 0.028500 0.016490 
#    y 0.028500 2.150830 -0.019730 
#    z 0.016490 -0.019730 1.925670 
# 
# From -- ./inp_files/621141.got.cif
#   From: 2010.05.17/outbox.cif.g08.bks.cpg/sg2_311_cif.got.tgz:621141.got - 2010.06.03 11:33:40.
