data_PCOD9082604
_publ_section_title
;
Structure prediction by ZEFSAII (Michael W. Deem and Ramdas Pophale) SiO2 
 PCOD9082604
Probable space group: P -1
;
_chemical_formula_sum "Si O2"
_cell_formula_units_Z 14
_cell_length_a 8.549293
_cell_length_b 15.087142
_cell_length_c 8.872396
_cell_angle_alpha 40.059510
_cell_angle_beta 98.955424
_cell_angle_gamma 98.832784
_cell_volume 726.471999
_symmetry_space_group_name_H-M "P -1"
_symmetry_group_IT_number 2
_symmetry_cell_setting 'triclinic'
loop_
_space_group_symop_operation_xyz
x,y,z
-x,-y,-z
loop_
_atom_site_type_symbol
_atom_site_label
_atom_site_fract_x
_atom_site_fract_y
_atom_site_fract_z
Si Si1 0.416776 0.569495 0.039973
Si Si2 0.677327 0.676982 0.152688
Si Si3 0.227857 0.628795 0.470196
Si Si4 0.578899 0.712024 0.427475
Si Si5 0.094085 0.632635 0.774740
Si Si6 0.007286 0.172667 0.942058
Si Si7 0.112171 0.131196 0.660197
O O1 0.547592 0.667423 0.015155
O O2 0.373916 0.439380 0.312419
O O3 0.500000 0.500000 0.000000
O O4 0.262154 0.644480 0.869357
O O5 0.602358 0.722981 0.237831
O O6 0.727300 0.519619 0.388920
O O7 0.835351 0.770815 0.022720
O O8 0.391527 0.714991 0.423981
O O9 0.133141 0.604647 0.642255
O O10 0.122461 0.712653 0.232354
O O11 0.701935 0.822057 0.379709
O O12 0.989446 0.765452 0.586835
O O13 0.000000 0.500000 0.000000
O O14 0.060599 0.153236 0.799607
O O15 0.932463 0.027179 0.175990
#
# Coordination Sequence:
#
# PCOD9082604 Si02
#       7
#     2   2   2   2   2   2   2
#     4  11  19  34  54  82 108 140 174 224 269 314
#     4  10  20  35  55  82 110 137 177 225 267 312
#     4  10  19  33  56  85 104 139 179 223 268 311
#     4  10  19  34  56  83 109 136 179 225 266 310
#     4  11  20  33  56  82 105 142 180 216 268 322
#     4   9  19  35  52  77 110 141 178 222 261 311
#     4   9  19  34  54  77 107 144 180 215 264 318
#
# _framework density 19.271215999999999
#
# number of rings (size 3 to 8) (size 9 to 14) (size 15 to 20)
#    0.000    2.000    4.286    2.143    0.000    0.571 
#    2.571    0.714    0.000    3.429    0.000    0.000 
#    0.000    0.000    0.000    0.000    0.000    0.000 
#
# Total GULP energy -78128.485570 kJ/mol
# GULP energy per Si atom -5580.606112 kJ/mol
# Density = 1.922735 g / cm^3
# Si number density = 19.271216 Si / 1000 Ang^3
#
#
#
# Elastic Constant Matrix: (Units=GPa)
#
#
# Indices 1 2 3 4 5 6 
#
# 1 85.2350 40.6919 33.7080 -5.4616 -9.9371 29.2431
# 2 40.6919 94.0993 44.9393 0.4386 -0.7045 44.8613
# 3 33.7080 44.9393 70.4736 -4.2507 -5.4834 25.2443
# 4 -5.4616 0.4386 -4.2507 24.1397 8.9143 -7.0230
# 5 -9.9371 -0.7045 -5.4834 8.9143 20.5553 -2.6534
# 6 29.2431 44.8613 25.2443 -7.0230 -2.6534 37.6943
#
#
#
# Elastic Compliance Matrix: (Units=1/GPa)
#
#
# Indices 1 2 3 4 5 6 
#
# 1 0.017882 -0.001141 -0.003879 -0.002141 0.007233 -0.009807
# 2 -0.001141 0.030131 -0.008049 -0.011102 -0.000946 -0.031720
# 3 -0.003879 -0.008049 0.022111 0.001620 0.002823 -0.001718
# 4 -0.002141 -0.011102 0.001620 0.056336 -0.022484 0.022703
# 5 0.007233 -0.000946 0.002823 -0.022484 0.061815 -0.006214
# 6 -0.009807 -0.031720 -0.001718 0.022703 -0.006214 0.076831
#
#
# Mechanical properties :
#
#
# Convention : Reuss Voigt Hill
#
# Bulk Modulus (GPa) = 22.73459 54.27625 38.50542
# Shear Modulus (GPa) = 16.34489 25.17579 20.76034
#
# Velocity S-wave (km/s) = 2.91546 3.61833 3.28574
# Velocity P-wave (km/s) = 4.81207 6.75884 5.86677
#
# Compressibility (1/GPa) = 0.04398585
#
# Stress axis : x y z
#
# Youngs Moduli (GPa) = 55.92362 33.18799 45.22695
#
# Poissons Ratio (x) = 0.03786 0.17543
# Poissons Ratio (y) = 0.06379 0.36405
# Poissons Ratio (z) = 0.21692 0.26714
#
# Static dielectric constant tensor:
#      x y z
#    x 1.700940 0.006960 -0.008990 
#    y 0.006960 1.676130 0.016360 
#    z -0.008990 0.016360 1.659470 
# 
# From -- ./inp_files/332311.got.cif
#   From: 2010.05.17/outbox.cif.g08.bks.cpg/sg2_167_cif.got.tgz:332311.got - 2010.06.03 11:33:40.
