data_PCOD9082377
_publ_section_title
;
Structure prediction by ZEFSAII (Michael W. Deem and Ramdas Pophale) SiO2 
 PCOD9082377
Probable space group: P -1
;
_chemical_formula_sum "Si O2"
_cell_formula_units_Z 16
_cell_length_a 16.937025
_cell_length_b 8.668715
_cell_length_c 19.897275
_cell_angle_alpha 31.198570
_cell_angle_beta 150.677376
_cell_angle_gamma 148.335277
_cell_volume 674.165377
_symmetry_space_group_name_H-M "P -1"
_symmetry_group_IT_number 2
_symmetry_cell_setting 'triclinic'
loop_
_space_group_symop_operation_xyz
x,y,z
-x,-y,-z
loop_
_atom_site_type_symbol
_atom_site_label
_atom_site_fract_x
_atom_site_fract_y
_atom_site_fract_z
Si Si1 0.203442 0.153603 0.929126
Si Si2 0.879633 0.898070 0.366695
Si Si3 0.519680 0.041855 0.717789
Si Si4 0.167226 0.722351 0.495274
Si Si5 0.318019 0.913903 0.969721
Si Si6 0.669049 0.099727 0.237165
Si Si7 0.059001 0.238297 0.018980
Si Si8 0.832315 0.659566 0.679406
O O1 0.251208 0.531883 0.813072
O O2 0.225444 0.980875 0.942612
O O3 0.350735 0.124178 0.099862
O O4 0.013559 0.984205 0.886806
O O5 0.848349 0.520039 0.486985
O O6 0.750250 0.935619 0.198135
O O7 0.818854 0.021140 0.341969
O O8 0.073634 0.128949 0.395161
O O9 0.637991 0.368905 0.643183
O O10 0.354274 0.807999 0.638840
O O11 0.439495 0.115289 0.700222
O O12 0.000000 0.500000 0.500000
O O13 0.160724 0.075191 0.358516
O O14 0.256104 0.522628 0.058747
O O15 0.524058 0.072430 0.082651
O O16 0.950933 0.464356 0.855312
O O17 0.000000 0.000000 0.000000
#
# Coordination Sequence:
#
# PCOD9082377 Si02
#       8
#     2   2   2   2   2   2   2   2
#     4  10  19  33  54  82 114 151 185 222 275 335
#     4  10  20  35  55  82 110 142 184 230 273 321
#     4  10  20  36  56  79 109 145 186 227 272 332
#     4  10  20  37  59  79 103 146 192 227 269 330
#     4  10  19  33  54  82 114 150 183 222 274 337
#     4  11  21  34  55  87 116 143 181 234 281 319
#     4  10  20  34  54  84 116 144 180 230 279 325
#     4   9  20  36  56  77 104 145 184 218 268 329
#
# _framework density 23.733049000000001
#
# number of rings (size 3 to 8) (size 9 to 14) (size 15 to 20)
#    0.000    2.000    0.000    5.625    0.000    3.000 
#    0.000    3.125    0.000    6.000    0.000    0.000 
#    0.000    0.000    0.000    0.000    0.000    0.000 
#
# Total GULP energy -89418.214537 kJ/mol
# GULP energy per Si atom -5588.638409 kJ/mol
# Density = 2.367903 g / cm^3
# Si number density = 23.733049 Si / 1000 Ang^3
#
#
#
# Elastic Constant Matrix: (Units=GPa)
#
#
# Indices 1 2 3 4 5 6 
#
# 1 113.0572 50.0487 29.2292 -14.4061 11.9724 -4.2526
# 2 50.0487 155.2084 40.2238 -23.0866 7.8276 -6.6449
# 3 29.2292 40.2238 70.5237 -0.4350 2.9329 -3.5550
# 4 -14.4061 -23.0866 -0.4350 39.0879 -9.2336 5.6969
# 5 11.9724 7.8276 2.9329 -9.2336 34.9341 -2.4021
# 6 -4.2526 -6.6449 -3.5550 5.6969 -2.4021 33.6329
#
#
#
# Elastic Compliance Matrix: (Units=1/GPa)
#
#
# Indices 1 2 3 4 5 6 
#
# 1 0.011252 -0.002355 -0.003200 0.002120 -0.002494 0.000082
# 2 -0.002355 0.008906 -0.004075 0.004380 0.000333 0.000313
# 3 -0.003200 -0.004075 0.017887 -0.003661 -0.000372 0.001274
# 4 0.002120 0.004380 -0.003661 0.031042 0.006526 -0.004045
# 5 -0.002494 0.000333 -0.000372 0.006526 0.031219 0.000835
# 6 0.000082 0.000313 0.001274 -0.004045 0.000835 0.030685
#
#
# Mechanical properties :
#
#
# Convention : Reuss Voigt Hill
#
# Bulk Modulus (GPa) = 53.22796 64.19920 58.71358
# Shear Modulus (GPa) = 31.94642 36.15018 34.04830
#
# Velocity S-wave (km/s) = 3.67287 3.90705 3.79177
# Velocity P-wave (km/s) = 6.36106 6.88932 6.63045
#
# Compressibility (1/GPa) = 0.01878712
#
# Stress axis : x y z
#
# Youngs Moduli (GPa) = 88.87407 112.27812 55.90624
#
# Poissons Ratio (x) = 0.26436 0.17888
# Poissons Ratio (y) = 0.20926 0.22782
# Poissons Ratio (z) = 0.28436 0.45754
#
# Static dielectric constant tensor:
#      x y z
#    x 1.897220 0.029660 -0.019140 
#    y 0.029660 1.935130 0.038790 
#    z -0.019140 0.038790 1.993740 
# 
# From -- ./inp_files/189377.got.cif
#   From: 2010.05.17/outbox.cif.g08.bks.cpg/sg2_95_cif.got.tgz:189377.got - 2010.06.03 11:33:40.
