data_PCOD9082218
_publ_section_title
;
Structure prediction by ZEFSAII (Michael W. Deem and Ramdas Pophale) SiO2 
 PCOD9082218
Probable space group: P -1
;
_chemical_formula_sum "Si O2"
_cell_formula_units_Z 16
_cell_length_a 19.909533
_cell_length_b 10.499869
_cell_length_c 12.960408
_cell_angle_alpha 60.068785
_cell_angle_beta 146.235649
_cell_angle_gamma 143.006535
_cell_volume 788.070211
_symmetry_space_group_name_H-M "P -1"
_symmetry_group_IT_number 2
_symmetry_cell_setting 'triclinic'
loop_
_space_group_symop_operation_xyz
x,y,z
-x,-y,-z
loop_
_atom_site_type_symbol
_atom_site_label
_atom_site_fract_x
_atom_site_fract_y
_atom_site_fract_z
Si Si1 0.268445 0.218251 0.195314
Si Si2 0.527216 0.118259 0.806012
Si Si3 0.349197 0.813569 0.290982
Si Si4 0.044029 0.228487 0.768247
Si Si5 0.345635 0.267119 0.518747
Si Si6 0.823230 0.423720 0.358943
Si Si7 0.043765 0.718518 0.023516
Si Si8 0.997913 0.534960 0.255096
O O1 0.285297 0.234272 0.334439
O O2 0.500921 0.457728 0.362582
O O3 0.137070 0.958528 0.088225
O O4 0.162903 0.257245 0.995681
O O5 0.525965 0.087819 0.693565
O O6 0.463093 0.225312 0.696627
O O7 0.381667 0.865628 0.781838
O O8 0.757890 0.309319 0.051852
O O9 0.194663 0.801109 0.097871
O O10 0.500000 0.000000 0.500000
O O11 0.189149 0.521791 0.210167
O O12 0.178097 0.429631 0.768565
O O13 0.934892 0.255461 0.679512
O O14 0.866418 0.956706 0.605894
O O15 0.000000 0.500000 0.500000
O O16 0.901276 0.504810 0.543866
O O17 0.054706 0.620221 0.176277
#
# Coordination Sequence:
#
# PCOD9082218 Si02
#       8
#     2   2   2   2   2   2   2   2
#     4  11  22  34  53  78 116 147 177 214 272 334
#     4  11  20  35  56  82 109 143 179 228 274 316
#     4  10  21  35  58  82 106 138 182 229 276 317
#     4  11  21  33  50  78 114 152 177 213 270 324
#     4  11  21  32  52  82 111 147 179 213 268 337
#     4  10  20  33  52  76 112 147 184 223 259 318
#     4  10  21  37  55  82 110 140 181 226 270 324
#     4  10  19  33  53  76 112 142 179 222 266 317
#
# _framework density 20.302759999999999
#
# number of rings (size 3 to 8) (size 9 to 14) (size 15 to 20)
#    0.000    1.500    5.000    1.875    0.000    5.000 
#    0.000    0.000    0.000    0.750    0.000   13.125 
#    0.000    0.000    0.000    0.000    0.000    0.000 
#
# Total GULP energy -89167.129975 kJ/mol
# GULP energy per Si atom -5572.945623 kJ/mol
# Density = 2.025655 g / cm^3
# Si number density = 20.302760 Si / 1000 Ang^3
#
#
#
# Elastic Constant Matrix: (Units=GPa)
#
#
# Indices 1 2 3 4 5 6 
#
# 1 29.7896 22.1821 -1.8244 8.8599 -1.2472 -0.1661
# 2 22.1821 136.6042 50.8961 26.8634 -6.8924 10.9294
# 3 -1.8244 50.8961 67.7856 22.9683 -5.2802 -6.5007
# 4 8.8599 26.8634 22.9683 52.8338 -2.1593 -3.5193
# 5 -1.2472 -6.8924 -5.2802 -2.1593 26.1661 12.6593
# 6 -0.1661 10.9294 -6.5007 -3.5193 12.6593 21.9260
#
#
#
# Elastic Compliance Matrix: (Units=1/GPa)
#
#
# Indices 1 2 3 4 5 6 
#
# 1 0.045408 -0.012330 0.013514 -0.006603 -0.004811 0.012215
# 2 -0.012330 0.016427 -0.013177 -0.001359 0.009672 -0.017991
# 3 0.013514 -0.013177 0.028618 -0.007088 -0.006131 0.017558
# 4 -0.006603 -0.001359 -0.007088 0.023961 -0.001767 0.003392
# 5 -0.004811 0.009672 -0.006131 -0.001767 0.059001 -0.041024
# 6 0.012215 -0.017991 0.017558 0.003392 -0.041024 0.084105
#
#
# Mechanical properties :
#
#
# Convention : Reuss Voigt Hill
#
# Bulk Modulus (GPa) = 15.04500 41.85411 28.44955
# Shear Modulus (GPa) = 16.46570 31.04690 23.75630
#
# Velocity S-wave (km/s) = 2.85091 3.91474 3.42439
# Velocity P-wave (km/s) = 4.27356 6.41040 5.44778
#
# Compressibility (1/GPa) = 0.06646729
#
# Stress axis : x y z
#
# Youngs Moduli (GPa) = 22.02236 60.87570 34.94288
#
# Poissons Ratio (x) = 0.75060 -0.47222
# Poissons Ratio (y) = 0.27154 0.46045
# Poissons Ratio (z) = -0.29761 0.80217
#
# Static dielectric constant tensor:
#      x y z
#    x 1.749580 -0.008130 -0.013820 
#    y -0.008130 1.823370 0.018170 
#    z -0.013820 0.018170 1.833600 
# 
# From -- ./inp_files/451534.got.cif
#   From: 2010.05.17/outbox.cif.g08.bks.cpg/sg2_226_cif.got.tgz:451534.got - 2010.06.03 11:33:40.
