data_PCOD9082986
_publ_section_title
;
Structure prediction by ZEFSAII (Michael W. Deem and Ramdas Pophale) SiO2 
 PCOD9082986
Probable space group: P -1
;
_chemical_formula_sum "Si O2"
_cell_formula_units_Z 15
_cell_length_a 14.085406
_cell_length_b 9.596155
_cell_length_c 16.326244
_cell_angle_alpha 134.658524
_cell_angle_beta 152.669015
_cell_angle_gamma 64.923541
_cell_volume 568.726576
_symmetry_space_group_name_H-M "P -1"
_symmetry_group_IT_number 2
_symmetry_cell_setting 'triclinic'
loop_
_space_group_symop_operation_xyz
x,y,z
-x,-y,-z
loop_
_atom_site_type_symbol
_atom_site_label
_atom_site_fract_x
_atom_site_fract_y
_atom_site_fract_z
Si Si1 0.281420 0.028329 0.407715
Si Si2 0.872728 0.535172 0.801211
Si Si3 0.500000 0.500000 0.000000
Si Si4 0.405991 0.001796 0.656443
Si Si5 0.419916 0.390463 0.516655
Si Si6 0.881267 0.302534 0.430073
Si Si7 0.243075 0.370554 0.619828
Si Si8 0.434569 0.108607 0.119413
O O1 0.369115 0.201579 0.468427
O O2 0.144553 0.118267 0.396070
O O3 0.485223 0.072922 0.650939
O O4 0.107113 0.751357 0.125364
O O5 0.849280 0.290818 0.663025
O O6 0.610837 0.419061 0.605970
O O7 0.828383 0.650962 0.736229
O O8 0.454542 0.446117 0.048934
O O9 0.617846 0.800336 0.239608
O O10 0.607941 0.001354 0.868441
O O11 0.559555 0.656622 0.776120
O O12 0.842705 0.498482 0.447213
O O13 0.724807 0.203803 0.352355
O O14 0.178158 0.404446 0.682379
O O15 0.748686 0.087042 0.171070
#
# Coordination Sequence:
#
# PCOD9082986 Si02
#       8
#     2   2   1   2   2   2   2   2
#     4  11  21  39  60  85 122 158 196 248 303 359
#     4  10  22  40  59  88 117 153 203 252 287 367
#     4  10  20  40  56  84 124 154 186 242 308 358
#     4  10  22  37  60  83 122 160 190 246 309 353
#     4  10  21  38  62  88 114 158 202 246 307 343
#     4  10  19  33  60  85 117 155 206 241 294 353
#     4  10  20  35  57  90 112 160 197 245 295 360
#     4  10  19  37  58  87 121 156 198 256 292 356
#
# _framework density 26.374714000000001
#
# number of rings (size 3 to 8) (size 9 to 14) (size 15 to 20)
#    0.000    1.867    2.667    1.600    0.000    0.533 
#    0.000    5.333    0.000    0.000    0.000    0.000 
#    0.000    0.000    0.000    0.000    0.000    0.000 
#
# Total GULP energy -83590.263888 kJ/mol
# GULP energy per Si atom -5572.684259 kJ/mol
# Density = 2.631468 g / cm^3
# Si number density = 26.374714 Si / 1000 Ang^3
#
#
#
# Elastic Constant Matrix: (Units=GPa)
#
#
# Indices 1 2 3 4 5 6 
#
# 1 80.8889 43.2680 42.1179 2.9996 -22.2521 0.4836
# 2 43.2680 148.2915 72.6821 5.5782 -15.8653 13.9318
# 3 42.1179 72.6821 168.7955 4.0956 -58.1312 -7.1820
# 4 2.9996 5.5782 4.0956 44.2541 -13.3780 -20.8834
# 5 -22.2521 -15.8653 -58.1312 -13.3780 39.7225 5.0229
# 6 0.4836 13.9318 -7.1820 -20.8834 5.0229 48.7674
#
#
#
# Elastic Compliance Matrix: (Units=1/GPa)
#
#
# Indices 1 2 3 4 5 6 
#
# 1 0.016981 -0.004869 0.001571 0.003437 0.010795 0.001814
# 2 -0.004869 0.011486 -0.007401 -0.006395 -0.010367 -0.005994
# 3 0.001571 -0.007401 0.018036 0.010337 0.026990 0.006402
# 4 0.003437 -0.006395 0.010337 0.037774 0.025083 0.016908
# 5 0.010795 -0.010367 0.026990 0.025083 0.073766 0.009973
# 6 0.001814 -0.005994 0.006402 0.016908 0.009973 0.029356
#
#
# Mechanical properties :
#
#
# Convention : Reuss Voigt Hill
#
# Bulk Modulus (GPa) = 39.83411 79.34580 59.58995
# Shear Modulus (GPa) = 23.02391 42.54267 32.78329
#
# Velocity S-wave (km/s) = 2.95778 4.02059 3.52942
# Velocity P-wave (km/s) = 5.17693 7.19047 6.26512
#
# Compressibility (1/GPa) = 0.02510411
#
# Stress axis : x y z
#
# Youngs Moduli (GPa) = 58.89103 87.06070 55.44519
#
# Poissons Ratio (x) = 0.42393 -0.08711
# Poissons Ratio (y) = 0.28676 0.41035
# Poissons Ratio (z) = -0.09252 0.64433
#
# Static dielectric constant tensor:
#      x y z
#    x 2.193770 -0.001460 0.105340 
#    y -0.001460 2.265770 -0.085750 
#    z 0.105340 -0.085750 2.121290 
# 
# From -- ./inp_files/253048.got.cif
#   From: 2010.05.17/outbox.cif.g08.bks.cpg/sg2_127_cif.got.tgz:253048.got - 2010.06.03 11:33:40.
