data_PCOD9082615
_publ_section_title
;
Structure prediction by ZEFSAII (Michael W. Deem and Ramdas Pophale) SiO2 
 PCOD9082615
Probable space group: P -1
;
_chemical_formula_sum "Si O2"
_cell_formula_units_Z 16
_cell_length_a 8.150317
_cell_length_b 13.054009
_cell_length_c 12.064313
_cell_angle_alpha 78.645744
_cell_angle_beta 120.675523
_cell_angle_gamma 135.852176
_cell_volume 737.615969
_symmetry_space_group_name_H-M "P -1"
_symmetry_group_IT_number 2
_symmetry_cell_setting 'triclinic'
loop_
_space_group_symop_operation_xyz
x,y,z
-x,-y,-z
loop_
_atom_site_type_symbol
_atom_site_label
_atom_site_fract_x
_atom_site_fract_y
_atom_site_fract_z
Si Si1 0.652155 0.735235 0.725283
Si Si2 0.271872 0.688995 0.438678
Si Si3 0.499668 0.920030 0.279101
Si Si4 0.904473 0.584645 0.655810
Si Si5 0.815228 0.139813 0.525732
Si Si6 0.455866 0.134628 0.152984
Si Si7 0.702453 0.985081 0.103025
Si Si8 0.381129 0.412478 0.645334
O O1 0.549137 0.747425 0.572528
O O2 0.606487 0.799812 0.794600
O O3 0.479391 0.557703 0.710900
O O4 0.982138 0.849265 0.809351
O O5 0.067391 0.513620 0.377476
O O6 0.177967 0.731595 0.491816
O O7 0.315276 0.773283 0.324950
O O8 0.771346 0.057017 0.417287
O O9 0.368431 0.983361 0.198434
O O10 0.586394 0.901499 0.198743
O O11 0.670024 0.474891 0.693748
O O12 0.767498 0.612293 0.517100
O O13 0.207550 0.737777 0.770446
O O14 0.132852 0.246779 0.654418
O O15 0.500000 0.000000 0.500000
O O16 0.319357 0.098059 0.993685
O O17 0.500000 0.000000 0.000000
#
# Coordination Sequence:
#
# PCOD9082615 Si02
#       8
#     2   2   2   2   2   2   2   2
#     4  11  21  35  61  91 114 149 198 248 292 350
#     4  10  21  35  57  91 118 149 184 244 307 344
#     4  10  20  37  55  84 121 154 186 240 290 348
#     4  10  20  34  58  86 115 156 192 242 293 346
#     4  10  19  34  54  84 123 155 180 233 299 352
#     4  11  20  38  61  82 118 157 203 237 280 348
#     4  10  23  38  56  82 116 161 202 238 282 342
#     4  10  19  33  56  85 122 148 194 242 296 346
#
# _framework density 21.691506
#
# number of rings (size 3 to 8) (size 9 to 14) (size 15 to 20)
#    0.000    1.750    2.500    2.625    3.500    2.500 
#    2.250    0.625    0.000    0.000    0.000   14.000 
#    0.000    0.000    0.000    0.000    0.000    0.000 
#
# Total GULP energy -89128.235429 kJ/mol
# GULP energy per Si atom -5570.514714 kJ/mol
# Density = 2.164214 g / cm^3
# Si number density = 21.691506 Si / 1000 Ang^3
#
#
#
# Elastic Constant Matrix: (Units=GPa)
#
#
# Indices 1 2 3 4 5 6 
#
# 1 70.8747 17.4548 12.5373 -1.6112 -2.7175 12.3662
# 2 17.4548 84.5754 24.1499 -1.0562 -5.3821 18.9601
# 3 12.5373 24.1499 83.8419 3.3589 -13.6297 10.4307
# 4 -1.6112 -1.0562 3.3589 17.9227 9.5351 0.4424
# 5 -2.7175 -5.3821 -13.6297 9.5351 35.5312 13.5674
# 6 12.3662 18.9601 10.4307 0.4424 13.5674 37.0604
#
#
#
# Elastic Compliance Matrix: (Units=1/GPa)
#
#
# Indices 1 2 3 4 5 6 
#
# 1 0.015654 -0.001707 -0.000836 0.000279 0.002459 -0.005018
# 2 -0.001707 0.014920 -0.002219 -0.001158 0.004700 -0.008146
# 3 -0.000836 -0.002219 0.015548 -0.008479 0.010383 -0.006662
# 4 0.000279 -0.001158 -0.008479 0.071499 -0.027168 0.011978
# 5 0.002459 0.004700 0.010383 -0.027168 0.049455 -0.023928
# 6 -0.005018 -0.008146 -0.006662 0.011978 -0.023928 0.043317
#
#
# Mechanical properties :
#
#
# Convention : Reuss Voigt Hill
#
# Bulk Modulus (GPa) = 27.32339 38.61955 32.97147
# Shear Modulus (GPa) = 21.54094 30.44619 25.99356
#
# Velocity S-wave (km/s) = 3.15470 3.75053 3.46544
# Velocity P-wave (km/s) = 5.08854 6.04962 5.58977
#
# Compressibility (1/GPa) = 0.03659868
#
# Stress axis : x y z
#
# Youngs Moduli (GPa) = 63.88162 67.02264 64.31782
#
# Poissons Ratio (x) = 0.11440 0.05378
# Poissons Ratio (y) = 0.10904 0.14270
# Poissons Ratio (z) = 0.05342 0.14870
#
# Static dielectric constant tensor:
#      x y z
#    x 1.896750 0.047310 -0.024140 
#    y 0.047310 1.893110 -0.036450 
#    z -0.024140 -0.036450 1.819400 
# 
# From -- ./inp_files/386650.got.cif
#   From: 2010.05.17/outbox.cif.g08.bks.cpg/sg2_194_cif.got.tgz:386650.got - 2010.06.03 11:33:40.
