data_PCOD9082567
_publ_section_title
;
Structure prediction by ZEFSAII (Michael W. Deem and Ramdas Pophale) SiO2 
 PCOD9082567
Probable space group: P -1
;
_chemical_formula_sum "Si O2"
_cell_formula_units_Z 14
_cell_length_a 9.618275
_cell_length_b 21.323781
_cell_length_c 7.867389
_cell_angle_alpha 144.750679
_cell_angle_beta 47.278477
_cell_angle_gamma 138.659161
_cell_volume 606.038209
_symmetry_space_group_name_H-M "P -1"
_symmetry_group_IT_number 2
_symmetry_cell_setting 'triclinic'
loop_
_space_group_symop_operation_xyz
x,y,z
-x,-y,-z
loop_
_atom_site_type_symbol
_atom_site_label
_atom_site_fract_x
_atom_site_fract_y
_atom_site_fract_z
Si Si1 0.868362 0.022556 0.009234
Si Si2 0.247854 0.421020 0.521566
Si Si3 0.487237 0.869293 0.174399
Si Si4 0.750206 0.822598 0.154021
Si Si5 0.969082 0.254705 0.648473
Si Si6 0.775720 0.486723 0.595334
Si Si7 0.330091 0.298034 0.696340
O O1 0.870500 0.148681 0.350817
O O2 0.635070 0.908322 0.969166
O O3 0.018794 0.058963 0.800894
O O4 0.000000 0.000000 0.000000
O O5 0.500000 0.500000 0.500000
O O6 0.111356 0.384341 0.725799
O O7 0.190302 0.493223 0.589742
O O8 0.219311 0.292260 0.189211
O O9 0.592002 0.834143 0.170498
O O10 0.243736 0.768393 0.126575
O O11 0.500000 0.000000 0.500000
O O12 0.672397 0.786549 0.331208
O O13 0.134866 0.233803 0.583234
O O14 0.560066 0.367078 0.566687
O O15 0.000000 0.500000 0.500000
O O16 0.726255 0.596140 0.947127
#
# Coordination Sequence:
#
# PCOD9082567 Si02
#       7
#     2   2   2   2   2   2   2
#     4   8  16  35  55  74 105 142 178 226 281 326
#     4  10  19  35  54  80 111 148 187 221 272 338
#     4   9  18  34  56  80 103 139 187 231 275 331
#     4   9  19  34  57  77 110 149 178 227 289 329
#     4  10  19  33  56  82 110 139 190 232 267 335
#     4  10  22  38  55  75 120 157 183 227 279 326
#     4  10  21  38  53  83 116 146 187 233 277 330
#
# _framework density 23.100854000000002
#
# number of rings (size 3 to 8) (size 9 to 14) (size 15 to 20)
#    0.000    2.571    1.429    0.000    2.000    1.143 
#    2.571    8.571    0.000    0.000    0.000    0.000 
#    0.000    0.000    0.000    0.000    0.000    0.000 
#
# Total GULP energy -78067.787944 kJ/mol
# GULP energy per Si atom -5576.270567 kJ/mol
# Density = 2.304828 g / cm^3
# Si number density = 23.100854 Si / 1000 Ang^3
#
#
#
# Elastic Constant Matrix: (Units=GPa)
#
#
# Indices 1 2 3 4 5 6 
#
# 1 131.7234 97.2992 -0.1304 -12.7974 -15.3472 -4.0811
# 2 97.2992 259.3913 27.5953 -22.3176 -9.8260 7.1350
# 3 -0.1304 27.5953 47.6624 -3.9431 -3.7469 -0.5090
# 4 -12.7974 -22.3176 -3.9431 30.0743 4.6541 -3.6118
# 5 -15.3472 -9.8260 -3.7469 4.6541 27.1567 -1.7464
# 6 -4.0811 7.1350 -0.5090 -3.6118 -1.7464 47.1358
#
#
#
# Elastic Compliance Matrix: (Units=1/GPa)
#
#
# Indices 1 2 3 4 5 6 
#
# 1 0.011718 -0.004457 0.003178 0.001516 0.005319 0.002037
# 2 -0.004457 0.006070 -0.003456 0.002203 -0.001255 -0.001220
# 3 0.003178 -0.003456 0.023409 0.001454 0.003610 0.001296
# 4 0.001516 0.002203 0.001454 0.036679 -0.004273 0.002466
# 5 0.005319 -0.001255 0.003610 -0.004273 0.040726 0.001871
# 6 0.002037 -0.001220 0.001296 0.002466 0.001871 0.021849
#
#
# Mechanical properties :
#
#
# Convention : Reuss Voigt Hill
#
# Bulk Modulus (GPa) = 31.52059 76.47837 53.99948
# Shear Modulus (GPa) = 31.15347 41.80756 36.48052
#
# Velocity S-wave (km/s) = 3.67629 4.25877 3.97821
# Velocity P-wave (km/s) = 5.62979 7.57370 6.67291
#
# Compressibility (1/GPa) = 0.03172529
#
# Stress axis : x y z
#
# Youngs Moduli (GPa) = 85.34216 164.73333 42.71933
#
# Poissons Ratio (x) = 0.73430 -0.13577
# Poissons Ratio (y) = 0.38041 0.14765
# Poissons Ratio (z) = -0.27123 0.56937
#
# Static dielectric constant tensor:
#      x y z
#    x 1.574420 0.000750 -0.052930 
#    y 0.000750 1.949790 -0.014140 
#    z -0.052930 -0.014140 1.992730 
# 
# From -- ./inp_files/170275.got.cif
#   From: 2010.05.17/outbox.cif.g08.bks.cpg/sg2_86_cif.got.tgz:170275.got - 2010.06.03 11:33:40.
