data_PCOD9082706
_publ_section_title
;
Structure prediction by ZEFSAII (Michael W. Deem and Ramdas Pophale) SiO2 
 PCOD9082706
Probable space group: P -1
;
_chemical_formula_sum "Si O2"
_cell_formula_units_Z 16
_cell_length_a 9.945958
_cell_length_b 11.528245
_cell_length_c 13.967517
_cell_angle_alpha 31.647277
_cell_angle_beta 60.880200
_cell_angle_gamma 50.683054
_cell_volume 644.582212
_symmetry_space_group_name_H-M "P -1"
_symmetry_group_IT_number 2
_symmetry_cell_setting 'triclinic'
loop_
_space_group_symop_operation_xyz
x,y,z
-x,-y,-z
loop_
_atom_site_type_symbol
_atom_site_label
_atom_site_fract_x
_atom_site_fract_y
_atom_site_fract_z
Si Si1 0.242255 0.330653 0.877319
Si Si2 0.603831 0.057259 0.057232
Si Si3 0.803171 0.310157 0.527127
Si Si4 0.027057 0.805925 0.714805
Si Si5 0.132680 0.395578 0.366163
Si Si6 0.623208 0.472756 0.886768
Si Si7 0.654520 0.147757 0.401345
Si Si8 0.634537 0.666176 0.483712
O O1 0.270337 0.521766 0.661180
O O2 0.063966 0.534473 0.850972
O O3 0.256980 0.112442 0.953256
O O4 0.409041 0.184734 0.990618
O O5 0.626782 0.868710 0.268083
O O6 0.624323 0.278793 0.944203
O O7 0.673635 0.416962 0.585984
O O8 0.949094 0.397881 0.444816
O O9 0.881596 0.011178 0.691880
O O10 0.217652 0.733478 0.743108
O O11 0.000000 0.000000 0.500000
O O12 0.177627 0.573477 0.156210
O O13 0.225363 0.383041 0.445031
O O14 0.223577 0.140624 0.453472
O O15 0.501384 0.749025 0.692259
O O16 0.500000 0.500000 0.000000
O O17 0.556757 0.214555 0.487834
#
# Coordination Sequence:
#
# PCOD9082706 Si02
#       8
#     2   2   2   2   2   2   2   2
#     4   9  18  35  56  79 112 155 190 229 280 333
#     4  10  19  33  57  83 115 146 191 234 282 334
#     4   9  19  34  59  84 115 152 187 235 289 338
#     4   9  17  34  58  79 107 147 191 234 278 327
#     4  10  20  35  57  85 117 147 188 243 285 339
#     4  11  20  33  57  87 114 147 187 237 287 339
#     4  10  19  34  57  84 113 144 195 236 278 334
#     4  10  19  34  55  88 113 148 189 232 287 336
#
# _framework density 24.822281
#
# number of rings (size 3 to 8) (size 9 to 14) (size 15 to 20)
#    0.000    2.250    1.250    3.375    0.000    0.000 
#    0.000    8.125    2.750    7.500    0.000    0.000 
#    0.000    0.000    0.000    0.000    0.000    0.000 
#
# Total GULP energy -89152.959889 kJ/mol
# GULP energy per Si atom -5572.059993 kJ/mol
# Density = 2.476578 g / cm^3
# Si number density = 24.822281 Si / 1000 Ang^3
#
#
#
# Elastic Constant Matrix: (Units=GPa)
#
#
# Indices 1 2 3 4 5 6 
#
# 1 78.4846 9.9369 18.4858 3.1825 5.3043 8.7660
# 2 9.9369 182.8407 34.7611 -17.3111 1.1400 6.9946
# 3 18.4858 34.7611 63.4836 -7.7027 4.1925 2.3919
# 4 3.1825 -17.3111 -7.7027 38.2996 1.4902 2.3499
# 5 5.3043 1.1400 4.1925 1.4902 27.3499 -8.9203
# 6 8.7660 6.9946 2.3919 2.3499 -8.9203 27.7714
#
#
#
# Elastic Compliance Matrix: (Units=1/GPa)
#
#
# Indices 1 2 3 4 5 6 
#
# 1 0.014606 0.000056 -0.004006 -0.001511 -0.003902 -0.005405
# 2 0.000056 0.006349 -0.003110 0.002363 -0.000483 -0.001704
# 3 -0.004006 -0.003110 0.019156 0.002910 -0.002389 -0.000616
# 4 -0.001511 0.002363 0.002910 0.028234 -0.003004 -0.003723
# 5 -0.003902 -0.000483 -0.002389 -0.003004 0.042962 0.015613
# 6 -0.005405 -0.001704 -0.000616 -0.003723 0.015613 0.043527
#
#
# Mechanical properties :
#
#
# Convention : Reuss Voigt Hill
#
# Bulk Modulus (GPa) = 38.47436 50.13073 44.30254
# Shear Modulus (GPa) = 28.15023 36.12585 32.13804
#
# Velocity S-wave (km/s) = 3.37125 3.81908 3.60213
# Velocity P-wave (km/s) = 5.53962 6.29975 5.93187
#
# Compressibility (1/GPa) = 0.02599133
#
# Stress axis : x y z
#
# Youngs Moduli (GPa) = 68.46305 157.49432 52.20396
#
# Poissons Ratio (x) = -0.00879 0.20912
# Poissons Ratio (y) = -0.00382 0.16236
# Poissons Ratio (z) = 0.27425 0.48982
#
# Static dielectric constant tensor:
#      x y z
#    x 2.098940 -0.020000 -0.048840 
#    y -0.020000 2.086400 0.004930 
#    z -0.048840 0.004930 2.063720 
# 
# From -- ./inp_files/518556.got.cif
#   From: 2010.05.17/outbox.cif.g08.bks.cpg/sg2_260_cif.got.tgz:518556.got - 2010.06.03 11:33:40.
