data_PCOD9082790
_publ_section_title
;
Structure prediction by ZEFSAII (Michael W. Deem and Ramdas Pophale) SiO2 
 PCOD9082790
Probable space group: P -1
;
_chemical_formula_sum "Si O2"
_cell_formula_units_Z 16
_cell_length_a 10.690824
_cell_length_b 7.928823
_cell_length_c 14.968513
_cell_angle_alpha 116.572790
_cell_angle_beta 97.745431
_cell_angle_gamma 130.564149
_cell_volume 671.908419
_symmetry_space_group_name_H-M "P -1"
_symmetry_group_IT_number 2
_symmetry_cell_setting 'triclinic'
loop_
_space_group_symop_operation_xyz
x,y,z
-x,-y,-z
loop_
_atom_site_type_symbol
_atom_site_label
_atom_site_fract_x
_atom_site_fract_y
_atom_site_fract_z
Si Si1 0.779917 0.991294 0.483917
Si Si2 0.286129 0.024531 0.812716
Si Si3 0.118016 0.358377 0.730561
Si Si4 0.624792 0.112574 0.364169
Si Si5 0.133778 0.293838 0.359500
Si Si6 0.374330 0.293204 0.262503
Si Si7 0.535331 0.681774 0.910038
Si Si8 0.236113 0.838432 0.291915
O O1 0.746342 0.091186 0.422761
O O2 0.007287 0.974022 0.320312
O O3 0.626135 0.632782 0.367576
O O4 0.695042 0.987767 0.565660
O O5 0.416639 0.347802 0.851768
O O6 0.345945 0.903602 0.739959
O O7 0.352532 0.110404 0.941668
O O8 0.039569 0.774804 0.715959
O O9 0.357493 0.612758 0.840232
O O10 0.013108 0.416164 0.783107
O O11 0.021196 0.245740 0.594474
O O12 0.724712 0.420163 0.489389
O O13 0.373768 0.815075 0.291439
O O14 0.265302 0.345385 0.307836
O O15 0.317550 0.188234 0.129571
O O16 0.314551 0.052312 0.265217
#
# Coordination Sequence:
#
# PCOD9082790 Si02
#       8
#     2   2   2   2   2   2   2   2
#     4  10  19  33  57  93 113 144 189 234 295 334
#     4  10  23  40  57  86 118 157 192 238 284 335
#     4   8  19  38  58  87 115 150 192 237 281 341
#     4  12  20  36  60  91 120 148 183 242 301 339
#     4  10  20  37  60  88 120 141 192 243 294 339
#     4  11  19  36  62  87 113 156 190 238 286 338
#     4  10  21  41  62  80 116 157 205 230 269 351
#     4   9  20  35  58  86 124 143 185 243 289 345
#
# _framework density 23.81277
#
# number of rings (size 3 to 8) (size 9 to 14) (size 15 to 20)
#    0.750    1.250    2.500    1.875    0.000    1.000 
#    4.500    1.250    0.000    0.000    0.000    0.000 
#    0.000    0.000    0.000    0.000    0.000    0.000 
#
# Total GULP energy -89382.395930 kJ/mol
# GULP energy per Si atom -5586.399746 kJ/mol
# Density = 2.375857 g / cm^3
# Si number density = 23.812770 Si / 1000 Ang^3
#
#
#
# Elastic Constant Matrix: (Units=GPa)
#
#
# Indices 1 2 3 4 5 6 
#
# 1 117.4768 7.3291 52.0971 -6.3647 -3.4138 25.1652
# 2 7.3291 67.6853 43.6088 -12.9793 -15.3031 -7.4392
# 3 52.0971 43.6088 125.3442 -41.8419 -17.6224 18.5240
# 4 -6.3647 -12.9793 -41.8419 39.1347 7.6441 -7.9337
# 5 -3.4138 -15.3031 -17.6224 7.6441 15.1986 -5.4695
# 6 25.1652 -7.4392 18.5240 -7.9337 -5.4695 35.4332
#
#
#
# Elastic Compliance Matrix: (Units=1/GPa)
#
#
# Indices 1 2 3 4 5 6 
#
# 1 0.012655 -0.000057 -0.006720 -0.005725 -0.004831 -0.007514
# 2 -0.000057 0.026475 -0.008743 -0.002290 0.022376 0.013111
# 3 -0.006720 -0.008743 0.020279 0.016252 0.003788 -0.003441
# 4 -0.005725 -0.002290 0.016252 0.043008 -0.004956 0.003954
# 5 -0.004831 0.022376 0.003788 -0.004956 0.101581 0.020719
# 6 -0.007514 0.013111 -0.003441 0.003954 0.020719 0.042194
#
#
# Mechanical properties :
#
#
# Convention : Reuss Voigt Hill
#
# Bulk Modulus (GPa) = 35.24978 57.39736 46.32357
# Shear Modulus (GPa) = 17.44057 31.78472 24.61265
#
# Velocity S-wave (km/s) = 2.70923 3.65742 3.21844
# Velocity P-wave (km/s) = 4.96202 6.48009 5.77119
#
# Compressibility (1/GPa) = 0.02836897
#
# Stress axis : x y z
#
# Youngs Moduli (GPa) = 79.02003 37.77213 49.31146
#
# Poissons Ratio (x) = 0.00214 0.33137
# Poissons Ratio (y) = 0.00447 0.43115
# Poissons Ratio (z) = 0.53101 0.33025
#
# Static dielectric constant tensor:
#      x y z
#    x 1.969400 -0.017950 -0.019270 
#    y -0.017950 1.951680 0.010550 
#    z -0.019270 0.010550 1.856610 
# 
# From -- ./inp_files/568248.got.cif
#   From: 2010.05.17/outbox.cif.g08.bks.cpg/sg2_285_cif.got.tgz:568248.got - 2010.06.03 11:33:40.
