data_PCOD9082780
_publ_section_title
;
Structure prediction by ZEFSAII (Michael W. Deem and Ramdas Pophale) SiO2 
 PCOD9082780
Probable space group: P -1
;
_chemical_formula_sum "Si O2"
_cell_formula_units_Z 16
_cell_length_a 18.002909
_cell_length_b 10.337075
_cell_length_c 19.345347
_cell_angle_alpha 145.868917
_cell_angle_beta 155.299553
_cell_angle_gamma 35.942420
_cell_volume 818.243289
_symmetry_space_group_name_H-M "P -1"
_symmetry_group_IT_number 2
_symmetry_cell_setting 'triclinic'
loop_
_space_group_symop_operation_xyz
x,y,z
-x,-y,-z
loop_
_atom_site_type_symbol
_atom_site_label
_atom_site_fract_x
_atom_site_fract_y
_atom_site_fract_z
Si Si1 0.065771 0.696928 0.099333
Si Si2 0.343990 0.331374 0.087262
Si Si3 0.086578 0.993849 0.680517
Si Si4 0.732856 0.037962 0.330011
Si Si5 0.635457 0.561199 0.009233
Si Si6 0.916852 0.815995 0.643646
Si Si7 0.064466 0.920990 0.943368
Si Si8 0.238581 0.567455 0.719661
O O1 0.241074 0.567790 0.144995
O O2 0.102969 0.909711 0.272195
O O3 0.000000 0.500000 0.000000
O O4 0.920268 0.851973 0.989873
O O5 0.195156 0.172197 0.885112
O O6 0.524316 0.191039 0.218105
O O7 0.396390 0.375772 0.071835
O O8 0.179910 0.929675 0.656284
O O9 0.126615 0.754317 0.651961
O O10 0.871119 0.094301 0.528577
O O11 0.729972 0.760548 0.207447
O O12 0.759201 0.295718 0.999857
O O13 0.445724 0.583037 0.898196
O O14 0.121539 0.659628 0.729433
O O15 0.780799 0.689440 0.434280
O O16 0.911774 0.829451 0.728644
O O17 0.000000 0.000000 0.000000
#
# Coordination Sequence:
#
# PCOD9082780 Si02
#       8
#     2   2   2   2   2   2   2   2
#     4  10  22  41  64  85 125 178 212 254 330 392
#     4  11  19  38  61  93 129 168 216 264 321 386
#     4  10  19  33  57  90 132 163 204 267 326 371
#     4  10  20  32  57 100 123 166 214 263 321 378
#     4  11  19  35  63  91 127 161 217 274 314 381
#     4   9  23  38  60  89 120 174 207 259 335 374
#     4  10  21  41  60  91 122 169 216 260 315 383
#     4  11  19  38  61  90 131 161 212 274 326 379
#
# _framework density 19.554086000000002
#
# number of rings (size 3 to 8) (size 9 to 14) (size 15 to 20)
#    0.750    1.000    3.750    2.250    0.000    0.500 
#    0.000    6.250    0.000    2.250    0.000    0.000 
#    0.000    0.000    0.000    0.000    0.000    0.000 
#
# Total GULP energy -89178.881451 kJ/mol
# GULP energy per Si atom -5573.680091 kJ/mol
# Density = 1.950958 g / cm^3
# Si number density = 19.554086 Si / 1000 Ang^3
#
#
#
# Elastic Constant Matrix: (Units=GPa)
#
#
# Indices 1 2 3 4 5 6 
#
# 1 52.6262 14.1352 24.0161 10.8546 0.2680 3.4631
# 2 14.1352 118.0359 37.0040 -4.9458 -4.9814 11.3429
# 3 24.0161 37.0040 84.7670 -5.9168 -3.6545 0.8706
# 4 10.8546 -4.9458 -5.9168 36.3297 -1.8239 0.6169
# 5 0.2680 -4.9814 -3.6545 -1.8239 17.5286 4.6715
# 6 3.4631 11.3429 0.8706 0.6169 4.6715 32.7826
#
#
#
# Elastic Compliance Matrix: (Units=1/GPa)
#
#
# Indices 1 2 3 4 5 6 
#
# 1 0.024473 -0.001007 -0.007203 -0.008731 -0.002671 -0.001501
# 2 -0.001007 0.010410 -0.003985 0.001301 0.003314 -0.003886
# 3 -0.007203 -0.003985 0.015969 0.004310 0.002411 0.001291
# 4 -0.008731 0.001301 0.004310 0.031275 0.004904 -0.000930
# 5 -0.002671 0.003314 0.002411 0.004904 0.061659 -0.009807
# 6 -0.001501 -0.003886 0.001291 -0.000930 -0.009807 0.033388
#
#
# Mechanical properties :
#
#
# Convention : Reuss Voigt Hill
#
# Bulk Modulus (GPa) = 37.79177 45.08219 41.43698
# Shear Modulus (GPa) = 23.76598 29.34645 26.55621
#
# Velocity S-wave (km/s) = 3.49004 3.87820 3.68923
# Velocity P-wave (km/s) = 5.96735 6.56956 6.27568
#
# Compressibility (1/GPa) = 0.02646079
#
# Stress axis : x y z
#
# Youngs Moduli (GPa) = 40.86189 96.06302 62.62084
#
# Poissons Ratio (x) = 0.09672 0.45107
# Poissons Ratio (y) = 0.04114 0.24957
# Poissons Ratio (z) = 0.29434 0.38285
#
# Static dielectric constant tensor:
#      x y z
#    x 1.722900 0.019690 -0.018480 
#    y 0.019690 1.692580 0.008250 
#    z -0.018480 0.008250 1.699610 
# 
# From -- ./inp_files/613750.got.cif
#   From: 2010.05.17/outbox.cif.g08.bks.cpg/sg2_307_cif.got.tgz:613750.got - 2010.06.03 11:33:40.
