data_PCOD9082338
_publ_section_title
;
Structure prediction by ZEFSAII (Michael W. Deem and Ramdas Pophale) SiO2 
 PCOD9082338
Probable space group: P -1
;
_chemical_formula_sum "Si O2"
_cell_formula_units_Z 16
_cell_length_a 8.600232
_cell_length_b 21.902639
_cell_length_c 5.562249
_cell_angle_alpha 108.182167
_cell_angle_beta 78.445123
_cell_angle_gamma 142.981595
_cell_volume 597.133712
_symmetry_space_group_name_H-M "P -1"
_symmetry_group_IT_number 2
_symmetry_cell_setting 'triclinic'
loop_
_space_group_symop_operation_xyz
x,y,z
-x,-y,-z
loop_
_atom_site_type_symbol
_atom_site_label
_atom_site_fract_x
_atom_site_fract_y
_atom_site_fract_z
Si Si1 0.315516 0.644724 0.809185
Si Si2 0.429698 0.872673 0.265156
Si Si3 0.183985 0.281196 0.285565
Si Si4 0.792680 0.400304 0.714661
Si Si5 0.833930 0.095569 0.856448
Si Si6 0.608178 0.606070 0.142161
Si Si7 0.488482 0.139502 0.257398
Si Si8 0.028777 0.071652 0.416844
O O1 0.591631 0.700506 0.759518
O O2 0.249166 0.652419 0.581357
O O3 0.092416 0.517574 0.753833
O O4 0.287455 0.664819 0.105663
O O5 0.300723 0.899338 0.280493
O O6 0.380964 0.823436 0.475406
O O7 0.349585 0.808441 0.972313
O O8 0.742840 0.982962 0.287724
O O9 0.225384 0.332922 0.585628
O O10 0.236595 0.332980 0.079047
O O11 0.923862 0.158765 0.150612
O O12 0.616321 0.409842 0.784622
O O13 0.069922 0.143201 0.677246
O O14 0.657995 0.977799 0.826093
O O15 0.500000 0.500000 0.000000
O O16 0.275719 0.127709 0.262970
O O17 0.000000 0.000000 0.500000
#
# Coordination Sequence:
#
# PCOD9082338 Si02
#       8
#     2   2   2   2   2   2   2   2
#     4   8  14  27  45  71  93 113 162 197 251 292
#     4  10  19  33  54  80 108 148 195 223 260 323
#     4  10  21  33  53  79 104 135 171 221 275 307
#     4   8  14  26  49  70  87 120 156 208 232 300
#     4  10  20  34  55  82 116 142 183 235 270 321
#     4  10  20  36  55  75 101 138 176 213 263 332
#     4  10  20  35  56  81 108 152 193 220 266 321
#     4   8  17  34  55  80 106 150 188 220 264 321
#
# _framework density 26.794668000000001
#
# number of rings (size 3 to 8) (size 9 to 14) (size 15 to 20)
#    0.000    3.000    0.000    2.625    0.000    3.000 
#    0.000    0.000   11.000    0.000    0.000    0.000 
#    0.000    0.000    0.000    0.000    0.000    0.000 
#
# Total GULP energy -89334.256063 kJ/mol
# GULP energy per Si atom -5583.391004 kJ/mol
# Density = 2.673368 g / cm^3
# Si number density = 26.794668 Si / 1000 Ang^3
#
#
#
# Elastic Constant Matrix: (Units=GPa)
#
#
# Indices 1 2 3 4 5 6 
#
# 1 126.0513 47.3945 68.2103 8.3504 7.1006 4.0147
# 2 47.3945 77.7862 46.8392 7.1742 7.6083 -18.7779
# 3 68.2103 46.8392 275.5593 -12.1924 23.2970 -33.1005
# 4 8.3504 7.1742 -12.1924 58.9400 -9.3386 9.9025
# 5 7.1006 7.6083 23.2970 -9.3386 40.5837 4.7015
# 6 4.0147 -18.7779 -33.1005 9.9025 4.7015 32.4803
#
#
#
# Elastic Compliance Matrix: (Units=1/GPa)
#
#
# Indices 1 2 3 4 5 6 
#
# 1 0.013218 -0.009050 -0.003217 0.000795 0.002662 -0.010772
# 2 -0.009050 0.023433 0.000739 -0.005493 -0.006589 0.018047
# 3 -0.003217 0.000739 0.005422 -0.000240 -0.003547 0.006937
# 4 0.000795 -0.005493 -0.000240 0.020380 0.006962 -0.010740
# 5 0.002662 -0.006589 -0.003547 0.006962 0.030707 -0.014321
# 6 -0.010772 0.018047 0.006937 -0.010740 -0.014321 0.054970
#
#
# Mechanical properties :
#
#
# Convention : Reuss Voigt Hill
#
# Bulk Modulus (GPa) = 52.58828 89.36496 70.97662
# Shear Modulus (GPa) = 28.16486 47.53100 37.84793
#
# Velocity S-wave (km/s) = 3.24564 4.21634 3.76242
# Velocity P-wave (km/s) = 5.80643 7.55827 6.73951
#
# Compressibility (1/GPa) = 0.01901564
#
# Stress axis : x y z
#
# Youngs Moduli (GPa) = 75.65682 42.67531 184.42084
#
# Poissons Ratio (x) = 0.38622 0.59334
# Poissons Ratio (y) = 0.68471 -0.13629
# Poissons Ratio (z) = 0.24341 -0.03154
#
# Static dielectric constant tensor:
#      x y z
#    x 2.158370 0.057400 -0.029060 
#    y 0.057400 2.167890 -0.012840 
#    z -0.029060 -0.012840 2.266220 
# 
# From -- ./inp_files/56055.got.cif
#   From: 2010.05.17/outbox.cif.g08.bks.cpg/sg2_29_cif.got.tgz:56055.got - 2010.06.03 11:33:40.
