data_PCOD9082916
_publ_section_title
;
Structure prediction by ZEFSAII (Michael W. Deem and Ramdas Pophale) SiO2 
 PCOD9082916
Probable space group: P -1
;
_chemical_formula_sum "Si O2"
_cell_formula_units_Z 16
_cell_length_a 11.327835
_cell_length_b 19.258163
_cell_length_c 12.091070
_cell_angle_alpha 146.864941
_cell_angle_beta 120.265568
_cell_angle_gamma 38.756889
_cell_volume 812.549001
_symmetry_space_group_name_H-M "P -1"
_symmetry_group_IT_number 2
_symmetry_cell_setting 'triclinic'
loop_
_space_group_symop_operation_xyz
x,y,z
-x,-y,-z
loop_
_atom_site_type_symbol
_atom_site_label
_atom_site_fract_x
_atom_site_fract_y
_atom_site_fract_z
Si Si1 0.192714 0.133302 0.820359
Si Si2 0.145322 0.484991 0.971677
Si Si3 0.814461 0.996241 0.138520
Si Si4 0.372069 0.267643 0.187711
Si Si5 0.492737 0.773387 0.048775
Si Si6 0.601223 0.869735 0.549252
Si Si7 0.021790 0.293440 0.364250
Si Si8 0.022702 0.061514 0.206179
O O1 0.131202 0.076591 0.808393
O O2 0.389424 0.951514 0.597162
O O3 0.285594 0.191409 0.007369
O O4 0.002450 0.314566 0.896580
O O5 0.324111 0.413359 0.040516
O O6 0.264449 0.309391 0.708362
O O7 0.000000 0.500000 0.000000
O O8 0.572779 0.131945 0.180379
O O9 0.869255 0.102390 0.273888
O O10 0.945132 0.816238 0.874099
O O11 0.176356 0.476656 0.428135
O O12 0.451971 0.275558 0.120621
O O13 0.471278 0.941785 0.281383
O O14 0.265460 0.879516 0.111178
O O15 0.758809 0.790841 0.619744
O O16 0.987838 0.229665 0.372909
O O17 0.000000 0.000000 0.000000
#
# Coordination Sequence:
#
# PCOD9082916 Si02
#       8
#     2   2   2   2   2   2   2   2
#     4  11  23  35  54  83 118 149 176 222 286 336
#     4  12  21  35  58  86 111 140 187 230 275 329
#     4  11  22  38  53  78 121 152 178 223 276 335
#     4  11  19  34  57  85 112 137 185 230 284 323
#     4  10  19  35  58  84 108 140 183 237 272 315
#     4  10  19  35  55  84 113 137 179 231 285 319
#     4  10  19  33  59  84 109 143 185 234 272 319
#     4   9  18  38  57  78 112 146 186 229 267 318
#
# _framework density 19.691119
#
# number of rings (size 3 to 8) (size 9 to 14) (size 15 to 20)
#    0.000    1.500    8.750    0.750    0.000    2.000 
#    0.000    0.625    0.000    0.750    0.000    0.000 
#    0.000    0.000    0.000    0.000    0.000    0.000 
#
# Total GULP energy -89298.166379 kJ/mol
# GULP energy per Si atom -5581.135399 kJ/mol
# Density = 1.964630 g / cm^3
# Si number density = 19.691119 Si / 1000 Ang^3
#
#
#
# Elastic Constant Matrix: (Units=GPa)
#
#
# Indices 1 2 3 4 5 6 
#
# 1 53.8568 25.0457 2.3555 9.2401 -9.9427 12.3359
# 2 25.0457 94.1835 3.0996 16.9305 -5.9504 13.3571
# 3 2.3555 3.0996 76.9388 14.2034 -28.1622 7.1416
# 4 9.2401 16.9305 14.2034 20.9223 -4.1357 -2.5146
# 5 -9.9427 -5.9504 -28.1622 -4.1357 14.1694 -2.3568
# 6 12.3359 13.3571 7.1416 -2.5146 -2.3568 26.3157
#
#
#
# Elastic Compliance Matrix: (Units=1/GPa)
#
#
# Indices 1 2 3 4 5 6 
#
# 1 0.066898 0.009138 0.082362 -0.061229 0.188738 -0.047296
# 2 0.009138 0.018279 0.025232 -0.027654 0.053123 -0.018294
# 3 0.082362 0.025232 0.166392 -0.108634 0.354889 -0.075167
# 4 -0.061229 -0.027654 -0.108634 0.135318 -0.220111 0.065437
# 5 0.188738 0.053123 0.354889 -0.220111 0.840228 -0.157529
# 6 -0.047296 -0.018294 -0.075167 0.065437 -0.157529 0.082000
#
#
# Mechanical properties :
#
#
# Convention : Reuss Voigt Hill
#
# Bulk Modulus (GPa) = 2.06172 31.77564 16.91868
# Shear Modulus (GPa) = 4.04096 25.24671 14.64383
#
# Velocity S-wave (km/s) = 1.43410 3.58458 2.73000
# Velocity P-wave (km/s) = 1.94717 5.77099 4.30673
#
# Compressibility (1/GPa) = 0.48503183
#
# Stress axis : x y z
#
# Youngs Moduli (GPa) = 14.94815 54.70783 6.00989
#
# Poissons Ratio (x) = -0.49991 -0.49498
# Poissons Ratio (y) = -0.13659 -0.15164
# Poissons Ratio (z) = -1.23115 -1.38037
#
# Static dielectric constant tensor:
#      x y z
#    x 1.721500 0.009780 -0.005290 
#    y 0.009780 1.716460 -0.011000 
#    z -0.005290 -0.011000 1.696900 
# 
# From -- ./inp_files/423505.got.cif
#   From: 2010.05.17/outbox.cif.g08.bks.cpg/sg2_212_cif.got.tgz:423505.got - 2010.06.03 11:33:40.
