data_PCOD9082044
_publ_section_title
;
Structure prediction by ZEFSAII (Michael W. Deem and Ramdas Pophale) SiO2 
 PCOD9082044
Probable space group: P -1
;
_chemical_formula_sum "Si O2"
_cell_formula_units_Z 16
_cell_length_a 18.471796
_cell_length_b 13.483659
_cell_length_c 5.109186
_cell_angle_alpha 78.226015
_cell_angle_beta 82.766250
_cell_angle_gamma 136.480741
_cell_volume 783.834277
_symmetry_space_group_name_H-M "P -1"
_symmetry_group_IT_number 2
_symmetry_cell_setting 'triclinic'
loop_
_space_group_symop_operation_xyz
x,y,z
-x,-y,-z
loop_
_atom_site_type_symbol
_atom_site_label
_atom_site_fract_x
_atom_site_fract_y
_atom_site_fract_z
Si Si1 0.180498 0.661235 0.748254
Si Si2 0.611429 0.341964 0.711962
Si Si3 0.137305 0.425988 0.597407
Si Si4 0.932590 0.815599 0.856016
Si Si5 0.589309 0.182312 0.292427
Si Si6 0.566405 0.527017 0.703926
Si Si7 0.983139 0.385412 0.377062
Si Si8 0.159409 0.166636 0.609792
O O1 0.186748 0.591214 0.540754
O O2 0.292960 0.756136 0.806357
O O3 0.143065 0.731854 0.627036
O O4 0.074417 0.504285 0.045637
O O5 0.748965 0.502613 0.610224
O O6 0.595994 0.275758 0.466899
O O7 0.560388 0.398385 0.748751
O O8 0.566202 0.214740 0.015603
O O9 0.022917 0.325832 0.535068
O O10 0.105129 0.332094 0.927009
O O11 0.886916 0.802971 0.603364
O O12 0.873596 0.827347 0.090623
O O13 0.070705 0.977918 0.710960
O O14 0.500000 0.000000 0.500000
O O15 0.500000 0.500000 0.500000
O O16 0.703695 0.701798 0.550078
O O17 0.500000 0.500000 0.000000
O O18 0.000000 0.500000 0.500000
#
# Coordination Sequence:
#
# PCOD9082044 Si02
#       8
#     2   2   2   2   2   2   2   2
#     4   9  19  32  56  84 120 156 198 246 305 374
#     4  11  23  40  65  96 120 164 229 259 312 392
#     4  10  19  32  62  90 116 153 207 259 301 373
#     4  10  21  36  64  91 126 152 201 268 321 372
#     4  11  23  41  65  93 127 167 213 270 317 370
#     4  12  25  42  69  91 132 177 221 273 323 384
#     4   9  17  33  52  84 119 149 194 241 309 365
#     4  10  22  40  59  94 123 160 202 260 330 375
#
# _framework density 20.412479000000001
#
# number of rings (size 3 to 8) (size 9 to 14) (size 15 to 20)
#    0.000    1.750    2.500    1.875    5.250    0.000 
#    0.000    1.250   13.750    0.000    0.000    0.000 
#    0.000    0.000    0.000    0.000    0.000    0.000 
#
# Total GULP energy -89139.035695 kJ/mol
# GULP energy per Si atom -5571.189731 kJ/mol
# Density = 2.036602 g / cm^3
# Si number density = 20.412479 Si / 1000 Ang^3
#
#
#
# Elastic Constant Matrix: (Units=GPa)
#
#
# Indices 1 2 3 4 5 6 
#
# 1 131.2914 13.8406 30.3442 -7.5315 4.6606 16.1504
# 2 13.8406 41.5549 11.8009 -11.4235 -10.7918 4.1970
# 3 30.3442 11.8009 83.2338 -2.2082 4.0870 2.5303
# 4 -7.5315 -11.4235 -2.2082 37.3993 -0.0962 -2.6647
# 5 4.6606 -10.7918 4.0870 -0.0962 42.5310 3.7220
# 6 16.1504 4.1970 2.5303 -2.6647 3.7220 25.9448
#
#
#
# Elastic Compliance Matrix: (Units=1/GPa)
#
#
# Indices 1 2 3 4 5 6 
#
# 1 0.009142 -0.001692 -0.002886 0.000799 -0.000719 -0.004951
# 2 -0.001692 0.030724 -0.003821 0.008562 0.008710 -0.003914
# 3 -0.002886 -0.003821 0.013648 -0.000856 -0.002080 0.001294
# 4 0.000799 0.008562 -0.000856 0.029536 0.002153 0.000926
# 5 -0.000719 0.008710 -0.002080 0.002153 0.026384 -0.004323
# 6 -0.004951 -0.003914 0.001294 0.000926 -0.004323 0.042847
#
#
# Mechanical properties :
#
#
# Convention : Reuss Voigt Hill
#
# Bulk Modulus (GPa) = 27.23556 40.89461 34.06508
# Shear Modulus (GPa) = 27.57565 34.51465 31.04515
#
# Velocity S-wave (km/s) = 3.67948 4.11647 3.90409
# Velocity P-wave (km/s) = 5.60562 6.53233 6.08664
#
# Compressibility (1/GPa) = 0.03671671
#
# Stress axis : x y z
#
# Youngs Moduli (GPa) = 109.37996 32.54749 73.26924
#
# Poissons Ratio (x) = 0.05508 0.21146
# Poissons Ratio (y) = 0.18512 0.27994
# Poissons Ratio (z) = 0.31568 0.12435
#
# Static dielectric constant tensor:
#      x y z
#    x 1.843550 -0.042980 -0.037660 
#    y -0.042980 1.812750 0.028060 
#    z -0.037660 0.028060 1.693370 
# 
# From -- ./inp_files/110735.got.cif
#   From: 2010.05.17/outbox.cif.g08.bks.cpg/sg2_56_cif.got.tgz:110735.got - 2010.06.03 11:33:40.
