data_PCOD9082720
_publ_section_title
;
Structure prediction by ZEFSAII (Michael W. Deem and Ramdas Pophale) SiO2 
 PCOD9082720
Probable space group: P -1
;
_chemical_formula_sum "Si O2"
_cell_formula_units_Z 16
_cell_length_a 5.129274
_cell_length_b 18.339073
_cell_length_c 20.282415
_cell_angle_alpha 156.833864
_cell_angle_beta 63.555374
_cell_angle_gamma 114.967745
_cell_volume 671.589991
_symmetry_space_group_name_H-M "P -1"
_symmetry_group_IT_number 2
_symmetry_cell_setting 'triclinic'
loop_
_space_group_symop_operation_xyz
x,y,z
-x,-y,-z
loop_
_atom_site_type_symbol
_atom_site_label
_atom_site_fract_x
_atom_site_fract_y
_atom_site_fract_z
Si Si1 0.525490 0.934077 0.165338
Si Si2 0.317487 0.827630 0.346122
Si Si3 0.258095 0.405521 0.354276
Si Si4 0.827135 0.623386 0.070379
Si Si5 0.994765 0.327554 0.048672
Si Si6 0.879172 0.987356 0.613251
Si Si7 0.109002 0.601085 0.741504
Si Si8 0.948050 0.979782 0.911631
O O1 0.356817 0.055477 0.338942
O O2 0.751219 0.040417 0.179318
O O3 0.292258 0.805494 0.044057
O O4 0.729282 0.798386 0.070965
O O5 0.509034 0.652006 0.161961
O O6 0.234804 0.904647 0.348036
O O7 0.500000 0.000000 0.500000
O O8 0.050322 0.822109 0.423317
O O9 0.588979 0.482859 0.385338
O O10 0.000000 0.500000 0.500000
O O11 0.143933 0.408084 0.292842
O O12 0.255196 0.202730 0.220731
O O13 0.923289 0.844495 0.238729
O O14 0.000000 0.500000 0.000000
O O15 0.934844 0.568292 0.940271
O O16 0.968537 0.456741 0.223575
O O17 0.171337 0.822755 0.930832
O O18 0.000000 0.000000 0.000000
#
# Coordination Sequence:
#
# PCOD9082720 Si02
#       8
#     2   2   2   2   2   2   2   2
#     4  10  19  33  57  85 112 144 193 251 282 334
#     4   9  17  33  55  76 105 145 193 227 289 344
#     4  11  22  37  60  87 120 154 185 233 298 351
#     4  10  20  33  55  83 112 147 191 242 290 348
#     4  10  19  35  56  86 112 148 191 242 294 330
#     4   9  18  33  55  78 107 148 189 235 288 340
#     4  10  20  37  61  83 114 154 197 239 277 346
#     4   9  19  35  60  89 111 146 199 237 279 339
#
# _framework density 23.824061
#
# number of rings (size 3 to 8) (size 9 to 14) (size 15 to 20)
#    0.000    2.250    1.250    3.000    0.000    3.500 
#    0.000    0.000    8.250    0.000    0.000    0.000 
#    0.000    0.000    0.000    0.000    0.000    0.000 
#
# Total GULP energy -89193.382503 kJ/mol
# GULP energy per Si atom -5574.586406 kJ/mol
# Density = 2.376984 g / cm^3
# Si number density = 23.824061 Si / 1000 Ang^3
#
#
#
# Elastic Constant Matrix: (Units=GPa)
#
#
# Indices 1 2 3 4 5 6 
#
# 1 70.6185 22.1419 -8.5019 -9.9285 -15.8177 -5.9512
# 2 22.1419 149.6355 27.9871 -48.1818 -11.2332 -4.2658
# 3 -8.5019 27.9871 108.3838 -32.2613 -27.2975 4.6971
# 4 -9.9285 -48.1818 -32.2613 46.6724 5.3270 -7.0872
# 5 -15.8177 -11.2332 -27.2975 5.3270 35.3567 -5.4060
# 6 -5.9512 -4.2658 4.6971 -7.0872 -5.4060 35.6210
#
#
#
# Elastic Compliance Matrix: (Units=1/GPa)
#
#
# Indices 1 2 3 4 5 6 
#
# 1 0.020100 -0.000459 0.007505 0.008286 0.014331 0.006137
# 2 -0.000459 0.010774 0.001438 0.012265 0.003081 0.003932
# 3 0.007505 0.001438 0.017388 0.013951 0.015796 0.004306
# 4 0.008286 0.012265 0.013951 0.045817 0.013330 0.012152
# 5 0.014331 0.003081 0.015796 0.013330 0.047471 0.010537
# 6 0.006137 0.003932 0.004306 0.012152 0.010537 0.033019
#
#
# Mechanical properties :
#
#
# Convention : Reuss Voigt Hill
#
# Bulk Modulus (GPa) = 15.33036 45.76578 30.54807
# Shear Modulus (GPa) = 27.87914 42.66408 35.27161
#
# Velocity S-wave (km/s) = 3.42454 4.23637 3.85191
# Velocity P-wave (km/s) = 4.69952 6.57121 5.71254
#
# Compressibility (1/GPa) = 0.06523005
#
# Stress axis : x y z
#
# Youngs Moduli (GPa) = 49.75105 92.81259 57.51024
#
# Poissons Ratio (x) = 0.04263 -0.43161
# Poissons Ratio (y) = 0.02285 -0.08270
# Poissons Ratio (z) = -0.37338 -0.13347
#
# Static dielectric constant tensor:
#      x y z
#    x 2.040220 0.091030 0.037740 
#    y 0.091030 2.023600 0.012160 
#    z 0.037740 0.012160 1.981480 
# 
# From -- ./inp_files/126494.got.cif
#   From: 2010.05.17/outbox.cif.g08.bks.cpg/sg2_64_cif.got.tgz:126494.got - 2010.06.03 11:33:40.
