data_PCOD9082201
_publ_section_title
;
Structure prediction by ZEFSAII (Michael W. Deem and Ramdas Pophale) SiO2 
 PCOD9082201
Probable space group: P -1
;
_chemical_formula_sum "Si O2"
_cell_formula_units_Z 16
_cell_length_a 11.393146
_cell_length_b 11.866436
_cell_length_c 8.555549
_cell_angle_alpha 126.435492
_cell_angle_beta 53.961671
_cell_angle_gamma 93.031100
_cell_volume 669.765716
_symmetry_space_group_name_H-M "P -1"
_symmetry_group_IT_number 2
_symmetry_cell_setting 'triclinic'
loop_
_space_group_symop_operation_xyz
x,y,z
-x,-y,-z
loop_
_atom_site_type_symbol
_atom_site_label
_atom_site_fract_x
_atom_site_fract_y
_atom_site_fract_z
Si Si1 0.540403 0.501218 0.263702
Si Si2 0.528957 0.822004 0.179758
Si Si3 0.945067 0.644689 0.958901
Si Si4 0.249703 0.507870 0.195853
Si Si5 0.746055 0.655223 0.397275
Si Si6 0.561034 0.174261 0.071060
Si Si7 0.331499 0.944917 0.757072
Si Si8 0.161426 0.754388 0.709759
O O1 0.633205 0.586450 0.350029
O O2 0.580379 0.333894 0.170372
O O3 0.347427 0.623210 0.507505
O O4 0.634543 0.467223 0.997958
O O5 0.452307 0.844209 0.433292
O O6 0.655148 0.895419 0.145402
O O7 0.625920 0.636737 0.915109
O O8 0.406711 0.896337 0.189156
O O9 0.860846 0.566780 0.849714
O O10 0.102925 0.491513 0.769362
O O11 0.019212 0.754956 0.927761
O O12 0.817432 0.722377 0.262539
O O13 0.145292 0.672556 0.496477
O O14 0.630154 0.778954 0.713882
O O15 0.634449 0.094737 0.115671
O O16 0.177976 0.913210 0.820165
#
# Coordination Sequence:
#
# PCOD9082201 Si02
#       8
#     2   2   2   2   2   2   2   2
#     4  11  19  32  62  92 116 148 198 255 299 340
#     4  11  23  40  58  87 124 159 194 244 299 357
#     4  10  21  32  52  84 125 156 189 242 298 355
#     4  11  21  37  57  88 124 158 195 243 298 356
#     4  10  19  33  52  88 121 151 190 244 305 348
#     4  12  20  36  63  88 119 155 197 246 304 352
#     4  11  24  38  59  90 123 153 198 248 299 353
#     4  12  19  36  59  88 117 153 197 248 296 343
#
# _framework density 23.888953000000001
#
# number of rings (size 3 to 8) (size 9 to 14) (size 15 to 20)
#    0.000    1.000    5.000    3.750    0.000    0.000 
#    0.000    0.625    0.000    0.750    0.000    0.000 
#    0.000    0.000    0.000    0.000    0.000    0.000 
#
# Total GULP energy -89278.575357 kJ/mol
# GULP energy per Si atom -5579.910960 kJ/mol
# Density = 2.383458 g / cm^3
# Si number density = 23.888953 Si / 1000 Ang^3
#
#
#
# Elastic Constant Matrix: (Units=GPa)
#
#
# Indices 1 2 3 4 5 6 
#
# 1 86.7626 46.2854 30.0552 -21.3101 -11.0096 10.5965
# 2 46.2854 157.3628 45.9203 -48.6200 0.1713 31.6124
# 3 30.0552 45.9203 62.1399 -24.0950 9.9188 3.3308
# 4 -21.3101 -48.6200 -24.0950 39.5023 5.5080 -3.8946
# 5 -11.0096 0.1713 9.9188 5.5080 29.5233 -13.1006
# 6 10.5965 31.6124 3.3308 -3.8946 -13.1006 44.0282
#
#
#
# Elastic Compliance Matrix: (Units=1/GPa)
#
#
# Indices 1 2 3 4 5 6 
#
# 1 0.016764 -0.003365 -0.007659 -0.000962 0.009821 0.001798
# 2 -0.003365 0.014764 -0.001192 0.015771 -0.008719 -0.010900
# 3 -0.007659 -0.001192 0.028955 0.014066 -0.016618 -0.003192
# 4 -0.000962 0.015771 0.014066 0.054420 -0.021414 -0.013714
# 5 0.009821 -0.008719 -0.016618 -0.021414 0.056004 0.019923
# 6 0.001798 -0.010900 -0.003192 -0.013714 0.019923 0.035063
#
#
# Mechanical properties :
#
#
# Convention : Reuss Voigt Hill
#
# Bulk Modulus (GPa) = 27.73698 61.19858 44.46778
# Shear Modulus (GPa) = 20.62546 34.87773 27.75160
#
# Velocity S-wave (km/s) = 2.94154 3.82513 3.41206
# Velocity P-wave (km/s) = 4.81382 6.72179 5.84616
#
# Compressibility (1/GPa) = 0.03605295
#
# Stress axis : x y z
#
# Youngs Moduli (GPa) = 59.65037 67.73200 34.53606
#
# Poissons Ratio (x) = 0.22792 0.26450
# Poissons Ratio (y) = 0.20073 0.04115
# Poissons Ratio (z) = 0.45684 0.08071
#
# Static dielectric constant tensor:
#      x y z
#    x 1.993400 -0.067480 0.051380 
#    y -0.067480 1.940660 -0.002600 
#    z 0.051380 -0.002600 1.930520 
# 
# From -- ./inp_files/215906.got.cif
#   From: 2010.05.17/outbox.cif.g08.bks.cpg/sg2_108_cif.got.tgz:215906.got - 2010.06.03 11:33:40.
