data_PCOD9082727
_publ_section_title
;
Structure prediction by ZEFSAII (Michael W. Deem and Ramdas Pophale) SiO2 
 PCOD9082727
Probable space group: P -1
;
_chemical_formula_sum "Si O2"
_cell_formula_units_Z 16
_cell_length_a 10.624739
_cell_length_b 10.620249
_cell_length_c 14.719540
_cell_angle_alpha 111.928752
_cell_angle_beta 75.901239
_cell_angle_gamma 43.772094
_cell_volume 639.808391
_symmetry_space_group_name_H-M "P -1"
_symmetry_group_IT_number 2
_symmetry_cell_setting 'triclinic'
loop_
_space_group_symop_operation_xyz
x,y,z
-x,-y,-z
loop_
_atom_site_type_symbol
_atom_site_label
_atom_site_fract_x
_atom_site_fract_y
_atom_site_fract_z
Si Si1 0.592235 0.709928 0.483567
Si Si2 0.039142 0.375808 0.680681
Si Si3 0.624966 0.721923 0.139031
Si Si4 0.032011 0.628858 0.505808
Si Si5 0.786172 0.322150 0.873207
Si Si6 0.789669 0.780369 0.985274
Si Si7 0.585654 0.276850 0.121832
Si Si8 0.197422 0.768152 0.765200
O O1 0.782293 0.660084 0.399385
O O2 0.675968 0.497651 0.355182
O O3 0.696034 0.583152 0.534192
O O4 0.254305 0.080109 0.625794
O O5 0.942623 0.386142 0.610518
O O6 0.799709 0.672710 0.868287
O O7 0.860718 0.528829 0.126064
O O8 0.289287 0.002745 0.307286
O O9 0.760501 0.477878 0.984554
O O10 0.616330 0.866368 0.119276
O O11 0.000000 0.500000 0.500000
O O12 0.704405 0.431184 0.813017
O O13 0.500000 0.500000 0.000000
O O14 0.092857 0.952973 0.745135
O O15 0.664750 0.046277 0.062384
O O16 0.584173 0.359940 0.238475
O O17 0.880980 0.048884 0.951497
#
# Coordination Sequence:
#
# PCOD9082727 Si02
#       8
#     2   2   2   2   2   2   2   2
#     4  10  19  35  59  89 118 153 205 255 301 348
#     4  10  21  36  60  88 124 158 203 250 304 371
#     4  11  23  38  61  91 129 164 197 259 309 363
#     4  10  21  36  57  88 121 156 204 247 301 352
#     4  10  21  35  55  87 118 157 205 252 299 350
#     4  11  22  40  60  91 135 160 199 247 319 372
#     4  10  20  34  55  86 121 160 198 252 306 357
#     4  10  19  33  57  85 120 153 206 257 298 351
#
# _framework density 25.007486
#
# number of rings (size 3 to 8) (size 9 to 14) (size 15 to 20)
#    0.000    1.750    2.500    3.750    1.750    1.500 
#    0.000    0.000    0.000    0.750    3.250    4.375 
#    0.000    0.000    0.000    0.000    0.000    0.000 
#
# Total GULP energy -89673.910655 kJ/mol
# GULP energy per Si atom -5604.619416 kJ/mol
# Density = 2.495057 g / cm^3
# Si number density = 25.007486 Si / 1000 Ang^3
#
#
#
# Elastic Constant Matrix: (Units=GPa)
#
#
# Indices 1 2 3 4 5 6 
#
# 1 90.7481 73.2216 28.7018 -4.4147 22.1659 -27.1818
# 2 73.2216 191.4247 86.3626 -3.1987 21.2038 -18.8128
# 3 28.7018 86.3626 95.8275 6.1759 15.0880 -28.8162
# 4 -4.4147 -3.1987 6.1759 35.2360 -1.5959 6.4783
# 5 22.1659 21.2038 15.0880 -1.5959 49.2494 -5.9553
# 6 -27.1818 -18.8128 -28.8162 6.4783 -5.9553 42.9826
#
#
#
# Elastic Compliance Matrix: (Units=1/GPa)
#
#
# Indices 1 2 3 4 5 6 
#
# 1 0.022456 -0.010031 0.007876 -0.002449 -0.006520 0.014556
# 2 -0.010031 0.013772 -0.012662 0.003971 0.001481 -0.009198
# 3 0.007876 -0.012662 0.025919 -0.008105 -0.004185 0.017457
# 4 -0.002449 0.003971 -0.008105 0.031732 0.001720 -0.009789
# 5 -0.006520 0.001481 -0.004185 0.001720 0.023543 -0.003278
# 6 0.014556 -0.009198 0.017457 -0.009789 -0.003278 0.041169
#
#
# Mechanical properties :
#
#
# Convention : Reuss Voigt Hill
#
# Bulk Modulus (GPa) = 30.75799 83.84139 57.29969
# Shear Modulus (GPa) = 25.11778 38.14119 31.62949
#
# Velocity S-wave (km/s) = 3.17268 3.90961 3.56026
# Velocity P-wave (km/s) = 5.07419 7.34706 6.31375
#
# Compressibility (1/GPa) = 0.03251188
#
# Stress axis : x y z
#
# Youngs Moduli (GPa) = 44.53234 72.61146 38.58209
#
# Poissons Ratio (x) = 0.72836 -0.30387
# Poissons Ratio (y) = 0.44670 0.48854
# Poissons Ratio (z) = -0.35074 0.91943
#
# Static dielectric constant tensor:
#      x y z
#    x 1.986400 -0.007860 -0.065240 
#    y -0.007860 1.993170 -0.025110 
#    z -0.065240 -0.025110 1.948010 
# 
# From -- ./inp_files/519834.got.cif
#   From: 2010.05.17/outbox.cif.g08.bks.cpg/sg2_260_cif.got.tgz:519834.got - 2010.06.03 11:33:40.
