data_PCOD9082317
_publ_section_title
;
Structure prediction by ZEFSAII (Michael W. Deem and Ramdas Pophale) SiO2 
 PCOD9082317
Probable space group: P -1
;
_chemical_formula_sum "Si O2"
_cell_formula_units_Z 14
_cell_length_a 12.279973
_cell_length_b 16.909165
_cell_length_c 9.538157
_cell_angle_alpha 139.414839
_cell_angle_beta 143.974059
_cell_angle_gamma 37.877389
_cell_volume 673.797209
_symmetry_space_group_name_H-M "P -1"
_symmetry_group_IT_number 2
_symmetry_cell_setting 'triclinic'
loop_
_space_group_symop_operation_xyz
x,y,z
-x,-y,-z
loop_
_atom_site_type_symbol
_atom_site_label
_atom_site_fract_x
_atom_site_fract_y
_atom_site_fract_z
Si Si1 0.722589 0.200240 0.401354
Si Si2 0.501764 0.907819 0.162343
Si Si3 0.636984 0.634079 0.266409
Si Si4 0.186827 0.834652 0.115619
Si Si5 0.797854 0.823489 0.623848
Si Si6 0.405269 0.598562 0.227614
Si Si7 0.821667 0.955341 0.394495
O O1 0.591766 0.341340 0.537267
O O2 0.754302 0.071211 0.360213
O O3 0.608808 0.182279 0.122315
O O4 0.958915 0.172246 0.583965
O O5 0.666221 0.848921 0.379928
O O6 0.328696 0.055829 0.234148
O O7 0.635067 0.921848 0.191508
O O8 0.416746 0.772779 0.207074
O O9 0.814445 0.681494 0.509391
O O10 0.601538 0.577099 0.303006
O O11 0.637386 0.529996 0.009852
O O12 0.217499 0.725713 0.124240
O O13 0.138618 0.973317 0.330417
O O14 0.010613 0.831995 0.832192
#
# Coordination Sequence:
#
# PCOD9082317 Si02
#       7
#     2   2   2   2   2   2   2
#     4  10  19  35  53  77 104 135 171 215 260 305
#     4  11  22  33  49  81 108 141 168 208 257 314
#     4   9  18  37  54  81 101 132 174 220 253 302
#     4   9  17  33  52  80 102 130 169 216 254 301
#     4  11  21  32  53  77 109 139 172 205 260 306
#     4   8  18  37  57  77 102 132 175 216 263 291
#     4  10  19  33  54  77 106 132 172 215 263 301
#
# _framework density 20.777764999999999
#
# number of rings (size 3 to 8) (size 9 to 14) (size 15 to 20)
#    0.857    1.429    2.857    0.429    0.000    2.286 
#    0.000    0.714    0.000    1.714    0.000    0.000 
#    0.000    0.000    0.000    0.000    0.000    0.000 
#
# Total GULP energy -78037.949091 kJ/mol
# GULP energy per Si atom -5574.139221 kJ/mol
# Density = 2.073047 g / cm^3
# Si number density = 20.777765 Si / 1000 Ang^3
#
#
#
# Elastic Constant Matrix: (Units=GPa)
#
#
# Indices 1 2 3 4 5 6 
#
# 1 40.4058 0.3566 5.4474 -2.9270 2.0335 -9.6117
# 2 0.3566 6.1353 10.0737 8.0479 -6.5467 -2.7824
# 3 5.4474 10.0737 105.0099 8.9666 -9.7974 -7.4189
# 4 -2.9270 8.0479 8.9666 30.4204 -8.8868 -2.7567
# 5 2.0335 -6.5467 -9.7974 -8.8868 27.0166 1.6173
# 6 -9.6117 -2.7824 -7.4189 -2.7567 1.6173 18.1067
#
#
#
# Elastic Compliance Matrix: (Units=1/GPa)
#
#
# Indices 1 2 3 4 5 6 
#
# 1 0.029027 -0.000904 -0.000869 0.004032 -0.002335 0.015736
# 2 -0.000904 0.365197 -0.021533 -0.071354 0.055428 0.031001
# 3 -0.000869 -0.021533 0.011505 0.002248 -0.000320 0.001314
# 4 0.004032 -0.071354 0.002248 0.051519 0.000172 -0.000075
# 5 -0.002335 0.055428 -0.000320 0.000172 0.050402 0.002671
# 6 0.015736 0.031001 0.001314 -0.000075 0.002671 0.068633
#
#
# Mechanical properties :
#
#
# Convention : Reuss Voigt Hill
#
# Bulk Modulus (GPa) = 2.78461 20.36739 11.57600
# Shear Modulus (GPa) = 6.73310 24.15363 15.44336
#
# Velocity S-wave (km/s) = 1.80210 3.41321 2.72924
# Velocity P-wave (km/s) = 2.38184 5.03558 3.93893
#
# Compressibility (1/GPa) = 0.35911671
#
# Stress axis : x y z
#
# Youngs Moduli (GPa) = 34.45074 2.73825 86.92036
#
# Poissons Ratio (x) = 0.00248 0.07558
# Poissons Ratio (y) = 0.03114 1.87162
# Poissons Ratio (z) = 0.02995 0.05896
#
# Static dielectric constant tensor:
#      x y z
#    x 1.797680 0.032270 -0.013790 
#    y 0.032270 1.763940 -0.019350 
#    z -0.013790 -0.019350 1.729380 
# 
# From -- ./inp_files/280179.got.cif
#   From: 2010.05.17/outbox.cif.g08.bks.cpg/sg2_141_cif.got.tgz:280179.got - 2010.06.03 11:33:40.
