data_PCOD9082288
_publ_section_title
;
Structure prediction by ZEFSAII (Michael W. Deem and Ramdas Pophale) SiO2 
 PCOD9082288
Probable space group: P -1
;
_chemical_formula_sum "Si O2"
_cell_formula_units_Z 16
_cell_length_a 16.622024
_cell_length_b 14.907374
_cell_length_c 9.463229
_cell_angle_alpha 57.328960
_cell_angle_beta 148.777771
_cell_angle_gamma 136.899516
_cell_volume 806.493364
_symmetry_space_group_name_H-M "P -1"
_symmetry_group_IT_number 2
_symmetry_cell_setting 'triclinic'
loop_
_space_group_symop_operation_xyz
x,y,z
-x,-y,-z
loop_
_atom_site_type_symbol
_atom_site_label
_atom_site_fract_x
_atom_site_fract_y
_atom_site_fract_z
Si Si1 0.454896 0.868411 0.618519
Si Si2 0.506982 0.157844 0.982596
Si Si3 0.899408 0.840355 0.967704
Si Si4 0.084207 0.638557 0.929136
Si Si5 0.239427 0.939744 0.563636
Si Si6 0.998497 0.702496 0.024279
Si Si7 0.133730 0.556881 0.793248
Si Si8 0.453652 0.182514 0.476129
O O1 0.531255 0.879746 0.879195
O O2 0.218654 0.763045 0.353343
O O3 0.545236 0.821167 0.687281
O O4 0.500000 0.000000 0.500000
O O5 0.655953 0.125797 0.186620
O O6 0.642343 0.316806 0.019478
O O7 0.306588 0.054892 0.682339
O O8 0.013243 0.828932 0.276275
O O9 0.946223 0.794065 0.936347
O O10 0.669632 0.768312 0.699434
O O11 0.000000 0.000000 0.000000
O O12 0.008165 0.699125 0.870001
O O13 0.321094 0.732452 0.212209
O O14 0.042211 0.602545 0.731451
O O15 0.000000 0.500000 0.000000
O O16 0.346645 0.032645 0.506291
O O17 0.868196 0.556443 0.029163
O O18 0.000000 0.500000 0.500000
#
# Coordination Sequence:
#
# PCOD9082288 Si02
#       8
#     2   2   2   2   2   2   2   2
#     4  11  18  32  53  86 110 141 192 241 285 331
#     4  11  20  32  56  85 117 145 189 249 292 333
#     4  10  19  36  57  85 118 157 190 233 289 348
#     4   9  20  35  55  87 115 142 196 242 277 338
#     4  10  19  33  53  86 113 148 194 235 288 345
#     4  10  20  35  57  85 116 146 197 240 278 343
#     4  11  19  34  57  86 115 148 187 241 294 341
#     4  10  19  33  57  79 117 148 187 237 284 341
#
# _framework density 19.838972999999999
#
# number of rings (size 3 to 8) (size 9 to 14) (size 15 to 20)
#    0.000    1.750    5.000    0.750    0.000    0.000 
#    0.000    3.125    0.000    5.250    0.000    0.000 
#    0.000    0.000    0.000    0.000    0.000    0.000 
#
# Total GULP energy -89079.730398 kJ/mol
# GULP energy per Si atom -5567.483150 kJ/mol
# Density = 1.979382 g / cm^3
# Si number density = 19.838973 Si / 1000 Ang^3
#
#
#
# Elastic Constant Matrix: (Units=GPa)
#
#
# Indices 1 2 3 4 5 6 
#
# 1 163.3290 28.4838 44.4386 2.3694 -28.8553 -22.5387
# 2 28.4838 65.9312 10.5513 8.1706 3.1139 6.1152
# 3 44.4386 10.5513 40.6311 5.1090 -13.4798 -2.4442
# 4 2.3694 8.1706 5.1090 15.8462 -4.3198 -0.5440
# 5 -28.8553 3.1139 -13.4798 -4.3198 43.5725 2.0281
# 6 -22.5387 6.1152 -2.4442 -0.5440 2.0281 36.2794
#
#
#
# Elastic Compliance Matrix: (Units=1/GPa)
#
#
# Indices 1 2 3 4 5 6 
#
# 1 0.011476 -0.004989 -0.009834 0.005674 0.005146 0.007105
# 2 -0.004989 0.019614 -0.000514 -0.010960 -0.005659 -0.006288
# 3 -0.009834 -0.000514 0.037948 -0.009402 0.004511 -0.003860
# 4 0.005674 -0.010960 -0.009402 0.073488 0.008668 0.005356
# 5 0.005146 -0.005659 0.004511 0.008668 0.028879 0.002970
# 6 0.007105 -0.006288 -0.003860 0.005356 0.002970 0.032692
#
#
# Mechanical properties :
#
#
# Convention : Reuss Voigt Hill
#
# Bulk Modulus (GPa) = 26.06753 48.53763 37.30258
# Shear Modulus (GPa) = 20.19719 31.56744 25.88231
#
# Velocity S-wave (km/s) = 3.19416 3.99329 3.61587
# Velocity P-wave (km/s) = 5.17413 6.76615 6.02297
#
# Compressibility (1/GPa) = 0.03836191
#
# Stress axis : x y z
#
# Youngs Moduli (GPa) = 87.14097 50.98462 26.35186
#
# Poissons Ratio (x) = 0.25437 0.25915
# Poissons Ratio (y) = 0.43475 0.01355
# Poissons Ratio (z) = 0.85698 0.02622
#
# Static dielectric constant tensor:
#      x y z
#    x 1.771280 -0.033970 -0.018240 
#    y -0.033970 1.811590 0.036190 
#    z -0.018240 0.036190 1.758410 
# 
# From -- ./inp_files/216762.got.cif
#   From: 2010.05.17/outbox.cif.g08.bks.cpg/sg2_109_cif.got.tgz:216762.got - 2010.06.03 11:33:40.
