data_PCOD9082796
_publ_section_title
;
Structure prediction by ZEFSAII (Michael W. Deem and Ramdas Pophale) SiO2 
 PCOD9082796
Probable space group: P -1
;
_chemical_formula_sum "Si O2"
_cell_formula_units_Z 16
_cell_length_a 15.415628
_cell_length_b 5.646663
_cell_length_c 8.800897
_cell_angle_alpha 79.117576
_cell_angle_beta 70.620769
_cell_angle_gamma 120.187950
_cell_volume 562.127370
_symmetry_space_group_name_H-M "P -1"
_symmetry_group_IT_number 2
_symmetry_cell_setting 'triclinic'
loop_
_space_group_symop_operation_xyz
x,y,z
-x,-y,-z
loop_
_atom_site_type_symbol
_atom_site_label
_atom_site_fract_x
_atom_site_fract_y
_atom_site_fract_z
Si Si1 0.827134 0.914566 0.861419
Si Si2 0.904038 0.872067 0.342238
Si Si3 0.592820 0.459846 0.896066
Si Si4 0.931992 0.455318 0.198655
Si Si5 0.345043 0.939584 0.609019
Si Si6 0.838784 0.473256 0.723995
Si Si7 0.588749 0.084746 0.755802
Si Si8 0.687702 0.632811 0.285955
O O1 0.866331 0.705910 0.816104
O O2 0.877782 0.263780 0.762049
O O3 0.719454 0.747291 0.824551
O O4 0.768521 0.816213 0.071981
O O5 0.969856 0.782350 0.201885
O O6 0.894122 0.692328 0.519402
O O7 0.777596 0.704352 0.358752
O O8 0.931248 0.197182 0.320418
O O9 0.539998 0.175243 0.076037
O O10 0.500000 0.500000 0.000000
O O11 0.584186 0.367843 0.737551
O O12 0.795496 0.277724 0.265552
O O13 0.000000 0.500000 0.000000
O O14 0.377124 0.995942 0.405751
O O15 0.381549 0.726175 0.660608
O O16 0.379044 0.230438 0.647956
O O17 0.700722 0.234110 0.788095
#
# Coordination Sequence:
#
# PCOD9082796 Si02
#       8
#     2   2   2   2   2   2   2   2
#     4  11  23  36  56  85 117 149 200 240 288 336
#     4  10  20  35  59  87 115 152 192 232 292 337
#     4  10  21  34  56  79 118 147 193 246 300 324
#     4  10  19  33  57  94 121 141 184 244 288 333
#     4  10  21  36  61  80 116 152 193 228 294 342
#     4  11  20  35  60  83 110 147 199 243 277 337
#     4  10  20  35  55  83 108 152 191 241 289 338
#     4  10  21  37  55  84 116 155 193 230 285 356
#
# _framework density 28.463298000000002
#
# number of rings (size 3 to 8) (size 9 to 14) (size 15 to 20)
#    0.000    1.750    3.750    1.875    3.500    0.000 
#    0.000    1.250    0.000    0.000    0.000   70.000 
#    0.000    0.000    0.000    0.000    0.000    0.000 
#
# Total GULP energy -89351.800801 kJ/mol
# GULP energy per Si atom -5584.487550 kJ/mol
# Density = 2.839851 g / cm^3
# Si number density = 28.463298 Si / 1000 Ang^3
#
#
#
# Elastic Constant Matrix: (Units=GPa)
#
#
# Indices 1 2 3 4 5 6 
#
# 1 70.4965 64.0875 -2.2915 5.0210 4.1928 -10.9678
# 2 64.0875 245.5524 73.3800 6.1078 1.3022 -39.6394
# 3 -2.2915 73.3800 147.2289 21.0435 -5.1706 -16.3655
# 4 5.0210 6.1078 21.0435 59.3118 -15.7378 -7.6413
# 5 4.1928 1.3022 -5.1706 -15.7378 36.8102 -1.5232
# 6 -10.9678 -39.6394 -16.3655 -7.6413 -1.5232 18.8199
#
#
#
# Elastic Compliance Matrix: (Units=1/GPa)
#
#
# Indices 1 2 3 4 5 6 
#
# 1 0.020568 -0.006367 0.003895 -0.003185 -0.002914 0.000433
# 2 -0.006367 0.008799 -0.003380 0.003010 0.001774 0.013248
# 3 0.003895 -0.003380 0.009173 -0.003068 -0.000270 0.001860
# 4 -0.003185 0.003010 -0.003068 0.021964 0.009692 0.011517
# 5 -0.002914 0.001774 -0.000270 0.009692 0.031886 0.008320
# 6 0.000433 0.013248 0.001860 0.011517 0.008320 0.088259
#
#
# Mechanical properties :
#
#
# Convention : Reuss Voigt Hill
#
# Bulk Modulus (GPa) = 37.26528 81.51444 59.38986
# Shear Modulus (GPa) = 24.83894 44.86183 34.85038
#
# Velocity S-wave (km/s) = 2.95730 3.97436 3.50293
# Velocity P-wave (km/s) = 4.97811 7.05417 6.10503
#
# Compressibility (1/GPa) = 0.02683463
#
# Stress axis : x y z
#
# Youngs Moduli (GPa) = 48.62005 113.65476 109.01511
#
# Poissons Ratio (x) = 0.72367 -0.42457
# Poissons Ratio (y) = 0.30958 0.36843
# Poissons Ratio (z) = -0.18936 0.38411
#
# Static dielectric constant tensor:
#      x y z
#    x 2.273710 -0.303060 -0.058520 
#    y -0.303060 1.521340 0.087760 
#    z -0.058520 0.087760 2.010850 
# 
# From -- ./inp_files/107391.got.cif
#   From: 2010.05.17/outbox.cif.g08.bks.cpg/sg2_54_cif.got.tgz:107391.got - 2010.06.03 11:33:40.
