data_PCOD9082961
_publ_section_title
;
Structure prediction by ZEFSAII (Michael W. Deem and Ramdas Pophale) SiO2 
 PCOD9082961
Probable space group: P -1
;
_chemical_formula_sum "Si O2"
_cell_formula_units_Z 16
_cell_length_a 22.880189
_cell_length_b 11.406136
_cell_length_c 27.991468
_cell_angle_alpha 148.292658
_cell_angle_beta 168.200753
_cell_angle_gamma 32.834665
_cell_volume 783.193198
_symmetry_space_group_name_H-M "P -1"
_symmetry_group_IT_number 2
_symmetry_cell_setting 'triclinic'
loop_
_space_group_symop_operation_xyz
x,y,z
-x,-y,-z
loop_
_atom_site_type_symbol
_atom_site_label
_atom_site_fract_x
_atom_site_fract_y
_atom_site_fract_z
Si Si1 0.336740 0.015407 0.765484
Si Si2 0.103237 0.451927 0.297728
Si Si3 0.209118 0.367131 0.532390
Si Si4 0.478836 0.249032 0.049293
Si Si5 0.504761 0.481305 0.280009
Si Si6 0.392107 0.751850 0.015895
Si Si7 0.698847 0.118508 0.901550
Si Si8 0.065815 0.217120 0.094492
O O1 0.403505 0.082018 0.788457
O O2 0.504487 0.779921 0.831118
O O3 0.438821 0.215078 0.949152
O O4 0.000000 0.000000 0.500000
O O5 0.351420 0.529213 0.556605
O O6 0.202697 0.374301 0.297882
O O7 0.817344 0.620923 0.124580
O O8 0.980638 0.244622 0.156502
O O9 0.247522 0.611778 0.671474
O O10 0.290168 0.414216 0.558793
O O11 0.446807 0.221198 0.701388
O O12 0.922303 0.240664 0.256944
O O13 0.500000 0.000000 0.000000
O O14 0.216925 0.638558 0.099472
O O15 0.369667 0.819140 0.076951
O O16 0.500000 0.500000 0.000000
O O17 0.763522 0.870524 0.846160
O O18 0.000000 0.000000 0.000000
#
# Coordination Sequence:
#
# PCOD9082961 Si02
#       8
#     2   2   2   2   2   2   2   2
#     4  12  25  42  64  96 129 171 217 270 333 393
#     4  10  19  33  59  94 126 163 210 265 316 372
#     4  11  22  40  64  95 130 168 217 267 324 387
#     4  11  20  36  63  92 133 167 209 267 320 383
#     4  12  20  37  67  97 130 167 220 272 319 382
#     4  12  26  43  65  92 133 172 215 270 327 397
#     4  10  22  40  62  93 130 166 216 265 326 380
#     4  10  20  37  61 100 130 165 219 269 318 383
#
# _framework density 20.429186000000001
#
# number of rings (size 3 to 8) (size 9 to 14) (size 15 to 20)
#    0.000    1.000    7.500    2.250    0.000    5.000 
#    0.000    0.625    0.000    1.500    0.000    0.000 
#    0.000    0.000    0.000    0.000    0.000    0.000 
#
# Total GULP energy -89190.764436 kJ/mol
# GULP energy per Si atom -5574.422777 kJ/mol
# Density = 2.038269 g / cm^3
# Si number density = 20.429186 Si / 1000 Ang^3
#
#
#
# Elastic Constant Matrix: (Units=GPa)
#
#
# Indices 1 2 3 4 5 6 
#
# 1 128.1086 47.5952 34.2338 4.3746 -9.1493 -31.8641
# 2 47.5952 105.0044 25.8321 -12.9253 -0.8279 -13.7475
# 3 34.2338 25.8321 59.8497 3.3391 -16.4914 -3.8625
# 4 4.3746 -12.9253 3.3391 15.8231 0.5342 -3.6200
# 5 -9.1493 -0.8279 -16.4914 0.5342 35.9777 8.3684
# 6 -31.8641 -13.7475 -3.8625 -3.6200 8.3684 36.8431
#
#
#
# Elastic Compliance Matrix: (Units=1/GPa)
#
#
# Indices 1 2 3 4 5 6 
#
# 1 0.012949 -0.003770 -0.005368 -0.003376 -0.001345 0.009204
# 2 -0.003770 0.015336 -0.006401 0.016106 -0.004818 0.004468
# 3 -0.005368 -0.006401 0.026112 -0.011574 0.012555 -0.008282
# 4 -0.003376 0.016106 -0.011574 0.082869 -0.009876 0.012262
# 5 -0.001345 -0.004818 0.012555 -0.009876 0.035740 -0.010733
# 6 0.009204 0.004468 -0.008282 0.012262 -0.010733 0.039543
#
#
# Mechanical properties :
#
#
# Convention : Reuss Voigt Hill
#
# Bulk Modulus (GPa) = 42.88097 56.47611 49.67854
# Shear Modulus (GPa) = 19.88841 30.08222 24.98531
#
# Velocity S-wave (km/s) = 3.12353 3.84150 3.50096
# Velocity P-wave (km/s) = 5.83474 6.88338 6.38064
#
# Compressibility (1/GPa) = 0.02332037
#
# Stress axis : x y z
#
# Youngs Moduli (GPa) = 77.22309 65.20441 38.29596
#
# Poissons Ratio (x) = 0.24583 0.20557
# Poissons Ratio (y) = 0.29115 0.24512
# Poissons Ratio (z) = 0.41453 0.41736
#
# Static dielectric constant tensor:
#      x y z
#    x 1.790890 -0.030990 -0.024720 
#    y -0.030990 1.771100 0.024000 
#    z -0.024720 0.024000 1.784990 
# 
# From -- ./inp_files/624172.got.cif
#   From: 2010.05.17/outbox.cif.g08.bks.cpg/sg2_313_cif.got.tgz:624172.got - 2010.06.03 11:33:40.
