data_PCOD9082686
_publ_section_title
;
Structure prediction by ZEFSAII (Michael W. Deem and Ramdas Pophale) SiO2 
 PCOD9082686
Probable space group: P -1
;
_chemical_formula_sum "Si O2"
_cell_formula_units_Z 16
_cell_length_a 9.490236
_cell_length_b 8.384689
_cell_length_c 16.280822
_cell_angle_alpha 145.103795
_cell_angle_beta 117.600080
_cell_angle_gamma 58.271334
_cell_volume 629.021949
_symmetry_space_group_name_H-M "P -1"
_symmetry_group_IT_number 2
_symmetry_cell_setting 'triclinic'
loop_
_space_group_symop_operation_xyz
x,y,z
-x,-y,-z
loop_
_atom_site_type_symbol
_atom_site_label
_atom_site_fract_x
_atom_site_fract_y
_atom_site_fract_z
Si Si1 0.070237 0.978572 0.756076
Si Si2 0.564801 0.652857 0.868329
Si Si3 0.679719 0.611320 0.404398
Si Si4 0.920416 0.207997 0.643174
Si Si5 0.647153 0.840604 0.184385
Si Si6 0.611601 0.118685 0.466616
Si Si7 0.902411 0.742848 0.953007
Si Si8 0.652789 0.251605 0.005090
O O1 0.229837 0.080400 0.813175
O O2 0.956300 0.034344 0.667195
O O3 0.146903 0.634686 0.647758
O O4 0.014249 0.155209 0.901139
O O5 0.458811 0.541102 0.726515
O O6 0.759469 0.601568 0.889690
O O7 0.488703 0.560130 0.891051
O O8 0.500000 0.000000 0.000000
O O9 0.671503 0.856155 0.437915
O O10 0.587599 0.758980 0.524611
O O11 0.981641 0.491616 0.801116
O O12 0.729594 0.314557 0.607111
O O13 0.000000 0.000000 0.500000
O O14 0.659096 0.001984 0.339787
O O15 0.453669 0.931548 0.145799
O O16 0.695080 0.493398 0.063907
O O17 0.805697 0.038423 0.004111
#
# Coordination Sequence:
#
# PCOD9082686 Si02
#       8
#     2   2   2   2   2   2   2   2
#     4  12  23  41  68  93 123 167 218 262 311 374
#     4  10  15  32  64  92 112 148 200 259 305 353
#     4  11  22  40  68  94 120 165 213 261 315 367
#     4  12  27  43  62  90 134 174 208 254 317 384
#     4  11  21  35  62  97 130 156 203 262 326 367
#     4  11  24  41  63  92 133 168 206 258 316 383
#     4  11  21  41  66  89 121 169 216 257 307 374
#     4  10  20  36  65  96 126 154 205 274 317 362
#
# _framework density 25.436313999999999
#
# number of rings (size 3 to 8) (size 9 to 14) (size 15 to 20)
#    0.000    1.000    7.500    1.125    0.000    2.000 
#    0.000    0.625    2.750    0.000    0.000    0.000 
#    0.000    0.000    0.000    0.000    0.000    0.000 
#
# Total GULP energy -89318.143977 kJ/mol
# GULP energy per Si atom -5582.383999 kJ/mol
# Density = 2.537842 g / cm^3
# Si number density = 25.436314 Si / 1000 Ang^3
#
#
#
# Elastic Constant Matrix: (Units=GPa)
#
#
# Indices 1 2 3 4 5 6 
#
# 1 40.6036 -3.8017 15.6732 -6.7870 -0.3129 -0.3369
# 2 -3.8017 91.0378 43.1445 -18.5821 -11.2925 -5.7133
# 3 15.6732 43.1445 118.6172 -27.4551 -23.4658 -1.1151
# 4 -6.7870 -18.5821 -27.4551 52.6060 0.7510 10.4446
# 5 -0.3129 -11.2925 -23.4658 0.7510 42.3342 -3.7021
# 6 -0.3369 -5.7133 -1.1151 10.4446 -3.7021 28.6975
#
#
#
# Elastic Compliance Matrix: (Units=1/GPa)
#
#
# Indices 1 2 3 4 5 6 
#
# 1 0.027152 0.003633 -0.004638 0.002428 -0.001463 -0.000211
# 2 0.003633 0.014209 -0.004773 0.002600 0.001292 0.001906
# 3 -0.004638 -0.004773 0.012976 0.004700 0.005672 -0.001479
# 4 0.002428 0.002600 0.004700 0.024211 0.002205 -0.007798
# 5 -0.001463 0.001292 0.005672 0.002205 0.027339 0.003185
# 6 -0.000211 0.001906 -0.001479 -0.007798 0.003185 0.038415
#
#
# Mechanical properties :
#
#
# Convention : Reuss Voigt Hill
#
# Bulk Modulus (GPa) = 23.37565 40.03227 31.70396
# Shear Modulus (GPa) = 29.39152 37.74370 33.56761
#
# Velocity S-wave (km/s) = 3.40294 3.85626 3.63667
# Velocity P-wave (km/s) = 4.96486 5.96658 5.48862
#
# Compressibility (1/GPa) = 0.04277956
#
# Stress axis : x y z
#
# Youngs Moduli (GPa) = 36.82988 70.37958 77.06805
#
# Poissons Ratio (x) = -0.25569 0.35747
# Poissons Ratio (y) = -0.13381 0.36784
# Poissons Ratio (z) = 0.17083 0.33592
#
# Static dielectric constant tensor:
#      x y z
#    x 2.136820 -0.018850 -0.072950 
#    y -0.018850 2.028170 -0.006280 
#    z -0.072950 -0.006280 2.099130 
# 
# From -- ./inp_files/566326.got.cif
#   From: 2010.05.17/outbox.cif.g08.bks.cpg/sg2_284_cif.got.tgz:566326.got - 2010.06.03 11:33:40.
