data_PCOD9082330
_publ_section_title
;
Structure prediction by ZEFSAII (Michael W. Deem and Ramdas Pophale) SiO2 
 PCOD9082330
Probable space group: P -1
;
_chemical_formula_sum "Si O2"
_cell_formula_units_Z 16
_cell_length_a 16.178543
_cell_length_b 23.103285
_cell_length_c 10.123219
_cell_angle_alpha 148.027027
_cell_angle_beta 143.207752
_cell_angle_gamma 21.007635
_cell_volume 717.489695
_symmetry_space_group_name_H-M "P -1"
_symmetry_group_IT_number 2
_symmetry_cell_setting 'triclinic'
loop_
_space_group_symop_operation_xyz
x,y,z
-x,-y,-z
loop_
_atom_site_type_symbol
_atom_site_label
_atom_site_fract_x
_atom_site_fract_y
_atom_site_fract_z
Si Si1 0.227563 0.936564 0.882006
Si Si2 0.030786 0.330182 0.855331
Si Si3 0.865970 0.291186 0.952204
Si Si4 0.191294 0.444787 0.720284
Si Si5 0.406842 0.178334 0.690445
Si Si6 0.127812 0.498179 0.282689
Si Si7 0.900709 0.940839 0.473290
Si Si8 0.551717 0.288128 0.547162
O O1 0.349716 0.817015 0.672401
O O2 0.060780 0.941880 0.723710
O O3 0.420045 0.850418 0.066050
O O4 0.064362 0.142070 0.026649
O O5 0.111472 0.154928 0.631352
O O6 0.863448 0.449753 0.746987
O O7 0.206992 0.319863 0.038116
O O8 0.914825 0.435167 0.048795
O O9 0.667128 0.330456 0.800925
O O10 0.984782 0.174765 0.741182
O O11 0.760544 0.476838 0.149769
O O12 0.379994 0.241419 0.628282
O O13 0.000000 0.500000 0.500000
O O14 0.140089 0.338309 0.705772
O O15 0.500000 0.000000 0.500000
O O16 0.281744 0.461607 0.513296
O O17 0.650698 0.143850 0.504332
#
# Coordination Sequence:
#
# PCOD9082330 Si02
#       8
#     2   2   2   2   2   2   2   2
#     4   9  16  31  54  78 106 136 170 210 254 308
#     4   9  18  33  52  80 110 135 171 212 257 309
#     4   8  16  30  51  80 108 137 171 208 254 306
#     4  10  19  33  54  79 107 139 176 213 252 305
#     4  11  23  37  54  73 101 142 180 217 261 313
#     4  10  20  34  51  77 108 138 172 214 266 308
#     4   8  16  29  51  82 107 134 169 210 257 304
#     4   9  16  30  53  80 109 134 165 212 261 309
#
# _framework density 22.299973000000001
#
# number of rings (size 3 to 8) (size 9 to 14) (size 15 to 20)
#    0.000    2.750    0.000    4.500    0.000    1.500 
#    0.000   10.625    0.000   15.000    0.000    0.000 
#    0.000    0.000    0.000    0.000    0.000    0.000 
#
# Total GULP energy -89204.365751 kJ/mol
# GULP energy per Si atom -5575.272859 kJ/mol
# Density = 2.224922 g / cm^3
# Si number density = 22.299973 Si / 1000 Ang^3
#
#
#
# Elastic Constant Matrix: (Units=GPa)
#
#
# Indices 1 2 3 4 5 6 
#
# 1 83.3329 60.8611 42.0835 2.1584 9.9905 40.9692
# 2 60.8611 165.6928 81.6680 -15.4575 19.9464 34.5555
# 3 42.0835 81.6680 73.3666 -2.6423 18.4383 28.9778
# 4 2.1584 -15.4575 -2.6423 49.0887 9.4860 4.9389
# 5 9.9905 19.9464 18.4383 9.4860 33.8908 16.1287
# 6 40.9692 34.5555 28.9778 4.9389 16.1287 44.1721
#
#
#
# Elastic Compliance Matrix: (Units=1/GPa)
#
#
# Indices 1 2 3 4 5 6 
#
# 1 0.027060 -0.004722 -0.003799 -0.002210 0.007710 -0.021480
# 2 -0.004722 0.014892 -0.014095 0.004294 -0.001959 0.002211
# 3 -0.003799 -0.014095 0.035716 -0.000379 -0.006903 -0.006317
# 4 -0.002210 0.004294 -0.000379 0.023395 -0.007828 -0.000818
# 5 0.007710 -0.001959 -0.006903 -0.007828 0.041678 -0.015433
# 6 -0.021480 0.002211 -0.006317 -0.000818 -0.015433 0.050702
#
#
# Mechanical properties :
#
#
# Convention : Reuss Voigt Hill
#
# Bulk Modulus (GPa) = 30.82986 76.84640 53.83813
# Shear Modulus (GPa) = 20.04095 34.61563 27.32829
#
# Velocity S-wave (km/s) = 3.00108 3.94416 3.50449
# Velocity P-wave (km/s) = 5.08564 7.43485 6.36949
#
# Compressibility (1/GPa) = 0.03243609
#
# Stress axis : x y z
#
# Youngs Moduli (GPa) = 36.95442 67.14854 27.99862
#
# Poissons Ratio (x) = 0.31704 0.10638
# Poissons Ratio (y) = 0.17448 0.39465
# Poissons Ratio (z) = 0.14040 0.94649
#
# Static dielectric constant tensor:
#      x y z
#    x 1.912350 -0.019900 -0.047250 
#    y -0.019900 1.859620 0.055830 
#    z -0.047250 0.055830 1.872030 
# 
# From -- ./inp_files/254481.got.cif
#   From: 2010.05.17/outbox.cif.g08.bks.cpg/sg2_128_cif.got.tgz:254481.got - 2010.06.03 11:33:40.
