data_PCOD9082060
_publ_section_title
;
Structure prediction by ZEFSAII (Michael W. Deem and Ramdas Pophale) SiO2 
 PCOD9082060
Probable space group: P -1
;
_chemical_formula_sum "Si O2"
_cell_formula_units_Z 16
_cell_length_a 11.997511
_cell_length_b 11.855405
_cell_length_c 11.403573
_cell_angle_alpha 80.492483
_cell_angle_beta 129.137194
_cell_angle_gamma 58.924893
_cell_volume 725.884932
_symmetry_space_group_name_H-M "P -1"
_symmetry_group_IT_number 2
_symmetry_cell_setting 'triclinic'
loop_
_space_group_symop_operation_xyz
x,y,z
-x,-y,-z
loop_
_atom_site_type_symbol
_atom_site_label
_atom_site_fract_x
_atom_site_fract_y
_atom_site_fract_z
Si Si1 0.224699 0.095174 0.889080
Si Si2 0.554943 0.615339 0.746243
Si Si3 0.309858 0.213610 0.209802
Si Si4 0.917193 0.165947 0.483749
Si Si5 0.678433 0.785172 0.502805
Si Si6 0.725779 0.692547 0.229892
Si Si7 0.179893 0.577162 0.806188
Si Si8 0.833768 0.448567 0.727437
O O1 0.263881 0.202651 0.863234
O O2 0.128502 0.093784 0.708486
O O3 0.990078 0.253718 0.793645
O O4 0.492813 0.866104 0.130360
O O5 0.553751 0.754961 0.729017
O O6 0.292214 0.733786 0.580411
O O7 0.659472 0.516993 0.704286
O O8 0.728520 0.462693 0.994408
O O9 0.293016 0.213739 0.337901
O O10 0.441933 0.015810 0.281257
O O11 0.044930 0.384360 0.946012
O O12 0.815292 0.316651 0.291136
O O13 0.000000 0.000000 0.500000
O O14 0.695111 0.636246 0.527278
O O15 0.906968 0.700812 0.610062
O O16 0.669261 0.619211 0.125626
O O17 0.000000 0.500000 0.500000
#
# Coordination Sequence:
#
# PCOD9082060 Si02
#       8
#     2   2   2   2   2   2   2   2
#     4  11  25  42  66 101 132 173 218 269 336 391
#     4  11  22  41  64  97 134 181 219 269 330 390
#     4  10  19  36  62  99 132 164 217 274 324 392
#     4  12  27  44  65  93 134 182 226 268 320 404
#     4  10  19  32  64  99 126 165 208 271 339 372
#     4  11  23  42  70 101 132 167 215 283 332 383
#     4  12  21  41  69  95 128 169 225 273 331 385
#     4  11  21  40  66  96 139 162 218 282 331 388
#
# _framework density 22.042059999999999
#
# number of rings (size 3 to 8) (size 9 to 14) (size 15 to 20)
#    0.000    1.000    5.000    2.625    1.750    1.500 
#    0.000    0.000    0.000    1.500    0.000    0.000 
#    0.000    0.000    0.000    0.000    0.000    0.000 
#
# Total GULP energy -89397.167953 kJ/mol
# GULP energy per Si atom -5587.322997 kJ/mol
# Density = 2.199189 g / cm^3
# Si number density = 22.042060 Si / 1000 Ang^3
#
#
#
# Elastic Constant Matrix: (Units=GPa)
#
#
# Indices 1 2 3 4 5 6 
#
# 1 133.3331 50.4161 26.3382 -20.0078 -2.9491 -10.2811
# 2 50.4161 130.3726 29.9119 -28.4571 -5.7710 -17.4662
# 3 26.3382 29.9119 74.9984 -32.0235 -8.6380 -2.2025
# 4 -20.0078 -28.4571 -32.0235 40.3795 -1.7767 8.1834
# 5 -2.9491 -5.7710 -8.6380 -1.7767 22.8725 -2.9828
# 6 -10.2811 -17.4662 -2.2025 8.1834 -2.9828 33.9722
#
#
#
# Elastic Compliance Matrix: (Units=1/GPa)
#
#
# Indices 1 2 3 4 5 6 
#
# 1 0.009107 -0.002785 -0.001575 0.001109 0.000088 0.000962
# 2 -0.002785 0.010599 -0.000707 0.004921 0.002904 0.003630
# 3 -0.001575 -0.000707 0.022706 0.017706 0.009200 -0.002825
# 4 0.001109 0.004921 0.017706 0.044464 0.010775 -0.005751
# 5 0.000088 0.002904 0.009200 0.010775 0.049278 0.003847
# 6 0.000962 0.003630 -0.002825 -0.005751 0.003847 0.033133
#
#
# Mechanical properties :
#
#
# Convention : Reuss Voigt Hill
#
# Bulk Modulus (GPa) = 30.98277 61.33739 46.16008
# Shear Modulus (GPa) = 26.29085 34.91402 30.60243
#
# Velocity S-wave (km/s) = 3.45738 3.98423 3.73012
# Velocity P-wave (km/s) = 5.47948 7.00381 6.28800
#
# Compressibility (1/GPa) = 0.03227601
#
# Stress axis : x y z
#
# Youngs Moduli (GPa) = 109.80563 94.35286 44.04196
#
# Poissons Ratio (x) = 0.26281 0.06939
# Poissons Ratio (y) = 0.30585 0.03113
# Poissons Ratio (z) = 0.17299 0.06668
#
# Static dielectric constant tensor:
#      x y z
#    x 1.787780 -0.061910 -0.011330 
#    y -0.061910 1.878200 0.004170 
#    z -0.011330 0.004170 1.860160 
# 
# From -- ./inp_files/428230.got.cif
#   From: 2010.05.17/outbox.cif.g08.bks.cpg/sg2_215_cif.got.tgz:428230.got - 2010.06.03 11:33:40.
