data_PCOD9082500
_publ_section_title
;
Structure prediction by ZEFSAII (Michael W. Deem and Ramdas Pophale) SiO2 
 PCOD9082500
Probable space group: P -1
;
_chemical_formula_sum "Si O2"
_cell_formula_units_Z 14
_cell_length_a 16.474834
_cell_length_b 7.829654
_cell_length_c 7.981684
_cell_angle_alpha 83.178508
_cell_angle_beta 125.652941
_cell_angle_gamma 57.734164
_cell_volume 551.796356
_symmetry_space_group_name_H-M "P -1"
_symmetry_group_IT_number 2
_symmetry_cell_setting 'triclinic'
loop_
_space_group_symop_operation_xyz
x,y,z
-x,-y,-z
loop_
_atom_site_type_symbol
_atom_site_label
_atom_site_fract_x
_atom_site_fract_y
_atom_site_fract_z
Si Si1 0.181250 0.791517 0.353668
Si Si2 0.726655 0.255672 0.863011
Si Si3 0.474905 0.278759 0.908446
Si Si4 0.011948 0.812519 0.429199
Si Si5 0.253482 0.259016 0.766592
Si Si6 0.145358 0.243320 0.297903
Si Si7 0.439325 0.768976 0.606714
O O1 0.172313 0.769910 0.147763
O O2 0.358241 0.546692 0.639854
O O3 0.097468 0.761364 0.369018
O O4 0.138896 0.043081 0.313349
O O5 0.614252 0.529017 0.790175
O O6 0.635317 0.246157 0.632540
O O7 0.840731 0.001222 0.146684
O O8 0.368292 0.258243 0.838383
O O9 0.537648 0.274971 0.157303
O O10 0.616086 0.043909 0.989753
O O11 0.120306 0.528802 0.673596
O O12 0.000000 0.000000 0.500000
O O13 0.163179 0.289838 0.500925
O O14 0.305365 0.085612 0.418751
O O15 0.000000 0.500000 0.000000
#
# Coordination Sequence:
#
# PCOD9082500 Si02
#       7
#     2   2   2   2   2   2   2
#     4  10  21  36  60  87 116 155 196 237 284 345
#     4  10  19  33  55  85 113 147 193 234 281 338
#     4   9  18  35  56  83 113 150 196 232 283 343
#     4  11  22  39  61  84 116 155 196 241 290 345
#     4   9  18  33  57  80 110 153 189 233 285 338
#     4  10  20  36  58  86 120 152 189 238 292 343
#     4   9  19  34  56  82 115 151 186 234 284 339
#
# _framework density 25.371682
#
# number of rings (size 3 to 8) (size 9 to 14) (size 15 to 20)
#    0.000    2.286    0.000    3.857    0.000    6.286 
#    0.000    2.143    0.000   23.143    0.000    0.000 
#    0.000    0.000    0.000    0.000    0.000    0.000 
#
# Total GULP energy -77956.727276 kJ/mol
# GULP energy per Si atom -5568.337663 kJ/mol
# Density = 2.531394 g / cm^3
# Si number density = 25.371682 Si / 1000 Ang^3
#
#
#
# Elastic Constant Matrix: (Units=GPa)
#
#
# Indices 1 2 3 4 5 6 
#
# 1 45.6062 13.8718 7.7117 -13.2128 18.9126 -1.6142
# 2 13.8718 104.2908 42.4403 -33.1346 7.4686 -11.4274
# 3 7.7117 42.4403 196.3094 -41.3174 15.9102 9.5291
# 4 -13.2128 -33.1346 -41.3174 42.3014 -2.0401 6.4934
# 5 18.9126 7.4686 15.9102 -2.0401 26.0021 -1.5243
# 6 -1.6142 -11.4274 9.5291 6.4934 -1.5243 29.2899
#
#
#
# Elastic Compliance Matrix: (Units=1/GPa)
#
#
# Indices 1 2 3 4 5 6 
#
# 1 0.037410 -0.000420 0.004278 0.014801 -0.028796 -0.004274
# 2 -0.000420 0.013354 -0.001055 0.008663 -0.001999 0.003505
# 3 0.004278 -0.001055 0.007769 0.008514 -0.007185 -0.004965
# 4 0.014801 0.008663 0.008514 0.044018 -0.015546 -0.009142
# 5 -0.028796 -0.001999 -0.007185 -0.015546 0.063548 0.006724
# 6 -0.004274 0.003505 -0.004965 -0.009142 0.006724 0.039265
#
#
# Mechanical properties :
#
#
# Convention : Reuss Voigt Hill
#
# Bulk Modulus (GPa) = 15.59159 52.69488 34.14323
# Shear Modulus (GPa) = 22.61021 38.33085 30.47053
#
# Velocity S-wave (km/s) = 2.98847 3.89108 3.46926
# Velocity P-wave (km/s) = 4.25047 6.40325 5.43453
#
# Compressibility (1/GPa) = 0.06413716
#
# Stress axis : x y z
#
# Youngs Moduli (GPa) = 26.73112 74.88609 128.71100
#
# Poissons Ratio (x) = 0.03147 -0.55059
# Poissons Ratio (y) = 0.01123 0.13581
# Poissons Ratio (z) = -0.11435 0.07902
#
# Static dielectric constant tensor:
#      x y z
#    x 1.823670 -0.332940 -0.058770 
#    y -0.332940 1.664290 -0.198080 
#    z -0.058770 -0.198080 2.010260 
# 
# From -- ./inp_files/257153.got.cif
#   From: 2010.05.17/outbox.cif.g08.bks.cpg/sg2_129_cif.got.tgz:257153.got - 2010.06.03 11:33:40.
