data_PCOD9082533
_publ_section_title
;
Structure prediction by ZEFSAII (Michael W. Deem and Ramdas Pophale) SiO2 
 PCOD9082533
Probable space group: P -1
;
_chemical_formula_sum "Si O2"
_cell_formula_units_Z 16
_cell_length_a 15.422181
_cell_length_b 15.677080
_cell_length_c 9.284774
_cell_angle_alpha 68.655287
_cell_angle_beta 94.734615
_cell_angle_gamma 34.678372
_cell_volume 824.863871
_symmetry_space_group_name_H-M "P -1"
_symmetry_group_IT_number 2
_symmetry_cell_setting 'triclinic'
loop_
_space_group_symop_operation_xyz
x,y,z
-x,-y,-z
loop_
_atom_site_type_symbol
_atom_site_label
_atom_site_fract_x
_atom_site_fract_y
_atom_site_fract_z
Si Si1 0.912429 0.900268 0.466190
Si Si2 0.529414 0.168270 0.753052
Si Si3 0.072321 0.824580 0.127631
Si Si4 0.175134 0.980674 0.293129
Si Si5 0.363355 0.806552 0.003087
Si Si6 0.255433 0.204026 0.876883
Si Si7 0.934323 0.432525 0.459788
Si Si8 0.709082 0.343670 0.464001
O O1 0.004129 0.716946 0.527709
O O2 0.085311 0.812373 0.499341
O O3 0.885468 0.924101 0.617649
O O4 0.681815 0.142386 0.203168
O O5 0.636098 0.140239 0.680682
O O6 0.527842 0.213958 0.886418
O O7 0.274985 0.384244 0.574989
O O8 0.696257 0.921019 0.922936
O O9 0.274448 0.631743 0.385256
O O10 0.038282 0.818138 0.966988
O O11 0.879863 0.960979 0.105943
O O12 0.000000 0.000000 0.000000
O O13 0.261705 0.792930 0.439599
O O14 0.493836 0.590392 0.204547
O O15 0.124374 0.425516 0.740178
O O16 0.134526 0.271185 0.686445
O O17 0.500000 0.000000 0.000000
#
# Coordination Sequence:
#
# PCOD9082533 Si02
#       8
#     2   2   2   2   2   2   2   2
#     4  11  21  37  56  86 122 155 196 241 290 341
#     4  10  19  36  58  87 112 147 197 240 281 345
#     4   8  18  34  52  76 104 151 199 242 271 326
#     4  10  22  36  56  87 126 153 192 250 288 330
#     4  10  19  33  56  76 111 154 200 233 274 336
#     4   9  19  36  64  90 108 138 199 239 286 355
#     4  10  19  36  64  86 108 152 190 238 291 352
#     4  10  20  38  57  79 116 169 205 231 278 339
#
# _framework density 19.397141999999999
#
# number of rings (size 3 to 8) (size 9 to 14) (size 15 to 20)
#    0.000    2.250    2.500    0.375    0.000    5.000 
#    0.000    5.625    0.000    6.750    0.000    0.000 
#    0.000    0.000    0.000    0.000    0.000    0.000 
#
# Total GULP energy -89135.300763 kJ/mol
# GULP energy per Si atom -5570.956298 kJ/mol
# Density = 1.935299 g / cm^3
# Si number density = 19.397142 Si / 1000 Ang^3
#
#
#
# Elastic Constant Matrix: (Units=GPa)
#
#
# Indices 1 2 3 4 5 6 
#
# 1 119.7505 39.9127 37.4957 -5.2035 -8.9446 7.0543
# 2 39.9127 63.6058 60.9062 9.2827 -5.0935 -0.2726
# 3 37.4957 60.9062 110.8939 3.9303 -7.0245 7.9407
# 4 -5.2035 9.2827 3.9303 33.1792 5.6027 -6.9792
# 5 -8.9446 -5.0935 -7.0245 5.6027 31.9043 -6.6847
# 6 7.0543 -0.2726 7.9407 -6.9792 -6.6847 13.0257
#
#
#
# Elastic Compliance Matrix: (Units=1/GPa)
#
#
# Indices 1 2 3 4 5 6 
#
# 1 0.011338 -0.008745 0.001277 0.002877 0.000441 -0.005334
# 2 -0.008745 0.043486 -0.021537 -0.008255 0.004712 0.016771
# 3 0.001277 -0.021537 0.021316 0.000928 -0.001577 -0.014450
# 4 0.002877 -0.008255 0.000928 0.036650 -0.003485 0.015553
# 5 0.000441 0.004712 -0.001577 -0.003485 0.036153 0.017508
# 6 -0.005334 0.016771 -0.014450 0.015553 0.017508 0.106138
#
#
# Mechanical properties :
#
#
# Convention : Reuss Voigt Hill
#
# Bulk Modulus (GPa) = 55.15360 63.43104 59.29232
# Shear Modulus (GPa) = 15.66748 26.01753 20.84251
#
# Velocity S-wave (km/s) = 2.84513 3.66636 3.28153
# Velocity P-wave (km/s) = 6.26806 7.12005 6.70760
#
# Compressibility (1/GPa) = 0.01813118
#
# Stress axis : x y z
#
# Youngs Moduli (GPa) = 88.20242 22.99595 46.91261
#
# Poissons Ratio (x) = 0.20110 -0.05993
# Poissons Ratio (y) = 0.77133 1.01034
# Poissons Ratio (z) = -0.11267 0.49526
#
# Static dielectric constant tensor:
#      x y z
#    x 1.748000 0.007930 -0.010740 
#    y 0.007930 1.660860 -0.023350 
#    z -0.010740 -0.023350 1.773820 
# 
# From -- ./inp_files/90103.got.cif
#   From: 2010.05.17/outbox.cif.g08.bks.cpg/sg2_46_cif.got.tgz:90103.got - 2010.06.03 11:33:40.
