data_PCOD9082012
_publ_section_title
;
Structure prediction by ZEFSAII (Michael W. Deem and Ramdas Pophale) SiO2 
 PCOD9082012
Probable space group: P -1
;
_chemical_formula_sum "Si O2"
_cell_formula_units_Z 14
_cell_length_a 7.261499
_cell_length_b 5.340064
_cell_length_c 14.540347
_cell_angle_alpha 100.003793
_cell_angle_beta 75.914228
_cell_angle_gamma 101.039729
_cell_volume 531.949934
_symmetry_space_group_name_H-M "P -1"
_symmetry_group_IT_number 2
_symmetry_cell_setting 'triclinic'
loop_
_space_group_symop_operation_xyz
x,y,z
-x,-y,-z
loop_
_atom_site_type_symbol
_atom_site_label
_atom_site_fract_x
_atom_site_fract_y
_atom_site_fract_z
Si Si1 0.529857 0.302766 0.114135
Si Si2 0.921504 0.805269 0.874587
Si Si3 0.460156 0.122464 0.413770
Si Si4 0.116839 0.780010 0.657249
Si Si5 0.115801 0.243594 0.555137
Si Si6 0.857492 0.312217 0.924736
Si Si7 0.573435 0.176315 0.783291
O O1 0.311587 0.237733 0.096386
O O2 0.531553 0.574009 0.183014
O O3 0.547544 0.069231 0.166056
O O4 0.676588 0.312231 0.013266
O O5 0.985310 0.586702 0.914697
O O6 0.991466 0.772085 0.761896
O O7 0.985162 0.094986 0.913767
O O8 0.662437 0.260077 0.359551
O O9 0.306317 0.301389 0.472033
O O10 0.500000 0.000000 0.500000
O O11 0.383395 0.916002 0.330420
O O12 0.037875 0.511624 0.596549
O O13 0.138715 0.074580 0.634107
O O14 0.000000 0.000000 0.500000
O O15 0.762194 0.246861 0.829568
#
# Coordination Sequence:
#
# PCOD9082012 Si02
#       7
#     2   2   2   2   2   2   2
#     4  10  20  34  61  91 122 153 205 265 312 357
#     4  10  19  32  60  84 123 153 200 245 316 363
#     4  10  25  45  63  89 133 174 206 251 317 381
#     4  11  24  42  60  90 128 169 201 255 325 368
#     4  11  25  41  66  89 122 160 218 268 304 360
#     4  10  19  36  59  93 122 155 200 267 313 356
#     4  10  20  34  61  86 118 160 213 242 307 368
#
# _framework density 26.318269000000001
#
# number of rings (size 3 to 8) (size 9 to 14) (size 15 to 20)
#    0.000    1.714    0.000    6.000    8.000    4.571 
#    0.000    0.000    0.000    9.429    0.000    0.000 
#    0.000    0.000    0.000    0.000    0.000    0.000 
#
# Total GULP energy -78297.125837 kJ/mol
# GULP energy per Si atom -5592.651846 kJ/mol
# Density = 2.625837 g / cm^3
# Si number density = 26.318269 Si / 1000 Ang^3
#
#
#
# Elastic Constant Matrix: (Units=GPa)
#
#
# Indices 1 2 3 4 5 6 
#
# 1 61.4896 7.0883 30.2489 -3.6884 -6.4773 7.2869
# 2 7.0883 182.3279 50.8413 20.7844 -5.4915 -32.1291
# 3 30.2489 50.8413 159.1224 23.7246 -3.3129 -7.1829
# 4 -3.6884 20.7844 23.7246 49.3620 5.8537 -6.8631
# 5 -6.4773 -5.4915 -3.3129 5.8537 37.7935 7.0185
# 6 7.2869 -32.1291 -7.1829 -6.8631 7.0185 37.3366
#
#
#
# Elastic Compliance Matrix: (Units=1/GPa)
#
#
# Indices 1 2 3 4 5 6 
#
# 1 0.019489 -0.000783 -0.004006 0.002541 0.003491 -0.005437
# 2 -0.000783 0.007153 -0.001661 -0.001466 -0.000078 0.005734
# 3 -0.004006 -0.001661 0.008115 -0.003504 0.000286 0.000216
# 4 0.002541 -0.001466 -0.003504 0.023630 -0.004248 0.002711
# 5 0.003491 -0.000078 0.000286 -0.004248 0.029016 -0.006929
# 6 -0.005437 0.005734 0.000216 0.002711 -0.006929 0.034621
#
#
# Mechanical properties :
#
#
# Convention : Reuss Voigt Hill
#
# Bulk Modulus (GPa) = 45.75380 64.36631 55.06005
# Shear Modulus (GPa) = 35.15900 45.88252 40.52076
#
# Velocity S-wave (km/s) = 3.65898 4.17990 3.92809
# Velocity P-wave (km/s) = 5.93914 6.91415 6.44511
#
# Compressibility (1/GPa) = 0.02185611
#
# Stress axis : x y z
#
# Youngs Moduli (GPa) = 51.31214 139.79322 123.23049
#
# Poissons Ratio (x) = 0.10950 0.49368
# Poissons Ratio (y) = 0.04019 0.20468
# Poissons Ratio (z) = 0.20556 0.23219
#
# Static dielectric constant tensor:
#      x y z
#    x 2.281810 -0.077690 0.236550 
#    y -0.077690 2.287600 -0.068700 
#    z 0.236550 -0.068700 2.179840 
# 
# From -- ./inp_files/49252.got.cif
#   From: 2010.05.17/outbox.cif.g08.bks.cpg/sg2_25_cif.got.tgz:49252.got - 2010.06.03 11:33:40.
