data_PCOD9082978
_publ_section_title
;
Structure prediction by ZEFSAII (Michael W. Deem and Ramdas Pophale) SiO2 
 PCOD9082978
Probable space group: P -1
;
_chemical_formula_sum "Si O2"
_cell_formula_units_Z 16
_cell_length_a 13.047489
_cell_length_b 11.558049
_cell_length_c 8.115137
_cell_angle_alpha 80.267923
_cell_angle_beta 123.184714
_cell_angle_gamma 127.474642
_cell_volume 787.673789
_symmetry_space_group_name_H-M "P -1"
_symmetry_group_IT_number 2
_symmetry_cell_setting 'triclinic'
loop_
_space_group_symop_operation_xyz
x,y,z
-x,-y,-z
loop_
_atom_site_type_symbol
_atom_site_label
_atom_site_fract_x
_atom_site_fract_y
_atom_site_fract_z
Si Si1 0.649756 0.626443 0.450263
Si Si2 0.099193 0.510655 0.235095
Si Si3 0.847984 0.759456 0.929717
Si Si4 0.549312 0.333355 0.560746
Si Si5 0.839947 0.984995 0.061239
Si Si6 0.044611 0.708144 0.308870
Si Si7 0.356592 0.003049 0.351105
Si Si8 0.029308 0.226881 0.421093
O O1 0.573662 0.452152 0.419202
O O2 0.513654 0.641247 0.335029
O O3 0.796221 0.724928 0.434318
O O4 0.728682 0.679877 0.691094
O O5 0.279291 0.620965 0.305863
O O6 0.068358 0.583507 0.338905
O O7 0.049555 0.350194 0.284109
O O8 0.000000 0.500000 0.000000
O O9 0.896903 0.667299 0.081573
O O10 0.802671 0.829356 0.010843
O O11 0.009321 0.896260 0.950179
O O12 0.418123 0.160378 0.445570
O O13 0.702372 0.991489 0.882798
O O14 0.905262 0.059372 0.279644
O O15 0.020263 0.746722 0.457836
O O16 0.204305 0.859665 0.340424
O O17 0.500000 0.000000 0.500000
#
# Coordination Sequence:
#
# PCOD9082978 Si02
#       8
#     2   2   2   2   2   2   2   2
#     4   9  18  36  59  83 107 143 194 238 275 325
#     4  11  21  39  63  83 107 149 198 231 268 336
#     4   9  17  33  56  79 106 144 195 230 265 323
#     4  10  19  33  60  84 106 142 194 242 267 317
#     4   9  18  34  54  79 108 149 190 230 267 328
#     4  11  22  35  56  86 117 150 178 233 290 335
#     4  11  20  35  58  82 114 149 198 229 272 335
#     4  10  22  36  56  85 118 145 182 233 292 335
#
# _framework density 20.312978999999999
#
# number of rings (size 3 to 8) (size 9 to 14) (size 15 to 20)
#    0.000    2.000    2.500    3.375    1.750    0.500 
#    0.000    0.625    0.000   15.000    0.000    0.000 
#    0.000    0.000    0.000    0.000    0.000    0.000 
#
# Total GULP energy -89156.835068 kJ/mol
# GULP energy per Si atom -5572.302192 kJ/mol
# Density = 2.026675 g / cm^3
# Si number density = 20.312979 Si / 1000 Ang^3
#
#
#
# Elastic Constant Matrix: (Units=GPa)
#
#
# Indices 1 2 3 4 5 6 
#
# 1 137.9043 7.5461 35.7315 3.3973 1.9634 -12.2009
# 2 7.5461 53.6490 -1.6884 10.3307 -0.3596 -17.5684
# 3 35.7315 -1.6884 38.3596 1.4415 7.9494 3.9167
# 4 3.3973 10.3307 1.4415 17.8442 -2.3755 -2.0097
# 5 1.9634 -0.3596 7.9494 -2.3755 33.7614 7.9229
# 6 -12.2009 -17.5684 3.9167 -2.0097 7.9229 30.2881
#
#
#
# Elastic Compliance Matrix: (Units=1/GPa)
#
#
# Indices 1 2 3 4 5 6 
#
# 1 0.010407 0.000084 -0.010332 -0.000517 0.000523 0.005406
# 2 0.000084 0.026456 0.000992 -0.014278 -0.004601 0.015507
# 3 -0.010332 0.000992 0.038010 -0.003382 -0.006956 -0.006906
# 4 -0.000517 -0.014278 -0.003382 0.064933 0.006522 -0.005451
# 5 0.000523 -0.004601 -0.006956 0.006522 0.033987 -0.010016
# 6 0.005406 0.015507 -0.006906 -0.005451 -0.010016 0.047340
#
#
# Mechanical properties :
#
#
# Convention : Reuss Voigt Hill
#
# Bulk Modulus (GPa) = 17.74187 34.78792 26.26490
# Shear Modulus (GPa) = 19.34752 28.93368 24.14060
#
# Velocity S-wave (km/s) = 3.08956 3.77821 3.45110
# Velocity P-wave (km/s) = 4.63470 6.01633 5.37013
#
# Compressibility (1/GPa) = 0.05636384
#
# Stress axis : x y z
#
# Youngs Moduli (GPa) = 96.08611 37.79897 26.30874
#
# Poissons Ratio (x) = -0.00319 0.27181
# Poissons Ratio (y) = -0.00811 -0.02611
# Poissons Ratio (z) = 0.99272 -0.03751
#
# Static dielectric constant tensor:
#      x y z
#    x 1.767660 -0.034570 0.019210 
#    y -0.034570 1.747310 0.008980 
#    z 0.019210 0.008980 1.769960 
# 
# From -- ./inp_files/252196.got.cif
#   From: 2010.05.17/outbox.cif.g08.bks.cpg/sg2_127_cif.got.tgz:252196.got - 2010.06.03 11:33:40.
