data_PCOD9082366
_publ_section_title
;
Structure prediction by ZEFSAII (Michael W. Deem and Ramdas Pophale) SiO2 
 PCOD9082366
Probable space group: P -1
;
_chemical_formula_sum "Si O2"
_cell_formula_units_Z 16
_cell_length_a 18.207679
_cell_length_b 10.889259
_cell_length_c 10.083332
_cell_angle_alpha 130.378188
_cell_angle_beta 50.375077
_cell_angle_gamma 153.146705
_cell_volume 677.470717
_symmetry_space_group_name_H-M "P -1"
_symmetry_group_IT_number 2
_symmetry_cell_setting 'triclinic'
loop_
_space_group_symop_operation_xyz
x,y,z
-x,-y,-z
loop_
_atom_site_type_symbol
_atom_site_label
_atom_site_fract_x
_atom_site_fract_y
_atom_site_fract_z
Si Si1 0.111354 0.528210 0.632284
Si Si2 0.641482 0.574380 0.335198
Si Si3 0.153361 0.933738 0.205253
Si Si4 0.010014 0.813931 0.715827
Si Si5 0.870795 0.986945 0.996663
Si Si6 0.543775 0.880825 0.321258
Si Si7 0.269450 0.425910 0.503865
Si Si8 0.464018 0.617147 0.964051
O O1 0.258982 0.858926 0.710997
O O2 0.183198 0.464116 0.573092
O O3 0.947554 0.326659 0.767422
O O4 0.075604 0.434242 0.454894
O O5 0.500000 0.500000 0.500000
O O6 0.805422 0.905527 0.355112
O O7 0.679369 0.495136 0.347771
O O8 0.602598 0.438903 0.144920
O O9 0.084134 0.867505 0.091454
O O10 0.158467 0.115409 0.396399
O O11 0.344534 0.156052 0.122003
O O12 0.033725 0.814292 0.845263
O O13 0.921320 0.866167 0.842885
O O14 0.671068 0.699010 0.046528
O O15 0.500000 0.000000 0.500000
O O16 0.435600 0.625369 0.366762
O O17 0.475289 0.761938 0.169776
#
# Coordination Sequence:
#
# PCOD9082366 Si02
#       8
#     2   2   2   2   2   2   2   2
#     4  11  21  38  57  84 121 156 191 231 290 350
#     4  11  21  35  58  94 119 144 190 251 297 334
#     4  12  20  34  62  89 114 145 198 248 287 337
#     4  10  19  33  54  81 120 146 185 242 293 331
#     4  10  20  32  54  89 111 143 191 247 288 336
#     4  10  23  40  58  80 118 162 195 232 285 354
#     4  11  20  37  62  88 114 156 197 235 288 349
#     4  11  22  37  59  86 120 149 195 241 296 337
#
# _framework density 23.617256000000001
#
# number of rings (size 3 to 8) (size 9 to 14) (size 15 to 20)
#    0.000    1.250    5.000    2.250    0.000    0.500 
#    0.000    3.750    0.000    3.750    0.000    0.000 
#    0.000    0.000    0.000    0.000    0.000    0.000 
#
# Total GULP energy -89480.492326 kJ/mol
# GULP energy per Si atom -5592.530770 kJ/mol
# Density = 2.356350 g / cm^3
# Si number density = 23.617256 Si / 1000 Ang^3
#
#
#
# Elastic Constant Matrix: (Units=GPa)
#
#
# Indices 1 2 3 4 5 6 
#
# 1 39.2311 16.2384 35.4382 14.1233 20.0589 6.5180
# 2 16.2384 142.5881 51.6157 -1.3281 5.4276 3.9768
# 3 35.4382 51.6157 172.0771 30.6538 47.5755 0.0759
# 4 14.1233 -1.3281 30.6538 45.0464 10.9525 3.5951
# 5 20.0589 5.4276 47.5755 10.9525 46.6850 1.8077
# 6 6.5180 3.9768 0.0759 3.5951 1.8077 20.3075
#
#
#
# Elastic Compliance Matrix: (Units=1/GPa)
#
#
# Indices 1 2 3 4 5 6 
#
# 1 0.039249 -0.002812 -0.002769 -0.006873 -0.011723 -0.009776
# 2 -0.002812 0.008473 -0.003274 0.002757 0.002971 -0.001497
# 3 -0.002769 -0.003274 0.010415 -0.004592 -0.008083 0.003024
# 4 -0.006873 0.002757 -0.004592 0.027587 0.000967 -0.003287
# 5 -0.011723 0.002971 -0.008083 0.000967 0.034122 0.000003
# 6 -0.009776 -0.001497 0.003024 -0.003287 0.000003 0.053244
#
#
# Mechanical properties :
#
#
# Convention : Reuss Voigt Hill
#
# Bulk Modulus (GPa) = 24.73724 62.27566 43.50645
# Shear Modulus (GPa) = 24.47646 39.11471 31.79558
#
# Velocity S-wave (km/s) = 3.22278 4.07405 3.67316
# Velocity P-wave (km/s) = 4.93410 6.96825 6.03746
#
# Compressibility (1/GPa) = 0.04042488
#
# Stress axis : x y z
#
# Youngs Moduli (GPa) = 25.47858 118.02088 96.01247
#
# Poissons Ratio (x) = 0.33192 0.26590
# Poissons Ratio (y) = 0.07166 0.31437
# Poissons Ratio (z) = 0.07056 0.38643
#
# Static dielectric constant tensor:
#      x y z
#    x 1.930000 0.040690 -0.053480 
#    y 0.040690 1.933220 -0.037260 
#    z -0.053480 -0.037260 1.943040 
# 
# From -- ./inp_files/354582.got.cif
#   From: 2010.05.17/outbox.cif.g08.bks.cpg/sg2_178_cif.got.tgz:354582.got - 2010.06.03 11:33:40.
