data_PCOD9082762
_publ_section_title
;
Structure prediction by ZEFSAII (Michael W. Deem and Ramdas Pophale) SiO2 
 PCOD9082762
Probable space group: P -1
;
_chemical_formula_sum "Si O2"
_cell_formula_units_Z 16
_cell_length_a 11.425059
_cell_length_b 14.518661
_cell_length_c 8.297653
_cell_angle_alpha 124.861039
_cell_angle_beta 98.050314
_cell_angle_gamma 41.232578
_cell_volume 628.493685
_symmetry_space_group_name_H-M "P -1"
_symmetry_group_IT_number 2
_symmetry_cell_setting 'triclinic'
loop_
_space_group_symop_operation_xyz
x,y,z
-x,-y,-z
loop_
_atom_site_type_symbol
_atom_site_label
_atom_site_fract_x
_atom_site_fract_y
_atom_site_fract_z
Si Si1 0.936844 0.847018 0.197691
Si Si2 0.368991 0.113839 0.923663
Si Si3 0.043146 0.441879 0.757813
Si Si4 0.465878 0.794384 0.122597
Si Si5 0.117529 0.662820 0.380892
Si Si6 0.664004 0.441103 0.375817
Si Si7 0.660631 0.616958 0.314778
Si Si8 0.103338 0.912881 0.106689
O O1 0.026648 0.799869 0.347668
O O2 0.731248 0.926110 0.208175
O O3 0.124449 0.618532 0.933970
O O4 0.938625 0.970003 0.240757
O O5 0.155054 0.349736 0.161858
O O6 0.484359 0.115413 0.829116
O O7 0.500000 0.000000 0.000000
O O8 0.044614 0.309958 0.607959
O O9 0.254542 0.324459 0.608792
O O10 0.000000 0.500000 0.000000
O O11 0.657871 0.571664 0.856425
O O12 0.241421 0.916239 0.161826
O O13 0.495838 0.744615 0.267654
O O14 0.154633 0.685452 0.584404
O O15 0.500000 0.500000 0.500000
O O16 0.594399 0.614710 0.466334
O O17 0.715338 0.324284 0.115743
O O18 0.000000 0.000000 0.000000
#
# Coordination Sequence:
#
# PCOD9082762 Si02
#       8
#     2   2   2   2   2   2   2   2
#     4   9  18  33  55  80 109 145 190 230 276 342
#     4  10  17  29  53  85 111 141 183 234 279 335
#     4  10  15  33  55  84 111 138 192 240 275 336
#     4  10  18  33  58  80 108 147 194 233 273 339
#     4  10  18  33  57  83 110 145 184 240 288 323
#     4  11  23  35  54  83 117 142 188 244 286 329
#     4   9  18  32  56  83 106 144 191 239 276 329
#     4  11  23  37  54  81 113 149 194 233 281 349
#
# _framework density 25.457692999999999
#
# number of rings (size 3 to 8) (size 9 to 14) (size 15 to 20)
#    0.000    2.000    6.250    0.750    1.750    2.000 
#    0.000    0.625    0.000    0.000    0.000   13.125 
#    0.000    0.000    0.000    0.000    0.000    0.000 
#
# Total GULP energy -89241.834033 kJ/mol
# GULP energy per Si atom -5577.614627 kJ/mol
# Density = 2.539975 g / cm^3
# Si number density = 25.457693 Si / 1000 Ang^3
#
#
#
# Elastic Constant Matrix: (Units=GPa)
#
#
# Indices 1 2 3 4 5 6 
#
# 1 246.7637 87.6859 36.4209 -37.7618 -5.3492 -1.6330
# 2 87.6859 164.1844 15.9789 -42.4367 -12.7926 -6.1128
# 3 36.4209 15.9789 57.7570 -2.8958 5.6295 6.3704
# 4 -37.7618 -42.4367 -2.8958 41.9026 1.6723 -4.6848
# 5 -5.3492 -12.7926 5.6295 1.6723 33.0514 -7.6166
# 6 -1.6330 -6.1128 6.3704 -4.6848 -7.6166 36.2336
#
#
#
# Elastic Compliance Matrix: (Units=1/GPa)
#
#
# Indices 1 2 3 4 5 6 
#
# 1 0.005659 -0.001799 -0.003114 0.003150 0.000840 0.001083
# 2 -0.001799 0.009968 -0.002063 0.008603 0.004405 0.004002
# 3 -0.003114 -0.002063 0.020896 -0.003873 -0.006032 -0.005931
# 4 0.003150 0.008603 -0.003873 0.035847 0.004496 0.007854
# 5 0.000840 0.004405 -0.006032 0.004496 0.035158 0.009813
# 6 0.001083 0.004002 -0.005931 0.007854 0.009813 0.032444
#
#
# Mechanical properties :
#
#
# Convention : Reuss Voigt Hill
#
# Bulk Modulus (GPa) = 44.30379 83.20850 63.75615
# Shear Modulus (GPa) = 30.96985 44.14548 37.55766
#
# Velocity S-wave (km/s) = 3.49165 4.16874 3.84513
# Velocity P-wave (km/s) = 5.80484 7.47844 6.69415
#
# Compressibility (1/GPa) = 0.02257143
#
# Stress axis : x y z
#
# Youngs Moduli (GPa) = 176.71627 100.31946 47.85580
#
# Poissons Ratio (x) = 0.18050 0.14902
# Poissons Ratio (y) = 0.31796 0.09871
# Poissons Ratio (z) = 0.55029 0.20692
#
# Static dielectric constant tensor:
#      x y z
#    x 2.232800 0.032540 0.060410 
#    y 0.032540 2.031430 0.103280 
#    z 0.060410 0.103280 2.088800 
# 
# From -- ./inp_files/270701.got.cif
#   From: 2010.05.17/outbox.cif.g08.bks.cpg/sg2_136_cif.got.tgz:270701.got - 2010.06.03 11:33:40.
