data_PCOD9082008
_publ_section_title
;
Structure prediction by ZEFSAII (Michael W. Deem and Ramdas Pophale) SiO2 
 PCOD9082008
Probable space group: P -1
;
_chemical_formula_sum "Si O2"
_cell_formula_units_Z 14
_cell_length_a 9.417669
_cell_length_b 14.809992
_cell_length_c 16.262752
_cell_angle_alpha 17.786578
_cell_angle_beta 105.392808
_cell_angle_gamma 111.806214
_cell_volume 611.353856
_symmetry_space_group_name_H-M "P -1"
_symmetry_group_IT_number 2
_symmetry_cell_setting 'triclinic'
loop_
_space_group_symop_operation_xyz
x,y,z
-x,-y,-z
loop_
_atom_site_type_symbol
_atom_site_label
_atom_site_fract_x
_atom_site_fract_y
_atom_site_fract_z
Si Si1 0.315638 0.208110 0.812573
Si Si2 0.555808 0.260973 0.056269
Si Si3 0.297028 0.530402 0.372897
Si Si4 0.053589 0.312385 0.101614
Si Si5 0.624864 0.458445 0.314414
Si Si6 0.619414 0.368011 0.212563
Si Si7 0.875218 0.576737 0.736571
O O1 0.249656 0.256053 0.672568
O O2 0.511958 0.371549 0.696928
O O3 0.271073 0.399690 0.712256
O O4 0.272925 0.834853 0.143855
O O5 0.483107 0.413299 0.983177
O O6 0.519968 0.890818 0.388036
O O7 0.446315 0.278115 0.947881
O O8 0.733439 0.489924 0.857785
O O9 0.206417 0.464371 0.329464
O O10 0.239611 0.497256 0.947860
O O11 0.002539 0.945893 0.439415
O O12 0.000000 0.500000 0.000000
O O13 0.958700 0.339133 0.981681
O O14 0.695819 0.402409 0.287367
O O15 0.500000 0.000000 0.500000
#
# Coordination Sequence:
#
# PCOD9082008 Si02
#       7
#     2   2   2   2   2   2   2
#     4  10  19  32  59  98 127 163 223 259 318 364
#     4  10  22  38  67  90 128 172 211 261 320 377
#     4  10  20  33  60  92 134 168 206 270 316 382
#     4  12  28  44  67  97 131 171 212 269 329 397
#     4  10  21  38  63  95 128 165 215 270 310 374
#     4  10  25  45  69  93 126 169 223 264 322 387
#     4  12  24  44  64  97 138 168 213 265 338 372
#
# _framework density 22.899992999999998
#
# number of rings (size 3 to 8) (size 9 to 14) (size 15 to 20)
#    0.857    0.571    1.429    3.857    8.000    0.571 
#    0.000    0.000    0.000    5.143    0.000    0.000 
#    0.000    0.000    0.000    0.000    0.000    0.000 
#
# Total GULP energy -78178.894423 kJ/mol
# GULP energy per Si atom -5584.206745 kJ/mol
# Density = 2.284787 g / cm^3
# Si number density = 22.899993 Si / 1000 Ang^3
#
#
#
# Elastic Constant Matrix: (Units=GPa)
#
#
# Indices 1 2 3 4 5 6 
#
# 1 80.0829 34.6140 29.4397 0.7224 -22.1697 -13.6262
# 2 34.6140 118.8529 17.2990 12.1058 -3.7179 -15.0385
# 3 29.4397 17.2990 109.2863 1.8284 -6.0234 -13.3972
# 4 0.7224 12.1058 1.8284 38.3033 3.4791 12.0233
# 5 -22.1697 -3.7179 -6.0234 3.4791 38.6193 8.9055
# 6 -13.6262 -15.0385 -13.3972 12.0233 8.9055 32.8202
#
#
#
# Elastic Compliance Matrix: (Units=1/GPa)
#
#
# Indices 1 2 3 4 5 6 
#
# 1 0.018557 -0.004341 -0.003574 -0.000221 0.009278 0.001820
# 2 -0.004341 0.010797 0.000102 -0.004885 -0.002287 0.005597
# 3 -0.003574 0.000102 0.010517 -0.001533 -0.001122 0.003722
# 4 -0.000221 -0.004885 -0.001533 0.032382 -0.000359 -0.014721
# 5 0.009278 -0.002287 -0.001122 -0.000359 0.032307 -0.006289
# 6 0.001820 0.005597 0.003722 -0.014721 -0.006289 0.042408
#
#
# Mechanical properties :
#
#
# Convention : Reuss Voigt Hill
#
# Bulk Modulus (GPa) = 41.24393 52.32527 46.78460
# Shear Modulus (GPa) = 29.29514 37.07320 33.18417
#
# Velocity S-wave (km/s) = 3.58056 4.02794 3.81082
# Velocity P-wave (km/s) = 5.92819 6.67319 6.31169
#
# Compressibility (1/GPa) = 0.02424599
#
# Stress axis : x y z
#
# Youngs Moduli (GPa) = 53.88699 92.61515 95.08487
#
# Poissons Ratio (x) = 0.40207 0.33980
# Poissons Ratio (y) = 0.23394 -0.00971
# Poissons Ratio (z) = 0.19257 -0.00946
#
# Static dielectric constant tensor:
#      x y z
#    x 1.852540 0.008270 0.004170 
#    y 0.008270 1.977890 0.055610 
#    z 0.004170 0.055610 1.794850 
# 
# From -- ./inp_files/126302.got.cif
#   From: 2010.05.17/outbox.cif.g08.bks.cpg/sg2_64_cif.got.tgz:126302.got - 2010.06.03 11:33:40.
