data_PCOD9082474
_publ_section_title
;
Structure prediction by ZEFSAII (Michael W. Deem and Ramdas Pophale) SiO2 
 PCOD9082474
Probable space group: P -1
;
_chemical_formula_sum "Si O2"
_cell_formula_units_Z 14
_cell_length_a 23.355502
_cell_length_b 12.270565
_cell_length_c 18.286713
_cell_angle_alpha 30.332759
_cell_angle_beta 157.044676
_cell_angle_gamma 160.106542
_cell_volume 695.347091
_symmetry_space_group_name_H-M "P -1"
_symmetry_group_IT_number 2
_symmetry_cell_setting 'triclinic'
loop_
_space_group_symop_operation_xyz
x,y,z
-x,-y,-z
loop_
_atom_site_type_symbol
_atom_site_label
_atom_site_fract_x
_atom_site_fract_y
_atom_site_fract_z
Si Si1 0.055973 0.068681 0.939186
Si Si2 0.056563 0.894609 0.566369
Si Si3 0.527635 0.273170 0.898078
Si Si4 0.601159 0.716636 0.608088
Si Si5 0.189932 0.853828 0.111718
Si Si6 0.378777 0.837645 0.529035
Si Si7 0.132345 0.322090 0.286055
O O1 0.273491 0.452433 0.972965
O O2 0.836988 0.930775 0.724956
O O3 0.115155 0.902161 0.068744
O O4 0.000000 0.000000 0.000000
O O5 0.863679 0.514169 0.555995
O O6 0.000000 0.000000 0.500000
O O7 0.290117 0.066999 0.767383
O O8 0.079276 0.052829 0.426334
O O9 0.557984 0.455763 0.756227
O O10 0.500000 0.000000 0.000000
O O11 0.370636 0.535476 0.405517
O O12 0.630263 0.945865 0.565775
O O13 0.145901 0.548014 0.225245
O O14 0.452281 0.145162 0.243782
O O15 0.053195 0.821919 0.906293
O O16 0.500000 0.000000 0.500000
#
# Coordination Sequence:
#
# PCOD9082474 Si02
#       7
#     2   2   2   2   2   2   2
#     4  10  19  33  55  83 110 144 183 224 275 328
#     4  11  21  34  56  81 110 145 188 239 278 324
#     4  10  20  33  51  81 112 140 180 231 280 327
#     4   9  19  34  53  77 109 145 183 224 275 334
#     4  10  20  37  58  81 117 150 187 230 273 340
#     4  11  20  35  56  81 111 145 185 231 285 335
#     4   9  21  38  56  83 113 151 190 227 280 330
#
# _framework density 20.133831000000001
#
# number of rings (size 3 to 8) (size 9 to 14) (size 15 to 20)
#    0.000    2.000    0.000    6.000    0.000    4.571 
#    0.000    0.000    0.000    7.714    0.000    0.000 
#    0.000    0.000    0.000    0.000    0.000    0.000 
#
# Total GULP energy -77974.135645 kJ/mol
# GULP energy per Si atom -5569.581118 kJ/mol
# Density = 2.008801 g / cm^3
# Si number density = 20.133831 Si / 1000 Ang^3
#
#
#
# Elastic Constant Matrix: (Units=GPa)
#
#
# Indices 1 2 3 4 5 6 
#
# 1 36.7104 24.7540 25.3506 5.0866 16.4019 -12.7854
# 2 24.7540 126.1601 55.1532 19.9334 10.8093 -0.9289
# 3 25.3506 55.1532 150.7170 27.4172 29.4094 0.5280
# 4 5.0866 19.9334 27.4172 42.2561 -5.2163 9.2710
# 5 16.4019 10.8093 29.4094 -5.2163 38.2420 0.2131
# 6 -12.7854 -0.9289 0.5280 9.2710 0.2131 21.6529
#
#
#
# Elastic Compliance Matrix: (Units=1/GPa)
#
#
# Indices 1 2 3 4 5 6 
#
# 1 0.061381 -0.006854 0.000574 -0.017506 -0.027461 0.043701
# 2 -0.006854 0.010540 -0.002811 -0.001441 0.001942 -0.002928
# 3 0.000574 -0.002811 0.010576 -0.007370 -0.008608 0.003201
# 4 -0.017506 -0.001441 -0.007370 0.039600 0.019138 -0.027363
# 5 -0.027461 0.001942 -0.008608 0.019138 0.046746 -0.024576
# 6 0.043701 -0.002928 0.003201 -0.027363 -0.024576 0.083741
#
#
# Mechanical properties :
#
#
# Convention : Reuss Voigt Hill
#
# Bulk Modulus (GPa) = 15.54832 58.23369 36.89100
# Shear Modulus (GPa) = 17.11132 34.31884 25.71508
#
# Velocity S-wave (km/s) = 2.91843 4.13308 3.57768
# Velocity P-wave (km/s) = 4.36985 7.19462 5.95223
#
# Compressibility (1/GPa) = 0.06431565
#
# Stress axis : x y z
#
# Youngs Moduli (GPa) = 16.29170 94.87943 94.55193
#
# Poissons Ratio (x) = 0.65029 -0.05425
# Poissons Ratio (y) = 0.11166 0.26574
# Poissons Ratio (z) = -0.00935 0.26666
#
# Static dielectric constant tensor:
#      x y z
#    x 1.729360 -0.007030 -0.023330 
#    y -0.007030 1.691180 0.068220 
#    z -0.023330 0.068220 1.764050 
# 
# From -- ./inp_files/196228.got.cif
#   From: 2010.05.17/outbox.cif.g08.bks.cpg/sg2_99_cif.got.tgz:196228.got - 2010.06.03 11:33:40.
