data_PCOD9082861
_publ_section_title
;
Structure prediction by ZEFSAII (Michael W. Deem and Ramdas Pophale) SiO2 
 PCOD9082861
Probable space group: P -1
;
_chemical_formula_sum "Si O2"
_cell_formula_units_Z 16
_cell_length_a 9.471021
_cell_length_b 13.989725
_cell_length_c 19.302249
_cell_angle_alpha 18.523663
_cell_angle_beta 129.269884
_cell_angle_gamma 131.240903
_cell_volume 610.624429
_symmetry_space_group_name_H-M "P -1"
_symmetry_group_IT_number 2
_symmetry_cell_setting 'triclinic'
loop_
_space_group_symop_operation_xyz
x,y,z
-x,-y,-z
loop_
_atom_site_type_symbol
_atom_site_label
_atom_site_fract_x
_atom_site_fract_y
_atom_site_fract_z
Si Si1 0.185485 0.806763 0.743038
Si Si2 0.347137 0.835245 0.495956
Si Si3 0.091207 0.693591 0.089109
Si Si4 0.424406 0.476815 0.301121
Si Si5 0.175063 0.923397 0.229319
Si Si6 0.497443 0.474770 0.932946
Si Si7 0.667400 0.599229 0.427332
Si Si8 0.030224 0.197774 0.522036
O O1 0.323300 0.663289 0.932010
O O2 0.085244 0.542003 0.840905
O O3 0.315263 0.121834 0.533295
O O4 0.026018 0.923916 0.654316
O O5 0.258181 0.873856 0.364804
O O6 0.460092 0.573137 0.696466
O O7 0.475793 0.173651 0.321424
O O8 0.167881 0.779001 0.527546
O O9 0.272286 0.679081 0.110429
O O10 0.119853 0.516362 0.290436
O O11 0.028097 0.007196 0.870401
O O12 0.562703 0.619156 0.309038
O O13 0.306775 0.230083 0.025289
O O14 0.207970 0.648554 0.381276
O O15 0.500000 0.500000 0.000000
O O16 0.500000 0.500000 0.500000
O O17 0.828150 0.858044 0.336195
#
# Coordination Sequence:
#
# PCOD9082861 Si02
#       8
#     2   2   2   2   2   2   2   2
#     4  11  18  36  59  86 114 149 194 240 282 345
#     4  10  20  37  59  85 117 153 192 238 290 342
#     4  11  21  37  58  89 116 149 196 240 289 337
#     4  10  19  34  60  80 116 157 187 230 289 349
#     4  10  20  36  65  83 113 157 197 232 279 351
#     4  10  15  33  60  83 108 150 198 227 276 350
#     4  11  19  39  62  86 113 157 200 229 271 358
#     4  11  24  35  58  91 119 146 197 240 289 335
#
# _framework density 26.202687000000001
#
# number of rings (size 3 to 8) (size 9 to 14) (size 15 to 20)
#    0.000    1.500    8.750    1.500    0.000    3.000 
#    0.000    5.625    2.750    1.500    0.000    0.000 
#    0.000    0.000    0.000    0.000    0.000    0.000 
#
# Total GULP energy -89584.083591 kJ/mol
# GULP energy per Si atom -5599.005224 kJ/mol
# Density = 2.614305 g / cm^3
# Si number density = 26.202687 Si / 1000 Ang^3
#
#
#
# Elastic Constant Matrix: (Units=GPa)
#
#
# Indices 1 2 3 4 5 6 
#
# 1 151.3234 16.8202 48.1314 6.3371 45.7975 10.8899
# 2 16.8202 90.1055 16.5994 2.8707 6.8376 11.8995
# 3 48.1314 16.5994 114.4952 20.2813 30.0133 1.5434
# 4 6.3371 2.8707 20.2813 38.6578 9.4296 12.3234
# 5 45.7975 6.8376 30.0133 9.4296 54.7267 5.0027
# 6 10.8899 11.8995 1.5434 12.3234 5.0027 39.4515
#
#
#
# Elastic Compliance Matrix: (Units=1/GPa)
#
#
# Indices 1 2 3 4 5 6 
#
# 1 0.009581 -0.000592 -0.002528 0.002135 -0.006727 -0.002181
# 2 -0.000592 0.011973 -0.001675 0.001284 0.000043 -0.003789
# 3 -0.002528 -0.001675 0.011949 -0.005834 -0.003498 0.003001
# 4 0.002135 0.001284 -0.005834 0.032670 -0.003416 -0.010520
# 5 -0.006727 0.000043 -0.003498 -0.003416 0.026431 -0.000304
# 6 -0.002181 -0.003789 0.003001 -0.010520 -0.000304 0.030300
#
#
# Mechanical properties :
#
#
# Convention : Reuss Voigt Hill
#
# Bulk Modulus (GPa) = 41.81499 57.66958 49.74229
# Shear Modulus (GPa) = 35.59595 44.85875 40.22735
#
# Velocity S-wave (km/s) = 3.68976 4.14211 3.92246
# Velocity P-wave (km/s) = 5.84340 6.70320 6.28802
#
# Compressibility (1/GPa) = 0.02391487
#
# Stress axis : x y z
#
# Youngs Moduli (GPa) = 104.36820 83.51875 83.68804
#
# Poissons Ratio (x) = 0.04948 0.21153
# Poissons Ratio (y) = 0.06184 0.14014
# Poissons Ratio (z) = 0.26380 0.13985
#
# Static dielectric constant tensor:
#      x y z
#    x 2.051280 -0.010240 -0.033990 
#    y -0.010240 2.067430 0.044320 
#    z -0.033990 0.044320 2.090840 
# 
# From -- ./inp_files/608055.got.cif
#   From: 2010.05.17/outbox.cif.g08.bks.cpg/sg2_305_cif.got.tgz:608055.got - 2010.06.03 11:33:40.
