data_PCOD9082508
_publ_section_title
;
Structure prediction by ZEFSAII (Michael W. Deem and Ramdas Pophale) SiO2 
 PCOD9082508
Probable space group: P -1
;
_chemical_formula_sum "Si O2"
_cell_formula_units_Z 16
_cell_length_a 14.472801
_cell_length_b 12.503562
_cell_length_c 10.368234
_cell_angle_alpha 122.683168
_cell_angle_beta 133.090668
_cell_angle_gamma 30.158837
_cell_volume 681.774460
_symmetry_space_group_name_H-M "P -1"
_symmetry_group_IT_number 2
_symmetry_cell_setting 'triclinic'
loop_
_space_group_symop_operation_xyz
x,y,z
-x,-y,-z
loop_
_atom_site_type_symbol
_atom_site_label
_atom_site_fract_x
_atom_site_fract_y
_atom_site_fract_z
Si Si1 0.921810 0.206134 0.597053
Si Si2 0.718093 0.585321 0.242784
Si Si3 0.290871 0.881466 0.327668
Si Si4 0.071574 0.241478 0.159361
Si Si5 0.681175 0.423785 0.766966
Si Si6 0.644143 0.777884 0.563067
Si Si7 0.350501 0.852591 0.882903
Si Si8 0.167686 0.740976 0.730592
O O1 0.738387 0.353895 0.626538
O O2 0.834619 0.322409 0.453502
O O3 0.000000 0.000000 0.500000
O O4 0.142038 0.091378 0.782625
O O5 0.736023 0.635016 0.430422
O O6 0.696583 0.452582 0.167587
O O7 0.937430 0.412370 0.260428
O O8 0.519793 0.785635 0.093458
O O9 0.344752 0.688874 0.255553
O O10 0.491097 0.805671 0.512108
O O11 0.218618 0.009227 0.208352
O O12 0.078080 0.061319 0.328395
O O13 0.193812 0.263498 0.231544
O O14 0.895071 0.318043 0.954418
O O15 0.488286 0.673305 0.784177
O O16 0.500000 0.000000 0.500000
O O17 0.249484 0.817511 0.844989
#
# Coordination Sequence:
#
# PCOD9082508 Si02
#       8
#     2   2   2   2   2   2   2   2
#     4  10  21  37  56  85 126 158 191 240 293 351
#     4  10  20  36  58  85 114 154 196 246 288 354
#     4  10  19  33  55  86 119 151 194 243 289 347
#     4   9  21  35  56  85 117 154 192 243 298 341
#     4  11  20  36  60  88 116 156 198 242 290 348
#     4  10  21  34  55  89 115 155 191 242 298 352
#     4  10  21  34  57  90 118 156 191 242 297 342
#     4  10  20  37  54  86 126 154 191 242 298 340
#
# _framework density 23.468171000000002
#
# number of rings (size 3 to 8) (size 9 to 14) (size 15 to 20)
#    0.000    2.000    2.500    1.875    3.500    4.000 
#    2.250    0.000    0.000    1.500    0.000    0.000 
#    0.000    0.000    0.000    0.000    0.000    0.000 
#
# Total GULP energy -89328.663011 kJ/mol
# GULP energy per Si atom -5583.041438 kJ/mol
# Density = 2.341476 g / cm^3
# Si number density = 23.468171 Si / 1000 Ang^3
#
#
#
# Elastic Constant Matrix: (Units=GPa)
#
#
# Indices 1 2 3 4 5 6 
#
# 1 47.4261 29.1128 35.4275 4.9715 8.0103 -23.2034
# 2 29.1128 84.7912 20.5326 3.7108 -7.4453 -20.4329
# 3 35.4275 20.5326 78.3074 -11.6902 21.4392 -1.8954
# 4 4.9715 3.7108 -11.6902 37.8444 -7.8889 -7.4299
# 5 8.0103 -7.4453 21.4392 -7.8889 32.7597 2.8224
# 6 -23.2034 -20.4329 -1.8954 -7.4299 2.8224 24.3098
#
#
#
# Elastic Compliance Matrix: (Units=1/GPa)
#
#
# Indices 1 2 3 4 5 6 
#
# 1 0.096782 -0.003454 -0.040184 -0.009875 -0.007787 0.084227
# 2 -0.003454 0.017082 -0.004451 0.000852 0.006969 0.010165
# 3 -0.040184 -0.004451 0.034853 0.007515 -0.009082 -0.036027
# 4 -0.009875 0.000852 0.007515 0.031188 0.005131 0.000813
# 5 -0.007787 0.006969 -0.009082 0.005131 0.041670 -0.005553
# 6 0.084227 0.010165 -0.036027 0.000813 -0.005553 0.128157
#
#
# Mechanical properties :
#
#
# Convention : Reuss Voigt Hill
#
# Bulk Modulus (GPa) = 19.03329 42.29674 30.66501
# Shear Modulus (GPa) = 10.78929 27.34623 19.06776
#
# Velocity S-wave (km/s) = 2.14648 3.41728 2.85352
# Velocity P-wave (km/s) = 3.77771 5.79935 4.89406
#
# Compressibility (1/GPa) = 0.05253952
#
# Stress axis : x y z
#
# Youngs Moduli (GPa) = 10.33254 58.54257 28.69169
#
# Poissons Ratio (x) = 0.20219 1.15294
# Poissons Ratio (y) = 0.03569 0.12771
# Poissons Ratio (z) = 0.41520 0.26058
#
# Static dielectric constant tensor:
#      x y z
#    x 1.886090 -0.013730 -0.008100 
#    y -0.013730 1.968020 -0.006470 
#    z -0.008100 -0.006470 1.976850 
# 
# From -- ./inp_files/455886.got.cif
#   From: 2010.05.17/outbox.cif.g08.bks.cpg/sg2_228_cif.got.tgz:455886.got - 2010.06.03 11:33:40.
