data_PCOD9082690
_publ_section_title
;
Structure prediction by ZEFSAII (Michael W. Deem and Ramdas Pophale) SiO2 
 PCOD9082690
Probable space group: P -1
;
_chemical_formula_sum "Si O2"
_cell_formula_units_Z 16
_cell_length_a 17.507094
_cell_length_b 11.342448
_cell_length_c 9.425566
_cell_angle_alpha 51.554567
_cell_angle_beta 59.734269
_cell_angle_gamma 30.016059
_cell_volume 730.473716
_symmetry_space_group_name_H-M "P -1"
_symmetry_group_IT_number 2
_symmetry_cell_setting 'triclinic'
loop_
_space_group_symop_operation_xyz
x,y,z
-x,-y,-z
loop_
_atom_site_type_symbol
_atom_site_label
_atom_site_fract_x
_atom_site_fract_y
_atom_site_fract_z
Si Si1 0.630195 0.796765 0.151422
Si Si2 0.781759 0.874864 0.851867
Si Si3 0.398614 0.520492 0.167279
Si Si4 0.229010 0.633204 0.825409
Si Si5 0.070614 0.118071 0.062663
Si Si6 0.516360 0.511658 0.314700
Si Si7 0.374237 0.246536 0.242467
Si Si8 0.897957 0.585889 0.664064
O O1 0.699581 0.536501 0.257578
O O2 0.538190 0.953055 0.263105
O O3 0.762439 0.734223 0.040138
O O4 0.500000 0.000000 0.000000
O O5 0.891589 0.830747 0.873361
O O6 0.832835 0.784401 0.706425
O O7 0.610803 0.179291 0.816210
O O8 0.462979 0.448716 0.317704
O O9 0.401735 0.345033 0.248338
O O10 0.227669 0.822049 0.092136
O O11 0.500000 0.500000 0.000000
O O12 0.310687 0.677884 0.738713
O O13 0.050612 0.848098 0.824905
O O14 0.295740 0.439245 0.036010
O O15 0.001313 0.322998 0.853251
O O16 0.500000 0.500000 0.500000
O O17 0.251485 0.287963 0.357256
O O18 0.000000 0.500000 0.500000
#
# Coordination Sequence:
#
# PCOD9082690 Si02
#       8
#     2   2   2   2   2   2   2   2
#     4  10  15  32  67  87 105 153 210 251 274 349
#     4  11  19  40  63  89 116 158 211 244 288 371
#     4  11  22  41  63  88 121 159 210 244 292 370
#     4  10  18  36  62  89 113 154 209 247 291 352
#     4  10  23  38  65  89 115 163 210 244 289 364
#     4  11  23  40  61  88 120 160 201 249 306 357
#     4  10  18  37  62  87 119 160 207 241 297 362
#     4  11  23  38  58  93 131 154 188 258 323 346
#
# _framework density 21.903593000000001
#
# number of rings (size 3 to 8) (size 9 to 14) (size 15 to 20)
#    0.000    1.500    7.500    1.125    0.000    3.000 
#    4.500    1.250    0.000    3.000    0.000    0.000 
#    0.000    0.000    0.000    0.000    0.000    0.000 
#
# Total GULP energy -89273.151567 kJ/mol
# GULP energy per Si atom -5579.571973 kJ/mol
# Density = 2.185374 g / cm^3
# Si number density = 21.903593 Si / 1000 Ang^3
#
#
#
# Elastic Constant Matrix: (Units=GPa)
#
#
# Indices 1 2 3 4 5 6 
#
# 1 141.0686 77.0424 40.8751 26.3780 12.2401 -5.3233
# 2 77.0424 112.3062 19.2253 35.8417 0.5728 -12.6983
# 3 40.8751 19.2253 57.7628 31.4055 0.2286 -8.0729
# 4 26.3780 35.8417 31.4055 32.4734 -2.6150 -2.2763
# 5 12.2401 0.5728 0.2286 -2.6150 19.9508 12.5017
# 6 -5.3233 -12.6983 -8.0729 -2.2763 12.5017 43.2620
#
#
#
# Elastic Compliance Matrix: (Units=1/GPa)
#
#
# Indices 1 2 3 4 5 6 
#
# 1 0.017780 -0.016025 -0.019215 0.021160 -0.005286 -0.003461
# 2 -0.016025 0.032876 0.030805 -0.052685 -0.006163 0.012435
# 3 -0.019215 0.030805 0.070040 -0.085848 -0.013058 0.019004
# 4 0.021160 -0.052685 -0.085848 0.155008 0.027863 -0.028776
# 5 -0.005286 -0.006163 -0.013058 0.027863 0.072649 -0.024424
# 6 -0.003461 0.012435 0.019004 -0.028776 -0.024424 0.035429
#
#
# Mechanical properties :
#
#
# Convention : Reuss Voigt Hill
#
# Bulk Modulus (GPa) = 8.94259 65.04701 36.99480
# Shear Modulus (GPa) = 11.62990 30.73691 21.18340
#
# Velocity S-wave (km/s) = 2.30675 3.75010 3.11323
# Velocity P-wave (km/s) = 3.34461 6.96509 5.46346
#
# Compressibility (1/GPa) = 0.11182443
#
# Stress axis : x y z
#
# Youngs Moduli (GPa) = 56.24429 30.41776 14.27759
#
# Poissons Ratio (x) = 0.48744 0.27435
# Poissons Ratio (y) = 0.90131 -0.43982
# Poissons Ratio (z) = 1.08076 -0.93702
#
# Static dielectric constant tensor:
#      x y z
#    x 1.815570 -0.047060 0.013180 
#    y -0.047060 1.772020 0.012510 
#    z 0.013180 0.012510 1.841840 
# 
# From -- ./inp_files/331691.got.cif
#   From: 2010.05.17/outbox.cif.g08.bks.cpg/sg2_166_cif.got.tgz:331691.got - 2010.06.03 11:33:40.
