data_PCOD9082392
_publ_section_title
;
Structure prediction by ZEFSAII (Michael W. Deem and Ramdas Pophale) SiO2 
 PCOD9082392
Probable space group: P -1
;
_chemical_formula_sum "Si O2"
_cell_formula_units_Z 16
_cell_length_a 22.777745
_cell_length_b 18.810832
_cell_length_c 9.192726
_cell_angle_alpha 130.424897
_cell_angle_beta 121.364724
_cell_angle_gamma 16.065813
_cell_volume 724.642860
_symmetry_space_group_name_H-M "P -1"
_symmetry_group_IT_number 2
_symmetry_cell_setting 'triclinic'
loop_
_space_group_symop_operation_xyz
x,y,z
-x,-y,-z
loop_
_atom_site_type_symbol
_atom_site_label
_atom_site_fract_x
_atom_site_fract_y
_atom_site_fract_z
Si Si1 0.854766 0.145305 0.644807
Si Si2 0.511862 0.079149 0.209904
Si Si3 0.752076 0.929315 0.188921
Si Si4 0.453156 0.275143 0.989338
Si Si5 0.924219 0.321792 0.750608
Si Si6 0.427258 0.272246 0.636010
Si Si7 0.536655 0.318089 0.678273
Si Si8 0.106156 0.985636 0.165823
O O1 0.634067 0.504161 0.853328
O O2 0.938095 0.022081 0.758183
O O3 0.000000 0.000000 0.500000
O O4 0.850035 0.043628 0.453066
O O5 0.733633 0.858309 0.163075
O O6 0.264130 0.451220 0.323781
O O7 0.490483 0.104616 0.388502
O O8 0.500000 0.000000 0.000000
O O9 0.664155 0.009839 0.026025
O O10 0.563332 0.244571 0.450447
O O11 0.985434 0.690401 0.156687
O O12 0.235236 0.500005 0.080312
O O13 0.510155 0.154716 0.750722
O O14 0.546241 0.211451 0.644050
O O15 0.139215 0.667744 0.773707
O O16 0.758868 0.097122 0.711149
O O17 0.297374 0.686030 0.906962
#
# Coordination Sequence:
#
# PCOD9082392 Si02
#       8
#     2   2   2   2   2   2   2   2
#     4  10  19  33  54  83 119 157 188 214 269 337
#     4  10  22  40  65  86 102 139 195 245 293 334
#     4  10  21  39  57  82 119 151 185 232 274 336
#     4  10  23  34  54  87 116 155 191 212 271 344
#     4  10  20  40  57  81 119 153 187 230 275 328
#     4  11  21  37  58  78 115 147 182 239 283 326
#     4  10  21  32  55  80 111 152 190 226 268 322
#     4  11  20  35  53  82 116 152 192 231 267 321
#
# _framework density 22.079840999999998
#
# number of rings (size 3 to 8) (size 9 to 14) (size 15 to 20)
#    0.000    1.750    3.750    0.375    1.750    3.000 
#    0.000    2.500    0.000    1.500    0.000    0.000 
#    0.000    0.000    0.000    0.000    0.000    0.000 
#
# Total GULP energy -89172.666489 kJ/mol
# GULP energy per Si atom -5573.291656 kJ/mol
# Density = 2.202959 g / cm^3
# Si number density = 22.079841 Si / 1000 Ang^3
#
#
#
# Elastic Constant Matrix: (Units=GPa)
#
#
# Indices 1 2 3 4 5 6 
#
# 1 82.7651 30.2828 31.4166 -8.5737 7.0256 -33.9404
# 2 30.2828 53.9189 30.3236 -18.3552 -14.6381 -20.6183
# 3 31.4166 30.3236 123.9263 -35.4386 -5.5883 -5.8709
# 4 -8.5737 -18.3552 -35.4386 32.4290 8.7419 2.8832
# 5 7.0256 -14.6381 -5.5883 8.7419 38.7745 -9.9014
# 6 -33.9404 -20.6183 -5.8709 2.8832 -9.9014 36.1940
#
#
#
# Elastic Compliance Matrix: (Units=1/GPa)
#
#
# Indices 1 2 3 4 5 6 
#
# 1 0.022613 -0.004744 -0.004653 -0.002982 -0.001391 0.017605
# 2 -0.004744 0.040710 -0.003846 0.010445 0.019065 0.022502
# 3 -0.004653 -0.003846 0.013350 0.012577 -0.003114 -0.006243
# 4 -0.002982 0.010445 0.012577 0.051171 -0.005327 -0.000340
# 5 -0.001391 0.019065 -0.003114 -0.005327 0.039146 0.020184
# 6 0.017605 0.022502 -0.006243 -0.000340 0.020184 0.061492
#
#
# Mechanical properties :
#
#
# Convention : Reuss Voigt Hill
#
# Bulk Modulus (GPa) = 19.92567 49.40626 34.66597
# Shear Modulus (GPa) = 18.40278 32.71865 25.56071
#
# Velocity S-wave (km/s) = 2.89011 3.85364 3.40612
# Velocity P-wave (km/s) = 4.49232 6.49811 5.58598
#
# Compressibility (1/GPa) = 0.05018651
#
# Stress axis : x y z
#
# Youngs Moduli (GPa) = 44.22215 24.56393 74.90418
#
# Poissons Ratio (x) = 0.11654 0.34855
# Poissons Ratio (y) = 0.20980 0.28808
# Poissons Ratio (z) = 0.20578 0.09447
#
# Static dielectric constant tensor:
#      x y z
#    x 1.825800 -0.000450 -0.007340 
#    y -0.000450 1.824370 0.038650 
#    z -0.007340 0.038650 1.895720 
# 
# From -- ./inp_files/283071.got.cif
#   From: 2010.05.17/outbox.cif.g08.bks.cpg/sg2_142_cif.got.tgz:283071.got - 2010.06.03 11:33:40.
