data_PCOD9082360
_publ_section_title
;
Structure prediction by ZEFSAII (Michael W. Deem and Ramdas Pophale) SiO2 
 PCOD9082360
Probable space group: P -1
;
_chemical_formula_sum "Si O2"
_cell_formula_units_Z 16
_cell_length_a 12.396010
_cell_length_b 9.592626
_cell_length_c 8.811741
_cell_angle_alpha 74.019402
_cell_angle_beta 47.860908
_cell_angle_gamma 59.750735
_cell_volume 667.956399
_symmetry_space_group_name_H-M "P -1"
_symmetry_group_IT_number 2
_symmetry_cell_setting 'triclinic'
loop_
_space_group_symop_operation_xyz
x,y,z
-x,-y,-z
loop_
_atom_site_type_symbol
_atom_site_label
_atom_site_fract_x
_atom_site_fract_y
_atom_site_fract_z
Si Si1 0.902629 0.153608 0.360857
Si Si2 0.620445 0.294189 0.372217
Si Si3 0.765500 0.649394 0.615783
Si Si4 0.390018 0.378474 0.808967
Si Si5 0.067846 0.568160 0.192918
Si Si6 0.155713 0.853653 0.041752
Si Si7 0.189373 0.094368 0.294220
Si Si8 0.571755 0.196324 0.995724
O O1 0.747810 0.287576 0.385127
O O2 0.020855 0.200200 0.334615
O O3 0.840125 0.045822 0.552147
O O4 0.022967 0.028670 0.161478
O O5 0.472248 0.288956 0.602981
O O6 0.581735 0.459876 0.271846
O O7 0.725213 0.149625 0.203989
O O8 0.846342 0.501871 0.703539
O O9 0.780794 0.797291 0.643259
O O10 0.882623 0.599781 0.374959
O O11 0.571758 0.720077 0.770185
O O12 0.484747 0.278908 0.896562
O O13 0.197453 0.439517 0.993770
O O14 0.075275 0.737063 0.111632
O O15 0.275861 0.779051 0.095165
O O16 0.339461 0.997568 0.066473
#
# Coordination Sequence:
#
# PCOD9082360 Si02
#       8
#     2   2   2   2   2   2   2   2
#     4  10  19  33  56  84 108 139 183 226 268 318
#     4  10  19  33  54  81 112 144 175 223 276 317
#     4  10  19  33  54  81 112 144 175 223 276 317
#     4   9  19  33  51  78 111 142 178 217 267 320
#     4   9  19  33  51  78 111 142 178 217 267 320
#     4  10  20  35  58  86 110 137 181 228 269 320
#     4  10  19  33  56  84 108 139 183 226 268 318
#     4  10  20  35  58  86 110 137 181 228 269 320
#
# _framework density 23.953661
#
# number of rings (size 3 to 8) (size 9 to 14) (size 15 to 20)
#    0.000    2.250    2.500    0.750    0.000    4.500 
#    0.000    6.250    0.000   14.250    0.000    0.000 
#    0.000    0.000    0.000    0.000    0.000    0.000 
#
# Total GULP energy -89315.769884 kJ/mol
# GULP energy per Si atom -5582.235618 kJ/mol
# Density = 2.389914 g / cm^3
# Si number density = 23.953661 Si / 1000 Ang^3
#
#
#
# Elastic Constant Matrix: (Units=GPa)
#
#
# Indices 1 2 3 4 5 6 
#
# 1 26.8796 22.6493 -2.7917 -1.7556 -12.0939 -13.6022
# 2 22.6493 46.9481 22.3239 11.6743 -16.6147 -12.7877
# 3 -2.7917 22.3239 187.6940 35.3526 -8.5734 -0.9597
# 4 -1.7556 11.6743 35.3526 35.3937 -5.6769 -4.8948
# 5 -12.0939 -16.6147 -8.5734 -5.6769 24.1933 6.9995
# 6 -13.6022 -12.7877 -0.9597 -4.8948 6.9995 17.7018
#
#
#
# Elastic Compliance Matrix: (Units=1/GPa)
#
#
# Indices 1 2 3 4 5 6 
#
# 1 0.107144 -0.037642 0.002300 0.026049 0.018704 0.055069
# 2 -0.037642 0.047073 -0.003290 -0.012854 0.010093 -0.002643
# 3 0.002300 -0.003290 0.006872 -0.005864 0.000550 -0.002076
# 4 0.026049 -0.012854 -0.005864 0.043438 0.006573 0.019825
# 5 0.018704 0.010093 0.000550 0.006573 0.059339 0.000047
# 6 0.055069 -0.002643 -0.002076 0.019825 0.000047 0.102248
#
#
# Mechanical properties :
#
#
# Convention : Reuss Voigt Hill
#
# Bulk Modulus (GPa) = 11.92952 38.43166 25.18059
# Shear Modulus (GPa) = 10.60850 30.08042 20.34446
#
# Velocity S-wave (km/s) = 2.10675 3.54754 2.91748
# Velocity P-wave (km/s) = 3.30286 5.73228 4.67803
#
# Compressibility (1/GPa) = 0.08382564
#
# Stress axis : x y z
#
# Youngs Moduli (GPa) = 9.33323 21.24378 145.51110
#
# Poissons Ratio (x) = 0.79966 -0.33471
# Poissons Ratio (y) = 0.35132 0.47872
# Poissons Ratio (z) = -0.02147 0.06989
#
# Static dielectric constant tensor:
#      x y z
#    x 1.892600 -0.021810 0.009930 
#    y -0.021810 1.901110 0.024550 
#    z 0.009930 0.024550 2.035810 
# 
# From -- ./inp_files/259671.got.cif
#   From: 2010.05.17/outbox.cif.g08.bks.cpg/sg2_130_cif.got.tgz:259671.got - 2010.06.03 11:33:40.
