data_PCOD9082845
_publ_section_title
;
Structure prediction by ZEFSAII (Michael W. Deem and Ramdas Pophale) SiO2 
 PCOD9082845
Probable space group: P -1
;
_chemical_formula_sum "Si O2"
_cell_formula_units_Z 16
_cell_length_a 14.109394
_cell_length_b 9.687199
_cell_length_c 14.575759
_cell_angle_alpha 54.031553
_cell_angle_beta 48.630554
_cell_angle_gamma 95.268263
_cell_volume 741.450655
_symmetry_space_group_name_H-M "P -1"
_symmetry_group_IT_number 2
_symmetry_cell_setting 'triclinic'
loop_
_space_group_symop_operation_xyz
x,y,z
-x,-y,-z
loop_
_atom_site_type_symbol
_atom_site_label
_atom_site_fract_x
_atom_site_fract_y
_atom_site_fract_z
Si Si1 0.960266 0.849459 0.951534
Si Si2 0.715157 0.305416 0.861051
Si Si3 0.922320 0.446253 0.373887
Si Si4 0.550746 0.235781 0.487197
Si Si5 0.593324 0.320019 0.738623
Si Si6 0.774444 0.954355 0.121542
Si Si7 0.349920 0.230629 0.455906
Si Si8 0.555108 0.892154 0.717698
O O1 0.126745 0.023713 0.859138
O O2 0.791190 0.524369 0.204386
O O3 0.100739 0.973341 0.724483
O O4 0.832276 0.887542 0.029312
O O5 0.656946 0.348209 0.791588
O O6 0.956024 0.532736 0.636109
O O7 0.607300 0.005021 0.031720
O O8 0.609733 0.277464 0.028661
O O9 0.774732 0.432182 0.517423
O O10 0.775066 0.173932 0.512546
O O11 0.101294 0.737603 0.092178
O O12 0.433360 0.180187 0.494852
O O13 0.508406 0.998747 0.636676
O O14 0.460862 0.253113 0.622797
O O15 0.573928 0.500398 0.670767
O O16 0.426453 0.255902 0.297390
#
# Coordination Sequence:
#
# PCOD9082845 Si02
#       8
#     2   2   2   2   2   2   2   2
#     4  10  21  35  54  89 121 156 195 250 293 344
#     4  10  23  42  68  89 116 156 200 256 305 348
#     4  11  20  39  65  87 118 155 198 251 300 351
#     4  11  22  37  58  88 125 163 200 241 293 358
#     4  10  23  43  64  93 117 150 206 255 300 355
#     4  10  19  33  58  86 116 151 203 244 295 345
#     4  11  25  39  59  89 127 163 198 243 297 357
#     4  11  24  40  59  91 124 163 201 239 297 365
#
# _framework density 21.579319000000002
#
# number of rings (size 3 to 8) (size 9 to 14) (size 15 to 20)
#    0.000    1.500    3.750    1.125    1.750    2.000 
#    0.000    0.625    0.000    0.000    0.000    0.000 
#    0.000    0.000    0.000    0.000    0.000    0.000 
#
# Total GULP energy -89408.674662 kJ/mol
# GULP energy per Si atom -5588.042166 kJ/mol
# Density = 2.153020 g / cm^3
# Si number density = 21.579319 Si / 1000 Ang^3
#
#
#
# Elastic Constant Matrix: (Units=GPa)
#
#
# Indices 1 2 3 4 5 6 
#
# 1 75.0132 19.2214 20.1988 7.3505 -18.7819 12.7966
# 2 19.2214 68.9933 23.2333 27.8908 -13.5392 10.0812
# 3 20.1988 23.2333 54.0102 6.2056 -11.2888 1.0405
# 4 7.3505 27.8908 6.2056 20.4820 -4.7248 3.9025
# 5 -18.7819 -13.5392 -11.2888 -4.7248 21.8342 2.3514
# 6 12.7966 10.0812 1.0405 3.9025 2.3514 15.6512
#
#
#
# Elastic Compliance Matrix: (Units=1/GPa)
#
#
# Indices 1 2 3 4 5 6 
#
# 1 0.023679 0.004328 -0.005236 -0.003005 0.022323 -0.024403
# 2 0.004328 0.042990 -0.010620 -0.049116 0.016496 -0.020754
# 3 -0.005236 -0.010620 0.024508 0.008166 0.002588 0.007067
# 4 -0.003005 -0.049116 0.008166 0.111855 -0.005311 0.006459
# 5 0.022323 0.016496 0.002588 -0.005311 0.079694 -0.039697
# 6 -0.024403 -0.020754 0.007067 0.006459 -0.039697 0.101097
#
#
# Mechanical properties :
#
#
# Convention : Reuss Voigt Hill
#
# Bulk Modulus (GPa) = 14.68000 35.92488 25.30244
# Shear Modulus (GPa) = 11.63908 20.61769 16.12839
#
# Velocity S-wave (km/s) = 2.32494 3.09437 2.73683
# Velocity P-wave (km/s) = 3.74496 5.42686 4.66238
#
# Compressibility (1/GPa) = 0.06811988
#
# Stress axis : x y z
#
# Youngs Moduli (GPa) = 42.23227 23.26115 40.80291
#
# Poissons Ratio (x) = -0.10067 0.21364
# Poissons Ratio (y) = -0.18276 0.43334
# Poissons Ratio (z) = 0.22112 0.24704
#
# Static dielectric constant tensor:
#      x y z
#    x 1.822830 0.003270 0.005690 
#    y 0.003270 1.784690 0.018350 
#    z 0.005690 0.018350 1.794170 
# 
# From -- ./inp_files/313313.got.cif
#   From: 2010.05.17/outbox.cif.g08.bks.cpg/sg2_157_cif.got.tgz:313313.got - 2010.06.03 11:33:40.
