data_PCOD9082766
_publ_section_title
;
Structure prediction by ZEFSAII (Michael W. Deem and Ramdas Pophale) SiO2 
 PCOD9082766
Probable space group: P -1
;
_chemical_formula_sum "Si O2"
_cell_formula_units_Z 16
_cell_length_a 11.416435
_cell_length_b 12.105968
_cell_length_c 9.518368
_cell_angle_alpha 103.002587
_cell_angle_beta 58.361552
_cell_angle_gamma 129.548258
_cell_volume 851.621875
_symmetry_space_group_name_H-M "P -1"
_symmetry_group_IT_number 2
_symmetry_cell_setting 'triclinic'
loop_
_space_group_symop_operation_xyz
x,y,z
-x,-y,-z
loop_
_atom_site_type_symbol
_atom_site_label
_atom_site_fract_x
_atom_site_fract_y
_atom_site_fract_z
Si Si1 0.306149 0.001026 0.999319
Si Si2 0.104518 0.215386 0.819933
Si Si3 0.218363 0.082046 0.511735
Si Si4 0.463890 0.841286 0.818205
Si Si5 0.679584 0.761016 0.065414
Si Si6 0.149873 0.206164 0.324261
Si Si7 0.662125 0.456363 0.282560
Si Si8 0.386722 0.503779 0.369248
O O1 0.353438 0.899076 0.892692
O O2 0.336785 0.112134 0.894151
O O3 0.096930 0.901119 0.132787
O O4 0.427561 0.091920 0.084340
O O5 0.222497 0.189361 0.646683
O O6 0.153132 0.198852 0.940196
O O7 0.170323 0.377241 0.804290
O O8 0.393187 0.101034 0.379432
O O9 0.185248 0.128928 0.397844
O O10 0.055581 0.919341 0.613007
O O11 0.348816 0.667569 0.827352
O O12 0.504653 0.620189 0.206567
O O13 0.723210 0.748142 0.875086
O O14 0.202212 0.355800 0.393127
O O15 0.500200 0.452001 0.331223
O O16 0.641780 0.434933 0.457357
#
# Coordination Sequence:
#
# PCOD9082766 Si02
#       8
#     2   2   2   2   2   2   2   2
#     4  11  23  39  58  88 119 157 195 232 297 347
#     4  11  22  38  65  88 119 149 193 254 286 339
#     4  11  19  35  61  88 110 153 196 244 277 340
#     4  11  22  38  60  86 119 157 194 238 284 358
#     4  11  21  35  59  89 122 149 190 248 294 337
#     4  11  19  32  60  89 117 146 199 242 288 339
#     4  10  19  36  57  87 116 151 197 235 298 341
#     4  10  19  33  57  88 121 147 189 251 292 337
#
# _framework density 18.787679000000001
#
# number of rings (size 3 to 8) (size 9 to 14) (size 15 to 20)
#    0.000    1.250    5.000    3.000    0.000    1.500 
#    0.000    2.500    0.000    0.750    0.000    0.000 
#    0.000    0.000    0.000    0.000    0.000    0.000 
#
# Total GULP energy -89233.217055 kJ/mol
# GULP energy per Si atom -5577.076066 kJ/mol
# Density = 1.874492 g / cm^3
# Si number density = 18.787679 Si / 1000 Ang^3
#
#
#
# Elastic Constant Matrix: (Units=GPa)
#
#
# Indices 1 2 3 4 5 6 
#
# 1 36.4069 29.8647 18.6267 0.4111 -4.1180 -4.9439
# 2 29.8647 158.2715 44.3186 2.1058 2.0744 -1.2864
# 3 18.6267 44.3186 76.2142 7.3052 3.4584 -14.4500
# 4 0.4111 2.1058 7.3052 37.3697 -5.2059 -3.1693
# 5 -4.1180 2.0744 3.4584 -5.2059 21.3762 4.9212
# 6 -4.9439 -1.2864 -14.4500 -3.1693 4.9212 19.4711
#
#
#
# Elastic Compliance Matrix: (Units=1/GPa)
#
#
# Indices 1 2 3 4 5 6 
#
# 1 0.036090 -0.005298 -0.005828 0.002441 0.008366 0.002771
# 2 -0.005298 0.008524 -0.004419 0.000076 -0.000194 -0.004000
# 3 -0.005828 -0.004419 0.020714 -0.003624 -0.008413 0.015137
# 4 0.002441 0.000076 -0.003624 0.028584 0.007873 0.000598
# 5 0.008366 -0.000194 -0.008413 0.007873 0.055580 -0.016898
# 6 0.002771 -0.004000 0.015137 0.000598 -0.016898 0.067399
#
#
# Mechanical properties :
#
#
# Convention : Reuss Voigt Hill
#
# Bulk Modulus (GPa) = 29.20654 50.72361 39.96507
# Shear Modulus (GPa) = 19.27575 27.51559 23.39567
#
# Velocity S-wave (km/s) = 3.20656 3.83110 3.53266
# Velocity P-wave (km/s) = 5.41191 6.82838 6.16099
#
# Compressibility (1/GPa) = 0.03423891
#
# Stress axis : x y z
#
# Youngs Moduli (GPa) = 27.70874 117.31189 48.27661
#
# Poissons Ratio (x) = 0.62147 0.28135
# Poissons Ratio (y) = 0.14679 0.21334
# Poissons Ratio (z) = 0.16148 0.51841
#
# Static dielectric constant tensor:
#      x y z
#    x 1.654590 0.042630 0.020000 
#    y 0.042630 1.711300 0.012970 
#    z 0.020000 0.012970 1.675290 
# 
# From -- ./inp_files/262798.got.cif
#   From: 2010.05.17/outbox.cif.g08.bks.cpg/sg2_132_cif.got.tgz:262798.got - 2010.06.03 11:33:40.
