data_PCOD9082893
_publ_section_title
;
Structure prediction by ZEFSAII (Michael W. Deem and Ramdas Pophale) SiO2 
 PCOD9082893
Probable space group: P -1
;
_chemical_formula_sum "Si O2"
_cell_formula_units_Z 14
_cell_length_a 18.851481
_cell_length_b 11.661330
_cell_length_c 9.183592
_cell_angle_alpha 39.549487
_cell_angle_beta 79.574025
_cell_angle_gamma 48.948520
_cell_volume 712.834163
_symmetry_space_group_name_H-M "P -1"
_symmetry_group_IT_number 2
_symmetry_cell_setting 'triclinic'
loop_
_space_group_symop_operation_xyz
x,y,z
-x,-y,-z
loop_
_atom_site_type_symbol
_atom_site_label
_atom_site_fract_x
_atom_site_fract_y
_atom_site_fract_z
Si Si1 0.648895 0.708086 0.615199
Si Si2 0.446498 0.376121 0.739858
Si Si3 0.429314 0.711715 0.964458
Si Si4 0.244386 0.945534 0.030355
Si Si5 0.626051 0.795184 0.858435
Si Si6 0.270287 0.258192 0.870690
Si Si7 0.869901 0.179005 0.821601
O O1 0.682419 0.610507 0.866532
O O2 0.762820 0.431647 0.736941
O O3 0.521830 0.858983 0.468262
O O4 0.612166 0.994906 0.333425
O O5 0.473712 0.475730 0.750650
O O6 0.356700 0.623726 0.401224
O O7 0.384886 0.341569 0.886632
O O8 0.585521 0.029744 0.968270
O O9 0.306233 0.862576 0.930241
O O10 0.500000 0.500000 0.000000
O O11 0.130887 0.034782 0.986484
O O12 0.214398 0.192955 0.882834
O O13 0.705610 0.782648 0.925248
O O14 0.183735 0.601511 0.512117
O O15 0.000000 0.000000 0.000000
#
# Coordination Sequence:
#
# PCOD9082893 Si02
#       7
#     2   2   2   2   2   2   2
#     4  10  22  37  56  94 127 157 193 242 309 358
#     4  10  19  33  58  92 124 153 189 237 313 376
#     4  10  21  32  55  96 132 148 180 244 317 369
#     4  11  23  37  62  89 120 156 203 242 303 367
#     4  10  19  34  64  86 125 152 181 252 319 359
#     4  11  20  39  57  91 119 154 200 248 298 359
#     4  12  25  43  62  81 118 170 217 247 280 347
#
# _framework density 19.639911000000001
#
# number of rings (size 3 to 8) (size 9 to 14) (size 15 to 20)
#    0.000    1.429    5.714    3.000   10.000    0.571 
#    0.000    0.714    0.000    0.857    0.000    0.000 
#    0.000    0.000    0.000    0.000    0.000    0.000 
#
# Total GULP energy -78149.045955 kJ/mol
# GULP energy per Si atom -5582.074711 kJ/mol
# Density = 1.959521 g / cm^3
# Si number density = 19.639911 Si / 1000 Ang^3
#
#
#
# Elastic Constant Matrix: (Units=GPa)
#
#
# Indices 1 2 3 4 5 6 
#
# 1 127.9887 15.5634 19.1588 8.9732 4.3136 5.6684
# 2 15.5634 56.6665 7.7429 22.0297 11.1546 21.2488
# 3 19.1588 7.7429 38.4508 19.0139 3.9589 -0.7459
# 4 8.9732 22.0297 19.0139 23.3949 2.8765 2.8838
# 5 4.3136 11.1546 3.9589 2.8765 34.3205 3.8445
# 6 5.6684 21.2488 -0.7459 2.8838 3.8445 25.9532
#
#
#
# Elastic Compliance Matrix: (Units=1/GPa)
#
#
# Indices 1 2 3 4 5 6 
#
# 1 0.008811 -0.003766 -0.006187 0.005106 0.000362 0.000360
# 2 -0.003766 0.055937 0.022650 -0.063899 -0.010976 -0.035598
# 3 -0.006187 0.022650 0.056156 -0.062807 -0.006949 -0.007571
# 4 0.005106 -0.063899 -0.062807 0.146712 0.011559 0.031382
# 5 0.000362 -0.010976 -0.006949 0.011559 0.032195 0.002654
# 6 0.000360 -0.035598 -0.007571 0.031382 0.002654 0.063500
#
#
# Mechanical properties :
#
#
# Convention : Reuss Voigt Hill
#
# Bulk Modulus (GPa) = 6.83540 34.22626 20.53083
# Shear Modulus (GPa) = 12.93048 28.77643 20.85346
#
# Velocity S-wave (km/s) = 2.56867 3.83195 3.26205
# Velocity P-wave (km/s) = 3.50505 6.08631 4.96631
#
# Compressibility (1/GPa) = 0.14629715
#
# Stress axis : x y z
#
# Youngs Moduli (GPa) = 113.49228 17.87716 17.80764
#
# Poissons Ratio (x) = 0.06733 0.11018
# Poissons Ratio (y) = 0.42741 -0.40334
# Poissons Ratio (z) = 0.70222 -0.40491
#
# Static dielectric constant tensor:
#      x y z
#    x 1.808100 0.045600 -0.033730 
#    y 0.045600 1.695370 0.026210 
#    z -0.033730 0.026210 1.707560 
# 
# From -- ./inp_files/295392.got.cif
#   From: 2010.05.17/outbox.cif.g08.bks.cpg/sg2_148_cif.got.tgz:295392.got - 2010.06.03 11:33:40.
