data_PCOD9082445
_publ_section_title
;
Structure prediction by ZEFSAII (Michael W. Deem and Ramdas Pophale) SiO2 
 PCOD9082445
Probable space group: P -1
;
_chemical_formula_sum "Si O2"
_cell_formula_units_Z 16
_cell_length_a 8.634762
_cell_length_b 28.563745
_cell_length_c 28.642550
_cell_angle_alpha 169.223921
_cell_angle_beta 150.016499
_cell_angle_gamma 30.657185
_cell_volume 656.788039
_symmetry_space_group_name_H-M "P -1"
_symmetry_group_IT_number 2
_symmetry_cell_setting 'triclinic'
loop_
_space_group_symop_operation_xyz
x,y,z
-x,-y,-z
loop_
_atom_site_type_symbol
_atom_site_label
_atom_site_fract_x
_atom_site_fract_y
_atom_site_fract_z
Si Si1 0.472789 0.463827 0.011866
Si Si2 0.332548 0.822801 0.676707
Si Si3 0.858096 0.063115 0.160572
Si Si4 0.736748 0.044266 0.408598
Si Si5 0.781956 0.555689 0.895596
Si Si6 0.982952 0.602695 0.677486
Si Si7 0.643912 0.634215 0.833208
Si Si8 0.430324 0.948899 0.521160
O O1 0.093741 0.488799 0.943110
O O2 0.604030 0.193122 0.798562
O O3 0.500000 0.500000 0.000000
O O4 0.595483 0.691405 0.293887
O O5 0.109706 0.882004 0.721831
O O6 0.675209 0.719257 0.683897
O O7 0.251656 0.593533 0.397952
O O8 0.348936 0.088637 0.915234
O O9 0.919151 0.323599 0.405506
O O10 0.500000 0.000000 0.000000
O O11 0.023166 0.810347 0.932049
O O12 0.113131 0.996480 0.453990
O O13 0.615645 0.301761 0.604515
O O14 0.666071 0.071137 0.470602
O O15 0.617366 0.798020 0.115107
O O16 0.831575 0.614683 0.912280
O O17 0.289410 0.596260 0.719227
#
# Coordination Sequence:
#
# PCOD9082445 Si02
#       8
#     2   2   2   2   2   2   2   2
#     4  10  19  33  55  79 107 139 181 219 268 322
#     4  11  21  37  59  85 110 152 193 235 278 343
#     4  10  20  37  60  84 112 147 187 240 288 332
#     4   9  17  33  54  77 102 130 182 216 268 317
#     4  10  21  35  54  76 111 146 172 221 281 331
#     4  11  21  37  60  86 113 145 198 241 279 330
#     4  12  23  36  58  84 119 150 189 237 289 334
#     4   9  17  30  55  81  97 131 173 231 258 308
#
# _framework density 24.360982
#
# number of rings (size 3 to 8) (size 9 to 14) (size 15 to 20)
#    0.000    1.750    0.000    7.125    0.000    3.000 
#    0.000    0.000   16.500    0.000    0.000    0.000 
#    0.000    0.000    0.000    0.000    0.000    0.000 
#
# Total GULP energy -89438.798958 kJ/mol
# GULP energy per Si atom -5589.924935 kJ/mol
# Density = 2.430553 g / cm^3
# Si number density = 24.360982 Si / 1000 Ang^3
#
#
#
# Elastic Constant Matrix: (Units=GPa)
#
#
# Indices 1 2 3 4 5 6 
#
# 1 70.4555 15.2790 53.0912 17.2545 -9.9157 17.5887
# 2 15.2790 93.1095 34.0728 -20.1139 16.5636 -12.0222
# 3 53.0912 34.0728 241.1430 60.7990 -19.7160 18.8086
# 4 17.2545 -20.1139 60.7990 -1.5818 36.6600 17.8560
# 5 -9.9157 16.5636 -19.7160 36.6600 53.6624 -3.0999
# 6 17.5887 -12.0222 18.8086 17.8560 -3.0999 36.1610
#
#
#
# Elastic Compliance Matrix: (Units=1/GPa)
#
#
# Indices 1 2 3 4 5 6 
#
# 1 0.019428 -0.002550 -0.003806 0.002717 0.000567 -0.009611
# 2 -0.002550 0.010184 0.000430 -0.007080 0.001845 0.008057
# 3 -0.003806 0.000430 0.003728 0.004611 -0.002759 -0.002458
# 4 0.002717 -0.007080 0.004611 -0.012837 0.013232 0.001399
# 5 0.000567 0.001845 -0.002759 0.013232 0.007881 -0.004086
# 6 -0.009611 0.008057 -0.002458 0.001399 -0.004086 0.035245
#
#
# Mechanical properties :
#
#
# Convention : Reuss Voigt Hill
#
# Bulk Modulus (GPa) = 46.53980 67.73268 57.13624
# Shear Modulus (GPa) = 60.49980 37.79929 49.14954
#
# Velocity S-wave (km/s) = 4.98885 3.94335 4.49659
# Velocity P-wave (km/s) = 7.23399 6.97119 7.10380
#
# Compressibility (1/GPa) = 0.02148698
#
# Stress axis : x y z
#
# Youngs Moduli (GPa) = 51.47137 98.19443 268.26327
#
# Poissons Ratio (x) = 0.25042 1.02103
# Poissons Ratio (y) = 0.13127 -0.11534
# Poissons Ratio (z) = 0.19590 -0.04222
#
# Static dielectric constant tensor:
#      x y z
#    x 1.913700 -0.075050 -0.016970 
#    y -0.075050 1.981620 -0.037840 
#    z -0.016970 -0.037840 1.954410 
# 
# From -- ./inp_files/617720.got.cif
#   From: 2010.05.17/outbox.cif.g08.bks.cpg/sg2_309_cif.got.tgz:617720.got - 2010.06.03 11:33:40.
