data_PCOD9082040
_publ_section_title
;
Structure prediction by ZEFSAII (Michael W. Deem and Ramdas Pophale) SiO2 
 PCOD9082040
Probable space group: P -1
;
_chemical_formula_sum "Si O2"
_cell_formula_units_Z 14
_cell_length_a 9.319718
_cell_length_b 7.847415
_cell_length_c 15.335521
_cell_angle_alpha 127.120618
_cell_angle_beta 58.783882
_cell_angle_gamma 131.835675
_cell_volume 653.545397
_symmetry_space_group_name_H-M "P -1"
_symmetry_group_IT_number 2
_symmetry_cell_setting 'triclinic'
loop_
_space_group_symop_operation_xyz
x,y,z
-x,-y,-z
loop_
_atom_site_type_symbol
_atom_site_label
_atom_site_fract_x
_atom_site_fract_y
_atom_site_fract_z
Si Si1 0.020002 0.595001 0.238556
Si Si2 0.403231 0.612877 0.125342
Si Si3 0.099098 0.074060 0.701331
Si Si4 0.720796 0.557870 0.693913
Si Si5 0.076395 0.766485 0.455226
Si Si6 0.394557 0.582294 0.490676
Si Si7 0.695657 0.082741 0.274208
O O1 0.908228 0.678701 0.234971
O O2 0.869162 0.335223 0.253657
O O3 0.201445 0.577947 0.141125
O O4 0.109784 0.805466 0.353113
O O5 0.355597 0.488247 0.198131
O O6 0.554771 0.902158 0.188410
O O7 0.500000 0.500000 0.000000
O O8 0.560958 0.440926 0.631075
O O9 0.216471 0.051775 0.738006
O O10 0.874908 0.848497 0.720062
O O11 0.839604 0.411358 0.602550
O O12 0.840801 0.613171 0.491093
O O13 0.158080 0.993330 0.567120
O O14 0.500000 0.500000 0.500000
O O15 0.417905 0.838662 0.597526
#
# Coordination Sequence:
#
# PCOD9082040 Si02
#       7
#     2   2   2   2   2   2   2
#     4  10  23  41  65  95 127 172 215 259 326 385
#     4  11  26  46  67  91 127 174 225 277 317 364
#     4  11  18  39  67  92 132 170 207 259 330 396
#     4  10  19  41  64  90 136 175 207 259 328 378
#     4   9  17  36  59  90 136 174 197 251 326 393
#     4  10  19  32  62 101 135 162 205 258 323 397
#     4  11  23  43  65  95 132 167 212 266 329 392
#
# _framework density 21.421617000000001
#
# number of rings (size 3 to 8) (size 9 to 14) (size 15 to 20)
#    0.000    1.714    5.714    1.286    4.000    3.429 
#    2.571    1.429    0.000    0.000    0.000    0.000 
#    0.000    0.000    0.000    0.000    0.000    0.000 
#
# Total GULP energy -78263.125284 kJ/mol
# GULP energy per Si atom -5590.223235 kJ/mol
# Density = 2.137286 g / cm^3
# Si number density = 21.421617 Si / 1000 Ang^3
#
#
#
# Elastic Constant Matrix: (Units=GPa)
#
#
# Indices 1 2 3 4 5 6 
#
# 1 136.1719 32.9211 27.1839 -9.4038 -15.7146 -29.1767
# 2 32.9211 63.0830 22.9730 -7.0105 -11.2782 -1.0147
# 3 27.1839 22.9730 104.8907 -22.0529 -12.8713 -4.6213
# 4 -9.4038 -7.0105 -22.0529 14.7768 4.5120 0.9789
# 5 -15.7146 -11.2782 -12.8713 4.5120 17.2056 9.9359
# 6 -29.1767 -1.0147 -4.6213 0.9789 9.9359 29.6438
#
#
#
# Elastic Compliance Matrix: (Units=1/GPa)
#
#
# Indices 1 2 3 4 5 6 
#
# 1 0.011206 -0.005212 -0.000734 0.003099 -0.000849 0.010919
# 2 -0.005212 0.021546 -0.002089 0.000443 0.012917 -0.009063
# 3 -0.000734 -0.002089 0.014728 0.019261 0.004249 -0.000558
# 4 0.003099 0.000443 0.019261 0.102226 -0.013433 0.007194
# 5 -0.000849 0.012917 0.004249 -0.013433 0.089408 -0.029255
# 6 0.010919 -0.009063 -0.000558 0.007194 -0.029255 0.053651
#
#
# Mechanical properties :
#
#
# Convention : Reuss Voigt Hill
#
# Bulk Modulus (GPa) = 31.83872 52.25573 42.04723
# Shear Modulus (GPa) = 15.65895 27.06309 21.36102
#
# Velocity S-wave (km/s) = 2.70661 3.55823 3.16123
# Velocity P-wave (km/s) = 4.96617 6.42870 5.74417
#
# Compressibility (1/GPa) = 0.03140830
#
# Stress axis : x y z
#
# Youngs Moduli (GPa) = 89.23883 46.41229 67.89799
#
# Poissons Ratio (x) = 0.24192 0.04985
# Poissons Ratio (y) = 0.46516 0.14185
# Poissons Ratio (z) = 0.06552 0.09696
#
# Static dielectric constant tensor:
#      x y z
#    x 1.808120 0.009670 0.003890 
#    y 0.009670 1.860530 -0.038650 
#    z 0.003890 -0.038650 1.773660 
# 
# From -- ./inp_files/572594.got.cif
#   From: 2010.05.17/outbox.cif.g08.bks.cpg/sg2_287_cif.got.tgz:572594.got - 2010.06.03 11:33:40.
