data_PCOD9082614
_publ_section_title
;
Structure prediction by ZEFSAII (Michael W. Deem and Ramdas Pophale) SiO2 
 PCOD9082614
Probable space group: P -1
;
_chemical_formula_sum "Si O2"
_cell_formula_units_Z 10
_cell_length_a 17.985241
_cell_length_b 5.226047
_cell_length_c 17.718596
_cell_angle_alpha 46.797159
_cell_angle_beta 158.897876
_cell_angle_gamma 124.683795
_cell_volume 421.403540
_symmetry_space_group_name_H-M "P -1"
_symmetry_group_IT_number 2
_symmetry_cell_setting 'triclinic'
loop_
_space_group_symop_operation_xyz
x,y,z
-x,-y,-z
loop_
_atom_site_type_symbol
_atom_site_label
_atom_site_fract_x
_atom_site_fract_y
_atom_site_fract_z
Si Si1 0.643523 0.300153 0.549379
Si Si2 0.558627 0.574490 0.824608
Si Si3 0.020475 0.265751 0.269583
Si Si4 0.584146 0.148755 0.201715
Si Si5 0.818772 0.497505 0.890928
O O1 0.565448 0.219186 0.407659
O O2 0.815710 0.516004 0.650031
O O3 0.429540 0.517459 0.347558
O O4 0.759673 0.923343 0.775642
O O5 0.500275 0.760382 0.811657
O O6 0.492680 0.189748 0.836109
O O7 0.810616 0.493066 0.066656
O O8 0.159820 0.968217 0.517753
O O9 0.922154 0.187443 0.112422
O O10 0.500000 0.500000 0.000000
O O11 0.000000 0.500000 0.000000
#
# Coordination Sequence:
#
# PCOD9082614 Si02
#       5
#     2   2   2   2   2
#     4   9  20  36  55  87 121 156 201 245 292 358
#     4  10  23  41  63  91 122 158 200 248 303 360
#     4  10  22  38  59  86 123 162 201 249 302 356
#     4  11  24  42  64  91 121 156 203 253 301 359
#     4  10  19  33  56  85 120 161 200 243 297 353
#
# _framework density 23.730221
#
# number of rings (size 3 to 8) (size 9 to 14) (size 15 to 20)
#    0.000    2.000    0.000    2.400    0.000   10.400 
#    0.000    0.000    0.000    0.000    0.000    0.000 
#    0.000    0.000    0.000    0.000    0.000    0.000 
#
# Total GULP energy -55783.476183 kJ/mol
# GULP energy per Si atom -5578.347618 kJ/mol
# Density = 2.367621 g / cm^3
# Si number density = 23.730221 Si / 1000 Ang^3
#
#
#
# Elastic Constant Matrix: (Units=GPa)
#
#
# Indices 1 2 3 4 5 6 
#
# 1 64.9009 -2.1540 36.4791 5.7615 6.6841 -11.6933
# 2 -2.1540 68.0868 19.6872 -4.3570 -8.4751 6.0759
# 3 36.4791 19.6872 176.8028 5.3795 0.9413 2.5030
# 4 5.7615 -4.3570 5.3795 24.6967 17.1594 -4.6170
# 5 6.6841 -8.4751 0.9413 17.1594 59.1663 -9.5554
# 6 -11.6933 6.0759 2.5030 -4.6170 -9.5554 24.6327
#
#
#
# Elastic Compliance Matrix: (Units=1/GPa)
#
#
# Indices 1 2 3 4 5 6 
#
# 1 0.019628 0.000908 -0.004227 -0.001764 -0.000026 0.009183
# 2 0.000908 0.015771 -0.001965 0.001623 0.001323 -0.002442
# 3 -0.004227 -0.001965 0.006823 -0.001364 0.000090 -0.002436
# 4 -0.001764 0.001623 -0.001364 0.051857 -0.014076 0.003161
# 5 -0.000026 0.001323 0.000090 -0.014076 0.022075 0.005578
# 6 0.009183 -0.002442 -0.002436 0.003161 0.005578 0.048561
#
#
# Mechanical properties :
#
#
# Convention : Reuss Voigt Hill
#
# Bulk Modulus (GPa) = 31.59382 46.42391 39.00886
# Shear Modulus (GPa) = 26.90573 38.75103 32.82838
#
# Velocity S-wave (km/s) = 3.37087 4.04540 3.72344
# Velocity P-wave (km/s) = 5.33789 6.43631 5.91266
#
# Compressibility (1/GPa) = 0.03165176
#
# Stress axis : x y z
#
# Youngs Moduli (GPa) = 50.94834 63.40953 146.57358
#
# Poissons Ratio (x) = -0.05756 0.61956
# Poissons Ratio (y) = -0.04625 0.28805
# Poissons Ratio (z) = 0.21536 0.12461
#
# Static dielectric constant tensor:
#      x y z
#    x 1.916500 -0.037880 -0.004240 
#    y -0.037880 1.969000 0.004660 
#    z -0.004240 0.004660 1.997050 
# 
# From -- ./inp_files/2247.got.cif
#   From: 2010.05.17/outbox.cif.g08.bks.cpg/sg2_2_cif.got.tgz:2247.got - 2010.06.03 11:33:40.
