data_PCOD9082314
_publ_section_title
;
Structure prediction by ZEFSAII (Michael W. Deem and Ramdas Pophale) SiO2 
 PCOD9082314
Probable space group: P -1
;
_chemical_formula_sum "Si O2"
_cell_formula_units_Z 16
_cell_length_a 10.960504
_cell_length_b 12.580612
_cell_length_c 18.266967
_cell_angle_alpha 145.526589
_cell_angle_beta 154.267081
_cell_angle_gamma 44.787500
_cell_volume 613.438394
_symmetry_space_group_name_H-M "P -1"
_symmetry_group_IT_number 2
_symmetry_cell_setting 'triclinic'
loop_
_space_group_symop_operation_xyz
x,y,z
-x,-y,-z
loop_
_atom_site_type_symbol
_atom_site_label
_atom_site_fract_x
_atom_site_fract_y
_atom_site_fract_z
Si Si1 0.626193 0.543524 0.884842
Si Si2 0.409121 0.725461 0.645875
Si Si3 0.729269 0.181778 0.217114
Si Si4 0.857694 0.796489 0.338765
Si Si5 0.756891 0.439828 0.727723
Si Si6 0.331027 0.149784 0.564720
Si Si7 0.308854 0.870138 0.032689
Si Si8 0.296714 0.094610 0.299198
O O1 0.392589 0.687688 0.835368
O O2 0.702728 0.505247 0.819590
O O3 0.495700 0.346758 0.738094
O O4 0.924946 0.610775 0.124097
O O5 0.284782 0.710515 0.652385
O O6 0.120156 0.675215 0.414245
O O7 0.667630 0.603341 0.719809
O O8 0.544787 0.939414 0.821071
O O9 0.037190 0.116080 0.341885
O O10 0.500000 0.000000 0.000000
O O11 0.773458 0.831826 0.397323
O O12 0.444132 0.262081 0.897557
O O13 0.000000 0.000000 0.500000
O O14 0.526996 0.259244 0.486647
O O15 0.544970 0.993150 0.597921
O O16 0.247386 0.932659 0.118644
O O17 0.997571 0.821394 0.802653
#
# Coordination Sequence:
#
# PCOD9082314 Si02
#       8
#     2   2   2   2   2   2   2   2
#     4  10  21  36  53  77 110 142 178 222 264 313
#     4   9  18  34  53  73 104 140 171 217 266 311
#     4  10  20  34  54  79 105 139 180 218 266 320
#     4   8  16  33  55  74  98 134 172 212 264 313
#     4  10  21  35  51  76 109 143 178 217 266 316
#     4  10  19  33  54  77 104 138 175 220 265 311
#     4   9  18  34  54  76 102 134 178 222 263 315
#     4  10  20  33  53  79 104 138 178 218 265 317
#
# _framework density 26.08249
#
# number of rings (size 3 to 8) (size 9 to 14) (size 15 to 20)
#    0.000    2.500    0.000    1.875    0.000    2.000 
#    0.000    0.625    0.000    0.000    0.000    0.000 
#    0.000    0.000    0.000    0.000    0.000    0.000 
#
# Total GULP energy -89481.509995 kJ/mol
# GULP energy per Si atom -5592.594375 kJ/mol
# Density = 2.602312 g / cm^3
# Si number density = 26.082490 Si / 1000 Ang^3
#
#
#
# Elastic Constant Matrix: (Units=GPa)
#
#
# Indices 1 2 3 4 5 6 
#
# 1 77.5744 34.3822 3.7770 -34.8980 2.5942 -3.1628
# 2 34.3822 184.1726 71.5770 -54.6442 20.0006 -0.9423
# 3 3.7770 71.5770 138.6475 -57.7400 15.9507 2.1067
# 4 -34.8980 -54.6442 -57.7400 63.5762 -2.4446 7.7764
# 5 2.5942 20.0006 15.9507 -2.4446 34.1463 -11.9649
# 6 -3.1628 -0.9423 2.1067 7.7764 -11.9649 52.4355
#
#
#
# Elastic Compliance Matrix: (Units=1/GPa)
#
#
# Indices 1 2 3 4 5 6 
#
# 1 0.021287 -0.001312 0.008214 0.018188 -0.004351 -0.002760
# 2 -0.001312 0.008200 -0.001700 0.004811 -0.004094 -0.001511
# 3 0.008214 -0.001700 0.016397 0.018213 -0.007607 -0.004631
# 4 0.018188 0.004811 0.018213 0.047055 -0.012637 -0.009410
# 5 -0.004351 -0.004094 -0.007607 -0.012637 0.038378 0.010601
# 6 -0.002760 -0.001511 -0.004631 -0.009410 0.010601 0.022878
#
#
# Mechanical properties :
#
#
# Convention : Reuss Voigt Hill
#
# Bulk Modulus (GPa) = 17.76529 68.87409 43.31969
# Shear Modulus (GPa) = 30.75953 49.40881 40.08417
#
# Velocity S-wave (km/s) = 3.43784 4.35711 3.92449
# Velocity P-wave (km/s) = 4.75230 7.19556 6.09756
#
# Compressibility (1/GPa) = 0.05628954
#
# Stress axis : x y z
#
# Youngs Moduli (GPa) = 46.97620 121.95831 60.98801
#
# Poissons Ratio (x) = 0.15996 -0.50096
# Poissons Ratio (y) = 0.06161 0.10365
# Poissons Ratio (z) = -0.38587 0.20727
#
# Static dielectric constant tensor:
#      x y z
#    x 2.274270 -0.054140 -0.057510 
#    y -0.054140 2.074390 -0.059570 
#    z -0.057510 -0.059570 1.970710 
# 
# From -- ./inp_files/619594.got.cif
#   From: 2010.05.17/outbox.cif.g08.bks.cpg/sg2_310_cif.got.tgz:619594.got - 2010.06.03 11:33:40.
