data_PCOD9082415
_publ_section_title
;
Structure prediction by ZEFSAII (Michael W. Deem and Ramdas Pophale) SiO2 
 PCOD9082415
Probable space group: P -1
;
_chemical_formula_sum "Si O2"
_cell_formula_units_Z 14
_cell_length_a 8.719990
_cell_length_b 9.158550
_cell_length_c 21.159848
_cell_angle_alpha 37.287472
_cell_angle_beta 141.730354
_cell_angle_gamma 144.771170
_cell_volume 544.551291
_symmetry_space_group_name_H-M "P -1"
_symmetry_group_IT_number 2
_symmetry_cell_setting 'triclinic'
loop_
_space_group_symop_operation_xyz
x,y,z
-x,-y,-z
loop_
_atom_site_type_symbol
_atom_site_label
_atom_site_fract_x
_atom_site_fract_y
_atom_site_fract_z
Si Si1 0.646056 0.837505 0.940752
Si Si2 0.944262 0.528579 0.683823
Si Si3 0.716242 0.642961 0.700504
Si Si4 0.922626 0.706227 0.872297
Si Si5 0.389173 0.081624 0.663289
Si Si6 0.326183 0.272630 0.879098
Si Si7 0.086352 0.268599 0.598208
O O1 0.513821 0.959591 0.802513
O O2 0.500000 0.500000 0.000000
O O3 0.580761 0.853472 0.988757
O O4 0.000000 0.000000 0.000000
O O5 0.819669 0.583238 0.688903
O O6 0.655364 0.313510 0.629187
O O7 0.111846 0.366356 0.804505
O O8 0.180793 0.834716 0.634224
O O9 0.923617 0.646782 0.819647
O O10 0.386815 0.409168 0.686376
O O11 0.803603 0.966805 0.623679
O O12 0.589118 0.559871 0.836827
O O13 0.133608 0.020061 0.855743
O O14 0.000000 0.500000 0.000000
O O15 0.209978 0.205910 0.595805
O O16 0.000000 0.500000 0.500000
#
# Coordination Sequence:
#
# PCOD9082415 Si02
#       7
#     2   2   2   2   2   2   2
#     4  12  21  33  55  88 125 154 205 254 303 349
#     4  10  20  37  60  85 113 158 206 256 293 344
#     4  10  23  42  62  90 130 159 198 262 315 362
#     4  12  28  41  56  87 136 176 202 236 308 384
#     4  10  19  33  54  89 121 143 190 264 314 333
#     4  12  24  38  60  87 122 172 213 239 288 376
#     4  10  21  38  66  93 117 156 213 267 315 356
#
# _framework density 25.709242
#
# number of rings (size 3 to 8) (size 9 to 14) (size 15 to 20)
#    0.000    1.143    2.857    3.429    8.000    0.000 
#    0.000    0.000    0.000    0.000    0.000   80.000 
#    0.000    0.000    0.000    0.000    0.000    0.000 
#
# Total GULP energy -78111.208204 kJ/mol
# GULP energy per Si atom -5579.372015 kJ/mol
# Density = 2.565073 g / cm^3
# Si number density = 25.709242 Si / 1000 Ang^3
#
#
#
# Elastic Constant Matrix: (Units=GPa)
#
#
# Indices 1 2 3 4 5 6 
#
# 1 24.4261 36.6252 9.5902 1.8814 10.0970 19.9630
# 2 36.6252 229.2970 30.0317 -10.3201 4.5999 26.2522
# 3 9.5902 30.0317 81.4595 -10.4999 19.0262 -4.0651
# 4 1.8814 -10.3201 -10.4999 42.5454 -6.7180 3.5884
# 5 10.0970 4.5999 19.0262 -6.7180 29.9001 -2.6712
# 6 19.9630 26.2522 -4.0651 3.5884 -2.6712 34.3449
#
#
#
# Elastic Compliance Matrix: (Units=1/GPa)
#
#
# Indices 1 2 3 4 5 6 
#
# 1 0.161607 -0.014565 -0.005915 -0.014228 -0.059506 -0.086642
# 2 -0.014565 0.006479 -0.001527 0.002451 0.005759 0.003525
# 3 -0.005915 -0.001527 0.015679 0.002216 -0.006737 0.005706
# 4 -0.014228 0.002451 0.002216 0.026361 0.009354 0.004632
# 5 -0.059506 0.005759 -0.006737 0.009354 0.062011 0.033234
# 6 -0.086642 0.003525 0.005706 0.004632 0.033234 0.079559
#
#
# Mechanical properties :
#
#
# Convention : Reuss Voigt Hill
#
# Bulk Modulus (GPa) = 7.15564 54.18631 30.67098
# Shear Modulus (GPa) = 11.30466 38.62044 24.96255
#
# Velocity S-wave (km/s) = 2.09921 3.88003 3.11940
# Velocity P-wave (km/s) = 2.94362 6.41835 4.99300
#
# Compressibility (1/GPa) = 0.13974983
#
# Stress axis : x y z
#
# Youngs Moduli (GPa) = 6.18785 154.34766 63.77817
#
# Poissons Ratio (x) = 2.24815 0.37726
# Poissons Ratio (y) = 0.09013 0.09740
# Poissons Ratio (z) = 0.03660 0.23571
#
# Static dielectric constant tensor:
#      x y z
#    x 2.116880 0.104330 -0.049470 
#    y 0.104330 2.159680 0.046390 
#    z -0.049470 0.046390 2.079910 
# 
# From -- ./inp_files/606633.got.cif
#   From: 2010.05.17/outbox.cif.g08.bks.cpg/sg2_304_cif.got.tgz:606633.got - 2010.06.03 11:33:40.
