data_PCOD9082613
_publ_section_title
;
Structure prediction by ZEFSAII (Michael W. Deem and Ramdas Pophale) SiO2 
 PCOD9082613
Probable space group: P -1
;
_chemical_formula_sum "Si O2"
_cell_formula_units_Z 16
_cell_length_a 5.159279
_cell_length_b 9.891234
_cell_length_c 21.384333
_cell_angle_alpha 68.446121
_cell_angle_beta 75.029630
_cell_angle_gamma 110.947608
_cell_volume 847.152694
_symmetry_space_group_name_H-M "P -1"
_symmetry_group_IT_number 2
_symmetry_cell_setting 'triclinic'
loop_
_space_group_symop_operation_xyz
x,y,z
-x,-y,-z
loop_
_atom_site_type_symbol
_atom_site_label
_atom_site_fract_x
_atom_site_fract_y
_atom_site_fract_z
Si Si1 0.302342 0.077851 0.531081
Si Si2 0.632730 0.403582 0.048166
Si Si3 0.282210 0.574579 0.516005
Si Si4 0.756620 0.646362 0.097611
Si Si5 0.289040 0.235775 0.377463
Si Si6 0.750651 0.273094 0.838572
Si Si7 0.382057 0.909118 0.954671
Si Si8 0.969310 0.445451 0.327792
O O1 0.529059 0.224238 0.537464
O O2 0.230894 0.177370 0.464151
O O3 0.500000 0.000000 0.500000
O O4 0.983304 0.937156 0.605409
O O5 0.616978 0.457058 0.111575
O O6 0.513989 0.217873 0.059441
O O7 0.500000 0.500000 0.000000
O O8 0.000000 0.500000 0.000000
O O9 0.500000 0.500000 0.500000
O O10 0.156843 0.533586 0.601579
O O11 0.000000 0.500000 0.500000
O O12 0.471404 0.676247 0.119089
O O13 0.953981 0.680824 0.143172
O O14 0.012639 0.788092 0.010353
O O15 0.654791 0.309091 0.333799
O O16 0.196227 0.373140 0.341186
O O17 0.531379 0.073978 0.874047
O O18 0.866016 0.385852 0.750767
O O19 0.500000 0.000000 0.000000
#
# Coordination Sequence:
#
# PCOD9082613 Si02
#       8
#     2   2   2   2   2   2   2   2
#     4  10  19  35  63  89 107 143 194 242 287 341
#     4  10  19  33  56  85 119 144 184 251 299 326
#     4  11  23  36  59  89 119 145 188 245 300 353
#     4  10  20  36  57  89 113 151 202 248 291 337
#     4  10  19  34  60  85 110 141 198 241 277 351
#     4  11  22  37  60  81 116 158 199 242 290 359
#     4   9  19  35  59  89 113 151 203 240 276 342
#     4  11  22  38  58  86 119 159 195 240 308 358
#
# _framework density 18.886796
#
# number of rings (size 3 to 8) (size 9 to 14) (size 15 to 20)
#    0.000    1.750    2.500    4.875    1.750    3.000 
#    0.000    0.000    8.250    0.000    0.000    0.000 
#    0.000    0.000    0.000    0.000    0.000    0.000 
#
# Total GULP energy -89085.593014 kJ/mol
# GULP energy per Si atom -5567.849563 kJ/mol
# Density = 1.884381 g / cm^3
# Si number density = 18.886796 Si / 1000 Ang^3
#
#
#
# Elastic Constant Matrix: (Units=GPa)
#
#
# Indices 1 2 3 4 5 6 
#
# 1 98.7711 27.4525 5.0006 -7.5196 6.4695 0.6016
# 2 27.4525 135.7780 22.8891 -12.2507 -1.5367 2.1606
# 3 5.0006 22.8891 81.4082 -29.6831 7.0521 5.0184
# 4 -7.5196 -12.2507 -29.6831 21.8390 -2.5957 0.0611
# 5 6.4695 -1.5367 7.0521 -2.5957 22.4047 -3.7534
# 6 0.6016 2.1606 5.0184 0.0611 -3.7534 31.7524
#
#
#
# Elastic Compliance Matrix: (Units=1/GPa)
#
#
# Indices 1 2 3 4 5 6 
#
# 1 0.011265 -0.002206 0.002184 0.005180 -0.003633 -0.000848
# 2 -0.002206 0.008283 -0.001702 0.001804 0.001946 -0.000026
# 3 0.002184 -0.001702 0.025974 0.034432 -0.005734 -0.004775
# 4 0.005180 0.001804 0.034432 0.095139 -0.002211 -0.006107
# 5 -0.003633 0.001946 -0.005734 -0.002211 0.048467 0.006576
# 6 -0.000848 -0.000026 -0.004775 -0.006107 0.006576 0.033055
#
#
# Mechanical properties :
#
#
# Convention : Reuss Voigt Hill
#
# Bulk Modulus (GPa) = 23.76807 47.40465 35.58636
# Shear Modulus (GPa) = 20.86325 32.57356 26.71840
#
# Velocity S-wave (km/s) = 3.32723 4.15742 3.76528
# Velocity P-wave (km/s) = 5.23187 6.94258 6.14702
#
# Compressibility (1/GPa) = 0.04207326
#
# Stress axis : x y z
#
# Youngs Moduli (GPa) = 88.77439 120.72612 38.49996
#
# Poissons Ratio (x) = 0.26632 -0.08409
# Poissons Ratio (y) = 0.19583 0.06555
# Poissons Ratio (z) = -0.19390 0.20554
#
# Static dielectric constant tensor:
#      x y z
#    x 1.723850 0.031510 0.008230 
#    y 0.031510 1.733810 -0.002100 
#    z 0.008230 -0.002100 1.678480 
# 
# From -- ./inp_files/581899.got.cif
#   From: 2010.05.17/outbox.cif.g08.bks.cpg/sg2_291_cif.got.tgz:581899.got - 2010.06.03 11:33:40.
