data_PCOD9082437
_publ_section_title
;
Structure prediction by ZEFSAII (Michael W. Deem and Ramdas Pophale) SiO2 
 PCOD9082437
Probable space group: P -1
;
_chemical_formula_sum "Si O2"
_cell_formula_units_Z 12
_cell_length_a 13.275918
_cell_length_b 11.351231
_cell_length_c 15.819793
_cell_angle_alpha 155.810607
_cell_angle_beta 42.126330
_cell_angle_gamma 150.371781
_cell_volume 467.211987
_symmetry_space_group_name_H-M "P -1"
_symmetry_group_IT_number 2
_symmetry_cell_setting 'triclinic'
loop_
_space_group_symop_operation_xyz
x,y,z
-x,-y,-z
loop_
_atom_site_type_symbol
_atom_site_label
_atom_site_fract_x
_atom_site_fract_y
_atom_site_fract_z
Si Si1 0.853234 0.489904 0.469084
Si Si2 0.007069 0.085609 0.170620
Si Si3 0.481747 0.682434 0.211030
Si Si4 0.222006 0.859157 0.143672
Si Si5 0.977795 0.543560 0.245570
Si Si6 0.460011 0.235355 0.081183
O O1 0.966833 0.833293 0.692348
O O2 0.937959 0.650153 0.427867
O O3 0.893538 0.207567 0.282872
O O4 0.604929 0.138015 0.410661
O O5 0.239657 0.421747 0.207831
O O6 0.938109 0.667381 0.924403
O O7 0.543846 0.587875 0.195134
O O8 0.500000 0.500000 0.000000
O O9 0.146119 0.890073 0.300515
O O10 0.366989 0.211435 0.214249
O O11 0.361204 0.762417 0.012922
O O12 0.000000 0.500000 0.000000
O O13 0.746810 0.181456 0.109741
#
# Coordination Sequence:
#
# PCOD9082437 Si02
#       6
#     2   2   2   2   2   2
#     4  11  21  34  53  83 113 147 181 221 273 324
#     4  10  22  34  51  83 115 146 180 222 272 324
#     4  11  20  34  56  80 110 147 178 222 272 326
#     4   9  18  32  54  80 106 138 184 230 264 318
#     4  10  19  33  55  78 106 143 181 224 267 323
#     4   9  18  32  52  80 105 142 184 219 273 317
#
# _framework density 25.684273999999998
#
# number of rings (size 3 to 8) (size 9 to 14) (size 15 to 20)
#    0.000    2.000    3.333    2.000    2.333    0.000 
#    0.000    0.000    0.000   16.000    0.000   33.833 
#    0.000    0.000    0.000    0.000    0.000    0.000 
#
# Total GULP energy -67141.344330 kJ/mol
# GULP energy per Si atom -5595.112028 kJ/mol
# Density = 2.562582 g / cm^3
# Si number density = 25.684274 Si / 1000 Ang^3
#
#
#
# Elastic Constant Matrix: (Units=GPa)
#
#
# Indices 1 2 3 4 5 6 
#
# 1 104.4426 55.1382 39.6147 -13.2562 -16.1494 -19.3353
# 2 55.1382 184.3007 55.2468 -49.8322 9.7947 -49.4385
# 3 39.6147 55.2468 91.7477 -23.7709 17.0956 -33.5112
# 4 -13.2562 -49.8322 -23.7709 37.1335 -24.5459 16.7162
# 5 -16.1494 9.7947 17.0956 -24.5459 45.8497 -11.8237
# 6 -19.3353 -49.4385 -33.5112 16.7162 -11.8237 49.4634
#
#
#
# Elastic Compliance Matrix: (Units=1/GPa)
#
#
# Indices 1 2 3 4 5 6 
#
# 1 0.015563 -0.000980 -0.005847 0.008224 0.012630 0.001382
# 2 -0.000980 0.012598 -0.001476 0.018515 0.009275 0.007168
# 3 -0.005847 -0.001476 0.018070 -0.000052 -0.006733 0.006890
# 4 0.008224 0.018515 -0.000052 0.081577 0.043817 0.004590
# 5 0.012630 0.009275 -0.006733 0.043817 0.052128 0.007298
# 6 0.001382 0.007168 0.006890 0.004590 0.007298 0.032784
#
#
# Mechanical properties :
#
#
# Convention : Reuss Voigt Hill
#
# Bulk Modulus (GPa) = 33.75492 75.61002 54.68247
# Shear Modulus (GPa) = 20.90306 41.85540 31.37923
#
# Velocity S-wave (km/s) = 2.85589 4.04122 3.49912
# Velocity P-wave (km/s) = 4.90363 7.16083 6.13690
#
# Compressibility (1/GPa) = 0.02962531
#
# Stress axis : x y z
#
# Youngs Moduli (GPa) = 64.25696 79.38053 55.33888
#
# Poissons Ratio (x) = 0.07778 0.32358
# Poissons Ratio (y) = 0.06296 0.08165
# Poissons Ratio (z) = 0.37573 0.11713
#
# Static dielectric constant tensor:
#      x y z
#    x 2.129480 0.050660 -0.047990 
#    y 0.050660 2.034490 -0.051440 
#    z -0.047990 -0.051440 2.015220 
# 
# From -- ./inp_files/246459.got.cif
#   From: 2010.05.17/outbox.cif.g08.bks.cpg/sg2_124_cif.got.tgz:246459.got - 2010.06.03 11:33:40.
