data_PCOD9082016
_publ_section_title
;
Structure prediction by ZEFSAII (Michael W. Deem and Ramdas Pophale) SiO2 
 PCOD9082016
Probable space group: P -1
;
_chemical_formula_sum "Si O2"
_cell_formula_units_Z 16
_cell_length_a 16.831147
_cell_length_b 14.697357
_cell_length_c 11.264203
_cell_angle_alpha 33.317512
_cell_angle_beta 149.434044
_cell_angle_gamma 150.074718
_cell_volume 661.559684
_symmetry_space_group_name_H-M "P -1"
_symmetry_group_IT_number 2
_symmetry_cell_setting 'triclinic'
loop_
_space_group_symop_operation_xyz
x,y,z
-x,-y,-z
loop_
_atom_site_type_symbol
_atom_site_label
_atom_site_fract_x
_atom_site_fract_y
_atom_site_fract_z
Si Si1 0.830787 0.487995 0.087068
Si Si2 0.717070 0.229292 0.414257
Si Si3 0.156148 0.439424 0.445378
Si Si4 0.755096 0.818785 0.574197
Si Si5 0.321766 0.844714 0.278557
Si Si6 0.605219 0.231061 0.880974
Si Si7 0.098667 0.821408 0.797447
Si Si8 0.973232 0.117178 0.735381
O O1 0.823695 0.671186 0.833398
O O2 0.658276 0.306817 0.998741
O O3 0.780632 0.443165 0.210671
O O4 0.999123 0.479642 0.252724
O O5 0.738697 0.212410 0.600128
O O6 0.866148 0.203773 0.566403
O O7 0.515281 0.049725 0.313509
O O8 0.093532 0.328243 0.357649
O O9 0.143586 0.283267 0.695796
O O10 0.330733 0.659283 0.442238
O O11 0.535108 0.710395 0.409231
O O12 0.832900 0.966408 0.401519
O O13 0.835899 0.964473 0.628935
O O14 0.180264 0.865172 0.988957
O O15 0.786321 0.274748 0.997774
O O16 0.500000 0.000000 0.000000
O O17 0.000000 0.000000 0.000000
#
# Coordination Sequence:
#
# PCOD9082016 Si02
#       8
#     2   2   2   2   2   2   2   2
#     4  10  20  35  60  90 113 144 201 242 280 332
#     4  10  23  38  59  87 113 161 188 230 296 341
#     4   9  21  37  61  86 108 153 196 239 288 334
#     4  10  19  32  60  87 113 145 195 249 282 325
#     4  11  21  37  62  80 124 153 190 226 286 368
#     4   9  16  31  56  83 114 146 188 240 281 327
#     4   9  18  36  58  84 114 154 189 233 293 343
#     4  10  22  39  62  84 112 148 200 246 281 330
#
# _framework density 24.185271
#
# number of rings (size 3 to 8) (size 9 to 14) (size 15 to 20)
#    0.000    2.250    0.000    5.250    3.500    1.000 
#    0.000    1.250   11.000    0.000    0.000    0.000 
#    0.000    0.000    0.000    0.000    0.000    0.000 
#
# Total GULP energy -89186.644964 kJ/mol
# GULP energy per Si atom -5574.165310 kJ/mol
# Density = 2.413022 g / cm^3
# Si number density = 24.185271 Si / 1000 Ang^3
#
#
#
# Elastic Constant Matrix: (Units=GPa)
#
#
# Indices 1 2 3 4 5 6 
#
# 1 57.6623 20.6763 26.2980 16.1627 -21.1073 -9.8176
# 2 20.6763 106.1780 25.6236 7.3548 -25.2169 -12.0735
# 3 26.2980 25.6236 126.4781 -6.8453 -41.4165 -1.5065
# 4 16.1627 7.3548 -6.8453 37.3012 -7.1337 -5.7186
# 5 -21.1073 -25.2169 -41.4165 -7.1337 43.1256 6.0456
# 6 -9.8176 -12.0735 -1.5065 -5.7186 6.0456 23.0035
#
#
#
# Elastic Compliance Matrix: (Units=1/GPa)
#
#
# Indices 1 2 3 4 5 6 
#
# 1 0.025150 -0.001360 -0.003482 -0.009243 0.005804 0.005969
# 2 -0.001360 0.011446 -0.000310 -0.000124 0.005145 0.004024
# 3 -0.003482 -0.000310 0.012817 0.005788 0.011724 -0.002452
# 4 -0.009243 -0.000124 0.005788 0.033539 0.006074 0.003110
# 5 0.005804 0.005145 0.011724 0.006074 0.041796 -0.003529
# 6 0.005969 0.004024 -0.002452 0.003110 -0.003529 0.049671
#
#
# Mechanical properties :
#
#
# Convention : Reuss Voigt Hill
#
# Bulk Modulus (GPa) = 25.57028 48.39045 36.98037
# Shear Modulus (GPa) = 25.28323 35.20076 30.24200
#
# Velocity S-wave (km/s) = 3.23677 3.81919 3.53998
# Velocity P-wave (km/s) = 4.95626 6.28490 5.65970
#
# Compressibility (1/GPa) = 0.03910790
#
# Stress axis : x y z
#
# Youngs Moduli (GPa) = 39.76168 87.36848 78.02304
#
# Poissons Ratio (x) = 0.11879 0.27171
# Poissons Ratio (y) = 0.05406 0.02420
# Poissons Ratio (z) = 0.13847 0.02710
#
# Static dielectric constant tensor:
#      x y z
#    x 2.037250 0.067100 -0.080640 
#    y 0.067100 1.974240 -0.027510 
#    z -0.080640 -0.027510 2.145000 
# 
# From -- ./inp_files/346239.got.cif
#   From: 2010.05.17/outbox.cif.g08.bks.cpg/sg2_174_cif.got.tgz:346239.got - 2010.06.03 11:33:40.
