data_PCOD9082637
_publ_section_title
;
Structure prediction by ZEFSAII (Michael W. Deem and Ramdas Pophale) SiO2 
 PCOD9082637
Probable space group: P -1
;
_chemical_formula_sum "Si O2"
_cell_formula_units_Z 16
_cell_length_a 11.393668
_cell_length_b 9.885539
_cell_length_c 12.864265
_cell_angle_alpha 144.130709
_cell_angle_beta 109.081374
_cell_angle_gamma 73.694720
_cell_volume 802.010491
_symmetry_space_group_name_H-M "P -1"
_symmetry_group_IT_number 2
_symmetry_cell_setting 'triclinic'
loop_
_space_group_symop_operation_xyz
x,y,z
-x,-y,-z
loop_
_atom_site_type_symbol
_atom_site_label
_atom_site_fract_x
_atom_site_fract_y
_atom_site_fract_z
Si Si1 0.761507 0.693633 0.435172
Si Si2 0.055858 0.659130 0.831071
Si Si3 0.651115 0.150695 0.576788
Si Si4 0.543959 0.499928 0.163857
Si Si5 0.958227 0.922165 0.769178
Si Si6 0.112013 0.182380 0.809062
Si Si7 0.107358 0.586692 0.228567
Si Si8 0.389211 0.182205 0.804952
O O1 0.851963 0.554942 0.296013
O O2 0.644713 0.524736 0.299987
O O3 0.847738 0.764000 0.599625
O O4 0.706002 0.935350 0.525084
O O5 0.036323 0.795913 0.803679
O O6 0.927308 0.556759 0.769651
O O7 0.093209 0.837849 0.043877
O O8 0.569440 0.326179 0.730550
O O9 0.768412 0.276676 0.642914
O O10 0.573184 0.038065 0.391292
O O11 0.607862 0.603102 0.142520
O O12 0.485223 0.256928 0.967583
O O13 0.047988 0.988615 0.741024
O O14 0.250347 0.141429 0.780210
O O15 0.010485 0.248892 0.733501
O O16 0.121966 0.405459 0.025543
#
# Coordination Sequence:
#
# PCOD9082637 Si02
#       8
#     2   2   2   2   2   2   2   2
#     4  11  21  35  60  82 113 151 191 231 272 348
#     4  10  23  38  57  88 114 152 185 231 289 336
#     4  11  21  34  55  88 119 150 183 236 284 334
#     4  10  22  37  51  85 120 150 189 231 282 329
#     4  10  22  40  58  85 118 149 184 233 291 337
#     4  10  19  34  58  87 113 144 182 239 289 328
#     4  10  19  33  56  87 119 140 184 236 286 336
#     4  10  20  33  54  78 116 149 182 230 279 335
#
# _framework density 19.949864000000002
#
# number of rings (size 3 to 8) (size 9 to 14) (size 15 to 20)
#    0.000    1.750    2.500    3.375    1.750    5.000 
#    0.000    0.000    0.000    1.500    3.250    0.000 
#    0.000    0.000    0.000    0.000    0.000    0.000 
#
# Total GULP energy -89234.313298 kJ/mol
# GULP energy per Si atom -5577.144581 kJ/mol
# Density = 1.990446 g / cm^3
# Si number density = 19.949864 Si / 1000 Ang^3
#
#
#
# Elastic Constant Matrix: (Units=GPa)
#
#
# Indices 1 2 3 4 5 6 
#
# 1 72.3256 16.0792 35.7841 -8.5689 14.9593 3.9111
# 2 16.0792 38.7180 6.4105 -3.0287 -1.3414 17.7133
# 3 35.7841 6.4105 100.7844 -9.1447 19.8153 -6.2080
# 4 -8.5689 -3.0287 -9.1447 7.6228 -1.1923 2.1436
# 5 14.9593 -1.3414 19.8153 -1.1923 39.5199 -0.4898
# 6 3.9111 17.7133 -6.2080 2.1436 -0.4898 14.5664
#
#
#
# Elastic Compliance Matrix: (Units=1/GPa)
#
#
# Indices 1 2 3 4 5 6 
#
# 1 0.020367 -0.004570 -0.004790 0.015794 -0.005041 -0.004447
# 2 -0.004570 0.085093 -0.007679 0.052582 0.008655 -0.112969
# 3 -0.004790 -0.007679 0.014490 0.003576 -0.005405 0.016092
# 4 0.015794 0.052582 0.003576 0.201022 -0.001115 -0.096279
# 5 -0.005041 0.008655 -0.005405 -0.001115 0.030055 -0.010300
# 6 -0.004447 -0.112969 0.016092 -0.096279 -0.010300 0.227900
#
#
# Mechanical properties :
#
#
# Convention : Reuss Voigt Hill
#
# Bulk Modulus (GPa) = 11.64534 36.48618 24.06576
# Shear Modulus (GPa) = 7.79267 22.57878 15.18573
#
# Velocity S-wave (km/s) = 1.97854 3.36784 2.76197
# Velocity P-wave (km/s) = 3.32708 5.78375 4.71811
#
# Compressibility (1/GPa) = 0.08587125
#
# Stress axis : x y z
#
# Youngs Moduli (GPa) = 49.09952 11.75188 69.01377
#
# Poissons Ratio (x) = 0.05370 0.33060
# Poissons Ratio (y) = 0.22437 0.52996
# Poissons Ratio (z) = 0.23520 0.09024
#
# Static dielectric constant tensor:
#      x y z
#    x 1.714550 0.001070 0.017220 
#    y 0.001070 1.689350 -0.009190 
#    z 0.017220 -0.009190 1.766830 
# 
# From -- ./inp_files/418644.got.cif
#   From: 2010.05.17/outbox.cif.g08.bks.cpg/sg2_210_cif.got.tgz:418644.got - 2010.06.03 11:33:40.
