data_PCOD9082477
_publ_section_title
;
Structure prediction by ZEFSAII (Michael W. Deem and Ramdas Pophale) SiO2 
 PCOD9082477
Probable space group: P -1
;
_chemical_formula_sum "Si O2"
_cell_formula_units_Z 16
_cell_length_a 8.633392
_cell_length_b 11.828533
_cell_length_c 14.271808
_cell_angle_alpha 123.655446
_cell_angle_beta 52.143000
_cell_angle_gamma 94.091152
_cell_volume 874.083070
_symmetry_space_group_name_H-M "P -1"
_symmetry_group_IT_number 2
_symmetry_cell_setting 'triclinic'
loop_
_space_group_symop_operation_xyz
x,y,z
-x,-y,-z
loop_
_atom_site_type_symbol
_atom_site_label
_atom_site_fract_x
_atom_site_fract_y
_atom_site_fract_z
Si Si1 0.297999 0.970704 0.099125
Si Si2 0.072820 0.709901 0.594408
Si Si3 0.481486 0.658670 0.539783
Si Si4 0.544679 0.306021 0.953311
Si Si5 0.811123 0.506875 0.205256
Si Si6 0.289833 0.450705 0.948898
Si Si7 0.789262 0.555228 0.704243
Si Si8 0.370676 0.739351 0.816802
O O1 0.364531 0.855225 0.107640
O O2 0.108094 0.124939 0.267645
O O3 0.248489 0.885940 0.990744
O O4 0.500000 0.000000 0.000000
O O5 0.974536 0.614456 0.650015
O O6 0.283812 0.709834 0.564715
O O7 0.128614 0.615879 0.434531
O O8 0.500000 0.500000 0.500000
O O9 0.698222 0.622035 0.383803
O O10 0.428310 0.760761 0.698588
O O11 0.480351 0.324513 0.877491
O O12 0.691814 0.393915 0.963402
O O13 0.322700 0.402277 0.135073
O O14 0.697961 0.569955 0.176575
O O15 0.763365 0.362127 0.177489
O O16 0.060307 0.462957 0.075287
O O17 0.596591 0.646620 0.744325
#
# Coordination Sequence:
#
# PCOD9082477 Si02
#       8
#     2   2   2   2   2   2   2   2
#     4  11  21  36  55  85 125 144 180 236 302 334
#     4  11  20  32  57  82 116 153 173 234 296 333
#     4  10  20  33  55  84 115 140 190 234 284 335
#     4  10  20  37  56  87 110 149 196 235 267 344
#     4  10  19  35  57  89 108 147 191 245 270 320
#     4  10  20  34  61  83 111 152 199 232 271 319
#     4  10  19  33  55  83 112 145 193 224 274 338
#     4  10  19  36  55  86 120 141 183 240 285 345
#
# _framework density 18.304895999999999
#
# number of rings (size 3 to 8) (size 9 to 14) (size 15 to 20)
#    0.000    1.750    7.500    0.000    3.500    0.500 
#    0.000    0.000    0.000    7.500    0.000    0.000 
#    0.000    0.000    0.000    0.000    0.000    0.000 
#
# Total GULP energy -89236.264086 kJ/mol
# GULP energy per Si atom -5577.266505 kJ/mol
# Density = 1.826323 g / cm^3
# Si number density = 18.304896 Si / 1000 Ang^3
#
#
#
# Elastic Constant Matrix: (Units=GPa)
#
#
# Indices 1 2 3 4 5 6 
#
# 1 33.3302 17.7368 0.8276 -1.4528 10.6923 -8.5869
# 2 17.7368 69.0014 25.4484 5.4959 5.9642 -7.6054
# 3 0.8276 25.4484 88.6463 14.2448 12.1141 -10.9349
# 4 -1.4528 5.4959 14.2448 37.4495 2.1368 -5.9134
# 5 10.6923 5.9642 12.1141 2.1368 25.1371 -9.2490
# 6 -8.5869 -7.6054 -10.9349 -5.9134 -9.2490 24.9935
#
#
#
# Elastic Compliance Matrix: (Units=1/GPa)
#
#
# Indices 1 2 3 4 5 6 
#
# 1 0.043132 -0.011046 0.005403 0.003532 -0.015323 0.008986
# 2 -0.011046 0.019279 -0.005599 -0.001230 0.003103 0.000480
# 3 0.005403 -0.005599 0.014730 -0.003676 -0.006539 0.003308
# 4 0.003532 -0.001230 -0.003676 0.029396 0.000391 0.006331
# 5 -0.015323 0.003103 -0.006539 0.000391 0.053336 0.012649
# 6 0.008986 0.000480 0.003308 0.006331 0.012649 0.050869
#
#
# Mechanical properties :
#
#
# Convention : Reuss Voigt Hill
#
# Bulk Modulus (GPa) = 18.29569 31.00039 24.64804
# Shear Modulus (GPa) = 19.88510 27.31369 23.59940
#
# Velocity S-wave (km/s) = 3.29952 3.86703 3.59449
# Velocity P-wave (km/s) = 4.95303 6.07543 5.54271
#
# Compressibility (1/GPa) = 0.05465767
#
# Stress axis : x y z
#
# Youngs Moduli (GPa) = 23.18478 51.86904 67.88860
#
# Poissons Ratio (x) = 0.57295 -0.36683
# Poissons Ratio (y) = 0.25610 0.38010
# Poissons Ratio (z) = -0.12528 0.29041
#
# Static dielectric constant tensor:
#      x y z
#    x 1.672010 -0.009840 0.025270 
#    y -0.009840 1.631000 -0.020240 
#    z 0.025270 -0.020240 1.666540 
# 
# From -- ./inp_files/253615.got.cif
#   From: 2010.05.17/outbox.cif.g08.bks.cpg/sg2_127_cif.got.tgz:253615.got - 2010.06.03 11:33:40.
