data_PCOD9082511
_publ_section_title
;
Structure prediction by ZEFSAII (Michael W. Deem and Ramdas Pophale) SiO2 
 PCOD9082511
Probable space group: P -1
;
_chemical_formula_sum "Si O2"
_cell_formula_units_Z 16
_cell_length_a 9.162913
_cell_length_b 15.073281
_cell_length_c 10.796955
_cell_angle_alpha 140.727136
_cell_angle_beta 124.950567
_cell_angle_gamma 42.855402
_cell_volume 641.988731
_symmetry_space_group_name_H-M "P -1"
_symmetry_group_IT_number 2
_symmetry_cell_setting 'triclinic'
loop_
_space_group_symop_operation_xyz
x,y,z
-x,-y,-z
loop_
_atom_site_type_symbol
_atom_site_label
_atom_site_fract_x
_atom_site_fract_y
_atom_site_fract_z
Si Si1 0.427324 0.672496 0.078818
Si Si2 0.550464 0.603782 0.516236
Si Si3 0.131166 0.141277 0.274838
Si Si4 0.223151 0.536361 0.147325
Si Si5 0.777865 0.076293 0.137212
Si Si6 0.155145 0.566674 0.722871
Si Si7 0.000555 0.410019 0.660768
Si Si8 0.067204 0.869916 0.280587
O O1 0.624214 0.629699 0.042464
O O2 0.249963 0.680053 0.912723
O O3 0.500000 0.500000 0.000000
O O4 0.290328 0.821218 0.269878
O O5 0.392011 0.553974 0.333001
O O6 0.419564 0.760989 0.714308
O O7 0.657284 0.603417 0.437544
O O8 0.770033 0.469194 0.549286
O O9 0.952957 0.110091 0.206251
O O10 0.040716 0.307145 0.323677
O O11 0.173640 0.213554 0.497692
O O12 0.275911 0.992655 0.085728
O O13 0.060293 0.548438 0.181845
O O14 0.111240 0.701014 0.183057
O O15 0.892540 0.945828 0.167311
O O16 0.075897 0.520176 0.753147
O O17 0.000000 0.000000 0.500000
#
# Coordination Sequence:
#
# PCOD9082511 Si02
#       8
#     2   2   2   2   2   2   2   2
#     4   9  20  36  59  85 109 143 195 240 268 330
#     4  10  19  33  55  87 110 145 198 233 276 327
#     4  10  20  34  54  86 116 147 189 232 291 326
#     4  10  20  34  59  86 111 145 196 239 268 333
#     4  11  21  32  57  87 116 148 188 247 277 332
#     4  10  21  37  58  82 119 147 186 236 290 336
#     4  11  21  37  58  86 115 155 183 235 291 336
#     4  11  19  35  56  86 114 141 186 241 288 322
#
# _framework density 24.922556
#
# number of rings (size 3 to 8) (size 9 to 14) (size 15 to 20)
#    0.000    1.750    3.750    1.875    3.500    0.000 
#    0.000    5.000    0.000    0.750    6.500    0.000 
#    0.000    0.000    0.000    0.000    0.000    0.000 
#
# Total GULP energy -89156.691630 kJ/mol
# GULP energy per Si atom -5572.293227 kJ/mol
# Density = 2.486583 g / cm^3
# Si number density = 24.922556 Si / 1000 Ang^3
#
#
#
# Elastic Constant Matrix: (Units=GPa)
#
#
# Indices 1 2 3 4 5 6 
#
# 1 136.3042 28.8393 40.7925 -0.7459 -42.2001 32.3274
# 2 28.8393 61.1005 23.9560 -8.4006 -8.7547 13.2167
# 3 40.7925 23.9560 203.8820 3.4255 -66.4988 6.9708
# 4 -0.7459 -8.4006 3.4255 36.3523 -7.0982 -2.6269
# 5 -42.2001 -8.7547 -66.4988 -7.0982 49.9181 -8.8195
# 6 32.3274 13.2167 6.9708 -2.6269 -8.8195 31.6412
#
#
#
# Elastic Compliance Matrix: (Units=1/GPa)
#
#
# Indices 1 2 3 4 5 6 
#
# 1 0.013250 -0.003154 0.001772 0.000947 0.011495 -0.009328
# 2 -0.003154 0.020080 -0.002571 0.003880 -0.002917 -0.005090
# 3 0.001772 -0.002571 0.009305 0.001354 0.013844 0.001185
# 4 0.000947 0.003880 0.001354 0.029962 0.007862 0.001792
# 5 0.011495 -0.002917 0.013844 0.007862 0.048926 0.000714
# 6 -0.009328 -0.005090 0.001185 0.001792 0.000714 0.043347
#
#
# Mechanical properties :
#
#
# Convention : Reuss Voigt Hill
#
# Bulk Modulus (GPa) = 28.79488 65.38472 47.08980
# Shear Modulus (GPa) = 27.12228 44.09557 35.60892
#
# Velocity S-wave (km/s) = 3.30246 4.21087 3.78403
# Velocity P-wave (km/s) = 5.11082 7.06640 6.16663
#
# Compressibility (1/GPa) = 0.03472839
#
# Stress axis : x y z
#
# Youngs Moduli (GPa) = 75.47240 49.80192 107.47443
#
# Poissons Ratio (x) = 0.15706 -0.19043
# Poissons Ratio (y) = 0.23802 0.27631
# Poissons Ratio (z) = -0.13373 0.12804
#
# Static dielectric constant tensor:
#      x y z
#    x 1.989000 -0.061980 0.032970 
#    y -0.061980 2.162330 -0.127560 
#    z 0.032970 -0.127560 2.169310 
# 
# From -- ./inp_files/260202.got.cif
#   From: 2010.05.17/outbox.cif.g08.bks.cpg/sg2_131_cif.got.tgz:260202.got - 2010.06.03 11:33:40.
