data_PCOD9082441
_publ_section_title
;
Structure prediction by ZEFSAII (Michael W. Deem and Ramdas Pophale) SiO2 
 PCOD9082441
Probable space group: P -1
;
_chemical_formula_sum "Si O2"
_cell_formula_units_Z 14
_cell_length_a 11.863801
_cell_length_b 8.013911
_cell_length_c 11.162476
_cell_angle_alpha 57.243022
_cell_angle_beta 134.133750
_cell_angle_gamma 139.063256
_cell_volume 498.827222
_symmetry_space_group_name_H-M "P -1"
_symmetry_group_IT_number 2
_symmetry_cell_setting 'triclinic'
loop_
_space_group_symop_operation_xyz
x,y,z
-x,-y,-z
loop_
_atom_site_type_symbol
_atom_site_label
_atom_site_fract_x
_atom_site_fract_y
_atom_site_fract_z
Si Si1 0.443909 0.677838 0.439515
Si Si2 0.599693 0.300012 0.852824
Si Si3 0.805625 0.482464 0.439190
Si Si4 0.247113 0.149890 0.242789
Si Si5 0.164783 0.750800 0.755863
Si Si6 0.102883 0.006514 0.787504
Si Si7 0.565979 0.769173 0.891363
O O1 0.500000 0.500000 0.500000
O O2 0.334269 0.685956 0.241274
O O3 0.322613 0.614121 0.495636
O O4 0.664326 0.918403 0.559675
O O5 0.610148 0.543610 0.786915
O O6 0.368637 0.040888 0.770541
O O7 0.744439 0.340135 0.050892
O O8 0.861690 0.752711 0.338629
O O9 0.637616 0.297634 0.284287
O O10 0.018558 0.559628 0.614828
O O11 0.276824 0.085542 0.159244
O O12 0.041863 0.067578 0.178405
O O13 0.027972 0.796886 0.713420
O O14 0.306848 0.062606 0.965420
O O15 0.500000 0.500000 0.000000
#
# Coordination Sequence:
#
# PCOD9082441 Si02
#       7
#     2   2   2   2   2   2   2
#     4   9  16  30  50  74 103 131 167 215 257 299
#     4  10  21  34  51  78 109 139 175 218 263 308
#     4  10  20  33  53  78 105 138 175 216 260 307
#     4  10  19  33  55  79 106 137 174 216 259 310
#     4  11  21  34  54  78 107 140 176 217 262 311
#     4  11  20  33  56  81 106 137 176 216 261 310
#     4   9  19  35  55  78 106 136 173 218 259 307
#
# _framework density 28.065828
#
# number of rings (size 3 to 8) (size 9 to 14) (size 15 to 20)
#    0.000    2.000    0.000    6.857    0.000    2.286 
#    0.000    0.000    0.000   23.143    0.000    0.000 
#    0.000    0.000    0.000    0.000    0.000    0.000 
#
# Total GULP energy -78116.652546 kJ/mol
# GULP energy per Si atom -5579.760896 kJ/mol
# Density = 2.800195 g / cm^3
# Si number density = 28.065828 Si / 1000 Ang^3
#
#
#
# Elastic Constant Matrix: (Units=GPa)
#
#
# Indices 1 2 3 4 5 6 
#
# 1 72.0920 12.6248 15.5681 8.6597 1.3749 25.4445
# 2 12.6248 45.7975 43.9645 7.3898 3.4091 14.9254
# 3 15.5681 43.9645 245.6236 35.8441 -8.1684 0.7215
# 4 8.6597 7.3898 35.8441 61.0483 -2.5435 0.7741
# 5 1.3749 3.4091 -8.1684 -2.5435 47.4539 7.0038
# 6 25.4445 14.9254 0.7215 0.7741 7.0038 49.6557
#
#
#
# Elastic Compliance Matrix: (Units=1/GPa)
#
#
# Indices 1 2 3 4 5 6 
#
# 1 0.017467 -0.001194 -0.000575 -0.001859 0.000657 -0.008647
# 2 -0.001194 0.030077 -0.005297 -0.000336 -0.001863 -0.008083
# 3 -0.000575 -0.005297 0.005440 -0.002454 0.000949 0.001712
# 4 -0.001859 -0.000336 -0.002454 0.018138 0.000520 0.000733
# 5 0.000657 -0.001863 0.000949 0.000520 0.021803 -0.002874
# 6 -0.008647 -0.008083 0.001712 0.000733 -0.002874 0.027368
#
#
# Mechanical properties :
#
#
# Convention : Reuss Voigt Hill
#
# Bulk Modulus (GPa) = 25.73857 56.42532 41.08195
# Shear Modulus (GPa) = 33.92673 51.05529 42.49101
#
# Velocity S-wave (km/s) = 3.48059 4.26975 3.89521
# Velocity P-wave (km/s) = 5.03422 6.66753 5.90759
#
# Compressibility (1/GPa) = 0.03885220
#
# Stress axis : x y z
#
# Youngs Moduli (GPa) = 57.25074 33.24828 183.80908
#
# Poissons Ratio (x) = 0.03971 0.10566
# Poissons Ratio (y) = 0.06837 0.97362
# Poissons Ratio (z) = 0.03291 0.17611
#
# Static dielectric constant tensor:
#      x y z
#    x 2.270220 0.027920 -0.006350 
#    y 0.027920 2.272380 -0.030460 
#    z -0.006350 -0.030460 2.216320 
# 
# From -- ./inp_files/227911.got.cif
#   From: 2010.05.17/outbox.cif.g08.bks.cpg/sg2_114_cif.got.tgz:227911.got - 2010.06.03 11:33:40.
