data_PCOD9082781
_publ_section_title
;
Structure prediction by ZEFSAII (Michael W. Deem and Ramdas Pophale) SiO2 
 PCOD9082781
Probable space group: P -1
;
_chemical_formula_sum "Si O2"
_cell_formula_units_Z 16
_cell_length_a 12.855596
_cell_length_b 7.995399
_cell_length_c 17.835388
_cell_angle_alpha 81.391884
_cell_angle_beta 27.466322
_cell_angle_gamma 92.687580
_cell_volume 768.368531
_symmetry_space_group_name_H-M "P -1"
_symmetry_group_IT_number 2
_symmetry_cell_setting 'triclinic'
loop_
_space_group_symop_operation_xyz
x,y,z
-x,-y,-z
loop_
_atom_site_type_symbol
_atom_site_label
_atom_site_fract_x
_atom_site_fract_y
_atom_site_fract_z
Si Si1 0.960787 0.547839 0.938329
Si Si2 0.686236 0.079249 0.786901
Si Si3 0.079049 0.604499 0.260246
Si Si4 0.565225 0.454714 0.082497
Si Si5 0.213869 0.963374 0.693989
Si Si6 0.225644 0.353100 0.677971
Si Si7 0.770912 0.874222 0.875636
Si Si8 0.004022 0.339547 0.451782
O O1 0.088278 0.767691 0.829210
O O2 0.077022 0.435725 0.820336
O O3 0.000000 0.500000 0.000000
O O4 0.686630 0.481280 0.085285
O O5 0.807628 0.247727 0.756920
O O6 0.804845 0.151846 0.625819
O O7 0.756538 0.928576 0.795249
O O8 0.396239 0.037081 0.978030
O O9 0.973183 0.407139 0.383563
O O10 0.872247 0.641680 0.343835
O O11 0.286653 0.616558 0.066221
O O12 0.277333 0.346777 0.280182
O O13 0.627221 0.658839 0.997312
O O14 0.043454 0.932535 0.730337
O O15 0.500000 0.000000 0.500000
O O16 0.202033 0.147383 0.725086
O O17 0.500000 0.500000 0.500000
O O18 0.000000 0.500000 0.500000
#
# Coordination Sequence:
#
# PCOD9082781 Si02
#       8
#     2   2   2   2   2   2   2   2
#     4  10  24  41  63  92 125 163 209 264 317 360
#     4  10  20  36  61  88 120 156 200 243 309 363
#     4  10  20  36  60  86 117 158 198 252 303 368
#     4  10  20  36  61  83 120 155 203 245 311 373
#     4  11  22  40  65  92 125 167 213 257 308 382
#     4  11  22  41  64  93 120 167 215 254 310 377
#     4  10  20  36  58  87 120 159 199 246 308 371
#     4  10  19  33  57  91 114 155 197 246 304 367
#
# _framework density 20.823340000000002
#
# number of rings (size 3 to 8) (size 9 to 14) (size 15 to 20)
#    0.000    1.750    5.000    0.375    0.000    3.500 
#    0.000    0.625    0.000    0.000    0.000    0.000 
#    0.000    0.000    0.000    0.000    0.000    0.000 
#
# Total GULP energy -89287.329223 kJ/mol
# GULP energy per Si atom -5580.458076 kJ/mol
# Density = 2.077595 g / cm^3
# Si number density = 20.823340 Si / 1000 Ang^3
#
#
#
# Elastic Constant Matrix: (Units=GPa)
#
#
# Indices 1 2 3 4 5 6 
#
# 1 118.8761 44.5305 46.5088 -1.9315 -4.6001 -26.7449
# 2 44.5305 123.2413 27.5807 -7.3818 -3.2882 -15.7072
# 3 46.5088 27.5807 98.7159 -1.5091 -9.3257 -17.2805
# 4 -1.9315 -7.3818 -1.5091 19.9743 -8.8190 1.9089
# 5 -4.6001 -3.2882 -9.3257 -8.8190 34.2375 -0.1118
# 6 -26.7449 -15.7072 -17.2805 1.9089 -0.1118 35.8371
#
#
#
# Elastic Compliance Matrix: (Units=1/GPa)
#
#
# Indices 1 2 3 4 5 6 
#
# 1 0.012408 -0.002849 -0.003972 -0.000669 0.000160 0.006132
# 2 -0.002849 0.009805 -0.000957 0.003684 0.001252 0.001518
# 3 -0.003972 -0.000957 0.013108 0.001447 0.003327 0.002870
# 4 -0.000669 0.003684 0.001447 0.058536 0.015732 -0.001256
# 5 0.000160 0.001252 0.003327 0.015732 0.034313 0.001541
# 6 0.006132 0.001518 0.002870 -0.001256 0.001541 0.034602
#
#
# Mechanical properties :
#
#
# Convention : Reuss Voigt Hill
#
# Bulk Modulus (GPa) = 50.59239 64.23038 57.41138
# Shear Modulus (GPa) = 27.03940 32.82399 29.93170
#
# Velocity S-wave (km/s) = 3.60740 3.97458 3.79543
# Velocity P-wave (km/s) = 6.45754 7.20940 6.84380
#
# Compressibility (1/GPa) = 0.01976582
#
# Stress axis : x y z
#
# Youngs Moduli (GPa) = 80.59239 101.98699 76.29213
#
# Poissons Ratio (x) = 0.29054 0.30301
# Poissons Ratio (y) = 0.22959 0.07302
# Poissons Ratio (z) = 0.32008 0.09761
#
# Static dielectric constant tensor:
#      x y z
#    x 1.753460 -0.001540 -0.010290 
#    y -0.001540 1.824320 -0.028080 
#    z -0.010290 -0.028080 1.722670 
# 
# From -- ./inp_files/566680.got.cif
#   From: 2010.05.17/outbox.cif.g08.bks.cpg/sg2_284_cif.got.tgz:566680.got - 2010.06.03 11:33:40.
