data_PCOD9082949
_publ_section_title
;
Structure prediction by ZEFSAII (Michael W. Deem and Ramdas Pophale) SiO2 
 PCOD9082949
Probable space group: P -1
;
_chemical_formula_sum "Si O2"
_cell_formula_units_Z 14
_cell_length_a 17.146001
_cell_length_b 19.184540
_cell_length_c 12.024725
_cell_angle_alpha 154.427905
_cell_angle_beta 37.008731
_cell_angle_gamma 159.805084
_cell_volume 557.919317
_symmetry_space_group_name_H-M "P -1"
_symmetry_group_IT_number 2
_symmetry_cell_setting 'triclinic'
loop_
_space_group_symop_operation_xyz
x,y,z
-x,-y,-z
loop_
_atom_site_type_symbol
_atom_site_label
_atom_site_fract_x
_atom_site_fract_y
_atom_site_fract_z
Si Si1 0.732819 0.270760 0.361781
Si Si2 0.716522 0.011927 0.613872
Si Si3 0.363959 0.393687 0.178171
Si Si4 0.290231 0.341090 0.435190
Si Si5 0.965758 0.774748 0.256761
Si Si6 0.064771 0.801787 0.598997
Si Si7 0.030899 0.292802 0.087269
O O1 0.487046 0.065136 0.286385
O O2 0.786354 0.143851 0.153352
O O3 0.961891 0.548834 0.423063
O O4 0.781613 0.434259 0.648936
O O5 0.580357 0.697089 0.301654
O O6 0.820780 0.105375 0.755075
O O7 0.899099 0.208565 0.585278
O O8 0.407847 0.468578 0.365424
O O9 0.139514 0.279596 0.258077
O O10 0.298727 0.142144 0.863306
O O11 0.500000 0.500000 0.500000
O O12 0.200081 0.394099 0.688729
O O13 0.062596 0.982377 0.167575
O O14 0.878819 0.614025 0.008055
O O15 0.000000 0.000000 0.500000
#
# Coordination Sequence:
#
# PCOD9082949 Si02
#       7
#     2   2   2   2   2   2   2
#     4  10  23  43  67  90 130 173 208 258 311 377
#     4  11  22  38  65  95 128 165 210 259 318 379
#     4  10  19  33  59  91 123 158 198 262 310 360
#     4  11  21  38  62  93 126 160 208 263 320 367
#     4  10  22  39  63  93 126 162 210 261 318 372
#     4  10  20  36  59  92 125 158 209 255 311 371
#     4  10  22  45  63  91 130 169 213 259 311 379
#
# _framework density 25.093233000000001
#
# number of rings (size 3 to 8) (size 9 to 14) (size 15 to 20)
#    0.000    1.714    2.857    2.143    0.000    4.000 
#    2.571    2.143    0.000    0.000    0.000    0.000 
#    0.000    0.000    0.000    0.000    0.000    0.000 
#
# Total GULP energy -78062.683830 kJ/mol
# GULP energy per Si atom -5575.905988 kJ/mol
# Density = 2.503612 g / cm^3
# Si number density = 25.093233 Si / 1000 Ang^3
#
#
#
# Elastic Constant Matrix: (Units=GPa)
#
#
# Indices 1 2 3 4 5 6 
#
# 1 103.3804 34.9884 26.1472 -9.5955 29.0672 -0.8025
# 2 34.9884 44.1956 9.7262 -14.4215 -0.9422 -5.8855
# 3 26.1472 9.7262 36.9416 -11.3960 8.3107 -18.5385
# 4 -9.5955 -14.4215 -11.3960 19.2709 -6.5761 9.4118
# 5 29.0672 -0.9422 8.3107 -6.5761 40.1776 -12.2937
# 6 -0.8025 -5.8855 -18.5385 9.4118 -12.2937 44.2314
#
#
#
# Elastic Compliance Matrix: (Units=1/GPa)
#
#
# Indices 1 2 3 4 5 6 
#
# 1 0.030046 -0.028237 -0.022009 -0.020568 -0.025880 -0.015253
# 2 -0.028237 0.057431 0.018533 0.043089 0.029233 0.013854
# 3 -0.022009 0.018533 0.054885 0.029717 0.017055 0.023488
# 4 -0.020568 0.043089 0.029717 0.098612 0.027231 0.004401
# 5 -0.025880 0.029233 0.017055 0.027231 0.051028 0.018957
# 6 -0.015253 0.013854 0.023488 0.004401 0.018957 0.038352
#
#
# Mechanical properties :
#
#
# Convention : Reuss Voigt Hill
#
# Bulk Modulus (GPa) = 12.66850 36.24905 24.45878
# Shear Modulus (GPa) = 11.90215 28.31302 20.10759
#
# Velocity S-wave (km/s) = 2.18025 3.36268 2.83382
# Velocity P-wave (km/s) = 3.37602 5.43635 4.52501
#
# Compressibility (1/GPa) = 0.07893595
#
# Stress axis : x y z
#
# Youngs Moduli (GPa) = 33.28283 17.41219 18.21986
#
# Poissons Ratio (x) = 0.49167 0.40100
# Poissons Ratio (y) = 0.93982 -0.33768
# Poissons Ratio (z) = 0.73252 -0.32271
#
# Static dielectric constant tensor:
#      x y z
#    x 2.021080 0.081630 -0.070970 
#    y 0.081630 2.030380 0.042390 
#    z -0.070970 0.042390 2.002770 
# 
# From -- ./inp_files/432032.got.cif
#   From: 2010.05.17/outbox.cif.g08.bks.cpg/sg2_217_cif.got.tgz:432032.got - 2010.06.03 11:33:40.
