data_PCOD9082482
_publ_section_title
;
Structure prediction by ZEFSAII (Michael W. Deem and Ramdas Pophale) SiO2 
 PCOD9082482
Probable space group: P -1
;
_chemical_formula_sum "Si O2"
_cell_formula_units_Z 12
_cell_length_a 8.876964
_cell_length_b 11.274759
_cell_length_c 17.445143
_cell_angle_alpha 31.902117
_cell_angle_beta 81.325333
_cell_angle_gamma 60.755367
_cell_volume 660.187042
_symmetry_space_group_name_H-M "P -1"
_symmetry_group_IT_number 2
_symmetry_cell_setting 'triclinic'
loop_
_space_group_symop_operation_xyz
x,y,z
-x,-y,-z
loop_
_atom_site_type_symbol
_atom_site_label
_atom_site_fract_x
_atom_site_fract_y
_atom_site_fract_z
Si Si1 0.240364 0.748643 0.469321
Si Si2 0.375201 0.738290 0.630040
Si Si3 0.955638 0.650764 0.597598
Si Si4 0.700805 0.695241 0.105803
Si Si5 0.854538 0.260949 0.803674
Si Si6 0.712855 0.075650 0.785398
O O1 0.255424 0.849144 0.496185
O O2 0.466211 0.396257 0.634047
O O3 0.214610 0.949603 0.292337
O O4 0.065684 0.732081 0.494328
O O5 0.340871 0.524104 0.784377
O O6 0.619934 0.523886 0.712058
O O7 0.268096 0.030025 0.531683
O O8 0.936824 0.424706 0.687035
O O9 0.104519 0.478093 0.755922
O O10 0.500000 0.000000 0.000000
O O11 0.734026 0.807024 0.966005
O O12 0.832727 0.121305 0.809087
O O13 0.000000 0.000000 0.000000
#
# Coordination Sequence:
#
# PCOD9082482 Si02
#       6
#     2   2   2   2   2   2
#     4   9  19  34  54  80 107 132 175 221 261 300
#     4  10  21  35  54  81 106 139 174 213 267 309
#     4  11  20  34  54  79 110 141 169 213 266 316
#     4  11  16  33  56  79 101 135 185 214 247 307
#     4  11  20  34  57  79 102 136 183 217 252 312
#     4  10  19  33  55  84 101 133 178 224 256 295
#
# _framework density 18.176666999999998
#
# number of rings (size 3 to 8) (size 9 to 14) (size 15 to 20)
#    0.000    1.667    6.667    2.500    0.000    0.667 
#    0.000    3.333    0.000    1.000    0.000    0.000 
#    0.000    0.000    0.000    0.000    0.000    0.000 
#
# Total GULP energy -66977.196412 kJ/mol
# GULP energy per Si atom -5581.433034 kJ/mol
# Density = 1.813530 g / cm^3
# Si number density = 18.176667 Si / 1000 Ang^3
#
#
#
# Elastic Constant Matrix: (Units=GPa)
#
#
# Indices 1 2 3 4 5 6 
#
# 1 73.4560 16.0594 13.8261 9.8123 -6.6760 -9.2887
# 2 16.0594 50.7032 30.5905 17.2216 -14.4506 -7.1597
# 3 13.8261 30.5905 75.0253 21.4870 -12.7715 -7.2274
# 4 9.8123 17.2216 21.4870 33.4588 -12.4543 -12.5219
# 5 -6.6760 -14.4506 -12.7715 -12.4543 30.0952 2.2583
# 6 -9.2887 -7.1597 -7.2274 -12.5219 2.2583 16.1037
#
#
#
# Elastic Compliance Matrix: (Units=1/GPa)
#
#
# Indices 1 2 3 4 5 6 
#
# 1 0.015444 -0.003271 -0.000851 0.001109 0.001372 0.007742
# 2 -0.003271 0.030373 -0.008712 -0.005215 0.007812 0.002557
# 3 -0.000851 -0.008712 0.019289 -0.008279 0.000555 -0.002222
# 4 0.001109 -0.005215 -0.008279 0.056908 0.015021 0.036750
# 5 0.001372 0.007812 0.000555 0.015021 0.042972 0.010168
# 6 0.007742 0.002557 -0.002222 0.036750 0.010168 0.093853
#
#
# Mechanical properties :
#
#
# Convention : Reuss Voigt Hill
#
# Bulk Modulus (GPa) = 25.35481 35.57070 30.46275
# Shear Modulus (GPa) = 16.79808 25.17877 20.98842
#
# Velocity S-wave (km/s) = 3.04329 3.72590 3.40176
# Velocity P-wave (km/s) = 5.13110 6.17428 5.67670
#
# Compressibility (1/GPa) = 0.03944025
#
# Stress axis : x y z
#
# Youngs Moduli (GPa) = 64.74824 32.92354 51.84254
#
# Poissons Ratio (x) = 0.10768 0.04410
# Poissons Ratio (y) = 0.21177 0.45165
# Poissons Ratio (z) = 0.05508 0.28683
#
# Static dielectric constant tensor:
#      x y z
#    x 1.624360 -0.021620 -0.000980 
#    y -0.021620 1.612440 -0.003080 
#    z -0.000980 -0.003080 1.626870 
# 
# From -- ./inp_files/145403.got.cif
#   From: 2010.05.17/outbox.cif.g08.bks.cpg/sg2_73_cif.got.tgz:145403.got - 2010.06.03 11:33:40.
