data_PCOD9082841
_publ_section_title
;
Structure prediction by ZEFSAII (Michael W. Deem and Ramdas Pophale) SiO2 
 PCOD9082841
Probable space group: P -1
;
_chemical_formula_sum "Si O2"
_cell_formula_units_Z 16
_cell_length_a 8.099914
_cell_length_b 19.518018
_cell_length_c 10.994544
_cell_angle_alpha 38.767573
_cell_angle_beta 47.369893
_cell_angle_gamma 72.201935
_cell_volume 701.283582
_symmetry_space_group_name_H-M "P -1"
_symmetry_group_IT_number 2
_symmetry_cell_setting 'triclinic'
loop_
_space_group_symop_operation_xyz
x,y,z
-x,-y,-z
loop_
_atom_site_type_symbol
_atom_site_label
_atom_site_fract_x
_atom_site_fract_y
_atom_site_fract_z
Si Si1 0.598375 0.407113 0.132839
Si Si2 0.404360 0.788639 0.070434
Si Si3 0.271459 0.930858 0.544899
Si Si4 0.231352 0.320481 0.879129
Si Si5 0.948603 0.812754 0.319508
Si Si6 0.567395 0.491238 0.277224
Si Si7 0.196260 0.026516 0.697971
Si Si8 0.256585 0.616723 0.161348
O O1 0.692514 0.449970 0.164017
O O2 0.332848 0.281193 0.452904
O O3 0.500000 0.500000 0.000000
O O4 0.755938 0.386033 0.975209
O O5 0.550801 0.718433 0.144650
O O6 0.140047 0.756463 0.314342
O O7 0.320343 0.738626 0.042318
O O8 0.591286 0.938370 0.778937
O O9 0.506169 0.910357 0.499974
O O10 0.162798 0.969129 0.662655
O O11 0.037894 0.802934 0.792874
O O12 0.311668 0.377312 0.624141
O O13 0.263967 0.431083 0.800100
O O14 0.916461 0.879357 0.362519
O O15 0.065702 0.916657 0.012844
O O16 0.480686 0.584072 0.129019
O O17 0.000000 0.500000 0.500000
#
# Coordination Sequence:
#
# PCOD9082841 Si02
#       8
#     2   2   2   2   2   2   2   2
#     4  10  19  33  58  86 112 144 190 247 293 331
#     4  10  20  34  56  86 117 157 194 228 288 354
#     4  10  19  35  58  85 113 150 197 241 289 339
#     4  10  20  36  58  83 123 163 194 230 283 352
#     4  10  19  35  55  83 118 144 186 243 292 341
#     4   9  20  36  56  83 115 156 196 234 286 346
#     4   9  20  34  57  85 111 147 191 247 294 332
#     4  10  20  35  61  89 112 145 192 249 299 337
#
# _framework density 22.815304999999999
#
# number of rings (size 3 to 8) (size 9 to 14) (size 15 to 20)
#    0.000    2.250    0.000    3.375    0.000    3.000 
#    0.000    1.875    0.000   51.000    0.000    0.000 
#    0.000    0.000    0.000    0.250    0.000    0.000 
#
# Total GULP energy -89316.127983 kJ/mol
# GULP energy per Si atom -5582.257999 kJ/mol
# Density = 2.276338 g / cm^3
# Si number density = 22.815305 Si / 1000 Ang^3
#
#
#
# Elastic Constant Matrix: (Units=GPa)
#
#
# Indices 1 2 3 4 5 6 
#
# 1 37.6187 17.3458 17.7748 2.4085 -0.3337 1.5905
# 2 17.3458 124.2175 55.0805 12.6991 -7.2608 9.5258
# 3 17.7748 55.0805 87.0845 -4.7263 -16.8429 11.2671
# 4 2.4085 12.6991 -4.7263 31.6376 2.3792 4.0365
# 5 -0.3337 -7.2608 -16.8429 2.3792 26.6259 -2.2714
# 6 1.5905 9.5258 11.2671 4.0365 -2.2714 26.4407
#
#
#
# Elastic Compliance Matrix: (Units=1/GPa)
#
#
# Indices 1 2 3 4 5 6 
#
# 1 0.030309 -0.001525 -0.006254 -0.002543 -0.003640 0.001467
# 2 -0.001525 0.012387 -0.008066 -0.005953 -0.001223 -0.000130
# 3 -0.006254 -0.008066 0.020886 0.006837 0.009827 -0.005817
# 4 -0.002543 -0.005953 0.006837 0.036087 -0.001085 -0.006218
# 5 -0.003640 -0.001223 0.009827 -0.001085 0.043523 0.000377
# 6 0.001467 -0.000130 -0.005817 -0.006218 0.000377 0.041240
#
#
# Mechanical properties :
#
#
# Convention : Reuss Voigt Hill
#
# Bulk Modulus (GPa) = 31.35539 47.70254 39.52896
# Shear Modulus (GPa) = 22.05049 27.52215 24.78632
#
# Velocity S-wave (km/s) = 3.11220 3.47695 3.29962
# Velocity P-wave (km/s) = 5.16598 6.08872 5.64623
#
# Compressibility (1/GPa) = 0.03189244
#
# Stress axis : x y z
#
# Youngs Moduli (GPa) = 32.99362 80.72909 47.87951
#
# Poissons Ratio (x) = 0.12307 0.29943
# Poissons Ratio (y) = 0.05030 0.38621
# Poissons Ratio (z) = 0.20633 0.65119
#
# Static dielectric constant tensor:
#      x y z
#    x 1.923730 -0.128670 0.235720 
#    y -0.128670 2.174170 -0.519420 
#    z 0.235720 -0.519420 2.882550 
# 
# From -- ./inp_files/405386.got.cif
#   From: 2010.05.17/outbox.cif.g08.bks.cpg/sg2_203_cif.got.tgz:405386.got - 2010.06.03 11:33:40.
