data_PCOD9082257
_publ_section_title
;
Structure prediction by ZEFSAII (Michael W. Deem and Ramdas Pophale) SiO2 
 PCOD9082257
Probable space group: P -1
;
_chemical_formula_sum "Si O2"
_cell_formula_units_Z 16
_cell_length_a 12.593786
_cell_length_b 15.017873
_cell_length_c 11.177487
_cell_angle_alpha 58.139180
_cell_angle_beta 95.969864
_cell_angle_gamma 144.602723
_cell_volume 778.392806
_symmetry_space_group_name_H-M "P -1"
_symmetry_group_IT_number 2
_symmetry_cell_setting 'triclinic'
loop_
_space_group_symop_operation_xyz
x,y,z
-x,-y,-z
loop_
_atom_site_type_symbol
_atom_site_label
_atom_site_fract_x
_atom_site_fract_y
_atom_site_fract_z
Si Si1 0.059966 0.934789 0.022106
Si Si2 0.048325 0.762822 0.362121
Si Si3 0.210637 0.556043 0.065917
Si Si4 0.560008 0.288349 0.779123
Si Si5 0.843532 0.576994 0.097663
Si Si6 0.243731 0.832593 0.558386
Si Si7 0.624702 0.059887 0.130337
Si Si8 0.186139 0.596258 0.575125
O O1 0.076202 0.880735 0.186045
O O2 0.872475 0.717222 0.058621
O O3 0.319596 0.145138 0.839683
O O4 0.000000 0.000000 0.000000
O O5 0.773522 0.517934 0.555708
O O6 0.032537 0.646309 0.356471
O O7 0.225203 0.903063 0.399090
O O8 0.347259 0.616752 0.143678
O O9 0.921408 0.290973 0.257074
O O10 0.269116 0.552133 0.950711
O O11 0.303985 0.759001 0.947088
O O12 0.502455 0.112876 0.876813
O O13 0.725546 0.408874 0.312322
O O14 0.114177 0.766990 0.974801
O O15 0.085314 0.602583 0.636095
O O16 0.500000 0.000000 0.500000
O O17 0.424559 0.843537 0.356628
#
# Coordination Sequence:
#
# PCOD9082257 Si02
#       8
#     2   2   2   2   2   2   2   2
#     4  10  22  42  65  81 103 152 207 255 295 328
#     4   9  21  39  56  85 116 147 198 240 280 345
#     4  11  21  35  54  83 125 158 186 227 287 352
#     4   9  21  37  57  86 115 149 191 239 289 349
#     4  10  21  36  52  83 119 147 194 241 280 347
#     4  11  22  33  54  85 123 164 187 219 280 347
#     4  10  19  33  53  80 118 159 187 220 278 351
#     4  10  20  32  52  79 117 159 189 222 274 338
#
# _framework density 20.555174000000001
#
# number of rings (size 3 to 8) (size 9 to 14) (size 15 to 20)
#    0.000    2.000    1.250    1.875    3.500    0.500 
#    0.000    0.625    0.000    3.000    0.000    0.000 
#    0.000    0.000    0.000    0.000    0.000    0.000 
#
# Total GULP energy -89075.486241 kJ/mol
# GULP energy per Si atom -5567.217890 kJ/mol
# Density = 2.050839 g / cm^3
# Si number density = 20.555174 Si / 1000 Ang^3
#
#
#
# Elastic Constant Matrix: (Units=GPa)
#
#
# Indices 1 2 3 4 5 6 
#
# 1 87.2694 23.7171 29.9121 -3.0170 -0.2881 -23.0478
# 2 23.7171 107.4593 44.4235 20.8642 -0.3384 -10.9817
# 3 29.9121 44.4235 100.9572 2.1642 -4.2455 -1.5599
# 4 -3.0170 20.8642 2.1642 32.3300 0.8346 -6.5816
# 5 -0.2881 -0.3384 -4.2455 0.8346 15.8239 0.8420
# 6 -23.0478 -10.9817 -1.5599 -6.5816 0.8420 28.9102
#
#
#
# Elastic Compliance Matrix: (Units=1/GPa)
#
#
# Indices 1 2 3 4 5 6 
#
# 1 0.017457 -0.001736 -0.004398 0.006038 -0.001987 0.014453
# 2 -0.001736 0.013664 -0.005330 -0.008264 -0.000822 0.001661
# 3 -0.004398 -0.005330 0.013612 0.001076 0.003649 -0.004658
# 4 0.006038 -0.008264 0.001076 0.038992 -0.002403 0.010679
# 5 -0.001987 -0.000822 0.003649 -0.002403 0.064467 -0.004124
# 6 0.014453 0.001661 -0.004658 0.010679 -0.004124 0.049043
#
#
# Mechanical properties :
#
#
# Convention : Reuss Voigt Hill
#
# Bulk Modulus (GPa) = 45.86109 54.64350 50.25230
# Shear Modulus (GPa) = 21.98471 28.58838 25.28655
#
# Velocity S-wave (km/s) = 3.27394 3.73340 3.51120
# Velocity P-wave (km/s) = 6.05403 6.72502 6.39833
#
# Compressibility (1/GPa) = 0.02180498
#
# Stress axis : x y z
#
# Youngs Moduli (GPa) = 57.28301 73.18440 73.46517
#
# Poissons Ratio (x) = 0.12708 0.32309
# Poissons Ratio (y) = 0.09947 0.39155
# Poissons Ratio (z) = 0.25193 0.39006
#
# Static dielectric constant tensor:
#      x y z
#    x 1.731250 0.009670 0.005850 
#    y 0.009670 1.866220 0.002960 
#    z 0.005850 0.002960 1.842170 
# 
# From -- ./inp_files/433827.got.cif
#   From: 2010.05.17/outbox.cif.g08.bks.cpg/sg2_217_cif.got.tgz:433827.got - 2010.06.03 11:33:40.
