data_PCOD9082553
_publ_section_title
;
Structure prediction by ZEFSAII (Michael W. Deem and Ramdas Pophale) SiO2 
 PCOD9082553
Probable space group: P -1
;
_chemical_formula_sum "Si O2"
_cell_formula_units_Z 16
_cell_length_a 11.645124
_cell_length_b 26.482615
_cell_length_c 14.077480
_cell_angle_alpha 23.562700
_cell_angle_beta 150.160796
_cell_angle_gamma 151.387944
_cell_volume 785.183820
_symmetry_space_group_name_H-M "P -1"
_symmetry_group_IT_number 2
_symmetry_cell_setting 'triclinic'
loop_
_space_group_symop_operation_xyz
x,y,z
-x,-y,-z
loop_
_atom_site_type_symbol
_atom_site_label
_atom_site_fract_x
_atom_site_fract_y
_atom_site_fract_z
Si Si1 0.312371 0.562353 0.710568
Si Si2 0.305236 0.443843 0.290112
Si Si3 0.727758 0.741231 0.578594
Si Si4 0.189547 0.583438 0.298573
Si Si5 0.428976 0.817616 0.486990
Si Si6 0.942518 0.846353 0.755941
Si Si7 0.071583 0.610376 0.726250
Si Si8 0.537303 0.113745 0.962366
O O1 0.449371 0.618024 0.613323
O O2 0.327006 0.702950 0.528254
O O3 0.023288 0.455406 0.703597
O O4 0.500000 0.500000 0.000000
O O5 0.176304 0.317571 0.339624
O O6 0.602013 0.480338 0.441730
O O7 0.168177 0.396691 0.373910
O O8 0.247283 0.570562 0.992527
O O9 0.867632 0.768276 0.733689
O O10 0.678210 0.872228 0.281287
O O11 0.019838 0.510063 0.211864
O O12 0.362242 0.749225 0.134223
O O13 0.700577 0.808365 0.715557
O O14 0.236761 0.754659 0.543880
O O15 0.465971 0.968967 0.215726
O O16 0.207130 0.854833 0.969045
O O17 0.000000 0.000000 0.500000
#
# Coordination Sequence:
#
# PCOD9082553 Si02
#       8
#     2   2   2   2   2   2   2   2
#     4  10  19  33  56  81 110 144 174 220 271 314
#     4  10  21  34  57  81 100 143 183 224 272 307
#     4  10  20  34  52  80 110 134 178 221 265 324
#     4  10  20  35  56  80 107 140 181 220 266 324
#     4   9  19  34  53  78 107 141 176 216 268 319
#     4   9  18  32  52  75 105 142 170 206 264 320
#     4  10  20  38  57  75 108 140 184 229 261 314
#     4  10  20  33  53  81 109 141 172 216 276 320
#
# _framework density 20.377393999999999
#
# number of rings (size 3 to 8) (size 9 to 14) (size 15 to 20)
#    0.000    2.250    0.000    4.125    0.000    7.500 
#    0.000    6.250    0.000   12.000    0.000    0.000 
#    0.000    0.000    0.000    0.000    0.000    0.000 
#
# Total GULP energy -89076.044837 kJ/mol
# GULP energy per Si atom -5567.252802 kJ/mol
# Density = 2.033101 g / cm^3
# Si number density = 20.377394 Si / 1000 Ang^3
#
#
#
# Elastic Constant Matrix: (Units=GPa)
#
#
# Indices 1 2 3 4 5 6 
#
# 1 90.9908 7.1381 7.5414 -15.9866 -11.9980 12.6631
# 2 7.1381 56.3114 19.0629 -19.2771 -5.4490 7.4089
# 3 7.5414 19.0629 87.8661 -9.2744 -0.9749 15.2550
# 4 -15.9866 -19.2771 -9.2744 40.6157 5.2126 5.7620
# 5 -11.9980 -5.4490 -0.9749 5.2126 21.4940 -4.7660
# 6 12.6631 7.4089 15.2550 5.7620 -4.7660 26.3926
#
#
#
# Elastic Compliance Matrix: (Units=1/GPa)
#
#
# Indices 1 2 3 4 5 6 
#
# 1 0.013792 0.002009 0.000610 0.007087 0.004691 -0.008234
# 2 0.002009 0.023993 -0.002541 0.012540 0.002145 -0.008581
# 3 0.000610 -0.002541 0.013781 0.003760 -0.002547 -0.008826
# 4 0.007087 0.012540 0.003760 0.037580 -0.005879 -0.018360
# 5 0.004691 0.002145 -0.002547 -0.005879 0.053102 0.009492
# 6 -0.008234 -0.008581 -0.008826 -0.018360 0.009492 0.055073
#
#
# Mechanical properties :
#
#
# Convention : Reuss Voigt Hill
#
# Bulk Modulus (GPa) = 19.33414 33.62812 26.48113
# Shear Modulus (GPa) = 23.32040 31.12885 27.22463
#
# Velocity S-wave (km/s) = 3.38661 3.91271 3.65913
# Velocity P-wave (km/s) = 4.98004 6.07873 5.55660
#
# Compressibility (1/GPa) = 0.05172197
#
# Stress axis : x y z
#
# Youngs Moduli (GPa) = 72.50791 41.67828 72.56530
#
# Poissons Ratio (x) = -0.08371 -0.04428
# Poissons Ratio (y) = -0.14564 0.18436
# Poissons Ratio (z) = -0.04424 0.10589
#
# Static dielectric constant tensor:
#      x y z
#    x 1.731670 -0.000420 0.017700 
#    y -0.000420 1.796240 0.029390 
#    z 0.017700 0.029390 1.787220 
# 
# From -- ./inp_files/524619.got.cif
#   From: 2010.05.17/outbox.cif.g08.bks.cpg/sg2_263_cif.got.tgz:524619.got - 2010.06.03 11:33:40.
