data_PCOD9082197
_publ_section_title
;
Structure prediction by ZEFSAII (Michael W. Deem and Ramdas Pophale) SiO2 
 PCOD9082197
Probable space group: P -1
;
_chemical_formula_sum "Si O2"
_cell_formula_units_Z 16
_cell_length_a 14.017818
_cell_length_b 11.952024
_cell_length_c 7.761696
_cell_angle_alpha 115.800722
_cell_angle_beta 114.554894
_cell_angle_gamma 115.010210
_cell_volume 719.571041
_symmetry_space_group_name_H-M "P -1"
_symmetry_group_IT_number 2
_symmetry_cell_setting 'triclinic'
loop_
_space_group_symop_operation_xyz
x,y,z
-x,-y,-z
loop_
_atom_site_type_symbol
_atom_site_label
_atom_site_fract_x
_atom_site_fract_y
_atom_site_fract_z
Si Si1 0.759283 0.510578 0.245343
Si Si2 0.492955 0.090848 0.797663
Si Si3 0.621111 0.606935 0.005336
Si Si4 0.905324 0.147603 0.322962
Si Si5 0.626525 0.513087 0.504543
Si Si6 0.442831 0.117055 0.184866
Si Si7 0.946879 0.911694 0.088588
Si Si8 0.208465 0.987802 0.500918
O O1 0.725425 0.578289 0.108751
O O2 0.702268 0.523097 0.389914
O O3 0.942922 0.649063 0.491435
O O4 0.651223 0.296196 0.998669
O O5 0.347056 0.028039 0.552908
O O6 0.504101 0.952984 0.709028
O O7 0.464243 0.099657 0.985669
O O8 0.712234 0.816533 0.233527
O O9 0.500000 0.500000 0.000000
O O10 0.512152 0.522072 0.698988
O O11 0.867027 0.152190 0.491797
O O12 0.740352 0.015812 0.014148
O O13 0.952875 0.043545 0.290151
O O14 0.550397 0.331220 0.425718
O O15 0.772967 0.709273 0.828858
O O16 0.000000 0.000000 0.000000
O O17 0.069301 0.914280 0.232575
#
# Coordination Sequence:
#
# PCOD9082197 Si02
#       8
#     2   2   2   2   2   2   2   2
#     4  10  18  30  57  84 112 144 184 233 274 337
#     4   9  18  35  59  79 105 157 196 217 273 336
#     4  10  15  31  54  79 109 140 183 224 274 331
#     4  11  21  35  55  87 119 140 182 243 276 322
#     4  10  19  35  53  82 113 151 184 223 283 339
#     4   9  19  36  55  80 113 147 193 236 263 324
#     4  12  23  34  56  88 118 149 177 228 298 336
#     4  11  20  36  58  85 113 145 188 234 271 334
#
# _framework density 22.235469999999999
#
# number of rings (size 3 to 8) (size 9 to 14) (size 15 to 20)
#    0.000    1.750    7.500    1.125    0.000    1.000 
#    0.000    0.625    0.000    0.750    0.000    0.000 
#    0.000    0.000    0.000    0.000    0.000    0.000 
#
# Total GULP energy -89390.537910 kJ/mol
# GULP energy per Si atom -5586.908619 kJ/mol
# Density = 2.218486 g / cm^3
# Si number density = 22.235470 Si / 1000 Ang^3
#
#
#
# Elastic Constant Matrix: (Units=GPa)
#
#
# Indices 1 2 3 4 5 6 
#
# 1 47.4942 35.7056 35.0022 18.6963 22.8630 -2.5429
# 2 35.7056 108.5619 69.7474 16.4465 26.4106 -18.7342
# 3 35.0022 69.7474 160.9291 18.3251 42.1517 -3.9921
# 4 18.6963 16.4465 18.3251 35.0347 10.6947 7.7346
# 5 22.8630 26.4106 42.1517 10.6947 36.0254 6.2214
# 6 -2.5429 -18.7342 -3.9921 7.7346 6.2214 26.5244
#
#
#
# Elastic Compliance Matrix: (Units=1/GPa)
#
#
# Indices 1 2 3 4 5 6 
#
# 1 0.040557 -0.004705 0.000462 -0.015803 -0.019848 0.009898
# 2 -0.004705 0.018524 -0.004305 -0.005243 -0.006601 0.015062
# 3 0.000462 -0.004305 0.010599 -0.001153 -0.009392 0.001138
# 4 -0.015803 -0.005243 -0.001153 0.042463 0.005926 -0.019164
# 5 -0.019848 -0.006601 -0.009392 0.005926 0.058469 -0.023421
# 6 0.009898 0.015062 0.001138 -0.019164 -0.023421 0.060542
#
#
# Mechanical properties :
#
#
# Convention : Reuss Voigt Hill
#
# Bulk Modulus (GPa) = 19.01744 66.43282 42.72513
# Shear Modulus (GPa) = 18.81254 31.28555 25.04904
#
# Velocity S-wave (km/s) = 2.91187 3.75508 3.36003
# Velocity P-wave (km/s) = 4.45832 6.98160 5.85744
#
# Compressibility (1/GPa) = 0.05258332
#
# Stress axis : x y z
#
# Youngs Moduli (GPa) = 24.65637 53.98276 94.34696
#
# Poissons Ratio (x) = 0.25400 -0.04356
# Poissons Ratio (y) = 0.11601 0.40620
# Poissons Ratio (z) = -0.01138 0.23242
#
# Static dielectric constant tensor:
#      x y z
#    x 2.080970 0.286380 0.067580 
#    y 0.286380 2.173230 0.087310 
#    z 0.067580 0.087310 1.894230 
# 
# From -- ./inp_files/463920.got.cif
#   From: 2010.05.17/outbox.cif.g08.bks.cpg/sg2_232_cif.got.tgz:463920.got - 2010.06.03 11:33:40.
