data_PCOD9082410
_publ_section_title
;
Structure prediction by ZEFSAII (Michael W. Deem and Ramdas Pophale) SiO2 
 PCOD9082410
Probable space group: P -1
;
_chemical_formula_sum "Si O2"
_cell_formula_units_Z 16
_cell_length_a 7.566042
_cell_length_b 9.384910
_cell_length_c 16.670254
_cell_angle_alpha 144.097698
_cell_angle_beta 60.619896
_cell_angle_gamma 115.715019
_cell_volume 603.305935
_symmetry_space_group_name_H-M "P -1"
_symmetry_group_IT_number 2
_symmetry_cell_setting 'triclinic'
loop_
_space_group_symop_operation_xyz
x,y,z
-x,-y,-z
loop_
_atom_site_type_symbol
_atom_site_label
_atom_site_fract_x
_atom_site_fract_y
_atom_site_fract_z
Si Si1 0.207958 0.485420 0.900648
Si Si2 0.466478 0.810383 0.497875
Si Si3 0.170901 0.004210 0.376600
Si Si4 0.846232 0.913652 0.922232
Si Si5 0.465051 0.763725 0.089115
Si Si6 0.017897 0.583498 0.337144
Si Si7 0.201034 0.994050 0.761972
Si Si8 0.322876 0.647000 0.785942
O O1 0.256284 0.213893 0.787038
O O2 0.177535 0.538519 0.839809
O O3 0.385102 0.672725 0.979194
O O4 0.000000 0.500000 0.000000
O O5 0.498306 0.533625 0.336468
O O6 0.500000 0.000000 0.500000
O O7 0.652555 0.894811 0.555128
O O8 0.277323 0.787691 0.592682
O O9 0.276145 0.900164 0.228835
O O10 0.065245 0.775721 0.343150
O O11 0.023781 0.223052 0.495583
O O12 0.820008 0.620213 0.793660
O O13 0.973114 0.973887 0.839198
O O14 0.659582 0.073493 0.062163
O O15 0.000000 0.000000 0.000000
O O16 0.655059 0.929221 0.158687
O O17 0.500000 0.500000 0.000000
O O18 0.808557 0.415926 0.293241
#
# Coordination Sequence:
#
# PCOD9082410 Si02
#       8
#     2   2   2   2   2   2   2   2
#     4  11  18  30  57  90 116 144 192 246 278 331
#     4  10  19  34  57  86 115 143 187 242 290 333
#     4   9  18  35  56  81 104 142 196 232 283 331
#     4  10  21  36  57  81 118 154 193 230 284 349
#     4   9  20  31  52  85 118 142 183 240 289 334
#     4   9  19  35  58  79 107 145 190 237 274 344
#     4  10  20  36  55  88 114 155 188 233 290 342
#     4  10  19  33  54  87 110 146 191 230 285 338
#
# _framework density 26.52054
#
# number of rings (size 3 to 8) (size 9 to 14) (size 15 to 20)
#    0.000    2.250    2.500    0.750    5.250    0.000 
#    0.000   10.000    0.000   11.250    0.000    0.000 
#    0.000    0.000    0.000    0.000    0.000    0.000 
#
# Total GULP energy -89180.011097 kJ/mol
# GULP energy per Si atom -5573.750694 kJ/mol
# Density = 2.646018 g / cm^3
# Si number density = 26.520540 Si / 1000 Ang^3
#
#
#
# Elastic Constant Matrix: (Units=GPa)
#
#
# Indices 1 2 3 4 5 6 
#
# 1 66.9683 -0.3276 10.9906 9.8103 23.8673 -4.1388
# 2 -0.3276 74.8595 41.9615 11.1339 1.0394 9.7995
# 3 10.9906 41.9615 230.6108 27.3449 -23.3553 3.5462
# 4 9.8103 11.1339 27.3449 44.9211 2.0169 3.3223
# 5 23.8673 1.0394 -23.3553 2.0169 23.0077 -0.4530
# 6 -4.1388 9.7995 3.5462 3.3223 -0.4530 27.6207
#
#
#
# Elastic Compliance Matrix: (Units=1/GPa)
#
#
# Indices 1 2 3 4 5 6 
#
# 1 0.029076 0.003560 -0.005368 -0.002632 -0.035472 0.003518
# 2 0.003560 0.016455 -0.003687 -0.001897 -0.008105 -0.004736
# 3 -0.005368 -0.003687 0.006895 -0.002706 0.012975 0.000157
# 4 -0.002632 -0.001897 -0.002706 0.025232 -0.002190 -0.002445
# 5 -0.035472 -0.008105 0.012975 -0.002190 0.093945 -0.002301
# 6 0.003518 -0.004736 0.000157 -0.002445 -0.002301 0.038648
#
#
# Mechanical properties :
#
#
# Convention : Reuss Voigt Hill
#
# Bulk Modulus (GPa) = 24.13345 53.07642 38.60493
# Shear Modulus (GPa) = 21.27164 40.43083 30.85123
#
# Velocity S-wave (km/s) = 2.83518 3.90873 3.41441
# Velocity P-wave (km/s) = 4.45391 6.35828 5.48931
#
# Compressibility (1/GPa) = 0.04143627
#
# Stress axis : x y z
#
# Youngs Moduli (GPa) = 34.39272 60.77073 145.02358
#
# Poissons Ratio (x) = -0.21632 0.77847
# Poissons Ratio (y) = -0.12242 0.53469
# Poissons Ratio (z) = 0.18462 0.22406
#
# Static dielectric constant tensor:
#      x y z
#    x 2.222570 -0.005110 -0.229550 
#    y -0.005110 2.279220 0.077400 
#    z -0.229550 0.077400 2.306300 
# 
# From -- ./inp_files/421941.got.cif
#   From: 2010.05.17/outbox.cif.g08.bks.cpg/sg2_211_cif.got.tgz:421941.got - 2010.06.03 11:33:40.
