data_PCOD9082232
_publ_section_title
;
Structure prediction by ZEFSAII (Michael W. Deem and Ramdas Pophale) SiO2 
 PCOD9082232
Probable space group: P -1
;
_chemical_formula_sum "Si O2"
_cell_formula_units_Z 16
_cell_length_a 9.677370
_cell_length_b 11.679967
_cell_length_c 18.148401
_cell_angle_alpha 126.241970
_cell_angle_beta 30.760423
_cell_angle_gamma 102.948167
_cell_volume 613.775123
_symmetry_space_group_name_H-M "P -1"
_symmetry_group_IT_number 2
_symmetry_cell_setting 'triclinic'
loop_
_space_group_symop_operation_xyz
x,y,z
-x,-y,-z
loop_
_atom_site_type_symbol
_atom_site_label
_atom_site_fract_x
_atom_site_fract_y
_atom_site_fract_z
Si Si1 0.130050 0.907290 0.822825
Si Si2 0.399925 0.097601 0.757640
Si Si3 0.493051 0.306092 0.899785
Si Si4 0.490167 0.450466 0.301487
Si Si5 0.380366 0.300515 0.711701
Si Si6 0.611658 0.190078 0.033939
Si Si7 0.002253 0.645964 0.733228
Si Si8 0.941288 0.286321 0.805348
O O1 0.446944 0.911704 0.666847
O O2 0.839001 0.037859 0.938275
O O3 0.172464 0.723841 0.723253
O O4 0.000000 0.000000 0.000000
O O5 0.523372 0.136546 0.642929
O O6 0.552597 0.132792 0.769144
O O7 0.942103 0.282419 0.039931
O O8 0.361131 0.473743 0.966856
O O9 0.162994 0.398733 0.146005
O O10 0.841445 0.243611 0.759353
O O11 0.386055 0.648238 0.400543
O O12 0.380303 0.389903 0.261871
O O13 0.298668 0.478285 0.475846
O O14 0.294104 0.244944 0.656303
O O15 0.000000 0.500000 0.000000
O O16 0.353804 0.197143 0.098465
O O17 0.867921 0.196734 0.867909
#
# Coordination Sequence:
#
# PCOD9082232 Si02
#       8
#     2   2   2   2   2   2   2   2
#     4  11  21  37  55  79 109 147 185 215 264 328
#     4  10  18  35  56  75 105 144 186 219 257 319
#     4  10  19  30  50  82 110 135 174 228 268 308
#     4  10  19  33  57  83 109 138 178 225 277 318
#     4  10  15  31  55  75 100 138 181 220 256 312
#     4  10  20  38  58  78 108 145 183 221 265 325
#     4  11  23  34  52  85 117 140 174 222 280 322
#     4  10  17  31  54  81 103 134 186 226 258 307
#
# _framework density 26.068180000000002
#
# number of rings (size 3 to 8) (size 9 to 14) (size 15 to 20)
#    0.000    1.750    7.500    0.750    0.000    0.500 
#    0.000    0.625    0.000    0.000    0.000    1.750 
#    0.000    0.000    0.000    0.000    0.000    0.000 
#
# Total GULP energy -89429.020213 kJ/mol
# GULP energy per Si atom -5589.313763 kJ/mol
# Density = 2.600885 g / cm^3
# Si number density = 26.068180 Si / 1000 Ang^3
#
#
#
# Elastic Constant Matrix: (Units=GPa)
#
#
# Indices 1 2 3 4 5 6 
#
# 1 135.7351 58.2565 24.0312 7.0347 32.9278 21.1669
# 2 58.2565 113.3313 23.9212 -9.5467 -0.4298 14.4228
# 3 24.0312 23.9212 99.0495 -15.9308 17.0825 3.1449
# 4 7.0347 -9.5467 -15.9308 24.0520 -3.6719 8.1217
# 5 32.9278 -0.4298 17.0825 -3.6719 42.8678 5.1575
# 6 21.1669 14.4228 3.1449 8.1217 5.1575 63.2101
#
#
#
# Elastic Compliance Matrix: (Units=1/GPa)
#
#
# Indices 1 2 3 4 5 6 
#
# 1 0.014308 -0.007861 -0.001121 -0.009511 -0.011341 -0.000794
# 2 -0.007861 0.014237 -0.001343 0.009039 0.007773 -0.002345
# 3 -0.001121 -0.001343 0.012559 0.007819 -0.003406 -0.000670
# 4 -0.009511 0.009039 0.007819 0.057173 0.010072 -0.007434
# 5 -0.011341 0.007773 -0.003406 0.010072 0.034568 -0.001921
# 6 -0.000794 -0.002345 -0.000670 -0.007434 -0.001921 0.017767
#
#
# Mechanical properties :
#
#
# Convention : Reuss Voigt Hill
#
# Bulk Modulus (GPa) = 48.89458 62.28154 55.58806
# Shear Modulus (GPa) = 28.07712 42.15313 35.11513
#
# Velocity S-wave (km/s) = 3.28543 4.02560 3.67420
# Velocity P-wave (km/s) = 5.76101 6.74914 6.27456
#
# Compressibility (1/GPa) = 0.02045216
#
# Stress axis : x y z
#
# Youngs Moduli (GPa) = 69.89194 70.23707 79.62545
#
# Poissons Ratio (x) = 0.55214 0.08929
# Poissons Ratio (y) = 0.54943 0.10698
# Poissons Ratio (z) = 0.07837 0.09436
#
# Static dielectric constant tensor:
#      x y z
#    x 1.988500 -0.026350 -0.006570 
#    y -0.026350 2.119960 0.083130 
#    z -0.006570 0.083130 2.177710 
# 
# From -- ./inp_files/499271.got.cif
#   From: 2010.05.17/outbox.cif.g08.bks.cpg/sg2_250_cif.got.tgz:499271.got - 2010.06.03 11:33:40.
