data_PCOD9082768
_publ_section_title
;
Structure prediction by ZEFSAII (Michael W. Deem and Ramdas Pophale) SiO2 
 PCOD9082768
Probable space group: P -1
;
_chemical_formula_sum "Si O2"
_cell_formula_units_Z 16
_cell_length_a 29.839692
_cell_length_b 8.650400
_cell_length_c 9.840776
_cell_angle_alpha 31.479496
_cell_angle_beta 40.828876
_cell_angle_gamma 41.586540
_cell_volume 827.110289
_symmetry_space_group_name_H-M "P -1"
_symmetry_group_IT_number 2
_symmetry_cell_setting 'triclinic'
loop_
_space_group_symop_operation_xyz
x,y,z
-x,-y,-z
loop_
_atom_site_type_symbol
_atom_site_label
_atom_site_fract_x
_atom_site_fract_y
_atom_site_fract_z
Si Si1 0.540383 0.212835 0.528655
Si Si2 0.897270 0.444814 0.701884
Si Si3 0.064880 0.119596 0.495957
Si Si4 0.922765 0.578658 0.043417
Si Si5 0.168858 0.105599 0.729749
Si Si6 0.453855 0.766790 0.806548
Si Si7 0.338010 0.835721 0.521604
Si Si8 0.607118 0.905080 0.060734
O O1 0.500000 0.500000 0.500000
O O2 0.557052 0.316653 0.261764
O O3 0.614454 0.060061 0.551033
O O4 0.478983 0.040717 0.797267
O O5 0.896342 0.699845 0.627761
O O6 0.863157 0.629187 0.506950
O O7 0.980280 0.253530 0.625988
O O8 0.857494 0.193157 0.019485
O O9 0.087534 0.748511 0.733362
O O10 0.075590 0.215297 0.246103
O O11 0.863924 0.761181 0.149661
O O12 0.000000 0.500000 0.000000
O O13 0.254518 0.001627 0.609091
O O14 0.500000 0.000000 0.500000
O O15 0.385731 0.956298 0.910732
O O16 0.500000 0.500000 0.000000
O O17 0.355253 0.462283 0.764190
O O18 0.364997 0.920280 0.251555
#
# Coordination Sequence:
#
# PCOD9082768 Si02
#       8
#     2   2   2   2   2   2   2   2
#     4   9  19  36  61  86 116 148 199 245 286 348
#     4  11  22  40  61  88 118 159 202 254 298 368
#     4  11  22  38  64  91 117 153 207 251 304 357
#     4  12  21  38  62  96 120 155 196 260 307 360
#     4  12  24  39  61  87 128 161 204 251 314 369
#     4  10  19  33  57  89 113 143 189 249 295 336
#     4  11  23  39  57  85 117 163 195 244 307 360
#     4  10  20  38  60  85 115 155 203 246 290 358
#
# _framework density 19.344457999999999
#
# number of rings (size 3 to 8) (size 9 to 14) (size 15 to 20)
#    0.000    1.250    2.500    5.250    0.000    5.000 
#    0.000    3.750    0.000    1.500    0.000    0.000 
#    0.000    0.000    0.000    0.000    0.000    0.000 
#
# Total GULP energy -89315.924279 kJ/mol
# GULP energy per Si atom -5582.245267 kJ/mol
# Density = 1.930043 g / cm^3
# Si number density = 19.344458 Si / 1000 Ang^3
#
#
#
# Elastic Constant Matrix: (Units=GPa)
#
#
# Indices 1 2 3 4 5 6 
#
# 1 58.3867 40.6462 14.5639 23.8551 -1.7402 5.1876
# 2 40.6462 61.9322 3.4425 14.6742 -13.5090 8.0722
# 3 14.5639 3.4425 59.5641 -6.4291 14.3772 -9.4645
# 4 23.8551 14.6742 -6.4291 36.4605 15.4608 -4.3331
# 5 -1.7402 -13.5090 14.3772 15.4608 25.5603 9.3914
# 6 5.1876 8.0722 -9.4645 -4.3331 9.3914 27.2882
#
#
#
# Elastic Compliance Matrix: (Units=1/GPa)
#
#
# Indices 1 2 3 4 5 6 
#
# 1 0.031054 -0.034266 0.007674 0.012427 -0.035588 0.021116
# 2 -0.034266 0.025190 0.017033 0.025635 -0.019950 0.015907
# 3 0.007674 0.017033 -0.005192 -0.035063 0.044357 -0.029132
# 4 0.012427 0.025635 -0.035063 -0.035522 0.075323 -0.053670
# 5 -0.035588 -0.019950 0.044357 0.075323 -0.067605 0.063279
# 6 0.021116 0.015907 -0.029132 -0.053670 0.063279 -0.012478
#
#
# Mechanical properties :
#
#
# Convention : Reuss Voigt Hill
#
# Bulk Modulus (GPa) = 31.31682 33.02090 32.16886
# Shear Modulus (GPa) = -143.71860 25.94383 -58.88738
#
# Velocity S-wave (km/s) = -8.62877 3.66615 -5.52336
# Velocity P-wave (km/s) = 9.11318 5.91843 4.90012
#
# Compressibility (1/GPa) = 0.03193172
#
# Stress axis : x y z
#
# Youngs Moduli (GPa) = 32.20246 39.69821 -192.59033
#
# Poissons Ratio (x) = 1.36031 1.47795
# Poissons Ratio (y) = 1.10346 3.28030
# Poissons Ratio (z) = -0.24712 -0.67616
#
# Static dielectric constant tensor:
#      x y z
#    x 1.740980 0.054130 -0.004400 
#    y 0.054130 1.698100 -0.012720 
#    z -0.004400 -0.012720 1.655970 
# 
# From -- ./inp_files/358443.got.cif
#   From: 2010.05.17/outbox.cif.g08.bks.cpg/sg2_180_cif.got.tgz:358443.got - 2010.06.03 11:33:40.
