data_PCOD9082469
_publ_section_title
;
Structure prediction by ZEFSAII (Michael W. Deem and Ramdas Pophale) SiO2 
 PCOD9082469
Probable space group: P -1
;
_chemical_formula_sum "Si O2"
_cell_formula_units_Z 16
_cell_length_a 14.057336
_cell_length_b 11.978824
_cell_length_c 14.134503
_cell_angle_alpha 31.491665
_cell_angle_beta 136.509978
_cell_angle_gamma 124.429959
_cell_volume 846.246105
_symmetry_space_group_name_H-M "P -1"
_symmetry_group_IT_number 2
_symmetry_cell_setting 'triclinic'
loop_
_space_group_symop_operation_xyz
x,y,z
-x,-y,-z
loop_
_atom_site_type_symbol
_atom_site_label
_atom_site_fract_x
_atom_site_fract_y
_atom_site_fract_z
Si Si1 0.473973 0.751121 0.939516
Si Si2 0.793092 0.738649 0.139093
Si Si3 0.339330 0.909453 0.537863
Si Si4 0.149050 0.857629 0.197801
Si Si5 0.084850 0.721432 0.448177
Si Si6 0.660703 0.381921 0.619500
Si Si7 0.513797 0.690607 0.644247
Si Si8 0.528524 0.855525 0.219034
O O1 0.419888 0.769433 0.780774
O O2 0.426216 0.978853 0.791577
O O3 0.643521 0.715361 0.090926
O O4 0.427320 0.546999 0.104844
O O5 0.862599 0.515950 0.300862
O O6 0.917752 0.776331 0.275385
O O7 0.762995 0.943496 0.898819
O O8 0.175388 0.889315 0.437127
O O9 0.408932 0.807747 0.564315
O O10 0.372250 0.150818 0.398868
O O11 0.148177 0.706445 0.397370
O O12 0.185261 0.712220 0.237041
O O13 0.000000 0.000000 0.000000
O O14 0.566908 0.341478 0.488503
O O15 0.635212 0.635705 0.438694
O O16 0.605949 0.241858 0.765205
O O17 0.500000 0.000000 0.000000
#
# Coordination Sequence:
#
# PCOD9082469 Si02
#       8
#     2   2   2   2   2   2   2   2
#     4  12  21  36  56  86 115 152 196 244 287 350
#     4  10  20  34  52  78 116 150 192 231 282 350
#     4  11  22  33  53  84 120 156 182 235 303 360
#     4  10  19  33  55  82 116 147 185 234 293 351
#     4  10  21  34  52  80 117 155 182 229 291 355
#     4  11  20  37  55  83 118 152 195 244 290 345
#     4  11  21  33  54  80 121 150 188 236 300 353
#     4  11  23  35  56  81 117 155 200 246 291 329
#
# _framework density 18.907029999999999
#
# number of rings (size 3 to 8) (size 9 to 14) (size 15 to 20)
#    0.000    1.250    6.250    0.375    1.750    0.000 
#    0.000    0.000    0.000    0.000    0.000    8.750 
#    0.000    0.000    0.000    0.000    0.000    0.000 
#
# Total GULP energy -89117.787110 kJ/mol
# GULP energy per Si atom -5569.861694 kJ/mol
# Density = 1.886400 g / cm^3
# Si number density = 18.907030 Si / 1000 Ang^3
#
#
#
# Elastic Constant Matrix: (Units=GPa)
#
#
# Indices 1 2 3 4 5 6 
#
# 1 54.9723 11.3364 37.9422 2.9648 0.8359 -4.5030
# 2 11.3364 92.1111 32.8226 -1.1431 5.6599 16.7518
# 3 37.9422 32.8226 95.7300 -18.5115 -10.7332 6.1560
# 4 2.9648 -1.1431 -18.5115 34.8175 2.8436 -0.3453
# 5 0.8359 5.6599 -10.7332 2.8436 35.5945 -3.4662
# 6 -4.5030 16.7518 6.1560 -0.3453 -3.4662 26.4716
#
#
#
# Elastic Compliance Matrix: (Units=1/GPa)
#
#
# Indices 1 2 3 4 5 6 
#
# 1 0.029373 0.000280 -0.014534 -0.009851 -0.003590 0.007601
# 2 0.000280 0.014598 -0.005509 -0.002179 -0.004647 -0.008546
# 3 -0.014534 -0.005509 0.021289 0.011823 0.006406 -0.002944
# 4 -0.009851 -0.002179 0.011823 0.035664 0.001056 -0.002443
# 5 -0.003590 -0.004647 0.006406 0.001056 0.031246 0.004946
# 6 0.007601 -0.008546 -0.002944 -0.002443 0.004946 0.045778
#
#
# Mechanical properties :
#
#
# Convention : Reuss Voigt Hill
#
# Bulk Modulus (GPa) = 38.85864 45.22397 42.04131
# Shear Modulus (GPa) = 22.11877 30.09085 26.10481
#
# Velocity S-wave (km/s) = 3.42405 3.99371 3.71980
# Velocity P-wave (km/s) = 6.01907 6.72587 6.38226
#
# Compressibility (1/GPa) = 0.02573430
#
# Stress axis : x y z
#
# Youngs Moduli (GPa) = 34.04457 68.50387 46.97222
#
# Poissons Ratio (x) = -0.01918 0.68270
# Poissons Ratio (y) = -0.00953 0.25876
# Poissons Ratio (z) = 0.49481 0.37737
#
# Static dielectric constant tensor:
#      x y z
#    x 1.718320 0.019070 -0.012360 
#    y 0.019070 1.661220 0.022420 
#    z -0.012360 0.022420 1.704080 
# 
# From -- ./inp_files/531544.got.cif
#   From: 2010.05.17/outbox.cif.g08.bks.cpg/sg2_266_cif.got.tgz:531544.got - 2010.06.03 11:33:40.
