data_PCOD9082907
_publ_section_title
;
Structure prediction by ZEFSAII (Michael W. Deem and Ramdas Pophale) SiO2 
 PCOD9082907
Probable space group: P -1
;
_chemical_formula_sum "Si O2"
_cell_formula_units_Z 16
_cell_length_a 11.243937
_cell_length_b 10.642319
_cell_length_c 14.611337
_cell_angle_alpha 136.725486
_cell_angle_beta 123.387751
_cell_angle_gamma 33.889464
_cell_volume 661.566522
_symmetry_space_group_name_H-M "P -1"
_symmetry_group_IT_number 2
_symmetry_cell_setting 'triclinic'
loop_
_space_group_symop_operation_xyz
x,y,z
-x,-y,-z
loop_
_atom_site_type_symbol
_atom_site_label
_atom_site_fract_x
_atom_site_fract_y
_atom_site_fract_z
Si Si1 0.131820 0.686569 0.569488
Si Si2 0.046074 0.754369 0.199574
Si Si3 0.305426 0.986208 0.680071
Si Si4 0.786962 0.308295 0.109201
Si Si5 0.642959 0.467154 0.937167
Si Si6 0.477500 0.087167 0.431840
Si Si7 0.881169 0.843645 0.704030
Si Si8 0.278062 0.587627 0.391303
O O1 0.367192 0.394247 0.545041
O O2 0.113962 0.680758 0.450329
O O3 0.954896 0.741965 0.577134
O O4 0.098356 0.927691 0.715651
O O5 0.205877 0.558516 0.079478
O O6 0.203280 0.671488 0.301619
O O7 0.882533 0.786006 0.206111
O O8 0.331911 0.080813 0.650294
O O9 0.533181 0.745576 0.701281
O O10 0.298689 0.777783 0.535028
O O11 0.608144 0.336058 0.085937
O O12 0.896900 0.343478 0.244812
O O13 0.672207 0.501281 0.072693
O O14 0.000000 0.000000 0.000000
O O15 0.752143 0.159881 0.817100
O O16 0.290745 0.142274 0.336034
O O17 0.500000 0.000000 0.500000
#
# Coordination Sequence:
#
# PCOD9082907 Si02
#       8
#     2   2   2   2   2   2   2   2
#     4   9  19  35  48  79 113 149 197 220 270 319
#     4  10  19  33  59  80 108 146 185 242 278 318
#     4   9  19  34  47  76 113 148 195 225 267 317
#     4   9  19  38  58  80 112 131 176 243 292 340
#     4   9  20  35  59  89 100 135 188 233 298 334
#     4  11  24  33  51  80 122 166 194 216 256 342
#     4  10  21  35  53  80 114 154 180 227 280 328
#     4   9  18  31  53  73 107 149 188 240 264 316
#
# _framework density 24.185023000000001
#
# number of rings (size 3 to 8) (size 9 to 14) (size 15 to 20)
#    0.000    2.500    0.000    2.625    7.000    5.000 
#    0.000    0.000    0.000    0.750    0.000   11.375 
#    0.000    0.000    0.000    0.000    0.000    0.000 
#
# Total GULP energy -89128.212556 kJ/mol
# GULP energy per Si atom -5570.513285 kJ/mol
# Density = 2.412998 g / cm^3
# Si number density = 24.185023 Si / 1000 Ang^3
#
#
#
# Elastic Constant Matrix: (Units=GPa)
#
#
# Indices 1 2 3 4 5 6 
#
# 1 178.0242 32.2215 41.4331 -7.4905 -41.8283 -25.6064
# 2 32.2215 77.2264 14.1325 -6.0912 -4.7388 -10.1622
# 3 41.4331 14.1325 43.5184 -4.5888 -11.4817 -7.9456
# 4 -7.4905 -6.0912 -4.5888 29.2231 -4.8200 -2.3033
# 5 -41.8283 -4.7388 -11.4817 -4.8200 38.7697 7.9846
# 6 -25.6064 -10.1622 -7.9456 -2.3033 7.9846 44.7207
#
#
#
# Elastic Compliance Matrix: (Units=1/GPa)
#
#
# Indices 1 2 3 4 5 6 
#
# 1 0.009784 -0.001940 -0.005655 0.002825 0.008419 0.002799
# 2 -0.001940 0.014599 -0.002626 0.002090 -0.001253 0.002072
# 3 -0.005655 -0.002626 0.030534 0.003355 0.002776 0.001267
# 4 0.002825 0.002090 0.003355 0.037525 0.008316 0.003136
# 5 0.008419 -0.001253 0.002776 0.008316 0.036809 -0.001115
# 6 0.002799 0.002072 0.001267 0.003136 -0.001115 0.025020
#
#
# Mechanical properties :
#
#
# Convention : Reuss Voigt Hill
#
# Bulk Modulus (GPa) = 29.00677 52.70479 40.85578
# Shear Modulus (GPa) = 26.85221 36.60818 31.73019
#
# Velocity S-wave (km/s) = 3.33571 3.89481 3.62605
# Velocity P-wave (km/s) = 5.18224 6.48581 5.87032
#
# Compressibility (1/GPa) = 0.03447470
#
# Stress axis : x y z
#
# Youngs Moduli (GPa) = 102.20840 68.49583 32.75080
#
# Poissons Ratio (x) = 0.13285 0.18521
# Poissons Ratio (y) = 0.19824 0.08601
# Poissons Ratio (z) = 0.57801 0.17989
#
# Static dielectric constant tensor:
#      x y z
#    x 2.031850 -0.036580 -0.009170 
#    y -0.036580 2.019100 0.019860 
#    z -0.009170 0.019860 1.999950 
# 
# From -- ./inp_files/568182.got.cif
#   From: 2010.05.17/outbox.cif.g08.bks.cpg/sg2_285_cif.got.tgz:568182.got - 2010.06.03 11:33:40.
