data_PCOD9082303
_publ_section_title
;
Structure prediction by ZEFSAII (Michael W. Deem and Ramdas Pophale) SiO2 
 PCOD9082303
Probable space group: P -1
;
_chemical_formula_sum "Si O2"
_cell_formula_units_Z 12
_cell_length_a 8.289283
_cell_length_b 8.289127
_cell_length_c 14.186234
_cell_angle_alpha 107.802975
_cell_angle_beta 36.011510
_cell_angle_gamma 124.711841
_cell_volume 446.259140
_symmetry_space_group_name_H-M "P -1"
_symmetry_group_IT_number 2
_symmetry_cell_setting 'triclinic'
loop_
_space_group_symop_operation_xyz
x,y,z
-x,-y,-z
loop_
_atom_site_type_symbol
_atom_site_label
_atom_site_fract_x
_atom_site_fract_y
_atom_site_fract_z
Si Si1 0.128797 0.661020 0.642170
Si Si2 0.969525 0.104616 0.913006
Si Si3 0.176151 0.450132 0.739215
Si Si4 0.571495 0.845444 0.739188
Si Si5 0.569385 0.704455 0.912986
Si Si6 0.554617 0.086860 0.642177
O O1 0.228314 0.728286 0.499990
O O2 0.200256 0.505089 0.627284
O O3 0.744847 0.586033 0.818247
O O4 0.345014 0.872682 0.641149
O O5 0.277430 0.118636 0.818264
O O6 0.117518 0.244673 0.772473
O O7 0.698735 0.873908 0.963665
O O8 0.776890 0.179938 0.074170
O O9 0.467345 0.644738 0.693961
O O10 0.828268 0.425252 0.925857
O O11 0.710432 0.837551 0.772445
O O12 0.740370 0.045189 0.627260
#
# Coordination Sequence:
#
# PCOD9082303 Si02
#       6
#     2   2   2   2   2   2
#     4   9  19  34  51  73 102 135 166 200 248 299
#     4  10  19  33  54  76 100 130 166 207 247 292
#     4  10  19  33  54  76 100 130 166 207 247 292
#     4  10  19  33  54  76 100 130 166 207 247 292
#     4  10  19  33  54  76 100 130 166 207 247 292
#     4   9  19  34  51  73 102 135 166 200 248 299
#
# _framework density 26.890208000000001
#
# number of rings (size 3 to 8) (size 9 to 14) (size 15 to 20)
#    0.000    2.333    0.000    5.000    0.000    1.333 
#    0.000    5.000    0.000   14.000    0.000    0.000 
#    0.000    0.000    0.000    0.000    0.000    0.000 
#
# Total GULP energy -67186.958686 kJ/mol
# GULP energy per Si atom -5598.913224 kJ/mol
# Density = 2.682900 g / cm^3
# Si number density = 26.890208 Si / 1000 Ang^3
#
#
#
# Elastic Constant Matrix: (Units=GPa)
#
#
# Indices 1 2 3 4 5 6 
#
# 1 137.7440 33.3113 8.5417 -3.1534 11.0619 -30.0701
# 2 33.3113 96.6875 14.5513 -2.5661 1.6312 5.4843
# 3 8.5417 14.5513 73.4063 -4.5608 9.7712 3.5213
# 4 -3.1534 -2.5661 -4.5608 34.3086 -12.7212 3.7200
# 5 11.0619 1.6312 9.7712 -12.7212 55.5570 -4.3401
# 6 -30.0701 5.4843 3.5213 3.7200 -4.3401 48.2613
#
#
#
# Elastic Compliance Matrix: (Units=1/GPa)
#
#
# Indices 1 2 3 4 5 6 
#
# 1 0.009656 -0.003597 -0.000576 -0.000658 -0.001367 0.006395
# 2 -0.003597 0.012070 -0.001831 0.000940 0.000626 -0.003495
# 3 -0.000576 -0.001831 0.014490 0.001063 -0.002253 -0.001493
# 4 -0.000658 0.000940 0.001063 0.032194 0.007098 -0.002438
# 5 -0.001367 0.000626 -0.002253 0.007098 0.020316 0.000521
# 6 0.006395 -0.003495 -0.001493 -0.002438 0.000521 0.025446
#
#
# Mechanical properties :
#
#
# Convention : Reuss Voigt Hill
#
# Bulk Modulus (GPa) = 41.31007 46.73849 44.02428
# Shear Modulus (GPa) = 37.24339 44.38762 40.81551
#
# Velocity S-wave (km/s) = 3.72562 4.06729 3.90020
# Velocity P-wave (km/s) = 5.82261 6.28300 6.05718
#
# Compressibility (1/GPa) = 0.02420717
#
# Stress axis : x y z
#
# Youngs Moduli (GPa) = 103.55911 82.84857 69.01091
#
# Poissons Ratio (x) = 0.29803 0.03977
# Poissons Ratio (y) = 0.37253 0.12638
# Poissons Ratio (z) = 0.05968 0.15173
#
# Static dielectric constant tensor:
#      x y z
#    x 2.065590 -0.077260 0.074670 
#    y -0.077260 1.936890 -0.036740 
#    z 0.074670 -0.036740 2.264290 
# 
# From -- ./inp_files/146394.got.cif
#   From: 2010.05.17/outbox.cif.g08.bks.cpg/sg2_74_cif.got.tgz:146394.got - 2010.06.03 11:33:40.
