data_PCOD9082123
_publ_section_title
;
Structure prediction by ZEFSAII (Michael W. Deem and Ramdas Pophale) SiO2 
 PCOD9082123
Probable space group: P -1
;
_chemical_formula_sum "Si O2"
_cell_formula_units_Z 16
_cell_length_a 8.398046
_cell_length_b 11.727314
_cell_length_c 11.546441
_cell_angle_alpha 108.691687
_cell_angle_beta 45.104178
_cell_angle_gamma 120.198397
_cell_volume 695.127614
_symmetry_space_group_name_H-M "P -1"
_symmetry_group_IT_number 2
_symmetry_cell_setting 'triclinic'
loop_
_space_group_symop_operation_xyz
x,y,z
-x,-y,-z
loop_
_atom_site_type_symbol
_atom_site_label
_atom_site_fract_x
_atom_site_fract_y
_atom_site_fract_z
Si Si1 0.342829 0.584552 0.212943
Si Si2 0.141588 0.753018 0.252830
Si Si3 0.105698 0.363090 0.087632
Si Si4 0.251426 0.926504 0.467520
Si Si5 0.941891 0.893571 0.250240
Si Si6 0.818333 0.081735 0.238749
Si Si7 0.251905 0.530195 0.718041
Si Si8 0.527855 0.378128 0.605016
O O1 0.348532 0.700683 0.161897
O O2 0.158846 0.448102 0.206944
O O3 0.285561 0.604967 0.380812
O O4 0.618353 0.594501 0.083047
O O5 0.110396 0.820832 0.408850
O O6 0.154763 0.852394 0.174286
O O7 0.912289 0.615900 0.295850
O O8 0.968561 0.208454 0.127943
O O9 0.932151 0.411656 0.116335
O O10 0.230264 0.872284 0.592333
O O11 0.142992 0.036356 0.578754
O O12 0.541954 0.993453 0.308222
O O13 0.708143 0.758550 0.298059
O O14 0.969873 0.993423 0.162877
O O15 0.451584 0.503351 0.681612
O O16 0.376777 0.622454 0.574005
#
# Coordination Sequence:
#
# PCOD9082123 Si02
#       8
#     2   2   2   2   2   2   2   2
#     4  10  23  35  58  74 112 144 178 225 258 320
#     4  10  19  33  51  82 106 139 180 217 268 309
#     4  10  21  40  51  81 107 146 182 212 270 320
#     4   9  18  31  53  82 104 140 168 222 269 312
#     4   9  18  32  52  78 113 137 167 224 270 313
#     4   9  19  32  55  74 105 144 169 217 260 324
#     4   9  21  33  58  80 110 133 179 232 263 319
#     4  10  19  36  54  87 104 136 180 225 273 309
#
# _framework density 23.017355999999999
#
# number of rings (size 3 to 8) (size 9 to 14) (size 15 to 20)
#    0.750    1.750    0.000    1.875    3.500    1.500 
#    0.000    4.375    0.000    0.000    0.000    0.000 
#    0.000    0.000    0.000    0.000    0.000    0.000 
#
# Total GULP energy -89192.021942 kJ/mol
# GULP energy per Si atom -5574.501371 kJ/mol
# Density = 2.296497 g / cm^3
# Si number density = 23.017356 Si / 1000 Ang^3
#
#
#
# Elastic Constant Matrix: (Units=GPa)
#
#
# Indices 1 2 3 4 5 6 
#
# 1 75.9400 26.9277 18.9211 -3.1559 -0.9082 -38.2741
# 2 26.9277 91.8544 9.3085 -1.2740 12.7455 -17.5560
# 3 18.9211 9.3085 23.6880 -8.1592 -4.2679 -11.8340
# 4 -3.1559 -1.2740 -8.1592 27.7546 -3.1063 3.3717
# 5 -0.9082 12.7455 -4.2679 -3.1063 28.3070 8.5857
# 6 -38.2741 -17.5560 -11.8340 3.3717 8.5857 34.2872
#
#
#
# Elastic Compliance Matrix: (Units=1/GPa)
#
#
# Indices 1 2 3 4 5 6 
#
# 1 0.036126 0.000224 -0.013721 -0.006287 -0.013763 0.039770
# 2 0.000224 0.014305 -0.004081 -0.002732 -0.010065 0.008955
# 3 -0.013721 -0.004081 0.063113 0.018365 0.013147 -0.000721
# 4 -0.006287 -0.002732 0.018365 0.042960 0.011280 -0.009128
# 5 -0.013763 -0.010065 0.013147 0.011280 0.051751 -0.030047
# 6 0.039770 0.008955 -0.000721 -0.009128 -0.030047 0.086318
#
#
# Mechanical properties :
#
#
# Convention : Reuss Voigt Hill
#
# Bulk Modulus (GPa) = 12.75702 33.53300 23.14501
# Shear Modulus (GPa) = 14.05049 27.15809 20.60429
#
# Velocity S-wave (km/s) = 2.47337 3.43869 2.99517
# Velocity P-wave (km/s) = 3.70285 5.51056 4.69454
#
# Compressibility (1/GPa) = 0.07838824
#
# Stress axis : x y z
#
# Youngs Moduli (GPa) = 27.68064 69.90584 15.84453
#
# Poissons Ratio (x) = -0.01563 0.21740
# Poissons Ratio (y) = -0.00619 0.06466
# Poissons Ratio (z) = 0.37981 0.28527
#
# Static dielectric constant tensor:
#      x y z
#    x 1.912030 -0.049900 -0.019110 
#    y -0.049900 1.850350 0.060930 
#    z -0.019110 0.060930 1.899590 
# 
# From -- ./inp_files/392665.got.cif
#   From: 2010.05.17/outbox.cif.g08.bks.cpg/sg2_197_cif.got.tgz:392665.got - 2010.06.03 11:33:40.
