data_PCOD9082735
_publ_section_title
;
Structure prediction by ZEFSAII (Michael W. Deem and Ramdas Pophale) SiO2 
 PCOD9082735
Probable space group: P -1
;
_chemical_formula_sum "Si O2"
_cell_formula_units_Z 16
_cell_length_a 15.592043
_cell_length_b 9.148976
_cell_length_c 11.264676
_cell_angle_alpha 70.600070
_cell_angle_beta 134.867310
_cell_angle_gamma 73.046352
_cell_volume 663.128738
_symmetry_space_group_name_H-M "P -1"
_symmetry_group_IT_number 2
_symmetry_cell_setting 'triclinic'
loop_
_space_group_symop_operation_xyz
x,y,z
-x,-y,-z
loop_
_atom_site_type_symbol
_atom_site_label
_atom_site_fract_x
_atom_site_fract_y
_atom_site_fract_z
Si Si1 0.903241 0.426159 0.799881
Si Si2 0.695864 0.157937 0.658751
Si Si3 0.692702 0.871594 0.046289
Si Si4 0.584451 0.296898 0.786004
Si Si5 0.460677 0.144684 0.307793
Si Si6 0.991791 0.013219 0.345752
Si Si7 0.932374 0.389261 0.099426
Si Si8 0.126834 0.557165 0.493343
O O1 0.829245 0.470115 0.848437
O O2 0.082194 0.121952 0.047207
O O3 0.967600 0.543359 0.829442
O O4 0.802198 0.508538 0.553854
O O5 0.617431 0.213641 0.702474
O O6 0.618381 0.406611 0.486822
O O7 0.601793 0.144379 0.469417
O O8 0.739971 0.693624 0.235126
O O9 0.905590 0.704479 0.241590
O O10 0.534499 0.961250 0.776257
O O11 0.615454 0.115554 0.946097
O O12 0.768253 0.220383 0.022169
O O13 0.500000 0.000000 0.500000
O O14 0.237322 0.426904 0.018752
O O15 0.105292 0.749383 0.476743
O O16 0.058807 0.112588 0.333425
O O17 0.000000 0.000000 0.500000
#
# Coordination Sequence:
#
# PCOD9082735 Si02
#       8
#     2   2   2   2   2   2   2   2
#     4  11  22  40  57  86 122 156 188 235 306 350
#     4  11  20  35  56  85 119 149 192 242 288 342
#     4  10  19  33  57  86 114 149 194 242 290 338
#     4  10  20  33  55  86 114 149 194 240 292 331
#     4  12  18  34  59  88 111 146 202 242 283 335
#     4  11  22  35  57  92 116 149 201 248 283 337
#     4  11  23  36  58  91 115 153 198 237 291 352
#     4  10  20  36  54  82 123 152 187 244 297 339
#
# _framework density 24.128043999999999
#
# number of rings (size 3 to 8) (size 9 to 14) (size 15 to 20)
#    0.000    1.250    7.500    0.750    3.500    0.500 
#    0.000    0.000    0.000    1.500    6.500    0.000 
#    0.000    0.000    0.000    0.000    0.000    0.000 
#
# Total GULP energy -89430.983678 kJ/mol
# GULP energy per Si atom -5589.436480 kJ/mol
# Density = 2.407313 g / cm^3
# Si number density = 24.128044 Si / 1000 Ang^3
#
#
#
# Elastic Constant Matrix: (Units=GPa)
#
#
# Indices 1 2 3 4 5 6 
#
# 1 52.7197 26.4906 30.5251 -11.1873 -17.7469 1.9480
# 2 26.4906 133.1496 42.9355 -16.3324 -26.5877 4.6088
# 3 30.5251 42.9355 106.3204 -10.7046 -27.0481 18.1123
# 4 -11.1873 -16.3324 -10.7046 52.8026 7.5236 -18.7295
# 5 -17.7469 -26.5877 -27.0481 7.5236 45.0381 -5.9823
# 6 1.9480 4.6088 18.1123 -18.7295 -5.9823 18.6058
#
#
#
# Elastic Compliance Matrix: (Units=1/GPa)
#
#
# Indices 1 2 3 4 5 6 
#
# 1 0.027202 -0.001287 -0.007475 0.008338 0.006082 0.015097
# 2 -0.001287 0.009759 -0.003302 0.003593 0.003421 0.005648
# 3 -0.007475 -0.003302 0.016551 -0.006994 0.003500 -0.020427
# 4 0.008338 0.003593 -0.006994 0.034477 0.000759 0.039996
# 5 0.006082 0.003421 0.003500 0.000759 0.029298 0.005293
# 6 0.015097 0.005648 -0.020427 0.039996 0.005293 0.112615
#
#
# Mechanical properties :
#
#
# Convention : Reuss Voigt Hill
#
# Bulk Modulus (GPa) = 34.03073 54.67691 44.35382
# Shear Modulus (GPa) = 18.95191 36.10520 27.52856
#
# Velocity S-wave (km/s) = 2.80567 3.87253 3.38144
# Velocity P-wave (km/s) = 4.96292 6.53496 5.80242
#
# Compressibility (1/GPa) = 0.02938520
#
# Stress axis : x y z
#
# Youngs Moduli (GPa) = 36.76194 102.46509 60.41858
#
# Poissons Ratio (x) = 0.13185 0.45164
# Poissons Ratio (y) = 0.04730 0.19949
# Poissons Ratio (z) = 0.27480 0.33831
#
# Static dielectric constant tensor:
#      x y z
#    x 2.033970 0.082890 0.088010 
#    y 0.082890 1.992060 0.013610 
#    z 0.088010 0.013610 1.947470 
# 
# From -- ./inp_files/282153.got.cif
#   From: 2010.05.17/outbox.cif.g08.bks.cpg/sg2_142_cif.got.tgz:282153.got - 2010.06.03 11:33:40.
