data_PCOD9082133
_publ_section_title
;
Structure prediction by ZEFSAII (Michael W. Deem and Ramdas Pophale) SiO2 
 PCOD9082133
Probable space group: P -1
;
_chemical_formula_sum "Si O2"
_cell_formula_units_Z 12
_cell_length_a 5.397277
_cell_length_b 16.436376
_cell_length_c 8.994380
_cell_angle_alpha 125.934530
_cell_angle_beta 124.450702
_cell_angle_gamma 54.173335
_cell_volume 492.903322
_symmetry_space_group_name_H-M "P -1"
_symmetry_group_IT_number 2
_symmetry_cell_setting 'triclinic'
loop_
_space_group_symop_operation_xyz
x,y,z
-x,-y,-z
loop_
_atom_site_type_symbol
_atom_site_label
_atom_site_fract_x
_atom_site_fract_y
_atom_site_fract_z
Si Si1 0.007377 0.099024 0.357554
Si Si2 0.355979 0.499288 0.786564
Si Si3 0.311570 0.341643 0.371614
Si Si4 0.486857 0.131191 0.742055
Si Si5 0.467668 0.039915 0.199655
Si Si6 0.705363 0.294318 0.169283
O O1 0.198199 0.168244 0.566254
O O2 0.107580 0.087684 0.203661
O O3 0.674214 0.116005 0.344619
O O4 0.217238 0.971032 0.335059
O O5 0.435345 0.386789 0.605249
O O6 0.462460 0.580586 0.809015
O O7 0.960636 0.555735 0.699641
O O8 0.500000 0.500000 0.000000
O O9 0.590531 0.284247 0.285939
O O10 0.080127 0.277779 0.262967
O O11 0.374752 0.071225 0.772137
O O12 0.598662 0.221183 0.942613
O O13 0.500000 0.000000 0.000000
#
# Coordination Sequence:
#
# PCOD9082133 Si02
#       6
#     2   2   2   2   2   2
#     4   9  20  34  55  74 105 143 186 213 262 325
#     4   9  20  38  61  81 109 146 180 218 274 329
#     4   9  21  37  57  81 113 143 177 223 274 324
#     4   9  21  33  59  75 105 145 181 216 269 310
#     4  10  19  33  52  74 103 140 178 224 268 308
#     4  10  20  36  56  80 111 141 179 225 271 321
#
# _framework density 24.345544
#
# number of rings (size 3 to 8) (size 9 to 14) (size 15 to 20)
#    2.000    0.667    0.000    1.500    2.333    0.667 
#    0.000    3.333    0.000    0.000    0.000    0.000 
#    0.000    0.000    0.000    0.000    0.000    0.000 
#
# Total GULP energy -66881.394170 kJ/mol
# GULP energy per Si atom -5573.449514 kJ/mol
# Density = 2.429013 g / cm^3
# Si number density = 24.345544 Si / 1000 Ang^3
#
#
#
# Elastic Constant Matrix: (Units=GPa)
#
#
# Indices 1 2 3 4 5 6 
#
# 1 176.8537 30.8598 66.3536 14.1706 -3.1273 8.7729
# 2 30.8598 29.6161 15.6993 1.8576 6.5257 17.4702
# 3 66.3536 15.6993 216.0153 14.9834 11.0391 9.4407
# 4 14.1706 1.8576 14.9834 39.4996 12.1799 2.8057
# 5 -3.1273 6.5257 11.0391 12.1799 28.1523 6.9848
# 6 8.7729 17.4702 9.4407 2.8057 6.9848 45.6618
#
#
#
# Elastic Compliance Matrix: (Units=1/GPa)
#
#
# Indices 1 2 3 4 5 6 
#
# 1 0.008348 -0.009694 -0.001959 -0.003463 0.004953 0.001965
# 2 -0.009694 0.057172 -0.000156 0.005939 -0.012255 -0.018470
# 3 -0.001959 -0.000156 0.005405 -0.000730 -0.001899 -0.000346
# 4 -0.003463 0.005939 -0.000730 0.031163 -0.014678 -0.001125
# 5 0.004953 -0.012255 -0.001899 -0.014678 0.046524 -0.002085
# 6 0.001965 -0.018470 -0.000346 -0.001125 -0.002085 0.029049
#
#
# Mechanical properties :
#
#
# Convention : Reuss Voigt Hill
#
# Bulk Modulus (GPa) = 21.13785 72.03449 46.58617
# Shear Modulus (GPa) = 23.03637 43.30090 33.16864
#
# Velocity S-wave (km/s) = 3.07941 4.22192 3.69509
# Velocity P-wave (km/s) = 4.62007 7.30881 6.11407
#
# Compressibility (1/GPa) = 0.04730851
#
# Stress axis : x y z
#
# Youngs Moduli (GPa) = 119.78339 17.49105 185.01074
#
# Poissons Ratio (x) = 0.16956 0.36237
# Poissons Ratio (y) = 1.16119 0.02882
# Poissons Ratio (z) = 0.23461 0.00273
#
# Static dielectric constant tensor:
#      x y z
#    x 2.027900 -0.129900 0.047750 
#    y -0.129900 2.181870 -0.057160 
#    z 0.047750 -0.057160 1.960450 
# 
# From -- ./inp_files/87070.got.cif
#   From: 2010.05.17/outbox.cif.g08.bks.cpg/sg2_44_cif.got.tgz:87070.got - 2010.06.03 11:33:40.
