data_PCOD9082053
_publ_section_title
;
Structure prediction by ZEFSAII (Michael W. Deem and Ramdas Pophale) SiO2 
 PCOD9082053
Probable space group: P -1
;
_chemical_formula_sum "Si O2"
_cell_formula_units_Z 16
_cell_length_a 19.109371
_cell_length_b 9.279537
_cell_length_c 12.910189
_cell_angle_alpha 136.574160
_cell_angle_beta 29.944785
_cell_angle_gamma 125.677038
_cell_volume 778.419650
_symmetry_space_group_name_H-M "P -1"
_symmetry_group_IT_number 2
_symmetry_cell_setting 'triclinic'
loop_
_space_group_symop_operation_xyz
x,y,z
-x,-y,-z
loop_
_atom_site_type_symbol
_atom_site_label
_atom_site_fract_x
_atom_site_fract_y
_atom_site_fract_z
Si Si1 0.567843 0.653379 0.769467
Si Si2 0.387803 0.446909 0.025791
Si Si3 0.903470 0.828998 0.501462
Si Si4 0.128067 0.597956 0.689990
Si Si5 0.829484 0.159094 0.434922
Si Si6 0.310634 0.005598 0.969941
Si Si7 0.424004 0.074950 0.298513
Si Si8 0.038461 0.867903 0.138189
O O1 0.461400 0.483295 0.841153
O O2 0.717656 0.533597 0.554540
O O3 0.590204 0.741403 0.672797
O O4 0.491984 0.857748 0.038183
O O5 0.500000 0.500000 0.000000
O O6 0.251649 0.620343 0.303883
O O7 0.346023 0.216268 0.977164
O O8 0.950585 0.589687 0.353863
O O9 0.759344 0.920949 0.790770
O O10 0.924974 0.823227 0.347682
O O11 0.000000 0.000000 0.500000
O O12 0.138245 0.787233 0.696601
O O13 0.060923 0.688458 0.929302
O O14 0.720183 0.986994 0.499759
O O15 0.968323 0.078661 0.279904
O O16 0.190464 0.897957 0.008476
O O17 0.462010 0.877678 0.736989
#
# Coordination Sequence:
#
# PCOD9082053 Si02
#       8
#     2   2   2   2   2   2   2   2
#     4  10  19  32  63  93 109 155 204 254 296 350
#     4  11  17  35  63  89 114 152 207 252 296 339
#     4  10  21  39  60  84 118 158 201 246 291 348
#     4  12  20  42  60  85 127 164 197 239 309 367
#     4  11  21  37  63  91 119 160 207 243 296 362
#     4  11  20  41  58  90 122 154 199 261 300 346
#     4  10  19  35  65  92 113 147 214 254 292 349
#     4  11  27  37  58  91 128 163 195 242 309 367
#
# _framework density 20.554465
#
# number of rings (size 3 to 8) (size 9 to 14) (size 15 to 20)
#    0.000    1.250    6.250    1.500    3.500    0.500 
#    0.000    3.125    0.000    0.000    0.000    0.000 
#    0.000    0.000    0.000    0.000    0.000    0.000 
#
# Total GULP energy -89186.748973 kJ/mol
# GULP energy per Si atom -5574.171811 kJ/mol
# Density = 2.050768 g / cm^3
# Si number density = 20.554465 Si / 1000 Ang^3
#
#
#
# Elastic Constant Matrix: (Units=GPa)
#
#
# Indices 1 2 3 4 5 6 
#
# 1 63.8351 31.8187 15.5858 -13.3218 -9.5269 -13.9057
# 2 31.8187 110.1863 15.7351 -33.9921 5.5448 -19.1432
# 3 15.5858 15.7351 37.3193 -9.9938 11.3937 -5.2077
# 4 -13.3218 -33.9921 -9.9938 28.6690 -7.7476 0.3752
# 5 -9.5269 5.5448 11.3937 -7.7476 29.4691 -1.7131
# 6 -13.9057 -19.1432 -5.2077 0.3752 -1.7131 35.4637
#
#
#
# Elastic Compliance Matrix: (Units=1/GPa)
#
#
# Indices 1 2 3 4 5 6 
#
# 1 0.025536 -0.002331 -0.010890 0.009488 0.015853 0.007821
# 2 -0.002331 0.017144 -0.000450 0.019463 0.001786 0.008155
# 3 -0.010890 -0.000450 0.037569 0.002851 -0.017203 0.000143
# 4 0.009488 0.019463 0.002851 0.067754 0.016973 0.014748
# 5 0.015853 0.001786 -0.017203 0.016973 0.050238 0.006901
# 6 0.007821 0.008155 0.000143 0.014748 0.006901 0.035865
#
#
# Mechanical properties :
#
#
# Convention : Reuss Voigt Hill
#
# Bulk Modulus (GPa) = 18.90095 37.51331 28.20713
# Shear Modulus (GPa) = 17.91578 28.60043 23.25810
#
# Velocity S-wave (km/s) = 2.95553 3.73426 3.36748
# Velocity P-wave (km/s) = 4.56754 6.07315 5.37334
#
# Compressibility (1/GPa) = 0.05290739
#
# Stress axis : x y z
#
# Youngs Moduli (GPa) = 39.16076 58.32907 26.61750
#
# Poissons Ratio (x) = 0.13596 0.28986
# Poissons Ratio (y) = 0.09128 0.01199
# Poissons Ratio (z) = 0.42645 0.02627
#
# Static dielectric constant tensor:
#      x y z
#    x 1.784510 0.009740 -0.009900 
#    y 0.009740 1.804240 -0.045360 
#    z -0.009900 -0.045360 1.747190 
# 
# From -- ./inp_files/462394.got.cif
#   From: 2010.05.17/outbox.cif.g08.bks.cpg/sg2_232_cif.got.tgz:462394.got - 2010.06.03 11:33:40.
