data_PCOD9082272
_publ_section_title
;
Structure prediction by ZEFSAII (Michael W. Deem and Ramdas Pophale) SiO2 
 PCOD9082272
Probable space group: P -1
;
_chemical_formula_sum "Si O2"
_cell_formula_units_Z 14
_cell_length_a 16.636284
_cell_length_b 8.707290
_cell_length_c 24.582699
_cell_angle_alpha 43.909546
_cell_angle_beta 14.230348
_cell_angle_gamma 48.093756
_cell_volume 597.342780
_symmetry_space_group_name_H-M "P -1"
_symmetry_group_IT_number 2
_symmetry_cell_setting 'triclinic'
loop_
_space_group_symop_operation_xyz
x,y,z
-x,-y,-z
loop_
_atom_site_type_symbol
_atom_site_label
_atom_site_fract_x
_atom_site_fract_y
_atom_site_fract_z
Si Si1 0.800711 0.516615 0.569168
Si Si2 0.456637 0.316046 0.527286
Si Si3 0.560585 0.973724 0.623859
Si Si4 0.688865 0.008465 0.101582
Si Si5 0.781568 0.747336 0.712284
Si Si6 0.918189 0.674736 0.962257
Si Si7 0.101927 0.649125 0.623901
O O1 0.733718 0.769761 0.545691
O O2 0.000000 0.500000 0.500000
O O3 0.041314 0.428995 0.390710
O O4 0.461549 0.796846 0.879359
O O5 0.500000 0.500000 0.500000
O O6 0.785634 0.318600 0.276505
O O7 0.186473 0.409184 0.644387
O O8 0.371858 0.076261 0.673465
O O9 0.312471 0.914942 0.853200
O O10 0.849241 0.179615 0.401128
O O11 0.413490 0.774761 0.350744
O O12 0.921206 0.909243 0.931722
O O13 0.779522 0.674189 0.794954
O O14 0.000000 0.000000 0.500000
O O15 0.428043 0.384586 0.830267
O O16 0.000000 0.500000 0.000000
#
# Coordination Sequence:
#
# PCOD9082272 Si02
#       7
#     2   2   2   2   2   2   2
#     4  12  20  34  63  92 120 146 201 257 293 334
#     4  10  19  38  57  83 123 157 194 241 301 354
#     4   9  19  33  56  89 117 151 185 254 306 323
#     4   9  17  32  58  83 109 154 200 233 277 363
#     4  10  15  31  55  83 108 152 195 229 286 347
#     4  12  21  37  62  90 111 163 210 231 281 376
#     4   8  15  32  55  76 109 158 189 225 283 356
#
# _framework density 23.437128999999999
#
# number of rings (size 3 to 8) (size 9 to 14) (size 15 to 20)
#    0.857    1.143    5.714    0.000    0.000    0.000 
#    0.000   10.000    0.000    4.286    0.000    0.000 
#    0.000    0.000    0.000    0.000    0.000    0.000 
#
# Total GULP energy -77953.125626 kJ/mol
# GULP energy per Si atom -5568.080402 kJ/mol
# Density = 2.338379 g / cm^3
# Si number density = 23.437129 Si / 1000 Ang^3
#
#
#
# Elastic Constant Matrix: (Units=GPa)
#
#
# Indices 1 2 3 4 5 6 
#
# 1 147.2343 68.3930 48.2625 2.5924 -6.9910 -18.5269
# 2 68.3930 143.1134 58.9950 58.1002 -4.2111 -21.3724
# 3 48.2625 58.9950 140.2616 34.3077 -1.4757 4.4740
# 4 2.5924 58.1002 34.3077 40.8278 10.4687 -8.0175
# 5 -6.9910 -4.2111 -1.4757 10.4687 34.2433 4.2837
# 6 -18.5269 -21.3724 4.4740 -8.0175 4.2837 50.2953
#
#
#
# Elastic Compliance Matrix: (Units=1/GPa)
#
#
# Indices 1 2 3 4 5 6 
#
# 1 0.018815 -0.021793 -0.007506 0.040408 -0.012244 0.005822
# 2 -0.021793 0.046177 0.007557 -0.078047 0.025881 -0.003723
# 3 -0.007506 0.007557 0.012637 -0.023939 0.007906 -0.005167
# 4 0.040408 -0.078047 -0.023939 0.170730 -0.056561 0.015883
# 5 -0.012244 0.025881 0.007906 -0.056561 0.048439 -0.007358
# 6 0.005822 -0.003723 -0.005167 0.015883 -0.007358 0.024063
#
#
# Mechanical properties :
#
#
# Convention : Reuss Voigt Hill
#
# Bulk Modulus (GPa) = 29.28581 86.87893 58.08237
# Shear Modulus (GPa) = 13.30755 42.07051 27.68903
#
# Velocity S-wave (km/s) = 2.38544 4.24138 3.44090
# Velocity P-wave (km/s) = 4.48438 7.81890 6.37357
#
# Compressibility (1/GPa) = 0.03414623
#
# Stress axis : x y z
#
# Youngs Moduli (GPa) = 53.14818 21.65573 79.13242
#
# Poissons Ratio (x) = 0.47194 0.59398
# Poissons Ratio (y) = 1.15825 -0.59803
# Poissons Ratio (z) = 0.39894 -0.16366
#
# Static dielectric constant tensor:
#      x y z
#    x 2.077980 0.097750 -0.131040 
#    y 0.097750 1.944540 -0.158680 
#    z -0.131040 -0.158680 2.000260 
# 
# From -- ./inp_files/195024.got.cif
#   From: 2010.05.17/outbox.cif.g08.bks.cpg/sg2_98_cif.got.tgz:195024.got - 2010.06.03 11:33:40.
