data_PCOD9082134
_publ_section_title
;
Structure prediction by ZEFSAII (Michael W. Deem and Ramdas Pophale) SiO2 
 PCOD9082134
Probable space group: P -1
;
_chemical_formula_sum "Si O2"
_cell_formula_units_Z 16
_cell_length_a 29.625565
_cell_length_b 30.231829
_cell_length_c 17.773561
_cell_angle_alpha 19.605258
_cell_angle_beta 159.700683
_cell_angle_gamma 170.189654
_cell_volume 897.056051
_symmetry_space_group_name_H-M "P -1"
_symmetry_group_IT_number 2
_symmetry_cell_setting 'triclinic'
loop_
_space_group_symop_operation_xyz
x,y,z
-x,-y,-z
loop_
_atom_site_type_symbol
_atom_site_label
_atom_site_fract_x
_atom_site_fract_y
_atom_site_fract_z
Si Si1 0.557330 0.434050 0.634652
Si Si2 0.687188 0.089185 0.590131
Si Si3 0.420074 0.757366 0.899712
Si Si4 0.589525 0.738577 0.916853
Si Si5 0.004898 0.257275 0.944018
Si Si6 0.834066 0.875090 0.761259
Si Si7 0.076646 0.008663 0.448286
Si Si8 0.288016 0.193491 0.160161
O O1 0.500000 0.500000 0.500000
O O2 0.300309 0.188393 0.573569
O O3 0.616104 0.354384 0.901275
O O4 0.807269 0.699034 0.550063
O O5 0.711632 0.215230 0.358868
O O6 0.949051 0.283665 0.736387
O O7 0.500000 0.000000 0.500000
O O8 0.568021 0.847376 0.760785
O O9 0.267706 0.537889 0.948778
O O10 0.737878 0.046019 0.915539
O O11 0.627288 0.816578 0.763594
O O12 0.351240 0.420845 0.058930
O O13 0.861813 0.903810 0.102091
O O14 0.019389 0.114416 0.183774
O O15 0.827056 0.942937 0.562249
O O16 0.735884 0.870974 0.687208
O O17 0.500000 0.500000 0.000000
O O18 0.000000 0.000000 0.000000
#
# Coordination Sequence:
#
# PCOD9082134 Si02
#       8
#     2   2   2   2   2   2   2   2
#     4  12  22  35  50  70  97 139 176 212 250 296
#     4  10  23  34  51  77 106 141 172 203 246 308
#     4  11  23  36  48  67 102 138 176 206 239 295
#     4  10  19  33  52  74 107 137 163 202 259 308
#     4  11  20  34  51  70  99 134 167 210 251 295
#     4  10  20  32  53  78 103 127 168 214 259 307
#     4  12  21  32  54  73  97 131 172 210 264 292
#     4   8  16  31  49  74 101 130 159 203 259 312
#
# _framework density 17.836120000000001
#
# number of rings (size 3 to 8) (size 9 to 14) (size 15 to 20)
#    0.000    1.500    3.750    2.250    3.500    2.000 
#    0.000    0.000    0.000    0.000    0.000    1.750 
#    0.000    0.000    0.000    0.000    0.000    0.000 
#
# Total GULP energy -89259.608346 kJ/mol
# GULP energy per Si atom -5578.725522 kJ/mol
# Density = 1.779552 g / cm^3
# Si number density = 17.836120 Si / 1000 Ang^3
#
#
#
# Elastic Constant Matrix: (Units=GPa)
#
#
# Indices 1 2 3 4 5 6 
#
# 1 94.1643 -1.1202 6.5112 0.6565 -8.4922 0.8998
# 2 -1.1202 62.4169 -0.0135 2.2221 5.1412 7.1075
# 3 6.5112 -0.0135 71.7920 10.2516 -21.5361 0.7092
# 4 0.6565 2.2221 10.2516 18.4750 -3.4225 -8.5817
# 5 -8.4922 5.1412 -21.5361 -3.4225 21.5559 -3.1960
# 6 0.8998 7.1075 0.7092 -8.5817 -3.1960 23.8917
#
#
#
# Elastic Compliance Matrix: (Units=1/GPa)
#
#
# Indices 1 2 3 4 5 6 
#
# 1 0.011029 -0.000297 0.000409 0.000596 0.005000 0.000544
# 2 -0.000297 0.017956 -0.001321 -0.007075 -0.008166 -0.008925
# 3 0.000409 -0.001321 0.021110 -0.008018 0.020231 -0.000423
# 4 0.000596 -0.007075 -0.008018 0.075720 0.010519 0.030925
# 5 0.005000 -0.008166 0.020231 0.010519 0.074471 0.015381
# 6 0.000544 -0.008925 -0.000423 0.030925 0.015381 0.057668
#
#
# Mechanical properties :
#
#
# Convention : Reuss Voigt Hill
#
# Bulk Modulus (GPa) = 20.97395 26.56979 23.77187
# Shear Modulus (GPa) = 18.09855 27.65089 22.87472
#
# Velocity S-wave (km/s) = 3.18891 3.94162 3.58508
# Velocity P-wave (km/s) = 5.03425 5.97027 5.52213
#
# Compressibility (1/GPa) = 0.04767820
#
# Stress axis : x y z
#
# Youngs Moduli (GPa) = 90.66609 55.69014 47.37169
#
# Poissons Ratio (x) = 0.01653 -0.01938
# Poissons Ratio (y) = 0.02692 0.06257
# Poissons Ratio (z) = -0.03709 0.07356
#
# Static dielectric constant tensor:
#      x y z
#    x 1.683360 0.009220 -0.026140 
#    y 0.009220 1.616720 0.000770 
#    z -0.026140 0.000770 1.609430 
# 
# From -- ./inp_files/83876.got.cif
#   From: 2010.05.17/outbox.cif.g08.bks.cpg/sg2_42_cif.got.tgz:83876.got - 2010.06.03 11:33:40.
