data_PCOD9082383
_publ_section_title
;
Structure prediction by ZEFSAII (Michael W. Deem and Ramdas Pophale) SiO2 
 PCOD9082383
Probable space group: P -1
;
_chemical_formula_sum "Si O2"
_cell_formula_units_Z 16
_cell_length_a 8.892363
_cell_length_b 18.557114
_cell_length_c 8.856040
_cell_angle_alpha 55.023537
_cell_angle_beta 84.112037
_cell_angle_gamma 127.554768
_cell_volume 681.819661
_symmetry_space_group_name_H-M "P -1"
_symmetry_group_IT_number 2
_symmetry_cell_setting 'triclinic'
loop_
_space_group_symop_operation_xyz
x,y,z
-x,-y,-z
loop_
_atom_site_type_symbol
_atom_site_label
_atom_site_fract_x
_atom_site_fract_y
_atom_site_fract_z
Si Si1 0.678082 0.670753 0.310012
Si Si2 0.365283 0.345437 0.137725
Si Si3 0.087380 0.827760 0.819478
Si Si4 0.075763 0.770218 0.322997
Si Si5 0.573065 0.290871 0.369122
Si Si6 0.712857 0.437180 0.709079
Si Si7 0.485310 0.063787 0.713174
Si Si8 0.911712 0.379449 0.946819
O O1 0.500000 0.500000 0.500000
O O2 0.474303 0.650004 0.313737
O O3 0.833649 0.724015 0.384318
O O4 0.904498 0.780852 0.027788
O O5 0.383958 0.273396 0.337894
O O6 0.069288 0.219157 0.258019
O O7 0.500000 0.500000 0.000000
O O8 0.543329 0.397727 0.913865
O O9 0.078180 0.718693 0.961408
O O10 0.378880 0.997099 0.634958
O O11 0.216548 0.818750 0.409804
O O12 0.955663 0.621184 0.455161
O O13 0.301062 0.915087 0.015510
O O14 0.450048 0.150995 0.640756
O O15 0.729184 0.317883 0.182429
O O16 0.798210 0.448882 0.246568
O O17 0.805563 0.386049 0.810983
#
# Coordination Sequence:
#
# PCOD9082383 Si02
#       8
#     2   2   2   2   2   2   2   2
#     4   8  16  32  53  78  99 138 178 219 255 302
#     4  10  19  33  55  82 105 134 179 222 262 307
#     4  10  20  33  53  84 108 134 180 218 259 316
#     4   9  17  33  55  72 103 143 180 204 266 320
#     4  10  20  34  54  77 109 144 171 213 269 316
#     4   9  17  32  57  80 103 139 176 222 261 306
#     4  10  20  33  53  78 108 144 172 212 266 323
#     4  10  19  33  54  83 107 134 180 221 257 308
#
# _framework density 23.466616999999999
#
# number of rings (size 3 to 8) (size 9 to 14) (size 15 to 20)
#    0.000    2.500    2.500    0.000    0.000    1.000 
#    0.000    5.625    0.000    1.500    0.000    0.000 
#    0.000    0.000    0.000    0.000    0.000    0.000 
#
# Total GULP energy -89323.680981 kJ/mol
# GULP energy per Si atom -5582.730061 kJ/mol
# Density = 2.341321 g / cm^3
# Si number density = 23.466617 Si / 1000 Ang^3
#
#
#
# Elastic Constant Matrix: (Units=GPa)
#
#
# Indices 1 2 3 4 5 6 
#
# 1 132.7648 115.4399 59.0332 -8.8276 37.0991 62.4050
# 2 115.4399 92.8843 -5.2999 -25.2038 -18.5555 31.5563
# 3 59.0332 -5.2999 27.0141 -4.9226 -2.2633 -14.9555
# 4 -8.8276 -25.2038 -4.9226 37.2303 -1.3801 -9.7660
# 5 37.0991 -18.5555 -2.2633 -1.3801 24.3556 2.2620
# 6 62.4050 31.5563 -14.9555 -9.7660 2.2620 65.8815
#
#
#
# Elastic Compliance Matrix: (Units=1/GPa)
#
#
# Indices 1 2 3 4 5 6 
#
# 1 -0.001725 0.004571 0.006759 0.004191 0.006849 0.001365
# 2 0.004571 0.008536 -0.014290 0.001973 -0.000622 -0.011349
# 3 0.006759 -0.014290 0.019527 -0.004968 -0.020099 0.004828
# 4 0.004191 0.001973 -0.004968 0.027933 -0.003595 -0.001779
# 5 0.006849 -0.000622 -0.020099 -0.003595 0.029222 -0.012288
# 6 0.001365 -0.011349 0.004828 -0.001779 -0.012288 0.020576
#
#
# Mechanical properties :
#
#
# Convention : Reuss Voigt Hill
#
# Bulk Modulus (GPa) = 48.97430 65.66773 57.32102
# Shear Modulus (GPa) = 42.81049 31.05949 36.93499
#
# Velocity S-wave (km/s) = 4.27583 3.64202 3.97159
# Velocity P-wave (km/s) = 6.72994 6.76240 6.74619
#
# Compressibility (1/GPa) = 0.02041887
#
# Stress axis : x y z
#
# Youngs Moduli (GPa) = -579.74018 117.14878 51.21195
#
# Poissons Ratio (x) = -0.53552 -0.34617
# Poissons Ratio (y) = 2.65015 0.73183
# Poissons Ratio (z) = 3.91873 1.67409
#
# Static dielectric constant tensor:
#      x y z
#    x 1.913760 0.024140 -0.038600 
#    y 0.024140 1.959020 0.059220 
#    z -0.038600 0.059220 1.906520 
# 
# From -- ./inp_files/169781.got.cif
#   From: 2010.05.17/outbox.cif.g08.bks.cpg/sg2_85_cif.got.tgz:169781.got - 2010.06.03 11:33:40.
