data_PCOD9082836
_publ_section_title
;
Structure prediction by ZEFSAII (Michael W. Deem and Ramdas Pophale) SiO2 
 PCOD9082836
Probable space group: P -1
;
_chemical_formula_sum "Si O2"
_cell_formula_units_Z 14
_cell_length_a 19.436020
_cell_length_b 14.384191
_cell_length_c 5.310989
_cell_angle_alpha 83.058182
_cell_angle_beta 82.635494
_cell_angle_gamma 20.745167
_cell_volume 521.593844
_symmetry_space_group_name_H-M "P -1"
_symmetry_group_IT_number 2
_symmetry_cell_setting 'triclinic'
loop_
_space_group_symop_operation_xyz
x,y,z
-x,-y,-z
loop_
_atom_site_type_symbol
_atom_site_label
_atom_site_fract_x
_atom_site_fract_y
_atom_site_fract_z
Si Si1 0.330112 0.217465 0.220474
Si Si2 0.675928 0.261444 0.814521
Si Si3 0.470145 0.225564 0.270854
Si Si4 0.823203 0.773004 0.844759
Si Si5 0.004968 0.729156 0.876124
Si Si6 0.546614 0.580550 0.476322
Si Si7 0.841707 0.278079 0.060795
O O1 0.410861 0.194008 0.383659
O O2 0.251122 0.213148 0.321417
O O3 0.150594 0.493773 0.070601
O O4 0.500000 0.000000 0.000000
O O5 0.698780 0.336540 0.668379
O O6 0.627907 0.265373 0.580370
O O7 0.815467 0.017797 0.987004
O O8 0.500000 0.500000 0.000000
O O9 0.527663 0.226992 0.454206
O O10 0.266513 0.525171 0.165355
O O11 0.639727 0.015047 0.046172
O O12 0.919019 0.752962 0.736880
O O13 0.000000 0.500000 0.000000
O O14 0.096801 0.715974 0.767653
O O15 0.667566 0.443421 0.215328
O O16 0.000000 0.000000 0.000000
#
# Coordination Sequence:
#
# PCOD9082836 Si02
#       7
#     2   2   2   2   2   2   2
#     4   8  17  34  60  87 113 154 200 248 309 360
#     4  11  23  40  60  89 126 160 199 246 299 363
#     4  10  20  37  62  89 119 156 202 252 304 359
#     4   9  17  34  62  87 112 154 200 246 307 358
#     4  10  19  33  58  85 115 155 198 243 294 353
#     4  11  23  38  61  88 124 166 202 245 299 360
#     4  11  23  38  58  88 126 163 200 246 300 362
#
# _framework density 26.840807999999999
#
# number of rings (size 3 to 8) (size 9 to 14) (size 15 to 20)
#    0.000    2.000    0.000    4.286    0.000    3.429 
#    0.000    4.286    0.000   56.571    0.000    0.000 
#    0.000    0.000    0.000    0.000    0.000    0.000 
#
# Total GULP energy -78005.781585 kJ/mol
# GULP energy per Si atom -5571.841542 kJ/mol
# Density = 2.677972 g / cm^3
# Si number density = 26.840808 Si / 1000 Ang^3
#
#
#
# Elastic Constant Matrix: (Units=GPa)
#
#
# Indices 1 2 3 4 5 6 
#
# 1 245.0901 27.9813 23.6039 -12.2311 35.9145 24.8852
# 2 27.9813 177.9861 13.4033 -21.7415 8.6164 38.9058
# 3 23.6039 13.4033 41.4715 0.8738 14.1540 9.8377
# 4 -12.2311 -21.7415 0.8738 24.5445 7.7451 3.5163
# 5 35.9145 8.6164 14.1540 7.7451 39.5323 -14.8696
# 6 24.8852 38.9058 9.8377 3.5163 -14.8696 46.6648
#
#
#
# Elastic Compliance Matrix: (Units=1/GPa)
#
#
# Indices 1 2 3 4 5 6 
#
# 1 0.009215 0.005959 0.004761 0.019627 -0.022577 -0.019559
# 2 0.005959 0.015239 0.007282 0.029033 -0.027728 -0.028441
# 3 0.004761 0.007282 0.037369 0.022646 -0.034736 -0.029263
# 4 0.019627 0.029033 0.022646 0.111926 -0.082038 -0.074021
# 5 -0.022577 -0.027728 -0.034736 -0.082038 0.112099 0.084382
# 6 -0.019559 -0.028441 -0.029263 -0.074021 0.084382 0.094207
#
#
# Mechanical properties :
#
#
# Convention : Reuss Voigt Hill
#
# Bulk Modulus (GPa) = 10.22223 66.05832 38.14027
# Shear Modulus (GPa) = 13.27454 48.78558 31.03006
#
# Velocity S-wave (km/s) = 2.22630 4.26795 3.40380
# Velocity P-wave (km/s) = 3.22882 6.99655 5.44871
#
# Compressibility (1/GPa) = 0.09782606
#
# Stress axis : x y z
#
# Youngs Moduli (GPa) = 108.51697 65.62146 26.75999
#
# Poissons Ratio (x) = -0.39102 -0.12741
# Poissons Ratio (y) = -0.64661 -0.19486
# Poissons Ratio (z) = -0.51665 -0.47784
#
# Static dielectric constant tensor:
#      x y z
#    x 2.357630 -0.231680 0.165330 
#    y -0.231680 2.489560 -0.307160 
#    z 0.165330 -0.307160 2.220410 
# 
# From -- ./inp_files/119434.got.cif
#   From: 2010.05.17/outbox.cif.g08.bks.cpg/sg2_60_cif.got.tgz:119434.got - 2010.06.03 11:33:40.
