data_PCOD9082977
_publ_section_title
;
Structure prediction by ZEFSAII (Michael W. Deem and Ramdas Pophale) SiO2 
 PCOD9082977
Probable space group: P -1
;
_chemical_formula_sum "Si O2"
_cell_formula_units_Z 16
_cell_length_a 15.944734
_cell_length_b 8.866312
_cell_length_c 5.338472
_cell_angle_alpha 73.646501
_cell_angle_beta 107.618336
_cell_angle_gamma 78.394301
_cell_volume 655.486271
_symmetry_space_group_name_H-M "P -1"
_symmetry_group_IT_number 2
_symmetry_cell_setting 'triclinic'
loop_
_space_group_symop_operation_xyz
x,y,z
-x,-y,-z
loop_
_atom_site_type_symbol
_atom_site_label
_atom_site_fract_x
_atom_site_fract_y
_atom_site_fract_z
Si Si1 0.201346 0.619823 0.033877
Si Si2 0.430155 0.895296 0.520429
Si Si3 0.933738 0.132104 0.562574
Si Si4 0.753115 0.144303 0.662694
Si Si5 0.642290 0.478061 0.113741
Si Si6 0.893385 0.609511 0.789196
Si Si7 0.513697 0.308194 0.834262
Si Si8 0.064678 0.311897 0.710150
O O1 0.232914 0.769708 0.104470
O O2 0.163143 0.518802 0.249446
O O3 0.119141 0.709261 0.729243
O O4 0.283104 0.490163 0.017456
O O5 0.318450 0.960508 0.346639
O O6 0.447049 0.830364 0.851476
O O7 0.500000 0.000000 0.500000
O O8 0.463180 0.759747 0.390443
O O9 0.854431 0.079852 0.659243
O O10 0.000742 0.198302 0.766821
O O11 0.000000 0.000000 0.500000
O O12 0.696897 0.305589 0.375070
O O13 0.564844 0.443139 0.881841
O O14 0.592839 0.607670 0.220498
O O15 0.885998 0.731153 0.494108
O O16 0.867924 0.694238 0.996186
O O17 0.000000 0.500000 0.000000
O O18 0.000000 0.500000 0.500000
#
# Coordination Sequence:
#
# PCOD9082977 Si02
#       8
#     2   2   2   2   2   2   2   2
#     4  11  20  37  63  90 123 164 212 264 321 376
#     4  11  23  42  68  90 132 178 208 251 320 395
#     4  11  24  40  61  89 125 172 218 264 313 384
#     4  10  22  39  63  91 122 165 213 263 317 380
#     4   9  21  35  63  95 123 150 205 273 320 366
#     4  10  19  33  60  83 113 155 199 244 308 365
#     4  10  21  40  64  96 123 159 208 261 318 378
#     4  10  19  38  59  84 112 158 203 249 311 363
#
# _framework density 24.409357
#
# number of rings (size 3 to 8) (size 9 to 14) (size 15 to 20)
#    0.000    1.750    3.750    1.875    3.500    2.000 
#    0.000    2.500    0.000    0.000    0.000    0.000 
#    0.000    0.000    0.000    0.000    0.000    0.000 
#
# Total GULP energy -89353.552059 kJ/mol
# GULP energy per Si atom -5584.597004 kJ/mol
# Density = 2.435380 g / cm^3
# Si number density = 24.409357 Si / 1000 Ang^3
#
#
#
# Elastic Constant Matrix: (Units=GPa)
#
#
# Indices 1 2 3 4 5 6 
#
# 1 162.7549 39.9998 12.7708 -0.0078 -4.2397 2.8834
# 2 39.9998 44.6635 13.5701 12.2075 7.4206 -9.4831
# 3 12.7708 13.5701 98.5492 15.2428 -4.6188 -0.2535
# 4 -0.0078 12.2075 15.2428 27.6012 -1.8124 -3.8036
# 5 -4.2397 7.4206 -4.6188 -1.8124 30.1531 10.9994
# 6 2.8834 -9.4831 -0.2535 -3.8036 10.9994 46.1730
#
#
#
# Elastic Compliance Matrix: (Units=1/GPa)
#
#
# Indices 1 2 3 4 5 6 
#
# 1 0.009137 -0.011248 -0.000134 0.004898 0.005728 -0.003843
# 2 -0.011248 0.043770 -0.002720 -0.017328 -0.018421 0.012638
# 3 -0.000134 -0.002720 0.011458 -0.005163 0.002659 -0.001546
# 4 0.004898 -0.017328 -0.005163 0.046995 0.007660 -0.001847
# 5 0.005728 -0.018421 0.002659 0.007660 0.044514 -0.014100
# 6 -0.003843 0.012638 -0.001546 -0.001847 -0.014100 0.027692
#
#
# Mechanical properties :
#
#
# Convention : Reuss Voigt Hill
#
# Bulk Modulus (GPa) = 27.65509 48.73877 38.19693
# Shear Modulus (GPa) = 22.33892 36.76060 29.54976
#
# Velocity S-wave (km/s) = 3.02847 3.88494 3.48313
# Velocity P-wave (km/s) = 4.85625 6.33516 5.64435
#
# Compressibility (1/GPa) = 0.03615971
#
# Stress axis : x y z
#
# Youngs Moduli (GPa) = 109.44831 22.84680 87.27179
#
# Poissons Ratio (x) = 0.25699 0.01171
# Poissons Ratio (y) = 1.23111 0.23739
# Poissons Ratio (z) = 0.01468 0.06215
#
# Static dielectric constant tensor:
#      x y z
#    x 2.025430 -0.024070 -0.043090 
#    y -0.024070 2.054560 0.118380 
#    z -0.043090 0.118380 2.094440 
# 
# From -- ./inp_files/90491.got.cif
#   From: 2010.05.17/outbox.cif.g08.bks.cpg/sg2_46_cif.got.tgz:90491.got - 2010.06.03 11:33:40.
