data_PCOD9082600
_publ_section_title
;
Structure prediction by ZEFSAII (Michael W. Deem and Ramdas Pophale) SiO2 
 PCOD9082600
Probable space group: P -1
;
_chemical_formula_sum "Si O2"
_cell_formula_units_Z 16
_cell_length_a 11.644696
_cell_length_b 16.605985
_cell_length_c 12.562297
_cell_angle_alpha 23.714362
_cell_angle_beta 132.776776
_cell_angle_gamma 133.141200
_cell_volume 701.103349
_symmetry_space_group_name_H-M "P -1"
_symmetry_group_IT_number 2
_symmetry_cell_setting 'triclinic'
loop_
_space_group_symop_operation_xyz
x,y,z
-x,-y,-z
loop_
_atom_site_type_symbol
_atom_site_label
_atom_site_fract_x
_atom_site_fract_y
_atom_site_fract_z
Si Si1 0.116455 0.600224 0.357482
Si Si2 0.502547 0.146489 0.166700
Si Si3 0.120853 0.142582 0.163818
Si Si4 0.323754 0.551029 0.726362
Si Si5 0.690450 0.613830 0.393587
Si Si6 0.568409 0.793888 0.290003
Si Si7 0.739558 0.193271 0.438425
Si Si8 0.353632 0.192103 0.437331
O O1 0.278665 0.656542 0.461051
O O2 0.146816 0.433717 0.493090
O O3 0.000000 0.500000 0.500000
O O4 0.044277 0.782670 0.043609
O O5 0.642310 0.254564 0.202839
O O6 0.383718 0.977895 0.365139
O O7 0.583129 0.016819 0.290397
O O8 0.403761 0.289229 0.873590
O O9 0.190109 0.161948 0.303796
O O10 0.129033 0.923323 0.384273
O O11 0.253489 0.309147 0.978846
O O12 0.229563 0.627892 0.672482
O O13 0.513744 0.631952 0.751119
O O14 0.694843 0.761437 0.318342
O O15 0.582136 0.387533 0.616874
O O16 0.642809 0.765658 0.486636
O O17 0.500000 0.000000 0.000000
#
# Coordination Sequence:
#
# PCOD9082600 Si02
#       8
#     2   2   2   2   2   2   2   2
#     4  10  21  37  57  88 124 157 184 227 295 364
#     4   9  17  32  53  85 119 138 188 243 291 333
#     4  10  21  35  53  84 126 149 187 234 296 350
#     4  10  19  33  56  84 117 157 194 229 291 347
#     4  11  22  38  61  84 117 156 191 246 292 336
#     4  11  23  39  60  90 108 148 209 254 285 325
#     4   9  19  30  51  86 116 153 182 231 286 350
#     4  10  19  35  59  85 111 151 194 251 282 337
#
# _framework density 22.821173000000002
#
# number of rings (size 3 to 8) (size 9 to 14) (size 15 to 20)
#    0.000    2.000    2.500    2.625    1.750    0.500 
#    0.000    4.375    0.000    0.750    0.000    0.000 
#    0.000    0.000    0.000    0.000    0.000    0.000 
#
# Total GULP energy -89347.610420 kJ/mol
# GULP energy per Si atom -5584.225651 kJ/mol
# Density = 2.276923 g / cm^3
# Si number density = 22.821173 Si / 1000 Ang^3
#
#
#
# Elastic Constant Matrix: (Units=GPa)
#
#
# Indices 1 2 3 4 5 6 
#
# 1 74.0356 38.5625 37.9352 -1.8075 23.8955 -39.7403
# 2 38.5625 102.9099 38.1634 -3.5637 13.6133 -42.8254
# 3 37.9352 38.1634 120.8272 -3.5154 24.7933 -25.0194
# 4 -1.8075 -3.5637 -3.5154 37.1627 -4.6767 0.1773
# 5 23.8955 13.6133 24.7933 -4.6767 34.5839 -11.4753
# 6 -39.7403 -42.8254 -25.0194 0.1773 -11.4753 44.8359
#
#
#
# Elastic Compliance Matrix: (Units=1/GPa)
#
#
# Indices 1 2 3 4 5 6 
#
# 1 0.031070 0.000801 -0.002623 -0.000291 -0.012060 0.023755
# 2 0.000801 0.016724 -0.002267 0.001325 -0.000238 0.015353
# 3 -0.002623 -0.002267 0.010910 0.000056 -0.005004 0.000317
# 4 -0.000291 0.001325 0.000056 0.027522 0.004010 0.001956
# 5 -0.012060 -0.000238 -0.005004 0.004010 0.040343 -0.003399
# 6 0.023755 0.015353 0.000317 0.001956 -0.003399 0.057322
#
#
# Mechanical properties :
#
#
# Convention : Reuss Voigt Hill
#
# Bulk Modulus (GPa) = 19.79208 58.56610 39.17909
# Shear Modulus (GPa) = 23.93349 35.52395 29.72872
#
# Velocity S-wave (km/s) = 3.24194 3.94969 3.61318
# Velocity P-wave (km/s) = 4.76498 6.82047 5.88319
#
# Compressibility (1/GPa) = 0.05052527
#
# Stress axis : x y z
#
# Youngs Moduli (GPa) = 32.18543 59.79302 91.66007
#
# Poissons Ratio (x) = -0.04788 0.24040
# Poissons Ratio (y) = -0.02577 0.20783
# Poissons Ratio (z) = 0.08441 0.13558
#
# Static dielectric constant tensor:
#      x y z
#    x 1.908390 0.001760 0.030650 
#    y 0.001760 1.933550 0.013400 
#    z 0.030650 0.013400 1.875200 
# 
# From -- ./inp_files/354930.got.cif
#   From: 2010.05.17/outbox.cif.g08.bks.cpg/sg2_178_cif.got.tgz:354930.got - 2010.06.03 11:33:40.
