data_PCOD9082605
_publ_section_title
;
Structure prediction by ZEFSAII (Michael W. Deem and Ramdas Pophale) SiO2 
 PCOD9082605
Probable space group: P -1
;
_chemical_formula_sum "Si O2"
_cell_formula_units_Z 16
_cell_length_a 22.380027
_cell_length_b 9.293793
_cell_length_c 5.526387
_cell_angle_alpha 79.444828
_cell_angle_beta 71.051242
_cell_angle_gamma 35.703462
_cell_volume 627.678214
_symmetry_space_group_name_H-M "P -1"
_symmetry_group_IT_number 2
_symmetry_cell_setting 'triclinic'
loop_
_space_group_symop_operation_xyz
x,y,z
-x,-y,-z
loop_
_atom_site_type_symbol
_atom_site_label
_atom_site_fract_x
_atom_site_fract_y
_atom_site_fract_z
Si Si1 0.959534 0.418240 0.979663
Si Si2 0.674723 0.111873 0.557256
Si Si3 0.563468 0.785462 0.288250
Si Si4 0.623514 0.935062 0.926798
Si Si5 0.506941 0.621933 0.674168
Si Si6 0.916095 0.380407 0.539727
Si Si7 0.839572 0.195889 0.663443
Si Si8 0.807098 0.132843 0.222670
O O1 0.908371 0.499044 0.752866
O O2 0.063783 0.120276 0.902892
O O3 0.000000 0.500000 0.000000
O O4 0.888126 0.494380 0.273435
O O5 0.699699 0.905934 0.695735
O O6 0.593871 0.353050 0.768326
O O7 0.588228 0.261084 0.407218
O O8 0.769513 0.040030 0.376407
O O9 0.470020 0.928726 0.177256
O O10 0.585098 0.584961 0.427857
O O11 0.500000 0.000000 0.500000
O O12 0.652370 0.728016 0.079057
O O13 0.560814 0.148324 0.136658
O O14 0.859710 0.328270 0.658104
O O15 0.044029 0.101279 0.428129
O O16 0.788493 0.271458 0.439585
O O17 0.776020 0.238150 0.956366
#
# Coordination Sequence:
#
# PCOD9082605 Si02
#       8
#     2   2   2   2   2   2   2   2
#     4  10  19  33  56  85 109 143 180 216 266 324
#     4  10  20  31  49  76 105 136 174 233 270 320
#     4   8  15  29  49  71  92 124 174 224 253 323
#     4   9  16  29  51  72  94 132 176 218 266 322
#     4   9  18  32  50  74 100 135 186 216 276 315
#     4   9  17  32  58  80 105 139 180 219 256 328
#     4   9  18  34  54  80 105 139 180 218 271 319
#     4  10  21  34  53  80 112 141 177 227 277 317
#
# _framework density 25.490767999999999
#
# number of rings (size 3 to 8) (size 9 to 14) (size 15 to 20)
#    0.000    2.750    0.000    1.500    1.750    3.000 
#    0.000    0.000    2.750   12.000    0.000    0.000 
#    0.000    0.000    0.000    0.000    0.000    0.000 
#
# Total GULP energy -89203.600089 kJ/mol
# GULP energy per Si atom -5575.225006 kJ/mol
# Density = 2.543275 g / cm^3
# Si number density = 25.490768 Si / 1000 Ang^3
#
#
#
# Elastic Constant Matrix: (Units=GPa)
#
#
# Indices 1 2 3 4 5 6 
#
# 1 110.4196 8.7620 67.7984 -3.0712 7.5804 14.6724
# 2 8.7620 46.6582 16.5180 -6.0780 -5.0295 11.6813
# 3 67.7984 16.5180 170.5888 -6.3722 -16.8882 14.0289
# 4 -3.0712 -6.0780 -6.3722 36.8458 11.3725 -12.1453
# 5 7.5804 -5.0295 -16.8882 11.3725 53.3617 -5.8214
# 6 14.6724 11.6813 14.0289 -12.1453 -5.8214 36.2653
#
#
#
# Elastic Compliance Matrix: (Units=1/GPa)
#
#
# Indices 1 2 3 4 5 6 
#
# 1 0.013080 -0.000043 -0.005268 0.000136 -0.003977 -0.003833
# 2 -0.000043 0.023896 -0.001640 0.001280 0.000758 -0.006495
# 3 -0.005268 -0.001640 0.008446 -0.000335 0.003318 -0.000187
# 4 0.000136 0.001280 -0.000335 0.032246 -0.005838 0.009524
# 5 -0.003977 0.000758 0.003318 -0.005838 0.021849 0.001633
# 6 -0.003833 -0.006495 -0.000187 0.009524 0.001633 0.034742
#
#
# Mechanical properties :
#
#
# Convention : Reuss Voigt Hill
#
# Bulk Modulus (GPa) = 31.72487 57.09149 44.40818
# Shear Modulus (GPa) = 31.51271 40.93377 36.22324
#
# Velocity S-wave (km/s) = 3.51983 4.01162 3.77375
# Velocity P-wave (km/s) = 5.38439 6.62594 6.03716
#
# Compressibility (1/GPa) = 0.03152101
#
# Stress axis : x y z
#
# Youngs Moduli (GPa) = 76.45024 41.84880 118.40176
#
# Poissons Ratio (x) = 0.00179 0.62372
# Poissons Ratio (y) = 0.00326 0.19416
# Poissons Ratio (z) = 0.40273 0.06863
#
# Static dielectric constant tensor:
#      x y z
#    x 1.909620 -0.047040 -0.072700 
#    y -0.047040 2.029670 -0.048270 
#    z -0.072700 -0.048270 2.111620 
# 
# From -- ./inp_files/53276.got.cif
#   From: 2010.05.17/outbox.cif.g08.bks.cpg/sg2_27_cif.got.tgz:53276.got - 2010.06.03 11:33:40.
