data_PCOD9082693
_publ_section_title
;
Structure prediction by ZEFSAII (Michael W. Deem and Ramdas Pophale) SiO2 
 PCOD9082693
Probable space group: P -1
;
_chemical_formula_sum "Si O2"
_cell_formula_units_Z 16
_cell_length_a 9.427897
_cell_length_b 20.264838
_cell_length_c 7.953073
_cell_angle_alpha 44.679847
_cell_angle_beta 52.689027
_cell_angle_gamma 39.621844
_cell_volume 675.531724
_symmetry_space_group_name_H-M "P -1"
_symmetry_group_IT_number 2
_symmetry_cell_setting 'triclinic'
loop_
_space_group_symop_operation_xyz
x,y,z
-x,-y,-z
loop_
_atom_site_type_symbol
_atom_site_label
_atom_site_fract_x
_atom_site_fract_y
_atom_site_fract_z
Si Si1 0.212066 0.024127 0.653529
Si Si2 0.615038 0.434906 0.270637
Si Si3 0.425384 0.727576 0.615140
Si Si4 0.056315 0.175217 0.043650
Si Si5 0.759100 0.052607 0.859196
Si Si6 0.111205 0.262622 0.159693
Si Si7 0.280902 0.682652 0.227477
Si Si8 0.464499 0.222201 0.221785
O O1 0.138313 0.152910 0.432599
O O2 0.996843 0.029240 0.757560
O O3 0.417419 0.916571 0.593071
O O4 0.289453 0.980535 0.867955
O O5 0.508005 0.390887 0.306063
O O6 0.447285 0.571698 0.186759
O O7 0.680458 0.367650 0.524354
O O8 0.858353 0.382197 0.119313
O O9 0.172794 0.789580 0.762174
O O10 0.399938 0.815193 0.333799
O O11 0.574366 0.719604 0.674372
O O12 0.165972 0.215564 0.014766
O O13 0.964531 0.246385 0.805152
O O14 0.208234 0.038280 0.138605
O O15 0.262535 0.281486 0.129035
O O16 0.352321 0.767978 0.014819
#
# Coordination Sequence:
#
# PCOD9082693 Si02
#       8
#     2   2   2   2   2   2   2   2
#     4  11  20  33  56  81 116 144 180 224 269 324
#     4  10  21  39  61  82 105 140 188 231 268 320
#     4  10  19  33  57  82 109 144 185 225 264 324
#     4  10  19  33  57  82 109 144 185 225 264 324
#     4  11  18  32  58  84 106 145 190 224 263 314
#     4  11  23  37  55  83 117 146 176 224 278 324
#     4  10  21  39  61  82 105 140 188 231 268 320
#     4  11  23  37  55  83 117 146 176 224 278 324
#
# _framework density 23.685047000000001
#
# number of rings (size 3 to 8) (size 9 to 14) (size 15 to 20)
#    0.000    1.500    5.000    3.000    0.000    5.000 
#    0.000    6.250    0.000    3.000    0.000    0.000 
#    0.000    0.000    0.000    0.000    0.000    0.000 
#
# Total GULP energy -89501.449253 kJ/mol
# GULP energy per Si atom -5593.840578 kJ/mol
# Density = 2.363114 g / cm^3
# Si number density = 23.685047 Si / 1000 Ang^3
#
#
#
# Elastic Constant Matrix: (Units=GPa)
#
#
# Indices 1 2 3 4 5 6 
#
# 1 154.3142 29.3696 13.0385 6.0134 18.8026 26.5787
# 2 29.3696 83.3499 -3.4282 -13.0489 -10.3619 25.9084
# 3 13.0385 -3.4282 56.5291 -3.9486 17.9286 -0.0798
# 4 6.0134 -13.0489 -3.9486 24.8625 5.9650 11.0391
# 5 18.8026 -10.3619 17.9286 5.9650 24.8410 6.4101
# 6 26.5787 25.9084 -0.0798 11.0391 6.4101 29.0686
#
#
#
# Elastic Compliance Matrix: (Units=1/GPa)
#
#
# Indices 1 2 3 4 5 6 
#
# 1 0.008435 -0.002493 -0.000116 -0.000045 -0.006275 -0.004091
# 2 -0.002493 0.036062 -0.001903 0.035275 0.022263 -0.048173
# 3 -0.000116 -0.001903 0.024736 0.006167 -0.021120 0.004185
# 4 -0.000045 0.035275 0.006167 0.087520 0.006316 -0.066012
# 5 -0.006275 0.022263 -0.021120 0.006316 0.076654 -0.033465
# 6 -0.004091 -0.048173 0.004185 -0.066012 -0.033465 0.113537
#
#
# Mechanical properties :
#
#
# Convention : Reuss Voigt Hill
#
# Bulk Modulus (GPa) = 16.60823 41.35033 28.97928
# Shear Modulus (GPa) = 13.29655 32.76864 23.03259
#
# Velocity S-wave (km/s) = 2.37194 3.72360 3.12180
# Velocity P-wave (km/s) = 3.81166 5.99860 5.02554
#
# Compressibility (1/GPa) = 0.06021111
#
# Stress axis : x y z
#
# Youngs Moduli (GPa) = 118.54888 27.72999 40.42653
#
# Poissons Ratio (x) = 0.06912 0.00468
# Poissons Ratio (y) = 0.29551 0.07693
# Poissons Ratio (z) = 0.01371 0.05277
#
# Static dielectric constant tensor:
#      x y z
#    x 1.913670 0.001730 0.009150 
#    y 0.001730 1.899700 0.069740 
#    z 0.009150 0.069740 1.898860 
# 
# From -- ./inp_files/178964.got.cif
#   From: 2010.05.17/outbox.cif.g08.bks.cpg/sg2_90_cif.got.tgz:178964.got - 2010.06.03 11:33:40.
