data_PCOD9082056
_publ_section_title
;
Structure prediction by ZEFSAII (Michael W. Deem and Ramdas Pophale) SiO2 
 PCOD9082056
Probable space group: P -1
;
_chemical_formula_sum "Si O2"
_cell_formula_units_Z 16
_cell_length_a 6.819758
_cell_length_b 12.927157
_cell_length_c 14.476625
_cell_angle_alpha 139.167251
_cell_angle_beta 65.580211
_cell_angle_gamma 88.663732
_cell_volume 627.156723
_symmetry_space_group_name_H-M "P -1"
_symmetry_group_IT_number 2
_symmetry_cell_setting 'triclinic'
loop_
_space_group_symop_operation_xyz
x,y,z
-x,-y,-z
loop_
_atom_site_type_symbol
_atom_site_label
_atom_site_fract_x
_atom_site_fract_y
_atom_site_fract_z
Si Si1 0.736272 0.014987 0.997450
Si Si2 0.486860 0.103064 0.382722
Si Si3 0.208772 0.235064 0.021379
Si Si4 0.357314 0.354292 0.411039
Si Si5 0.019285 0.801233 0.348077
Si Si6 0.908832 0.283212 0.399293
Si Si7 0.367666 0.497981 0.222820
Si Si8 0.034084 0.767889 0.107596
O O1 0.588842 0.228388 0.207554
O O2 0.667250 0.323670 0.038689
O O3 0.857132 0.879007 0.972528
O O4 0.500000 0.000000 0.000000
O O5 0.445654 0.272284 0.440894
O O6 0.243948 0.166556 0.537007
O O7 0.518502 0.941484 0.195230
O O8 0.769140 0.984143 0.296399
O O9 0.037358 0.326837 0.024595
O O10 0.220989 0.390446 0.179523
O O11 0.237782 0.571705 0.558855
O O12 0.137655 0.312702 0.402795
O O13 0.043715 0.736266 0.193698
O O14 0.264011 0.635701 0.247235
O O15 0.000000 0.000000 0.500000
O O16 0.722997 0.363453 0.578170
O O17 0.058363 0.071506 0.183803
#
# Coordination Sequence:
#
# PCOD9082056 Si02
#       8
#     2   2   2   2   2   2   2   2
#     4   9  17  32  61  97 134 173 222 270 329 412
#     4   9  20  42  66  95 132 170 217 276 341 394
#     4   9  21  40  69  92 131 177 220 272 338 396
#     4   9  16  34  61  97 132 174 219 273 332 408
#     4  12  25  45  68  98 133 178 228 283 345 406
#     4  10  19  32  64 103 129 177 229 263 342 414
#     4  12  23  44  68  97 136 176 227 282 336 408
#     4  10  25  45  66  98 134 174 233 279 339 402
#
# _framework density 25.511965
#
# number of rings (size 3 to 8) (size 9 to 14) (size 15 to 20)
#    0.750    1.250    1.250    3.750    0.000    0.500 
#    6.750    1.250    0.000    0.000    0.000    0.000 
#    0.000    0.000    0.000    0.000    0.000    0.000 
#
# Total GULP energy -89431.836783 kJ/mol
# GULP energy per Si atom -5589.489799 kJ/mol
# Density = 2.545390 g / cm^3
# Si number density = 25.511965 Si / 1000 Ang^3
#
#
#
# Elastic Constant Matrix: (Units=GPa)
#
#
# Indices 1 2 3 4 5 6 
#
# 1 106.3954 43.5923 53.9304 -5.4954 -12.4027 -22.1698
# 2 43.5923 119.2929 59.7252 -10.5688 -18.5613 -30.8896
# 3 53.9304 59.7252 160.3662 -25.8356 -12.3824 -11.5295
# 4 -5.4954 -10.5688 -25.8356 60.3998 -1.3618 -2.2061
# 5 -12.4027 -18.5613 -12.3824 -1.3618 43.6454 -0.8766
# 6 -22.1698 -30.8896 -11.5295 -2.2061 -0.8766 39.4228
#
#
#
# Elastic Compliance Matrix: (Units=1/GPa)
#
#
# Indices 1 2 3 4 5 6 
#
# 1 0.013015 -0.001378 -0.003348 -0.000244 0.002261 0.005297
# 2 -0.001378 0.013869 -0.003466 0.001264 0.004748 0.009254
# 3 -0.003348 -0.003466 0.009000 0.002877 0.000182 -0.001801
# 4 -0.000244 0.001264 0.002877 0.018129 0.001905 0.002751
# 5 0.002261 0.004748 0.000182 0.001905 0.025800 0.005726
# 6 0.005297 0.009254 -0.001801 0.002751 0.005726 0.035351
#
#
# Mechanical properties :
#
#
# Convention : Reuss Voigt Hill
#
# Bulk Modulus (GPa) = 51.28049 77.83890 64.55969
# Shear Modulus (GPa) = 36.21923 43.94740 40.08331
#
# Velocity S-wave (km/s) = 3.77197 4.15495 3.96808
# Velocity P-wave (km/s) = 6.25416 7.32087 6.80844
#
# Compressibility (1/GPa) = 0.01950059
#
# Stress axis : x y z
#
# Youngs Moduli (GPa) = 76.83354 72.10413 111.10582
#
# Poissons Ratio (x) = 0.09938 0.37194
# Poissons Ratio (y) = 0.10590 0.38510
# Poissons Ratio (z) = 0.25721 0.24992
#
# Static dielectric constant tensor:
#      x y z
#    x 2.131310 -0.009570 -0.020140 
#    y -0.009570 1.983250 0.022920 
#    z -0.020140 0.022920 1.953240 
# 
# From -- ./inp_files/499408.got.cif
#   From: 2010.05.17/outbox.cif.g08.bks.cpg/sg2_250_cif.got.tgz:499408.got - 2010.06.03 11:33:40.
