data_PCOD9082914
_publ_section_title
;
Structure prediction by ZEFSAII (Michael W. Deem and Ramdas Pophale) SiO2 
 PCOD9082914
Probable space group: P -1
;
_chemical_formula_sum "Si O2"
_cell_formula_units_Z 16
_cell_length_a 13.046605
_cell_length_b 8.623150
_cell_length_c 11.645584
_cell_angle_alpha 51.715593
_cell_angle_beta 70.390952
_cell_angle_gamma 53.024479
_cell_volume 820.149296
_symmetry_space_group_name_H-M "P -1"
_symmetry_group_IT_number 2
_symmetry_cell_setting 'triclinic'
loop_
_space_group_symop_operation_xyz
x,y,z
-x,-y,-z
loop_
_atom_site_type_symbol
_atom_site_label
_atom_site_fract_x
_atom_site_fract_y
_atom_site_fract_z
Si Si1 0.947158 0.333418 0.518520
Si Si2 0.823765 0.058409 0.741606
Si Si3 0.870360 0.654025 0.750522
Si Si4 0.474178 0.661101 0.324761
Si Si5 0.932839 0.874197 0.033236
Si Si6 0.833140 0.836011 0.314926
Si Si7 0.422389 0.771108 0.666852
Si Si8 0.429863 0.062722 0.316455
O O1 0.892007 0.171232 0.597230
O O2 0.829771 0.603180 0.442546
O O3 0.048201 0.320851 0.394045
O O4 0.026798 0.250231 0.645321
O O5 0.672315 0.227402 0.708989
O O6 0.861363 0.822066 0.775413
O O7 0.867904 0.996393 0.883615
O O8 0.723308 0.749583 0.726671
O O9 0.953502 0.395633 0.887693
O O10 0.500000 0.500000 0.500000
O O11 0.551154 0.477617 0.275321
O O12 0.482481 0.882161 0.268760
O O13 0.832242 0.887990 0.157977
O O14 0.000000 0.000000 0.000000
O O15 0.725357 0.058621 0.319789
O O16 0.501428 0.800917 0.728480
O O17 0.445170 0.892910 0.493458
#
# Coordination Sequence:
#
# PCOD9082914 Si02
#       8
#     2   2   2   2   2   2   2   2
#     4  10  20  34  59  90 117 150 194 254 292 345
#     4  11  22  38  62  86 120 157 194 240 309 349
#     4  10  21  39  58  88 122 147 198 251 296 352
#     4   9  21  36  55  91 116 148 201 250 283 358
#     4  11  23  38  60  84 120 161 194 234 297 368
#     4  10  21  36  55  90 121 148 201 245 289 353
#     4  10  19  33  59  82 116 158 191 244 303 334
#     4   9  19  33  58  86 114 152 196 244 298 346
#
# _framework density 19.508642999999999
#
# number of rings (size 3 to 8) (size 9 to 14) (size 15 to 20)
#    0.000    2.000    2.500    0.750    7.000    0.000 
#    0.000    0.625    0.000    1.500    0.000    0.000 
#    0.000    0.000    0.000    0.000    0.000    0.000 
#
# Total GULP energy -89114.923143 kJ/mol
# GULP energy per Si atom -5569.682696 kJ/mol
# Density = 1.946424 g / cm^3
# Si number density = 19.508643 Si / 1000 Ang^3
#
#
#
# Elastic Constant Matrix: (Units=GPa)
#
#
# Indices 1 2 3 4 5 6 
#
# 1 76.1703 45.2550 36.6986 -6.5113 20.0397 14.9972
# 2 45.2550 152.5354 34.9618 -13.6355 7.2326 2.9201
# 3 36.6986 34.9618 60.3698 -12.7602 15.5814 -0.9768
# 4 -6.5113 -13.6355 -12.7602 20.9861 4.7240 2.0277
# 5 20.0397 7.2326 15.5814 4.7240 24.6638 2.8849
# 6 14.9972 2.9201 -0.9768 2.0277 2.8849 11.4699
#
#
#
# Elastic Compliance Matrix: (Units=1/GPa)
#
#
# Indices 1 2 3 4 5 6 
#
# 1 0.036993 -0.005392 -0.014764 0.006811 -0.015113 -0.045656
# 2 -0.005392 0.008558 -0.001759 0.001962 0.002159 0.003831
# 3 -0.014764 -0.001759 0.034220 0.016174 -0.014961 0.023570
# 4 0.006811 0.001962 0.016174 0.068419 -0.027899 -0.013106
# 5 -0.015113 0.002159 -0.014961 -0.027899 0.066262 0.006203
# 6 -0.045656 0.003831 0.023570 -0.013106 0.006203 0.148669
#
#
# Mechanical properties :
#
#
# Convention : Reuss Voigt Hill
#
# Bulk Modulus (GPa) = 27.82295 58.10071 42.96183
# Shear Modulus (GPa) = 11.93515 22.90129 17.41822
#
# Velocity S-wave (km/s) = 2.47612 3.42995 2.99130
# Velocity P-wave (km/s) = 4.74001 6.74780 5.83097
#
# Compressibility (1/GPa) = 0.03594155
#
# Stress axis : x y z
#
# Youngs Moduli (GPa) = 27.03248 116.84382 29.22306
#
# Poissons Ratio (x) = 0.63000 0.43143
# Poissons Ratio (y) = 0.14575 0.05141
# Poissons Ratio (z) = 0.39909 0.20555
#
# Static dielectric constant tensor:
#      x y z
#    x 1.724180 -0.013910 0.032220 
#    y -0.013910 1.832970 -0.093650 
#    z 0.032220 -0.093650 1.802250 
# 
# From -- ./inp_files/329071.got.cif
#   From: 2010.05.17/outbox.cif.g08.bks.cpg/sg2_165_cif.got.tgz:329071.got - 2010.06.03 11:33:40.
