data_PCOD9082299
_publ_section_title
;
Structure prediction by ZEFSAII (Michael W. Deem and Ramdas Pophale) SiO2 
 PCOD9082299
Probable space group: P -1
;
_chemical_formula_sum "Si O2"
_cell_formula_units_Z 16
_cell_length_a 9.243896
_cell_length_b 15.278966
_cell_length_c 5.698173
_cell_angle_alpha 104.386842
_cell_angle_beta 79.614685
_cell_angle_gamma 131.612440
_cell_volume 582.708433
_symmetry_space_group_name_H-M "P -1"
_symmetry_group_IT_number 2
_symmetry_cell_setting 'triclinic'
loop_
_space_group_symop_operation_xyz
x,y,z
-x,-y,-z
loop_
_atom_site_type_symbol
_atom_site_label
_atom_site_fract_x
_atom_site_fract_y
_atom_site_fract_z
Si Si1 0.184088 0.757645 0.712356
Si Si2 0.730831 0.724165 0.894469
Si Si3 0.313873 0.550592 0.064624
Si Si4 0.142919 0.087719 0.716363
Si Si5 0.566600 0.813629 0.669903
Si Si6 0.725141 0.557173 0.495687
Si Si7 0.782431 0.274635 0.825657
Si Si8 0.650044 0.977725 0.111272
O O1 0.342324 0.739509 0.670932
O O2 0.114709 0.712430 0.438049
O O3 0.293045 0.897516 0.777641
O O4 0.100399 0.711241 0.967758
O O5 0.639423 0.770294 0.805059
O O6 0.814848 0.685959 0.664240
O O7 0.544833 0.618865 0.025936
O O8 0.889980 0.832455 0.087364
O O9 0.255517 0.498688 0.313885
O O10 0.257207 0.633728 0.107149
O O11 0.239928 0.474156 0.790192
O O12 0.348123 0.183330 0.594502
O O13 0.187106 0.020127 0.818919
O O14 0.000000 0.000000 0.500000
O O15 0.648854 0.943173 0.818929
O O16 0.500000 0.500000 0.500000
O O17 0.567749 0.138550 0.814259
#
# Coordination Sequence:
#
# PCOD9082299 Si02
#       8
#     2   2   2   2   2   2   2   2
#     4  11  20  32  53  80 104 147 175 213 275 330
#     4  10  20  33  48  74 102 149 177 225 265 315
#     4  11  19  33  49  79 109 145 175 213 274 331
#     4  11  23  36  54  75 106 152 192 223 262 313
#     4  10  19  33  54  68 112 140 180 218 274 314
#     4  10  22  29  50  75 107 143 181 215 265 331
#     4  11  19  31  51  77 110 141 169 213 268 326
#     4  10  21  32  50  77 104 144 180 218 265 322
#
# _framework density 27.457985000000001
#
# number of rings (size 3 to 8) (size 9 to 14) (size 15 to 20)
#    0.000    1.500    5.000    4.125    8.750    2.000 
#    0.000    0.000    0.000    0.000    0.000    0.000 
#    0.000    6.000    0.000    0.000    0.000    0.000 
#
# Total GULP energy -89442.705332 kJ/mol
# GULP energy per Si atom -5590.169083 kJ/mol
# Density = 2.739549 g / cm^3
# Si number density = 27.457985 Si / 1000 Ang^3
#
#
#
# Elastic Constant Matrix: (Units=GPa)
#
#
# Indices 1 2 3 4 5 6 
#
# 1 60.9519 38.8631 62.6233 15.8293 -4.9040 -8.7400
# 2 38.8631 113.0387 91.4867 13.9194 -0.0922 -26.8450
# 3 62.6233 91.4867 272.2131 21.5253 2.1827 -4.7868
# 4 15.8293 13.9194 21.5253 51.5415 -0.8889 -10.0846
# 5 -4.9040 -0.0922 2.1827 -0.8889 60.7984 0.4546
# 6 -8.7400 -26.8450 -4.7868 -10.0846 0.4546 36.6577
#
#
#
# Elastic Compliance Matrix: (Units=1/GPa)
#
#
# Indices 1 2 3 4 5 6 
#
# 1 0.024723 -0.004766 -0.003728 -0.004590 0.002049 0.000629
# 2 -0.004766 0.016333 -0.004276 0.000891 -0.000272 0.010515
# 3 -0.003728 -0.004276 0.005982 -0.000887 -0.000509 -0.003477
# 4 -0.004590 0.000891 -0.000887 0.022017 -0.000056 0.005500
# 5 0.002049 -0.000272 -0.000509 -0.000056 0.016630 0.000001
# 6 0.000629 0.010515 -0.003477 0.005500 0.000001 0.036189
#
#
# Mechanical properties :
#
#
# Convention : Reuss Voigt Hill
#
# Bulk Modulus (GPa) = 46.51923 92.46110 69.49017
# Shear Modulus (GPa) = 32.34575 46.68154 39.51365
#
# Velocity S-wave (km/s) = 3.43594 4.12771 3.79761
# Velocity P-wave (km/s) = 5.72011 7.51426 6.67771
#
# Compressibility (1/GPa) = 0.02149649
#
# Stress axis : x y z
#
# Youngs Moduli (GPa) = 40.44848 61.22454 167.18072
#
# Poissons Ratio (x) = 0.29181 0.62326
# Poissons Ratio (y) = 0.19279 0.71492
# Poissons Ratio (z) = 0.15080 0.26181
#
# Static dielectric constant tensor:
#      x y z
#    x 2.269130 0.119340 0.041520 
#    y 0.119340 2.218040 -0.014210 
#    z 0.041520 -0.014210 2.213110 
# 
# From -- ./inp_files/76460.got.cif
#   From: 2010.05.17/outbox.cif.g08.bks.cpg/sg2_39_cif.got.tgz:76460.got - 2010.06.03 11:33:40.
