data_PCOD9082869
_publ_section_title
;
Structure prediction by ZEFSAII (Michael W. Deem and Ramdas Pophale) SiO2 
 PCOD9082869
Probable space group: P -1
;
_chemical_formula_sum "Si O2"
_cell_formula_units_Z 16
_cell_length_a 17.220995
_cell_length_b 21.831965
_cell_length_c 11.983537
_cell_angle_alpha 160.696976
_cell_angle_beta 149.810899
_cell_angle_gamma 26.067022
_cell_volume 650.164813
_symmetry_space_group_name_H-M "P -1"
_symmetry_group_IT_number 2
_symmetry_cell_setting 'triclinic'
loop_
_space_group_symop_operation_xyz
x,y,z
-x,-y,-z
loop_
_atom_site_type_symbol
_atom_site_label
_atom_site_fract_x
_atom_site_fract_y
_atom_site_fract_z
Si Si1 0.718223 0.026435 0.800712
Si Si2 0.839158 0.444811 0.695843
Si Si3 0.510375 0.094140 0.293701
Si Si4 0.789224 0.852240 0.829348
Si Si5 0.777460 0.486842 0.432597
Si Si6 0.639649 0.634389 0.991326
Si Si7 0.861683 0.016873 0.718263
Si Si8 0.928715 0.411243 0.125157
O O1 0.551372 0.264003 0.014025
O O2 0.821719 0.013909 0.795408
O O3 0.779450 0.971791 0.910595
O O4 0.674855 0.834503 0.392177
O O5 0.765009 0.496579 0.567628
O O6 0.684259 0.565716 0.801216
O O7 0.949303 0.192476 0.424655
O O8 0.000000 0.500000 0.000000
O O9 0.393266 0.048164 0.157979
O O10 0.401535 0.348179 0.569699
O O11 0.705280 0.012429 0.444767
O O12 0.500000 0.000000 0.000000
O O13 0.955819 0.801603 0.027598
O O14 0.828188 0.615142 0.432749
O O15 0.926115 0.550391 0.694045
O O16 0.845566 0.244204 0.066063
O O17 0.782453 0.434335 0.896287
#
# Coordination Sequence:
#
# PCOD9082869 Si02
#       8
#     2   2   2   2   2   2   2   2
#     4  10  20  36  61  90 121 160 201 252 309 356
#     4  12  21  36  61  93 124 157 213 258 293 352
#     4  11  24  40  66  92 118 158 211 261 297 357
#     4   9  19  33  59  91 115 147 205 257 290 347
#     4  11  24  39  61  92 128 165 196 248 321 371
#     4  10  19  33  58  88 120 153 209 260 289 346
#     4  12  24  41  62  91 131 165 199 247 318 379
#     4   9  17  35  57  88 116 153 199 252 296 355
#
# _framework density 24.609143
#
# number of rings (size 3 to 8) (size 9 to 14) (size 15 to 20)
#    0.000    1.500    2.500    4.500    3.500    0.000 
#    0.000    0.625    2.750    0.750    0.000    0.000 
#    0.000    0.000    0.000    0.000    0.000    0.000 
#
# Total GULP energy -89541.171812 kJ/mol
# GULP energy per Si atom -5596.323238 kJ/mol
# Density = 2.455313 g / cm^3
# Si number density = 24.609143 Si / 1000 Ang^3
#
#
#
# Elastic Constant Matrix: (Units=GPa)
#
#
# Indices 1 2 3 4 5 6 
#
# 1 138.4317 48.8424 37.7314 -2.4285 -32.2935 5.0772
# 2 48.8424 142.6203 23.7472 9.6120 -6.1476 21.0942
# 3 37.7314 23.7472 66.1054 8.6860 -3.8080 13.9579
# 4 -2.4285 9.6120 8.6860 35.2615 4.2069 -3.8376
# 5 -32.2935 -6.1476 -3.8080 4.2069 36.8805 6.1359
# 6 5.0772 21.0942 13.9579 -3.8376 6.1359 31.0105
#
#
#
# Elastic Compliance Matrix: (Units=1/GPa)
#
#
# Indices 1 2 3 4 5 6 
#
# 1 0.011944 -0.003076 -0.005739 0.002146 0.008904 0.001224
# 2 -0.003076 0.009217 0.000278 -0.003529 0.000338 -0.006395
# 3 -0.005739 0.000278 0.021161 -0.006665 -0.000452 -0.009510
# 4 0.002146 -0.003529 -0.006665 0.032779 -0.004810 0.010057
# 5 0.008904 0.000338 -0.000452 -0.004810 0.037035 -0.009407
# 6 0.001224 -0.006395 -0.009510 0.010057 -0.009407 0.043783
#
#
# Mechanical properties :
#
#
# Convention : Reuss Voigt Hill
#
# Bulk Modulus (GPa) = 39.60971 63.08880 51.34926
# Shear Modulus (GPa) = 27.56199 36.41960 31.99080
#
# Velocity S-wave (km/s) = 3.35026 3.85115 3.60940
# Velocity P-wave (km/s) = 5.57639 6.74293 6.18721
#
# Compressibility (1/GPa) = 0.02524634
#
# Stress axis : x y z
#
# Youngs Moduli (GPa) = 83.72734 108.49382 47.25691
#
# Poissons Ratio (x) = 0.33378 0.27123
# Poissons Ratio (y) = 0.25759 -0.01315
# Poissons Ratio (z) = 0.48055 -0.03020
#
# Static dielectric constant tensor:
#      x y z
#    x 1.942010 -0.055820 0.056180 
#    y -0.055820 2.070900 -0.072400 
#    z 0.056180 -0.072400 2.037730 
# 
# From -- ./inp_files/467228.got.cif
#   From: 2010.05.17/outbox.cif.g08.bks.cpg/sg2_234_cif.got.tgz:467228.got - 2010.06.03 11:33:40.
