data_PCOD9082167
_publ_section_title
;
Structure prediction by ZEFSAII (Michael W. Deem and Ramdas Pophale) SiO2 
 PCOD9082167
Probable space group: P -1
;
_chemical_formula_sum "Si O2"
_cell_formula_units_Z 14
_cell_length_a 15.766784
_cell_length_b 9.175932
_cell_length_c 5.663762
_cell_angle_alpha 65.465348
_cell_angle_beta 129.382678
_cell_angle_gamma 126.120980
_cell_volume 510.478669
_symmetry_space_group_name_H-M "P -1"
_symmetry_group_IT_number 2
_symmetry_cell_setting 'triclinic'
loop_
_space_group_symop_operation_xyz
x,y,z
-x,-y,-z
loop_
_atom_site_type_symbol
_atom_site_label
_atom_site_fract_x
_atom_site_fract_y
_atom_site_fract_z
Si Si1 0.959503 0.856181 0.286451
Si Si2 0.580651 0.656454 0.846723
Si Si3 0.338542 0.564043 0.190759
Si Si4 0.237968 0.024873 0.707405
Si Si5 0.991068 0.223356 0.073477
Si Si6 0.368746 0.894026 0.722178
Si Si7 0.216400 0.706007 0.187010
O O1 0.941467 0.742485 0.571461
O O2 0.105484 0.009977 0.438180
O O3 0.947410 0.750506 0.094675
O O4 0.906381 0.001065 0.091071
O O5 0.473961 0.660934 0.489826
O O6 0.661683 0.598392 0.853082
O O7 0.500000 0.500000 0.000000
O O8 0.668412 0.821893 0.057547
O O9 0.241983 0.547540 0.238420
O O10 0.322089 0.694852 0.885549
O O11 0.304109 0.017512 0.589331
O O12 0.202966 0.825436 0.876261
O O13 0.900792 0.318971 0.845933
O O14 0.344998 0.846085 0.441184
O O15 0.500000 0.000000 0.000000
#
# Coordination Sequence:
#
# PCOD9082167 Si02
#       7
#     2   2   2   2   2   2   2
#     4   9  17  32  51  84 111 143 171 228 276 333
#     4  11  22  38  51  71 105 150 184 223 263 326
#     4  10  22  35  50  72 103 142 185 217 271 323
#     4  10  20  32  52  79 106 135 185 223 273 319
#     4   9  17  31  54  80 117 137 175 219 287 331
#     4  11  19  31  51  76 103 134 174 228 271 318
#     4  10  19  33  52  80 105 137 174 227 275 328
#
# _framework density 27.425236999999999
#
# number of rings (size 3 to 8) (size 9 to 14) (size 15 to 20)
#    0.000    2.000    1.429    3.429    0.000    3.429 
#    0.000    0.000    0.000    0.857    0.000    4.000 
#    0.000    0.000    0.000    0.000    0.000    0.000 
#
# Total GULP energy -78131.282954 kJ/mol
# GULP energy per Si atom -5580.805925 kJ/mol
# Density = 2.736282 g / cm^3
# Si number density = 27.425237 Si / 1000 Ang^3
#
#
#
# Elastic Constant Matrix: (Units=GPa)
#
#
# Indices 1 2 3 4 5 6 
#
# 1 118.8444 63.6328 34.0660 -1.7827 -16.8054 -57.4180
# 2 63.6328 123.0485 37.2251 33.6890 6.6160 -35.6143
# 3 34.0660 37.2251 126.7682 11.1231 -7.4926 -15.4652
# 4 -1.7827 33.6890 11.1231 51.5212 -7.8727 -6.0041
# 5 -16.8054 6.6160 -7.4926 -7.8727 42.4762 -1.9784
# 6 -57.4180 -35.6143 -15.4652 -6.0041 -1.9784 56.5749
#
#
#
# Elastic Compliance Matrix: (Units=1/GPa)
#
#
# Indices 1 2 3 4 5 6 
#
# 1 0.031041 -0.013810 -0.001604 0.016127 0.018290 0.024723
# 2 -0.013810 0.019313 -0.001873 -0.015014 -0.011789 -0.004376
# 3 -0.001604 -0.001873 0.008943 -0.000639 0.001098 -0.000392
# 4 0.016127 -0.015014 -0.000639 0.033527 0.015325 0.010835
# 5 0.018290 -0.011789 0.001098 0.015325 0.036317 0.014338
# 6 0.024723 -0.004376 -0.000392 0.010835 0.014338 0.041556
#
#
# Mechanical properties :
#
#
# Convention : Reuss Voigt Hill
#
# Bulk Modulus (GPa) = 40.45071 70.94544 55.69807
# Shear Modulus (GPa) = 23.41767 45.69694 34.55730
#
# Velocity S-wave (km/s) = 2.92528 4.08638 3.55358
# Velocity P-wave (km/s) = 5.11773 6.94187 6.09839
#
# Compressibility (1/GPa) = 0.02472144
#
# Stress axis : x y z
#
# Youngs Moduli (GPa) = 32.21504 51.77790 111.82277
#
# Poissons Ratio (x) = 0.71507 0.17938
# Poissons Ratio (y) = 0.44490 0.20949
# Poissons Ratio (z) = 0.05168 0.09700
#
# Static dielectric constant tensor:
#      x y z
#    x 2.656830 -0.178630 -0.031400 
#    y -0.178630 2.254130 0.026450 
#    z -0.031400 0.026450 2.099030 
# 
# From -- ./inp_files/32453.got.cif
#   From: 2010.05.17/outbox.cif.g08.bks.cpg/sg2_17_cif.got.tgz:32453.got - 2010.06.03 11:33:40.
