data_PCOD9082069
_publ_section_title
;
Structure prediction by ZEFSAII (Michael W. Deem and Ramdas Pophale) SiO2 
 PCOD9082069
Probable space group: P -1
;
_chemical_formula_sum "Si O2"
_cell_formula_units_Z 14
_cell_length_a 11.578888
_cell_length_b 11.665480
_cell_length_c 17.015580
_cell_angle_alpha 141.619048
_cell_angle_beta 33.056360
_cell_angle_gamma 144.671354
_cell_volume 687.471025
_symmetry_space_group_name_H-M "P -1"
_symmetry_group_IT_number 2
_symmetry_cell_setting 'triclinic'
loop_
_space_group_symop_operation_xyz
x,y,z
-x,-y,-z
loop_
_atom_site_type_symbol
_atom_site_label
_atom_site_fract_x
_atom_site_fract_y
_atom_site_fract_z
Si Si1 0.726621 0.206138 0.882423
Si Si2 0.894416 0.675914 0.846395
Si Si3 0.057652 0.317570 0.004905
Si Si4 0.109665 0.776529 0.609483
Si Si5 0.471289 0.206733 0.697887
Si Si6 0.508732 0.196712 0.842119
Si Si7 0.781985 0.947781 0.837748
O O1 0.619332 0.131120 0.816127
O O2 0.822408 0.062756 0.792927
O O3 0.910453 0.453322 0.908700
O O4 0.498703 0.175429 0.048253
O O5 0.708179 0.434809 0.837341
O O6 0.040454 0.705498 0.700121
O O7 0.032956 0.744823 0.887300
O O8 0.731500 0.791766 0.990043
O O9 0.327525 0.338595 0.863679
O O10 0.902689 0.137036 0.934732
O O11 0.260467 0.679698 0.427942
O O12 0.301960 0.023695 0.637897
O O13 0.893018 0.789941 0.696690
O O14 0.470598 0.101888 0.725996
#
# Coordination Sequence:
#
# PCOD9082069 Si02
#       7
#     2   2   2   2   2   2   2
#     4  10  19  33  50  76  99 125 174 201 234 300
#     4   9  17  29  51  72  98 121 163 204 250 284
#     4   9  19  34  52  76  97 128 163 210 245 287
#     4  10  19  33  47  77 100 128 163 198 248 308
#     4   9  20  31  50  74 101 128 158 204 257 283
#     4   9  17  31  47  73  96 127 159 210 238 287
#     4  10  20  31  52  73 100 135 158 205 246 282
#
# _framework density 20.364495999999999
#
# number of rings (size 3 to 8) (size 9 to 14) (size 15 to 20)
#    0.000    2.571    1.429    1.286    2.000    2.286 
#    0.000    0.714    0.000    0.000    0.000    7.000 
#    0.000    0.000    0.000    0.000    0.000    0.000 
#
# Total GULP energy -78082.128958 kJ/mol
# GULP energy per Si atom -5577.294926 kJ/mol
# Density = 2.031815 g / cm^3
# Si number density = 20.364496 Si / 1000 Ang^3
#
#
#
# Elastic Constant Matrix: (Units=GPa)
#
#
# Indices 1 2 3 4 5 6 
#
# 1 99.0578 16.4784 9.1273 7.3796 8.1103 -25.5632
# 2 16.4784 62.7926 5.7693 3.4987 0.5568 -15.1737
# 3 9.1273 5.7693 68.9276 -17.2157 11.7035 -17.6201
# 4 7.3796 3.4987 -17.2157 26.7140 -6.6246 5.7096
# 5 8.1103 0.5568 11.7035 -6.6246 17.2510 -0.8593
# 6 -25.5632 -15.1737 -17.6201 5.7096 -0.8593 37.1907
#
#
#
# Elastic Compliance Matrix: (Units=1/GPa)
#
#
# Indices 1 2 3 4 5 6 
#
# 1 0.014390 -0.000634 0.000521 -0.008309 -0.009744 0.010930
# 2 -0.000634 0.018181 -0.000409 -0.004387 -0.001326 0.007432
# 3 0.000521 -0.000409 0.020570 0.008806 -0.010390 0.008345
# 4 -0.008309 -0.004387 0.008806 0.052741 0.017778 -0.011015
# 5 -0.009744 -0.001326 -0.010390 0.017778 0.075813 -0.013139
# 6 0.010930 0.007432 0.008345 -0.011015 -0.013139 0.042774
#
#
# Mechanical properties :
#
#
# Convention : Reuss Voigt Hill
#
# Bulk Modulus (GPa) = 19.19460 32.61422 25.90441
# Shear Modulus (GPa) = 20.58646 29.52468 25.05557
#
# Velocity S-wave (km/s) = 3.18291 3.81177 3.51145
# Velocity P-wave (km/s) = 4.79102 5.95170 5.40262
#
# Compressibility (1/GPa) = 0.05209798
#
# Stress axis : x y z
#
# Youngs Moduli (GPa) = 69.49323 55.00161 48.61477
#
# Poissons Ratio (x) = 0.03485 -0.02531
# Poissons Ratio (y) = 0.04403 0.01986
# Poissons Ratio (z) = -0.03619 0.02247
#
# Static dielectric constant tensor:
#      x y z
#    x 1.769680 0.035120 0.016370 
#    y 0.035120 1.786170 -0.004470 
#    z 0.016370 -0.004470 1.750860 
# 
# From -- ./inp_files/163347.got.cif
#   From: 2010.05.17/outbox.cif.g08.bks.cpg/sg2_82_cif.got.tgz:163347.got - 2010.06.03 11:33:40.
