data_PCOD9082665
_publ_section_title
;
Structure prediction by ZEFSAII (Michael W. Deem and Ramdas Pophale) SiO2 
 PCOD9082665
Probable space group: P -1
;
_chemical_formula_sum "Si O2"
_cell_formula_units_Z 16
_cell_length_a 12.898672
_cell_length_b 10.398469
_cell_length_c 11.004270
_cell_angle_alpha 112.171119
_cell_angle_beta 34.275499
_cell_angle_gamma 121.444642
_cell_volume 704.708762
_symmetry_space_group_name_H-M "P -1"
_symmetry_group_IT_number 2
_symmetry_cell_setting 'triclinic'
loop_
_space_group_symop_operation_xyz
x,y,z
-x,-y,-z
loop_
_atom_site_type_symbol
_atom_site_label
_atom_site_fract_x
_atom_site_fract_y
_atom_site_fract_z
Si Si1 0.895252 0.272486 0.138037
Si Si2 0.194048 0.154799 0.397943
Si Si3 0.509935 0.795203 0.406981
Si Si4 0.864233 0.984128 0.954989
Si Si5 0.756071 0.455988 0.148561
Si Si6 0.267971 0.996837 0.505359
Si Si7 0.348594 0.436323 0.467495
Si Si8 0.557025 0.929065 0.039396
O O1 0.709971 0.199464 0.384144
O O2 0.809507 0.331284 0.123491
O O3 0.963941 0.140142 0.989008
O O4 0.070112 0.430188 0.064419
O O5 0.260242 0.106096 0.442785
O O6 0.184457 0.315019 0.496743
O O7 0.361892 0.187904 0.141782
O O8 0.000000 0.000000 0.500000
O O9 0.676107 0.869025 0.170880
O O10 0.603607 0.891388 0.472598
O O11 0.444235 0.614807 0.408278
O O12 0.758077 0.025400 0.956537
O O13 0.032926 0.921239 0.742447
O O14 0.542785 0.395965 0.271143
O O15 0.739606 0.564596 0.313015
O O16 0.376809 0.899636 0.299193
O O17 0.500000 0.000000 0.000000
#
# Coordination Sequence:
#
# PCOD9082665 Si02
#       8
#     2   2   2   2   2   2   2   2
#     4  10  19  33  56  92 126 161 199 252 321 374
#     4  11  21  39  65  91 120 165 213 266 306 358
#     4  11  23  38  60  98 130 171 195 262 325 378
#     4  12  22  39  63  92 133 167 210 252 317 386
#     4   9  19  34  58  91 126 159 200 271 327 351
#     4  11  22  39  63  95 128 160 212 263 316 369
#     4  10  20  36  58  89 127 158 210 257 317 376
#     4  10  24  39  61  94 122 164 217 264 305 361
#
# _framework density 22.704414
#
# number of rings (size 3 to 8) (size 9 to 14) (size 15 to 20)
#    0.000    1.500    2.500    4.500    1.750    0.000 
#    0.000    0.625    0.000    0.750    0.000    0.000 
#    0.000    0.000    0.000    0.000    0.000    0.000 
#
# Total GULP energy -89160.628553 kJ/mol
# GULP energy per Si atom -5572.539285 kJ/mol
# Density = 2.265274 g / cm^3
# Si number density = 22.704414 Si / 1000 Ang^3
#
#
#
# Elastic Constant Matrix: (Units=GPa)
#
#
# Indices 1 2 3 4 5 6 
#
# 1 64.1646 18.0611 28.2531 -0.3920 -7.7286 15.8764
# 2 18.0611 119.5018 39.8126 -11.5318 10.6780 15.7955
# 3 28.2531 39.8126 170.5958 -9.0538 2.3671 9.5333
# 4 -0.3920 -11.5318 -9.0538 33.8866 1.5896 2.6188
# 5 -7.7286 10.6780 2.3671 1.5896 32.6882 4.3783
# 6 15.8764 15.7955 9.5333 2.6188 4.3783 21.7126
#
#
#
# Elastic Compliance Matrix: (Units=1/GPa)
#
#
# Indices 1 2 3 4 5 6 
#
# 1 0.021834 -0.001060 -0.002601 0.000039 0.007788 -0.015627
# 2 -0.001060 0.010506 -0.001705 0.003707 -0.002939 -0.005974
# 3 -0.002601 -0.001705 0.006755 0.001212 -0.000627 0.000157
# 4 0.000039 0.003707 0.001212 0.031704 -0.001935 -0.006691
# 5 0.007788 -0.002939 -0.000627 -0.001935 0.034883 -0.010082
# 6 -0.015627 -0.005974 0.000157 -0.006691 -0.010082 0.064600
#
#
# Mechanical properties :
#
#
# Convention : Reuss Voigt Hill
#
# Bulk Modulus (GPa) = 35.25803 58.50175 46.87989
# Shear Modulus (GPa) = 26.25118 35.53319 30.89219
#
# Velocity S-wave (km/s) = 3.40400 3.96034 3.69267
# Velocity P-wave (km/s) = 5.56889 6.83630 6.23488
#
# Compressibility (1/GPa) = 0.02836234
#
# Stress axis : x y z
#
# Youngs Moduli (GPa) = 45.80116 95.18118 148.04359
#
# Poissons Ratio (x) = 0.10087 0.38511
# Poissons Ratio (y) = 0.04854 0.25242
# Poissons Ratio (z) = 0.11914 0.16228
#
# Static dielectric constant tensor:
#      x y z
#    x 1.927740 -0.032210 -0.010820 
#    y -0.032210 1.872670 0.000610 
#    z -0.010820 0.000610 1.963080 
# 
# From -- ./inp_files/451589.got.cif
#   From: 2010.05.17/outbox.cif.g08.bks.cpg/sg2_226_cif.got.tgz:451589.got - 2010.06.03 11:33:40.
