data_PCOD9082251
_publ_section_title
;
Structure prediction by ZEFSAII (Michael W. Deem and Ramdas Pophale) SiO2 
 PCOD9082251
Probable space group: P -1
;
_chemical_formula_sum "Si O2"
_cell_formula_units_Z 16
_cell_length_a 6.433807
_cell_length_b 19.513718
_cell_length_c 15.448157
_cell_angle_alpha 142.288702
_cell_angle_beta 116.909375
_cell_angle_gamma 46.119359
_cell_volume 834.679311
_symmetry_space_group_name_H-M "P -1"
_symmetry_group_IT_number 2
_symmetry_cell_setting 'triclinic'
loop_
_space_group_symop_operation_xyz
x,y,z
-x,-y,-z
loop_
_atom_site_type_symbol
_atom_site_label
_atom_site_fract_x
_atom_site_fract_y
_atom_site_fract_z
Si Si1 0.797235 0.568228 0.615321
Si Si2 0.230934 0.610637 0.804560
Si Si3 0.703923 0.039830 0.518854
Si Si4 0.276742 0.622243 0.470369
Si Si5 0.437709 0.786959 0.061652
Si Si6 0.905491 0.378652 0.016152
Si Si7 0.220603 0.065942 0.379192
Si Si8 0.460507 0.326136 0.839330
O O1 0.465466 0.642585 0.593983
O O2 0.842791 0.453270 0.577849
O O3 0.000000 0.500000 0.500000
O O4 0.915811 0.650468 0.757488
O O5 0.491921 0.483621 0.666660
O O6 0.253091 0.570135 0.868997
O O7 0.271825 0.732512 0.930819
O O8 0.553527 0.014040 0.388707
O O9 0.489239 0.205976 0.668716
O O10 0.789494 0.954313 0.539623
O O11 0.000000 0.000000 0.500000
O O12 0.017244 0.774287 0.535373
O O13 0.547675 0.710752 0.100154
O O14 0.222177 0.953272 0.210179
O O15 0.742509 0.731737 0.017593
O O16 0.809083 0.517661 0.085171
O O17 0.754529 0.317170 0.878655
#
# Coordination Sequence:
#
# PCOD9082251 Si02
#       8
#     2   2   2   2   2   2   2   2
#     4   9  20  39  61  89 112 140 185 242 294 339
#     4  10  21  34  60  87 109 147 190 236 286 337
#     4  10  21  35  53  78 120 155 194 229 275 336
#     4  10  21  39  63  86 116 141 187 245 286 341
#     4  10  20  37  52  78 120 152 186 236 277 335
#     4  10  19  33  53  80 112 150 196 234 279 325
#     4  10  23  37  55  85 115 156 189 228 290 334
#     4   9  20  32  49  79 108 155 198 232 272 324
#
# _framework density 19.169039999999999
#
# number of rings (size 3 to 8) (size 9 to 14) (size 15 to 20)
#    0.000    2.250    0.000    1.875    5.250    1.000 
#    4.500    0.625    0.000   10.500    0.000    0.000 
#    0.000    0.000    0.000    0.000    0.000    0.000 
#
# Total GULP energy -89132.943248 kJ/mol
# GULP energy per Si atom -5570.808953 kJ/mol
# Density = 1.912541 g / cm^3
# Si number density = 19.169040 Si / 1000 Ang^3
#
#
#
# Elastic Constant Matrix: (Units=GPa)
#
#
# Indices 1 2 3 4 5 6 
#
# 1 85.4279 26.7539 36.0197 8.7437 11.1985 -8.8424
# 2 26.7539 75.5666 39.8378 12.6051 8.6144 -0.9434
# 3 36.0197 39.8378 92.8086 -2.4208 19.8776 -3.8046
# 4 8.7437 12.6051 -2.4208 18.4546 -4.9238 6.5048
# 5 11.1985 8.6144 19.8776 -4.9238 29.2606 -11.4660
# 6 -8.8424 -0.9434 -3.8046 6.5048 -11.4660 25.2281
#
#
#
# Elastic Compliance Matrix: (Units=1/GPa)
#
#
# Indices 1 2 3 4 5 6 
#
# 1 0.016367 -0.000714 -0.005789 -0.010841 -0.001162 0.007104
# 2 -0.000714 0.021095 -0.008727 -0.016639 -0.001742 0.002721
# 3 -0.005789 -0.008727 0.018608 0.011095 -0.008436 -0.006244
# 4 -0.010841 -0.016639 0.011095 0.081263 0.007175 -0.020441
# 5 -0.001162 -0.001742 -0.008436 0.007175 0.049474 0.018891
# 6 0.007104 0.002721 -0.006244 -0.020441 0.018891 0.055145
#
#
# Mechanical properties :
#
#
# Convention : Reuss Voigt Hill
#
# Bulk Modulus (GPa) = 39.04564 51.00287 45.02426
# Shear Modulus (GPa) = 17.79688 24.66810 21.23249
#
# Velocity S-wave (km/s) = 3.05030 3.59119 3.33174
# Velocity P-wave (km/s) = 5.72880 6.62270 6.19190
#
# Compressibility (1/GPa) = 0.02561105
#
# Stress axis : x y z
#
# Youngs Moduli (GPa) = 61.09794 47.40429 53.74051
#
# Poissons Ratio (x) = 0.03382 0.31108
# Poissons Ratio (y) = 0.04360 0.46902
# Poissons Ratio (z) = 0.35367 0.41372
#
# Static dielectric constant tensor:
#      x y z
#    x 1.738150 0.011800 0.067890 
#    y 0.011800 1.659290 0.016540 
#    z 0.067890 0.016540 1.850810 
# 
# From -- ./inp_files/93940.got.cif
#   From: 2010.05.17/outbox.cif.g08.bks.cpg/sg2_47_cif.got.tgz:93940.got - 2010.06.03 11:33:40.
