data_PCOD9082742
_publ_section_title
;
Structure prediction by ZEFSAII (Michael W. Deem and Ramdas Pophale) SiO2 
 PCOD9082742
Probable space group: P -1
;
_chemical_formula_sum "Si O2"
_cell_formula_units_Z 16
_cell_length_a 10.586995
_cell_length_b 11.028993
_cell_length_c 20.130725
_cell_angle_alpha 45.271361
_cell_angle_beta 44.608759
_cell_angle_gamma 26.719076
_cell_volume 724.842695
_symmetry_space_group_name_H-M "P -1"
_symmetry_group_IT_number 2
_symmetry_cell_setting 'triclinic'
loop_
_space_group_symop_operation_xyz
x,y,z
-x,-y,-z
loop_
_atom_site_type_symbol
_atom_site_label
_atom_site_fract_x
_atom_site_fract_y
_atom_site_fract_z
Si Si1 0.579548 0.367223 0.864632
Si Si2 0.482515 0.119862 0.614122
Si Si3 0.570669 0.815655 0.102521
Si Si4 0.122475 0.696127 0.505424
Si Si5 0.897817 0.662786 0.833886
Si Si6 0.612722 0.566538 0.355896
Si Si7 0.553558 0.261744 0.057809
Si Si8 0.214133 0.968729 0.804380
O O1 0.495065 0.320594 0.850670
O O2 0.891262 0.224498 0.798934
O O3 0.343652 0.688451 0.844242
O O4 0.614907 0.213853 0.974604
O O5 0.229591 0.422583 0.559770
O O6 0.490183 0.187028 0.661216
O O7 0.411446 0.974832 0.700901
O O8 0.779172 0.951420 0.532057
O O9 0.906822 0.574208 0.091434
O O10 0.349185 0.031128 0.161315
O O11 0.500000 0.000000 0.000000
O O12 0.331864 0.669611 0.398715
O O13 0.784234 0.338308 0.438925
O O14 0.730990 0.642425 0.862715
O O15 0.145987 0.573100 0.734420
O O16 0.782436 0.028362 0.117109
O O17 0.500000 0.500000 0.000000
#
# Coordination Sequence:
#
# PCOD9082742 Si02
#       8
#     2   2   2   2   2   2   2   2
#     4  11  24  42  58  81 120 162 211 253 295 346
#     4  10  19  33  57  86 125 151 186 222 313 378
#     4  12  27  44  63  80 118 173 223 252 290 332
#     4   9  19  34  56  87 134 156 173 238 311 393
#     4  12  26  39  65  91 119 166 208 254 292 360
#     4   9  22  33  59  89 131 148 196 236 309 373
#     4  10  24  37  60  88 125 153 198 250 318 355
#     4  11  23  37  62  91 119 155 198 254 305 371
#
# _framework density 22.073754000000001
#
# number of rings (size 3 to 8) (size 9 to 14) (size 15 to 20)
#    0.750    0.750    1.250    3.375   10.500    0.000 
#    0.000    0.000    0.000    0.000    0.000   17.500 
#    0.000    0.000    0.000    0.000    0.000    0.000 
#
# Total GULP energy -89381.297016 kJ/mol
# GULP energy per Si atom -5586.331064 kJ/mol
# Density = 2.202351 g / cm^3
# Si number density = 22.073754 Si / 1000 Ang^3
#
#
#
# Elastic Constant Matrix: (Units=GPa)
#
#
# Indices 1 2 3 4 5 6 
#
# 1 63.0365 19.4000 5.1981 -1.8647 -7.9854 6.4311
# 2 19.4000 98.5675 -0.3592 9.4048 0.0319 6.6838
# 3 5.1981 -0.3592 67.8977 13.8409 -21.4987 15.7783
# 4 -1.8647 9.4048 13.8409 32.1713 -5.2243 -1.6879
# 5 -7.9854 0.0319 -21.4987 -5.2243 16.2688 -3.9500
# 6 6.4311 6.6838 15.7783 -1.6879 -3.9500 28.6981
#
#
#
# Elastic Compliance Matrix: (Units=1/GPa)
#
#
# Indices 1 2 3 4 5 6 
#
# 1 0.018857 -0.003797 0.002766 0.003004 0.013186 -0.002871
# 2 -0.003797 0.011561 0.001248 -0.004711 -0.002515 -0.003151
# 3 0.002766 0.001248 0.030724 -0.008265 0.036067 -0.013325
# 4 0.003004 -0.004711 -0.008265 0.037318 0.004433 0.007773
# 5 0.013186 -0.002515 0.036067 0.004433 0.115564 -0.006032
# 6 -0.002871 -0.003151 -0.013325 0.007773 -0.006032 0.043175
#
#
# Mechanical properties :
#
#
# Convention : Reuss Voigt Hill
#
# Bulk Modulus (GPa) = 16.24032 30.88661 23.56346
# Shear Modulus (GPa) = 18.03157 29.11183 23.57170
#
# Velocity S-wave (km/s) = 2.86121 3.63553 3.27136
# Velocity P-wave (km/s) = 4.27652 5.62544 4.99671
#
# Compressibility (1/GPa) = 0.06157515
#
# Stress axis : x y z
#
# Youngs Moduli (GPa) = 53.03207 86.49599 32.54784
#
# Poissons Ratio (x) = 0.32847 -0.09003
# Poissons Ratio (y) = 0.20139 -0.04062
# Poissons Ratio (z) = -0.14670 -0.10794
#
# Static dielectric constant tensor:
#      x y z
#    x 1.816210 0.005240 0.031010 
#    y 0.005240 1.801690 -0.011700 
#    z 0.031010 -0.011700 1.873020 
# 
# From -- ./inp_files/610346.got.cif
#   From: 2010.05.17/outbox.cif.g08.bks.cpg/sg2_306_cif.got.tgz:610346.got - 2010.06.03 11:33:40.
