data_PCOD9082248
_publ_section_title
;
Structure prediction by ZEFSAII (Michael W. Deem and Ramdas Pophale) SiO2 
 PCOD9082248
Probable space group: P -1
;
_chemical_formula_sum "Si O2"
_cell_formula_units_Z 16
_cell_length_a 9.529029
_cell_length_b 10.325254
_cell_length_c 13.167904
_cell_angle_alpha 74.105619
_cell_angle_beta 141.728198
_cell_angle_gamma 121.854126
_cell_volume 656.874687
_symmetry_space_group_name_H-M "P -1"
_symmetry_group_IT_number 2
_symmetry_cell_setting 'triclinic'
loop_
_space_group_symop_operation_xyz
x,y,z
-x,-y,-z
loop_
_atom_site_type_symbol
_atom_site_label
_atom_site_fract_x
_atom_site_fract_y
_atom_site_fract_z
Si Si1 0.376347 0.284012 0.824530
Si Si2 0.429660 0.570724 0.709432
Si Si3 0.340260 0.810477 0.169953
Si Si4 0.463775 0.079599 0.060771
Si Si5 0.258935 0.273874 0.335202
Si Si6 0.913328 0.364858 0.350368
Si Si7 0.877754 0.002031 0.539296
Si Si8 0.841307 0.457833 0.732311
O O1 0.496997 0.469690 0.844386
O O2 0.523786 0.240908 0.829475
O O3 0.400042 0.209322 0.958685
O O4 0.059540 0.180542 0.643374
O O5 0.649150 0.706057 0.733760
O O6 0.261979 0.628543 0.661509
O O7 0.216089 0.432075 0.541479
O O8 0.567619 0.922587 0.356899
O O9 0.138163 0.650730 0.148415
O O10 0.269282 0.930769 0.052561
O O11 0.748743 0.187559 0.254066
O O12 0.500000 0.000000 0.000000
O O13 0.100097 0.106139 0.337508
O O14 0.537193 0.361188 0.538795
O O15 0.122497 0.377971 0.243023
O O16 0.960050 0.488650 0.260852
O O17 0.000000 0.000000 0.500000
#
# Coordination Sequence:
#
# PCOD9082248 Si02
#       8
#     2   2   2   2   2   2   2   2
#     4  10  19  33  53  80 110 150 184 221 276 337
#     4  10  20  38  59  83 114 145 187 227 280 334
#     4   9  17  33  52  82 110 140 182 241 276 312
#     4  10  22  36  53  82 116 149 184 231 277 330
#     4   9  17  30  54  86 112 135 185 236 276 320
#     4  10  22  36  58  85 112 149 181 232 279 333
#     4   9  18  28  54  86 106 141 183 235 273 318
#     4   9  17  30  55  84 108 138 184 238 275 314
#
# _framework density 24.357766000000002
#
# number of rings (size 3 to 8) (size 9 to 14) (size 15 to 20)
#    0.000    2.500    1.250    0.750   10.500    0.500 
#    0.000    5.000    0.000    7.500    0.000    0.000 
#    0.000    0.000    0.000    0.000    0.000    0.000 
#
# Total GULP energy -89336.323208 kJ/mol
# GULP energy per Si atom -5583.520200 kJ/mol
# Density = 2.430233 g / cm^3
# Si number density = 24.357766 Si / 1000 Ang^3
#
#
#
# Elastic Constant Matrix: (Units=GPa)
#
#
# Indices 1 2 3 4 5 6 
#
# 1 58.0520 29.6087 5.9775 -5.2341 -2.9971 29.1481
# 2 29.6087 185.5100 32.3699 -39.0715 -10.0728 50.5827
# 3 5.9775 32.3699 62.7273 -5.5034 5.2349 1.9681
# 4 -5.2341 -39.0715 -5.5034 56.5400 9.2287 -11.9542
# 5 -2.9971 -10.0728 5.2349 9.2287 14.2878 -3.6148
# 6 29.1481 50.5827 1.9681 -11.9542 -3.6148 35.2733
#
#
#
# Elastic Compliance Matrix: (Units=1/GPa)
#
#
# Indices 1 2 3 4 5 6 
#
# 1 0.031995 0.004541 -0.004943 -0.002116 0.004766 -0.032904
# 2 0.004541 0.011742 -0.006005 0.003248 0.004606 -0.018683
# 3 -0.004943 -0.006005 0.020199 0.001441 -0.010833 0.010948
# 4 -0.002116 0.003248 0.001441 0.022625 -0.012435 0.003404
# 5 0.004766 0.004606 -0.010833 -0.012435 0.084857 -0.005457
# 6 -0.032904 -0.018683 0.010948 0.003404 -0.005457 0.082315
#
#
# Mechanical properties :
#
#
# Convention : Reuss Voigt Hill
#
# Bulk Modulus (GPa) = 19.56144 49.13350 34.34747
# Shear Modulus (GPa) = 17.63114 37.10911 27.37012
#
# Velocity S-wave (km/s) = 2.69335 3.90744 3.35576
# Velocity P-wave (km/s) = 4.20957 6.36968 5.39876
#
# Compressibility (1/GPa) = 0.05112099
#
# Stress axis : x y z
#
# Youngs Moduli (GPa) = 31.25452 85.16346 49.50713
#
# Poissons Ratio (x) = -0.38671 0.24473
# Poissons Ratio (y) = -0.14192 0.29731
# Poissons Ratio (z) = 0.15450 0.51144
#
# Static dielectric constant tensor:
#      x y z
#    x 1.874000 0.010920 -0.024110 
#    y 0.010920 1.963900 -0.038240 
#    z -0.024110 -0.038240 2.115950 
# 
# From -- ./inp_files/509215.got.cif
#   From: 2010.05.17/outbox.cif.g08.bks.cpg/sg2_255_cif.got.tgz:509215.got - 2010.06.03 11:33:40.
