data_PCOD9082833
_publ_section_title
;
Structure prediction by ZEFSAII (Michael W. Deem and Ramdas Pophale) SiO2 
 PCOD9082833
Probable space group: P -1
;
_chemical_formula_sum "Si O2"
_cell_formula_units_Z 16
_cell_length_a 12.317419
_cell_length_b 10.533743
_cell_length_c 16.674450
_cell_angle_alpha 147.510640
_cell_angle_beta 34.092871
_cell_angle_gamma 141.605355
_cell_volume 624.755310
_symmetry_space_group_name_H-M "P -1"
_symmetry_group_IT_number 2
_symmetry_cell_setting 'triclinic'
loop_
_space_group_symop_operation_xyz
x,y,z
-x,-y,-z
loop_
_atom_site_type_symbol
_atom_site_label
_atom_site_fract_x
_atom_site_fract_y
_atom_site_fract_z
Si Si1 0.297029 0.616046 0.586923
Si Si2 0.825272 0.126637 0.873598
Si Si3 0.305744 0.433388 0.187241
Si Si4 0.023188 0.470076 0.129617
Si Si5 0.500053 0.210540 0.235039
Si Si6 0.358374 0.788891 0.211360
Si Si7 0.907021 0.026535 0.157068
Si Si8 0.885403 0.650956 0.596301
O O1 0.476225 0.485972 0.403371
O O2 0.287123 0.874373 0.689530
O O3 0.142695 0.431762 0.521382
O O4 0.191484 0.604415 0.732410
O O5 0.950353 0.364161 0.876491
O O6 0.661120 0.959220 0.821319
O O7 0.960505 0.943912 0.711652
O O8 0.707772 0.186150 0.055150
O O9 0.321789 0.694435 0.274654
O O10 0.328599 0.429641 0.267027
O O11 0.092026 0.234789 0.192856
O O12 0.466269 0.319802 0.987339
O O13 0.165479 0.643440 0.201200
O O14 0.114229 0.240520 0.935768
O O15 0.428085 0.070372 0.289425
O O16 0.000000 0.000000 0.000000
O O17 0.000000 0.500000 0.500000
#
# Coordination Sequence:
#
# PCOD9082833 Si02
#       8
#     2   2   2   2   2   2   2   2
#     4  10  20  33  56  84 110 151 182 237 274 330
#     4   9  19  33  53  83 109 155 176 233 276 334
#     4  11  20  33  56  87 108 146 182 231 286 325
#     4  10  20  37  59  82 112 148 199 219 274 336
#     4   9  18  33  54  80 118 137 188 231 286 318
#     4  10  19  33  58  85 105 146 188 231 278 329
#     4  10  19  38  54  81 112 150 186 228 277 338
#     4  11  19  32  55  83 118 137 185 233 287 317
#
# _framework density 25.610026999999999
#
# number of rings (size 3 to 8) (size 9 to 14) (size 15 to 20)
#    0.000    2.000    5.000    0.000    1.750    5.500 
#    0.000    1.250    0.000    3.000    0.000    0.000 
#    0.000    0.000    0.000    0.000    0.000    0.000 
#
# Total GULP energy -89303.140312 kJ/mol
# GULP energy per Si atom -5581.446270 kJ/mol
# Density = 2.555174 g / cm^3
# Si number density = 25.610027 Si / 1000 Ang^3
#
#
#
# Elastic Constant Matrix: (Units=GPa)
#
#
# Indices 1 2 3 4 5 6 
#
# 1 55.1484 47.2834 16.5736 5.8082 7.1345 -12.9233
# 2 47.2834 142.2806 50.9360 21.1828 -0.4793 -30.4164
# 3 16.5736 50.9360 135.2788 36.5461 -2.8421 -25.7106
# 4 5.8082 21.1828 36.5461 26.1746 -19.4479 -4.3799
# 5 7.1345 -0.4793 -2.8421 -19.4479 49.3341 1.9619
# 6 -12.9233 -30.4164 -25.7106 -4.3799 1.9619 52.9357
#
#
#
# Elastic Compliance Matrix: (Units=1/GPa)
#
#
# Indices 1 2 3 4 5 6 
#
# 1 0.026528 -0.008031 0.001768 -0.006154 -0.006336 0.002446
# 2 -0.008031 0.011940 -0.000739 -0.007613 -0.001925 0.003983
# 3 0.001768 -0.000739 0.016622 -0.030637 -0.011620 0.005976
# 4 -0.006154 -0.007613 -0.030637 0.121749 0.047540 -0.012446
# 5 -0.006336 -0.001925 -0.011620 0.047540 0.039471 -0.005826
# 6 0.002446 0.003983 0.005976 -0.012446 -0.005826 0.023865
#
#
# Mechanical properties :
#
#
# Convention : Reuss Voigt Hill
#
# Bulk Modulus (GPa) = 24.33830 62.47709 43.40769
# Shear Modulus (GPa) = 18.66550 40.21652 29.44101
#
# Velocity S-wave (km/s) = 2.70262 3.96705 3.39424
# Velocity P-wave (km/s) = 4.38896 6.74032 5.68748
#
# Compressibility (1/GPa) = 0.04108751
#
# Stress axis : x y z
#
# Youngs Moduli (GPa) = 37.69544 83.75110 60.16151
#
# Poissons Ratio (x) = 0.67262 -0.10638
# Poissons Ratio (y) = 0.30274 0.04443
# Poissons Ratio (z) = -0.06666 0.06186
#
# Static dielectric constant tensor:
#      x y z
#    x 2.212270 -0.049080 0.069640 
#    y -0.049080 2.074130 -0.085350 
#    z 0.069640 -0.085350 2.372620 
# 
# From -- ./inp_files/599875.got.cif
#   From: 2010.05.17/outbox.cif.g08.bks.cpg/sg2_300_cif.got.tgz:599875.got - 2010.06.03 11:33:40.
