data_PCOD9082702
_publ_section_title
;
Structure prediction by ZEFSAII (Michael W. Deem and Ramdas Pophale) SiO2 
 PCOD9082702
Probable space group: P -1
;
_chemical_formula_sum "Si O2"
_cell_formula_units_Z 14
_cell_length_a 8.199944
_cell_length_b 18.585712
_cell_length_c 9.967986
_cell_angle_alpha 146.451048
_cell_angle_beta 100.769243
_cell_angle_gamma 103.114833
_cell_volume 585.118484
_symmetry_space_group_name_H-M "P -1"
_symmetry_group_IT_number 2
_symmetry_cell_setting 'triclinic'
loop_
_space_group_symop_operation_xyz
x,y,z
-x,-y,-z
loop_
_atom_site_type_symbol
_atom_site_label
_atom_site_fract_x
_atom_site_fract_y
_atom_site_fract_z
Si Si1 0.239742 0.475856 0.428704
Si Si2 0.280658 0.235618 0.180745
Si Si3 0.083345 0.594802 0.947441
Si Si4 0.627124 0.972329 0.627199
Si Si5 0.295692 0.210346 0.452278
Si Si6 0.564828 0.860143 0.160806
Si Si7 0.159447 0.404586 0.841796
O O1 0.153525 0.294315 0.197471
O O2 0.444720 0.567941 0.491177
O O3 0.385036 0.640665 0.815020
O O4 0.043561 0.446736 0.275787
O O5 0.235437 0.173708 0.229554
O O6 0.270612 0.107489 0.879711
O O7 0.355348 0.777444 0.270254
O O8 0.974793 0.630392 0.098838
O O9 0.051712 0.431946 0.747236
O O10 0.735570 0.941238 0.708572
O O11 0.705424 0.982387 0.503069
O O12 0.595781 0.107652 0.860770
O O13 0.165071 0.256983 0.576711
O O14 0.571894 0.399742 0.796731
#
# Coordination Sequence:
#
# PCOD9082702 Si02
#       7
#     2   2   2   2   2   2   2
#     4   9  19  33  58  76 113 138 180 225 270 315
#     4   9  19  34  57  82 104 147 184 219 266 326
#     4  10  19  34  53  89 108 141 172 242 273 303
#     4  10  22  35  60  80 110 145 185 219 276 318
#     4  10  19  33  57  83 103 153 180 222 261 339
#     4   9  20  39  54  81 108 149 187 212 265 347
#     4   9  19  30  54  82 118 130 188 223 276 312
#
# _framework density 23.926777000000001
#
# number of rings (size 3 to 8) (size 9 to 14) (size 15 to 20)
#    0.857    1.714    1.429    0.000    8.000    1.143 
#    0.000    0.714    0.000    1.714    0.000    0.000 
#    0.000    0.000    0.000    0.000    0.000    0.000 
#
# Total GULP energy -78248.625532 kJ/mol
# GULP energy per Si atom -5589.187538 kJ/mol
# Density = 2.387232 g / cm^3
# Si number density = 23.926777 Si / 1000 Ang^3
#
#
#
# Elastic Constant Matrix: (Units=GPa)
#
#
# Indices 1 2 3 4 5 6 
#
# 1 74.6222 39.0085 38.9982 -10.5737 -21.5679 -17.8120
# 2 39.0085 134.9772 46.9873 -15.3480 -17.2779 -20.7787
# 3 38.9982 46.9873 77.1068 -2.2062 -9.2743 -15.7331
# 4 -10.5737 -15.3480 -2.2062 29.7667 -5.5264 5.4798
# 5 -21.5679 -17.2779 -9.2743 -5.5264 44.1255 5.0837
# 6 -17.8120 -20.7787 -15.7331 5.4798 5.0837 41.3204
#
#
#
# Elastic Compliance Matrix: (Units=1/GPa)
#
#
# Indices 1 2 3 4 5 6 
#
# 1 0.023636 -0.000781 -0.009242 0.008422 0.009905 0.003942
# 2 -0.000781 0.010740 -0.005215 0.005083 0.003131 0.002019
# 3 -0.009242 -0.005215 0.020779 -0.005463 -0.003155 0.002418
# 4 0.008422 0.005083 -0.005463 0.041224 0.010426 -0.002643
# 5 0.009905 0.003131 -0.003155 0.010426 0.029414 -0.000358
# 6 0.003942 0.002019 0.002418 -0.002643 -0.000358 0.028231
#
#
# Mechanical properties :
#
#
# Convention : Reuss Voigt Hill
#
# Bulk Modulus (GPa) = 40.52226 59.63269 50.07747
# Shear Modulus (GPa) = 25.94350 33.82332 29.88341
#
# Velocity S-wave (km/s) = 3.29642 3.76389 3.53789
# Velocity P-wave (km/s) = 5.60903 6.62316 6.13708
#
# Compressibility (1/GPa) = 0.02467779
#
# Stress axis : x y z
#
# Youngs Moduli (GPa) = 42.30812 93.11389 48.12579
#
# Poissons Ratio (x) = 0.07276 0.44476
# Poissons Ratio (y) = 0.03306 0.25099
# Poissons Ratio (z) = 0.39100 0.48562
#
# Static dielectric constant tensor:
#      x y z
#    x 1.961230 0.015490 0.033530 
#    y 0.015490 1.910340 0.018910 
#    z 0.033530 0.018910 1.895830 
# 
# From -- ./inp_files/213903.got.cif
#   From: 2010.05.17/outbox.cif.g08.bks.cpg/sg2_107_cif.got.tgz:213903.got - 2010.06.03 11:33:40.
