data_PCOD9082114
_publ_section_title
;
Structure prediction by ZEFSAII (Michael W. Deem and Ramdas Pophale) SiO2 
 PCOD9082114
Probable space group: P -1
;
_chemical_formula_sum "Si O2"
_cell_formula_units_Z 16
_cell_length_a 33.953067
_cell_length_b 31.083029
_cell_length_c 12.752942
_cell_angle_alpha 26.495288
_cell_angle_beta 154.780665
_cell_angle_gamma 172.377778
_cell_volume 760.299801
_symmetry_space_group_name_H-M "P -1"
_symmetry_group_IT_number 2
_symmetry_cell_setting 'triclinic'
loop_
_space_group_symop_operation_xyz
x,y,z
-x,-y,-z
loop_
_atom_site_type_symbol
_atom_site_label
_atom_site_fract_x
_atom_site_fract_y
_atom_site_fract_z
Si Si1 0.640525 0.864051 0.281887
Si Si2 0.258476 0.369043 0.615298
Si Si3 0.456303 0.373961 0.811925
Si Si4 0.796846 0.188301 0.098456
Si Si5 0.264222 0.395156 0.235345
Si Si6 0.400773 0.302012 0.060868
Si Si7 0.896363 0.196804 0.534619
Si Si8 0.585473 0.178406 0.677395
O O1 0.505576 0.665490 0.486377
O O2 0.385875 0.603353 0.145552
O O3 0.726417 0.053317 0.123401
O O4 0.948439 0.122313 0.412602
O O5 0.383260 0.484445 0.782673
O O6 0.209620 0.211477 0.800030
O O7 0.418927 0.451042 0.532395
O O8 0.624361 0.492753 0.860112
O O9 0.587900 0.488648 0.995255
O O10 0.103654 0.983227 0.818208
O O11 0.732553 0.060355 0.326616
O O12 0.162918 0.578382 0.150087
O O13 0.605010 0.095489 0.848579
O O14 0.195420 0.002358 0.226124
O O15 0.251113 0.579005 0.532515
O O16 0.739123 0.109066 0.433504
#
# Coordination Sequence:
#
# PCOD9082114 Si02
#       8
#     2   2   2   2   2   2   2   2
#     4  12  22  39  56  84 116 151 182 234 277 334
#     4  11  25  35  53  86 122 146 180 217 289 348
#     4  10  22  38  58  73 107 152 196 234 260 314
#     4   9  20  32  56  77 113 142 177 224 284 332
#     4  10  22  39  55  78 103 150 201 234 263 306
#     4  11  23  38  56  83 117 156 181 225 281 339
#     4  10  19  33  51  79 109 139 182 215 272 339
#     4   9  19  33  52  78 114 139 179 221 275 347
#
# _framework density 21.044329000000001
#
# number of rings (size 3 to 8) (size 9 to 14) (size 15 to 20)
#    0.750    1.000    2.500    1.875    3.500    5.000 
#    0.000    0.000    0.000    0.000    0.000    5.250 
#    0.000    0.000    0.000    0.000    0.000    0.000 
#
# Total GULP energy -89400.532483 kJ/mol
# GULP energy per Si atom -5587.533280 kJ/mol
# Density = 2.099643 g / cm^3
# Si number density = 21.044329 Si / 1000 Ang^3
#
#
#
# Elastic Constant Matrix: (Units=GPa)
#
#
# Indices 1 2 3 4 5 6 
#
# 1 120.5909 28.1618 23.9459 -10.3222 2.9545 -5.4318
# 2 28.1618 35.7878 0.3643 -2.5600 9.4311 2.7262
# 3 23.9459 0.3643 53.0097 -20.9685 7.1402 -9.3202
# 4 -10.3222 -2.5600 -20.9685 21.5120 -3.1659 3.7674
# 5 2.9545 9.4311 7.1402 -3.1659 41.9615 -10.2028
# 6 -5.4318 2.7262 -9.3202 3.7674 -10.2028 37.6047
#
#
#
# Elastic Compliance Matrix: (Units=1/GPa)
#
#
# Indices 1 2 3 4 5 6 
#
# 1 0.011707 -0.010108 -0.005674 -0.001034 0.002792 0.001879
# 2 -0.010108 0.039461 0.007140 0.006331 -0.010352 -0.005994
# 3 -0.005674 0.007140 0.034622 0.030744 -0.004030 0.003070
# 4 -0.001034 0.006331 0.030744 0.076727 -0.001025 -0.000953
# 5 0.002792 -0.010352 -0.004030 -0.001025 0.028514 0.007994
# 6 0.001879 -0.005994 0.003070 -0.000953 0.007994 0.030324
#
#
# Mechanical properties :
#
#
# Convention : Reuss Voigt Hill
#
# Bulk Modulus (GPa) = 14.59700 34.92585 24.76142
# Shear Modulus (GPa) = 19.12241 30.67673 24.89957
#
# Velocity S-wave (km/s) = 3.01769 3.82215 3.44349
# Velocity P-wave (km/s) = 4.36959 6.00923 5.25377
#
# Compressibility (1/GPa) = 0.06850723
#
# Stress axis : x y z
#
# Youngs Moduli (GPa) = 85.41676 25.34139 28.88334
#
# Poissons Ratio (x) = 0.25614 0.16387
# Poissons Ratio (y) = 0.86336 -0.20622
# Poissons Ratio (z) = 0.48462 -0.18093
#
# Static dielectric constant tensor:
#      x y z
#    x 1.754140 0.000610 -0.011680 
#    y 0.000610 1.779350 0.010290 
#    z -0.011680 0.010290 1.782890 
# 
# From -- ./inp_files/477794.got.cif
#   From: 2010.05.17/outbox.cif.g08.bks.cpg/sg2_239_cif.got.tgz:477794.got - 2010.06.03 11:33:40.
