data_PCOD9082321
_publ_section_title
;
Structure prediction by ZEFSAII (Michael W. Deem and Ramdas Pophale) SiO2 
 PCOD9082321
Probable space group: P -1
;
_chemical_formula_sum "Si O2"
_cell_formula_units_Z 16
_cell_length_a 13.644460
_cell_length_b 14.344943
_cell_length_c 11.728265
_cell_angle_alpha 122.800118
_cell_angle_beta 149.245299
_cell_angle_gamma 48.072088
_cell_volume 870.145430
_symmetry_space_group_name_H-M "P -1"
_symmetry_group_IT_number 2
_symmetry_cell_setting 'triclinic'
loop_
_space_group_symop_operation_xyz
x,y,z
-x,-y,-z
loop_
_atom_site_type_symbol
_atom_site_label
_atom_site_fract_x
_atom_site_fract_y
_atom_site_fract_z
Si Si1 0.149198 0.843667 0.168400
Si Si2 0.833275 0.380529 0.335456
Si Si3 0.695395 0.745736 0.318444
Si Si4 0.021625 0.869799 0.545322
Si Si5 0.924395 0.893062 0.207320
Si Si6 0.536503 0.971352 0.151536
Si Si7 0.445825 0.638493 0.153931
Si Si8 0.744818 0.939499 0.659711
O O1 0.330911 0.723190 0.204323
O O2 0.096125 0.830579 0.237333
O O3 0.212539 0.955140 0.289611
O O4 0.923797 0.887052 0.903088
O O5 0.652623 0.505024 0.298060
O O6 0.073158 0.369074 0.562123
O O7 0.868241 0.254665 0.352073
O O8 0.730249 0.382253 0.109725
O O9 0.577418 0.836968 0.154286
O O10 0.539740 0.707792 0.208596
O O11 0.765304 0.828895 0.524579
O O12 0.005527 0.833641 0.373760
O O13 0.773940 0.957539 0.397154
O O14 0.122815 0.963121 0.721582
O O15 0.684644 0.916875 0.944889
O O16 0.500000 0.000000 0.000000
O O17 0.500000 0.000000 0.500000
#
# Coordination Sequence:
#
# PCOD9082321 Si02
#       8
#     2   2   2   2   2   2   2   2
#     4  11  22  33  50  80 108 137 170 212 267 316
#     4  10  21  37  53  74 103 140 180 219 252 306
#     4  11  19  34  54  76 104 139 176 213 260 317
#     4   9  19  35  54  77 101 135 174 212 258 310
#     4  10  19  33  54  78 106 132 167 215 264 315
#     4   9  18  30  49  75 102 132 165 207 257 304
#     4  11  22  35  52  76 107 138 177 217 258 305
#     4  11  21  32  50  75 110 136 164 207 269 315
#
# _framework density 18.387730999999999
#
# number of rings (size 3 to 8) (size 9 to 14) (size 15 to 20)
#    0.000    1.750    2.500    3.375    3.500    0.000 
#    0.000    0.625    0.000    0.000    0.000    0.875 
#    0.000    0.000    0.000    0.000    0.000    0.000 
#
# Total GULP energy -89178.101104 kJ/mol
# GULP energy per Si atom -5573.631319 kJ/mol
# Density = 1.834588 g / cm^3
# Si number density = 18.387731 Si / 1000 Ang^3
#
#
#
# Elastic Constant Matrix: (Units=GPa)
#
#
# Indices 1 2 3 4 5 6 
#
# 1 95.9871 22.3287 26.2794 -13.7806 -1.1045 -19.0654
# 2 22.3287 59.2822 23.4057 -13.6136 -5.0385 -16.2730
# 3 26.2794 23.4057 72.8807 -15.9033 7.2595 -10.9368
# 4 -13.7806 -13.6136 -15.9033 25.4741 -1.2347 5.2771
# 5 -1.1045 -5.0385 7.2595 -1.2347 28.3011 -1.5263
# 6 -19.0654 -16.2730 -10.9368 5.2771 -1.5263 29.7454
#
#
#
# Elastic Compliance Matrix: (Units=1/GPa)
#
#
# Indices 1 2 3 4 5 6 
#
# 1 0.013237 -0.001221 -0.002828 0.003526 0.001514 0.006229
# 2 -0.001221 0.024162 -0.004863 0.007527 0.006350 0.009638
# 3 -0.002828 -0.004863 0.018482 0.006982 -0.005369 0.000809
# 4 0.003526 0.007527 0.006982 0.049584 0.001863 0.000244
# 5 0.001514 0.006350 -0.005369 0.001863 0.038203 0.004100
# 6 0.006229 0.009638 0.000809 0.000244 0.004100 0.043348
#
#
# Mechanical properties :
#
#
# Convention : Reuss Voigt Hill
#
# Bulk Modulus (GPa) = 26.27571 41.35308 33.81439
# Shear Modulus (GPa) = 22.98567 27.11321 25.04944
#
# Velocity S-wave (km/s) = 3.53945 3.84412 3.69493
# Velocity P-wave (km/s) = 5.56996 6.49934 6.05251
#
# Compressibility (1/GPa) = 0.03805796
#
# Stress axis : x y z
#
# Youngs Moduli (GPa) = 75.54520 41.38669 54.10661
#
# Poissons Ratio (x) = 0.05054 0.15299
# Poissons Ratio (y) = 0.09225 0.26312
# Poissons Ratio (z) = 0.21361 0.20126
#
# Static dielectric constant tensor:
#      x y z
#    x 1.688190 -0.015170 0.038930 
#    y -0.015170 1.633180 -0.007300 
#    z 0.038930 -0.007300 1.672520 
# 
# From -- ./inp_files/455011.got.cif
#   From: 2010.05.17/outbox.cif.g08.bks.cpg/sg2_228_cif.got.tgz:455011.got - 2010.06.03 11:33:40.
