data_PCOD9082750
_publ_section_title
;
Structure prediction by ZEFSAII (Michael W. Deem and Ramdas Pophale) SiO2 
 PCOD9082750
Probable space group: P -1
;
_chemical_formula_sum "Si O2"
_cell_formula_units_Z 12
_cell_length_a 17.297883
_cell_length_b 22.234551
_cell_length_c 11.827209
_cell_angle_alpha 19.990148
_cell_angle_beta 149.188323
_cell_angle_gamma 159.335140
_cell_volume 540.857642
_symmetry_space_group_name_H-M "P -1"
_symmetry_group_IT_number 2
_symmetry_cell_setting 'triclinic'
loop_
_space_group_symop_operation_xyz
x,y,z
-x,-y,-z
loop_
_atom_site_type_symbol
_atom_site_label
_atom_site_fract_x
_atom_site_fract_y
_atom_site_fract_z
Si Si1 0.299868 0.845720 0.153217
Si Si2 0.210858 0.067983 0.185117
Si Si3 0.241490 0.915429 0.707459
Si Si4 0.943927 0.278404 0.705109
Si Si5 0.404694 0.255087 0.877736
Si Si6 0.797401 0.335206 0.204408
O O1 0.153325 0.791690 0.167604
O O2 0.199427 0.559725 0.517910
O O3 0.560262 0.045831 0.151358
O O4 0.275504 0.941645 0.839852
O O5 0.257033 0.098367 0.322881
O O6 0.182581 0.837757 0.522179
O O7 0.405111 0.290596 0.949690
O O8 0.000000 0.000000 0.000000
O O9 0.995064 0.626437 0.894026
O O10 0.837450 0.334500 0.389246
O O11 0.843984 0.012391 0.000374
O O12 0.500000 0.500000 0.500000
O O13 0.562585 0.228266 0.090002
#
# Coordination Sequence:
#
# PCOD9082750 Si02
#       6
#     2   2   2   2   2   2
#     4   9  18  33  59  86 116 156 191 234 282 358
#     4  11  22  36  58  88 121 151 192 249 294 339
#     4  10  19  33  57  87 116 149 192 234 296 347
#     4   9  18  35  58  83 113 153 197 231 289 346
#     4  11  22  37  60  87 117 153 197 247 290 340
#     4  10  20  36  60  85 116 154 193 244 294 341
#
# _framework density 22.186985
#
# number of rings (size 3 to 8) (size 9 to 14) (size 15 to 20)
#    0.000    2.000    0.000    5.500    0.000    1.333 
#    0.000    0.000    0.000   70.000    0.000    0.000 
#    0.000    0.000    0.000    0.000    0.000    0.000 
#
# Total GULP energy -66865.412056 kJ/mol
# GULP energy per Si atom -5572.117671 kJ/mol
# Density = 2.213649 g / cm^3
# Si number density = 22.186985 Si / 1000 Ang^3
#
#
#
# Elastic Constant Matrix: (Units=GPa)
#
#
# Indices 1 2 3 4 5 6 
#
# 1 100.0460 24.6263 50.6042 18.4034 -39.6010 7.5231
# 2 24.6263 69.3894 19.2544 3.9531 -9.4887 15.5913
# 3 50.6042 19.2544 114.3744 7.6587 -45.1064 0.8271
# 4 18.4034 3.9531 7.6587 40.5367 2.5772 -3.9736
# 5 -39.6010 -9.4887 -45.1064 2.5772 52.2572 6.1619
# 6 7.5231 15.5913 0.8271 -3.9736 6.1619 29.3924
#
#
#
# Elastic Compliance Matrix: (Units=1/GPa)
#
#
# Indices 1 2 3 4 5 6 
#
# 1 0.019599 -0.002041 -0.001983 -0.010035 0.014234 -0.008219
# 2 -0.002041 0.017980 -0.001192 -0.001664 0.001904 -0.009606
# 3 -0.001983 -0.001192 0.014358 -0.002586 0.011028 -0.001926
# 4 -0.010035 -0.001664 -0.002586 0.031731 -0.012945 0.010528
# 5 0.014234 0.001904 0.011028 -0.012945 0.042263 -0.015574
# 6 -0.008219 -0.009606 -0.001926 0.010528 -0.015574 0.045964
#
#
# Mechanical properties :
#
#
# Convention : Reuss Voigt Hill
#
# Bulk Modulus (GPa) = 24.09331 52.53108 38.31219
# Shear Modulus (GPa) = 25.48938 37.05892 31.27415
#
# Velocity S-wave (km/s) = 3.39314 4.09136 3.75850
# Velocity P-wave (km/s) = 5.12191 6.78579 6.01169
#
# Compressibility (1/GPa) = 0.04150530
#
# Stress axis : x y z
#
# Youngs Moduli (GPa) = 51.02349 55.61733 69.64916
#
# Poissons Ratio (x) = 0.11349 0.13811
# Poissons Ratio (y) = 0.10412 0.08303
# Poissons Ratio (z) = 0.10117 0.06630
#
# Static dielectric constant tensor:
#      x y z
#    x 1.911900 -0.054150 -0.018180 
#    y -0.054150 1.856020 -0.029650 
#    z -0.018180 -0.029650 1.825190 
# 
# From -- ./inp_files/158648.got.cif
#   From: 2010.05.17/outbox.cif.g08.bks.cpg/sg2_80_cif.got.tgz:158648.got - 2010.06.03 11:33:40.
