data_PCOD9082461
_publ_section_title
;
Structure prediction by ZEFSAII (Michael W. Deem and Ramdas Pophale) SiO2 
 PCOD9082461
Probable space group: P -1
;
_chemical_formula_sum "Si O2"
_cell_formula_units_Z 14
_cell_length_a 7.910369
_cell_length_b 11.689942
_cell_length_c 12.996701
_cell_angle_alpha 43.516672
_cell_angle_beta 73.244845
_cell_angle_gamma 52.985747
_cell_volume 636.291742
_symmetry_space_group_name_H-M "P -1"
_symmetry_group_IT_number 2
_symmetry_cell_setting 'triclinic'
loop_
_space_group_symop_operation_xyz
x,y,z
-x,-y,-z
loop_
_atom_site_type_symbol
_atom_site_label
_atom_site_fract_x
_atom_site_fract_y
_atom_site_fract_z
Si Si1 0.267395 0.334596 0.451948
Si Si2 0.855066 0.343020 0.571937
Si Si3 0.504906 0.298876 0.114816
Si Si4 0.158372 0.653917 0.658612
Si Si5 0.064831 0.539918 0.130659
Si Si6 0.942643 0.070880 0.081617
Si Si7 0.307489 0.898763 0.572761
O O1 0.090838 0.304877 0.545786
O O2 0.174977 0.449419 0.283430
O O3 0.506535 0.132960 0.513817
O O4 0.277870 0.477889 0.437767
O O5 0.755905 0.403838 0.435553
O O6 0.910342 0.130392 0.741533
O O7 0.248050 0.395799 0.105844
O O8 0.682603 0.174420 0.075046
O O9 0.618365 0.153166 0.289412
O O10 0.500000 0.500000 0.000000
O O11 0.283231 0.719681 0.660408
O O12 0.128588 0.487660 0.819178
O O13 0.914172 0.873027 0.549054
O O14 0.013870 0.764146 0.996973
O O15 0.000000 0.000000 0.000000
#
# Coordination Sequence:
#
# PCOD9082461 Si02
#       7
#     2   2   2   2   2   2   2
#     4   9  19  33  55  82 105 137 182 230 262 315
#     4  10  19  33  55  82 108 139 181 222 273 313
#     4   9  19  34  55  81 105 137 177 224 269 311
#     4  10  21  35  56  81 109 144 180 217 270 324
#     4   9  19  34  53  83 107 135 181 222 267 314
#     4  11  19  32  54  81 107 137 173 228 268 311
#     4  10  20  36  57  79 110 143 179 221 269 319
#
# _framework density 22.002486999999999
#
# number of rings (size 3 to 8) (size 9 to 14) (size 15 to 20)
#    0.000    2.286    2.857    0.000    2.000    2.286 
#    0.000    2.857    0.000    0.857    0.000    0.000 
#    0.000    0.000    0.000    0.000    0.000    0.000 
#
# Total GULP energy -78182.462384 kJ/mol
# GULP energy per Si atom -5584.461599 kJ/mol
# Density = 2.195241 g / cm^3
# Si number density = 22.002487 Si / 1000 Ang^3
#
#
#
# Elastic Constant Matrix: (Units=GPa)
#
#
# Indices 1 2 3 4 5 6 
#
# 1 47.6939 20.4639 26.7374 1.2940 -20.9919 12.0852
# 2 20.4639 144.2773 31.5350 22.4052 -8.0549 5.0876
# 3 26.7374 31.5350 101.0113 -1.5134 -27.3515 9.9901
# 4 1.2940 22.4052 -1.5134 31.0608 3.3333 -12.7273
# 5 -20.9919 -8.0549 -27.3515 3.3333 26.1736 -6.5734
# 6 12.0852 5.0876 9.9901 -12.7273 -6.5734 25.1677
#
#
#
# Elastic Compliance Matrix: (Units=1/GPa)
#
#
# Indices 1 2 3 4 5 6 
#
# 1 0.037980 -0.001657 -0.001060 -0.009599 0.026173 -0.015500
# 2 -0.001657 0.009085 -0.002363 -0.008378 -0.001097 -0.004626
# 3 -0.001060 -0.002363 0.014659 0.000604 0.013407 -0.001025
# 4 -0.009599 -0.008378 0.000604 0.051911 -0.008712 0.030039
# 5 0.026173 -0.001097 0.013407 -0.008712 0.073241 -0.002945
# 6 -0.015500 -0.004626 -0.001025 0.030039 -0.002945 0.062940
#
#
# Mechanical properties :
#
#
# Convention : Reuss Voigt Hill
#
# Bulk Modulus (GPa) = 19.39289 50.05057 34.72173
# Shear Modulus (GPa) = 18.03993 30.76349 24.40171
#
# Velocity S-wave (km/s) = 2.86650 3.74328 3.33384
# Velocity P-wave (km/s) = 4.44847 6.44049 5.53484
#
# Compressibility (1/GPa) = 0.05156528
#
# Stress axis : x y z
#
# Youngs Moduli (GPa) = 26.32971 110.06646 68.21843
#
# Poissons Ratio (x) = 0.18238 0.07228
# Poissons Ratio (y) = 0.04363 0.16119
# Poissons Ratio (z) = 0.02790 0.26007
#
# Static dielectric constant tensor:
#      x y z
#    x 1.856700 -0.015550 -0.030530 
#    y -0.015550 1.821120 0.003300 
#    z -0.030530 0.003300 1.812600 
# 
# From -- ./inp_files/154015.got.cif
#   From: 2010.05.17/outbox.cif.g08.bks.cpg/sg2_78_cif.got.tgz:154015.got - 2010.06.03 11:33:40.
