data_PCOD9082684
_publ_section_title
;
Structure prediction by ZEFSAII (Michael W. Deem and Ramdas Pophale) SiO2 
 PCOD9082684
Probable space group: P -1
;
_chemical_formula_sum "Si O2"
_cell_formula_units_Z 12
_cell_length_a 7.976846
_cell_length_b 8.581872
_cell_length_c 8.165482
_cell_angle_alpha 120.793250
_cell_angle_beta 96.747237
_cell_angle_gamma 107.245871
_cell_volume 433.181793
_symmetry_space_group_name_H-M "P -1"
_symmetry_group_IT_number 2
_symmetry_cell_setting 'triclinic'
loop_
_space_group_symop_operation_xyz
x,y,z
-x,-y,-z
loop_
_atom_site_type_symbol
_atom_site_label
_atom_site_fract_x
_atom_site_fract_y
_atom_site_fract_z
Si Si1 0.440000 0.306915 0.266512
Si Si2 0.910826 0.264494 0.302935
Si Si3 0.196370 0.103844 0.397307
Si Si4 0.693663 0.146329 0.518852
Si Si5 0.674434 0.528144 0.149032
Si Si6 0.140628 0.402427 0.109960
O O1 0.500000 0.500000 0.500000
O O2 0.347369 0.128399 0.286513
O O3 0.608606 0.353314 0.184210
O O4 0.270364 0.293470 0.123779
O O5 0.727527 0.146269 0.327551
O O6 0.000000 0.500000 0.500000
O O7 0.038927 0.153614 0.320926
O O8 0.949890 0.287908 0.125285
O O9 0.282866 0.277459 0.634633
O O10 0.157816 0.910965 0.396428
O O11 0.746843 0.375122 0.687660
O O12 0.500000 0.000000 0.500000
O O13 0.500000 0.500000 0.000000
O O14 0.840899 0.563938 0.063449
#
# Coordination Sequence:
#
# PCOD9082684 Si02
#       6
#     2   2   2   2   2   2
#     4   8  14  27  49  75 102 139 178 209 253 317
#     4   9  20  38  57  78 107 147 186 218 264 332
#     4  10  19  33  57  81 107 144 182 222 269 319
#     4  11  20  33  55  84 110 139 179 228 271 317
#     4   9  16  30  53  82 110 142 180 221 265 322
#     4   9  18  33  53  76 107 141 176 218 266 319
#
# _framework density 27.701995
#
# number of rings (size 3 to 8) (size 9 to 14) (size 15 to 20)
#    0.000    2.667    0.000    3.500    0.000    1.333 
#    0.000    5.000    0.000   24.000    0.000    0.000 
#    0.000    0.000    0.000    0.000    0.000    0.000 
#
# Total GULP energy -67075.351511 kJ/mol
# GULP energy per Si atom -5589.612626 kJ/mol
# Density = 2.763894 g / cm^3
# Si number density = 27.701995 Si / 1000 Ang^3
#
#
#
# Elastic Constant Matrix: (Units=GPa)
#
#
# Indices 1 2 3 4 5 6 
#
# 1 136.2764 70.8867 49.8050 -26.1686 -32.6915 40.0770
# 2 70.8867 175.4352 65.7830 -73.2791 -19.0882 25.1440
# 3 49.8050 65.7830 100.0301 -44.7028 -21.9696 40.4606
# 4 -26.1686 -73.2791 -44.7028 69.9070 27.9870 -11.8742
# 5 -32.6915 -19.0882 -21.9696 27.9870 46.8049 -28.8439
# 6 40.0770 25.1440 40.4606 -11.8742 -28.8439 74.1313
#
#
#
# Elastic Compliance Matrix: (Units=1/GPa)
#
#
# Indices 1 2 3 4 5 6 
#
# 1 0.012429 -0.005598 -0.003437 -0.006928 0.008457 -0.000764
# 2 -0.005598 0.014000 -0.000446 0.015592 -0.009346 -0.002618
# 3 -0.003437 -0.000446 0.019567 0.011592 -0.005957 -0.009131
# 4 -0.006928 0.015592 0.011592 0.044078 -0.026169 -0.010992
# 5 0.008457 -0.009346 -0.005957 -0.026169 0.045867 0.015504
# 6 -0.000764 -0.002618 -0.009131 -0.010992 0.015504 0.024046
#
#
# Mechanical properties :
#
#
# Convention : Reuss Voigt Hill
#
# Bulk Modulus (GPa) = 36.98793 87.18789 62.08791
# Shear Modulus (GPa) = 26.60155 53.18644 39.89400
#
# Velocity S-wave (km/s) = 3.10219 4.38648 3.79900
# Velocity P-wave (km/s) = 5.11982 7.56285 6.45791
#
# Compressibility (1/GPa) = 0.02703584
#
# Stress axis : x y z
#
# Youngs Moduli (GPa) = 80.45813 71.42824 51.10644
#
# Poissons Ratio (x) = 0.39982 0.17565
# Poissons Ratio (y) = 0.45037 0.02277
# Poissons Ratio (z) = 0.27653 0.03183
#
# Static dielectric constant tensor:
#      x y z
#    x 2.328160 -0.020470 -0.018550 
#    y -0.020470 2.152040 0.001180 
#    z -0.018550 0.001180 2.123950 
# 
# From -- ./inp_files/159762.got.cif
#   From: 2010.05.17/outbox.cif.g08.bks.cpg/sg2_80_cif.got.tgz:159762.got - 2010.06.03 11:33:40.
