data_PCOD9082715
_publ_section_title
;
Structure prediction by ZEFSAII (Michael W. Deem and Ramdas Pophale) SiO2 
 PCOD9082715
Probable space group: P -1
;
_chemical_formula_sum "Si O2"
_cell_formula_units_Z 16
_cell_length_a 10.085733
_cell_length_b 5.310517
_cell_length_c 16.702083
_cell_angle_alpha 83.400012
_cell_angle_beta 120.584581
_cell_angle_gamma 92.311480
_cell_volume 764.841507
_symmetry_space_group_name_H-M "P -1"
_symmetry_group_IT_number 2
_symmetry_cell_setting 'triclinic'
loop_
_space_group_symop_operation_xyz
x,y,z
-x,-y,-z
loop_
_atom_site_type_symbol
_atom_site_label
_atom_site_fract_x
_atom_site_fract_y
_atom_site_fract_z
Si Si1 0.595513 0.253489 0.005402
Si Si2 0.792619 0.337709 0.204933
Si Si3 0.513800 0.621685 0.196031
Si Si4 0.761410 0.977651 0.337860
Si Si5 0.455780 0.681072 0.635093
Si Si6 0.218129 0.339336 0.499248
Si Si7 0.917163 0.393477 0.693639
Si Si8 0.743719 0.893959 0.643068
O O1 0.606043 0.288636 0.911642
O O2 0.500000 0.500000 0.000000
O O3 0.748259 0.241485 0.107211
O O4 0.500000 0.000000 0.000000
O O5 0.635078 0.433903 0.194828
O O6 0.906542 0.571433 0.230825
O O7 0.857228 0.120568 0.293878
O O8 0.620492 0.846033 0.253119
O O9 0.456836 0.476830 0.261943
O O10 0.835907 0.771688 0.428658
O O11 0.685114 0.179252 0.367898
O O12 0.377430 0.483836 0.558554
O O13 0.571381 0.871816 0.622893
O O14 0.106006 0.532278 0.410058
O O15 0.250078 0.120415 0.451167
O O16 0.828203 0.627747 0.701011
O O17 0.834240 0.133406 0.692777
#
# Coordination Sequence:
#
# PCOD9082715 Si02
#       8
#     2   2   2   2   2   2   2   2
#     4  10  19  35  60  87 111 141 182 229 280 332
#     4  10  21  37  58  81 121 145 182 227 281 345
#     4   9  20  34  57  91 110 142 181 236 288 326
#     4  10  19  33  57  84 114 145 182 235 287 320
#     4  10  20  36  58  83 112 144 189 246 276 315
#     4   9  21  35  55  85 109 146 196 230 279 321
#     4  10  24  37  55  82 112 158 187 221 277 334
#     4  10  23  39  57  80 110 152 198 228 272 325
#
# _framework density 20.919367000000001
#
# number of rings (size 3 to 8) (size 9 to 14) (size 15 to 20)
#    0.750    1.500    1.250    1.125    5.250    1.500 
#    0.000    6.250    0.000    1.500    0.000    0.000 
#    0.000    0.000    0.000    0.000    0.000    0.000 
#
# Total GULP energy -89210.799549 kJ/mol
# GULP energy per Si atom -5575.674972 kJ/mol
# Density = 2.087175 g / cm^3
# Si number density = 20.919367 Si / 1000 Ang^3
#
#
#
# Elastic Constant Matrix: (Units=GPa)
#
#
# Indices 1 2 3 4 5 6 
#
# 1 25.9918 11.3837 10.6524 1.5078 6.9078 6.1271
# 2 11.3837 126.3024 31.2399 21.5267 -1.3922 5.6930
# 3 10.6524 31.2399 105.9095 16.0526 -8.9471 20.0566
# 4 1.5078 21.5267 16.0526 22.4641 -2.4053 4.7392
# 5 6.9078 -1.3922 -8.9471 -2.4053 8.1114 3.2144
# 6 6.1271 5.6930 20.0566 4.7392 3.2144 21.6350
#
#
#
# Elastic Compliance Matrix: (Units=1/GPa)
#
#
# Indices 1 2 3 4 5 6 
#
# 1 0.061930 -0.003527 -0.011712 -0.000673 -0.068262 0.004537
# 2 -0.003527 0.010032 -0.001692 -0.008611 -0.000439 0.001879
# 3 -0.011712 -0.001692 0.017844 -0.002879 0.035413 -0.017411
# 4 -0.000673 -0.008611 -0.002879 0.058936 0.017512 -0.010386
# 5 -0.068262 -0.000439 0.035413 0.017512 0.246956 -0.053908
# 6 0.004537 0.001879 -0.017411 -0.010386 -0.053908 0.070867
#
#
# Mechanical properties :
#
#
# Convention : Reuss Voigt Hill
#
# Bulk Modulus (GPa) = 17.87522 40.52840 29.20181
# Shear Modulus (GPa) = 9.63250 24.10396 16.86823
#
# Velocity S-wave (km/s) = 2.14816 3.39814 2.84270
# Velocity P-wave (km/s) = 3.83616 5.90018 4.97636
#
# Compressibility (1/GPa) = 0.05594336
#
# Stress axis : x y z
#
# Youngs Moduli (GPa) = 16.14725 99.68072 56.04009
#
# Poissons Ratio (x) = 0.35157 0.65636
# Poissons Ratio (y) = 0.05695 0.09483
# Poissons Ratio (z) = 0.18912 0.16868
#
# Static dielectric constant tensor:
#      x y z
#    x 1.754630 -0.041050 0.022680 
#    y -0.041050 1.811510 -0.054620 
#    z 0.022680 -0.054620 1.809430 
# 
# From -- ./inp_files/75842.got.cif
#   From: 2010.05.17/outbox.cif.g08.bks.cpg/sg2_38_cif.got.tgz:75842.got - 2010.06.03 11:33:40.
