data_PCOD9082450
_publ_section_title
;
Structure prediction by ZEFSAII (Michael W. Deem and Ramdas Pophale) SiO2 
 PCOD9082450
Probable space group: P -1
;
_chemical_formula_sum "Si O2"
_cell_formula_units_Z 12
_cell_length_a 9.560586
_cell_length_b 16.057220
_cell_length_c 7.110754
_cell_angle_alpha 70.520835
_cell_angle_beta 58.559448
_cell_angle_gamma 29.459479
_cell_volume 438.682694
_symmetry_space_group_name_H-M "P -1"
_symmetry_group_IT_number 2
_symmetry_cell_setting 'triclinic'
loop_
_space_group_symop_operation_xyz
x,y,z
-x,-y,-z
loop_
_atom_site_type_symbol
_atom_site_label
_atom_site_fract_x
_atom_site_fract_y
_atom_site_fract_z
Si Si1 0.184586 0.389992 0.646125
Si Si2 0.053976 0.766653 0.902976
Si Si3 0.440287 0.964576 0.388749
Si Si4 0.117529 0.819268 0.190096
Si Si5 0.099467 0.575579 0.824619
Si Si6 0.646216 0.104357 0.992352
O O1 0.448499 0.190122 0.579211
O O2 0.000000 0.500000 0.500000
O O3 0.292182 0.431258 0.638535
O O4 0.955164 0.452927 0.920527
O O5 0.705110 0.883110 0.121532
O O6 0.243440 0.701663 0.014903
O O7 0.901659 0.930564 0.814214
O O8 0.220950 0.614640 0.774706
O O9 0.500000 0.000000 0.500000
O O10 0.044509 0.152787 0.540127
O O11 0.325685 0.804793 0.120048
O O12 0.806829 0.008483 0.153613
O O13 0.725984 0.753615 0.869877
#
# Coordination Sequence:
#
# PCOD9082450 Si02
#       6
#     2   2   2   2   2   2
#     4  10  21  34  52  81 110 144 177 230 273 312
#     4   8  16  29  51  80 106 137 179 223 262 314
#     4   9  16  31  53  79 102 133 185 219 254 320
#     4   8  16  28  51  83 111 139 176 217 282 318
#     4  10  19  33  55  80 107 140 189 222 264 326
#     4   9  16  29  51  84 109 140 175 223 275 321
#
# _framework density 27.354624000000001
#
# number of rings (size 3 to 8) (size 9 to 14) (size 15 to 20)
#    1.000    2.000    0.000    1.500    0.000    0.000 
#    0.000    3.333    0.000   17.000    0.000    0.000 
#    0.000    0.000    0.000    0.000    0.000    0.000 
#
# Total GULP energy -66854.629580 kJ/mol
# GULP energy per Si atom -5571.219132 kJ/mol
# Density = 2.729236 g / cm^3
# Si number density = 27.354624 Si / 1000 Ang^3
#
#
#
# Elastic Constant Matrix: (Units=GPa)
#
#
# Indices 1 2 3 4 5 6 
#
# 1 153.3125 67.4775 32.2157 12.4289 21.6739 58.3531
# 2 67.4775 110.6676 17.6389 11.8393 21.4214 33.2378
# 3 32.2157 17.6389 47.5430 2.5701 31.4488 9.7125
# 4 12.4289 11.8393 2.5701 31.4225 4.7078 19.2014
# 5 21.6739 21.4214 31.4488 4.7078 48.7326 0.8522
# 6 58.3531 33.2378 9.7125 19.2014 0.8522 74.8265
#
#
#
# Elastic Compliance Matrix: (Units=1/GPa)
#
#
# Indices 1 2 3 4 5 6 
#
# 1 0.012311 -0.004647 -0.005087 0.001811 -0.000197 -0.007339
# 2 -0.004647 0.013283 0.001948 -0.001287 -0.004867 -0.002143
# 3 -0.005087 0.001948 0.040827 0.003422 -0.025223 -0.002789
# 4 0.001811 -0.001287 0.003422 0.039089 -0.006028 -0.011247
# 5 -0.000197 -0.004867 -0.025223 -0.006028 0.039489 0.006686
# 6 -0.007339 -0.002143 -0.002789 -0.011247 0.006686 0.023211
#
#
# Mechanical properties :
#
#
# Convention : Reuss Voigt Hill
#
# Bulk Modulus (GPa) = 19.66629 60.68747 40.17688
# Shear Modulus (GPa) = 24.90894 43.94239 34.42567
#
# Velocity S-wave (km/s) = 3.02088 4.01234 3.55138
# Velocity P-wave (km/s) = 4.40143 6.61050 5.61566
#
# Compressibility (1/GPa) = 0.05084843
#
# Stress axis : x y z
#
# Youngs Moduli (GPa) = 81.22740 75.28628 24.49382
#
# Poissons Ratio (x) = 0.34988 0.12459
# Poissons Ratio (y) = 0.37749 -0.04771
# Poissons Ratio (z) = 0.41317 -0.14665
#
# Static dielectric constant tensor:
#      x y z
#    x 2.237160 0.016850 0.020570 
#    y 0.016850 2.191400 -0.084550 
#    z 0.020570 -0.084550 2.311540 
# 
# From -- ./inp_files/196478.got.cif
#   From: 2010.05.17/outbox.cif.g08.bks.cpg/sg2_99_cif.got.tgz:196478.got - 2010.06.03 11:33:40.
