data_PCOD9082274
_publ_section_title
;
Structure prediction by ZEFSAII (Michael W. Deem and Ramdas Pophale) SiO2 
 PCOD9082274
Probable space group: P -1
;
_chemical_formula_sum "Si O2"
_cell_formula_units_Z 16
_cell_length_a 17.075338
_cell_length_b 14.079893
_cell_length_c 19.502899
_cell_angle_alpha 150.557696
_cell_angle_beta 158.556012
_cell_angle_gamma 40.970723
_cell_volume 801.388954
_symmetry_space_group_name_H-M "P -1"
_symmetry_group_IT_number 2
_symmetry_cell_setting 'triclinic'
loop_
_space_group_symop_operation_xyz
x,y,z
-x,-y,-z
loop_
_atom_site_type_symbol
_atom_site_label
_atom_site_fract_x
_atom_site_fract_y
_atom_site_fract_z
Si Si1 0.830328 0.990386 0.561758
Si Si2 0.954087 0.489802 0.569573
Si Si3 0.321728 0.276061 0.138593
Si Si4 0.621461 0.241602 0.248413
Si Si5 0.824571 0.706869 0.489891
Si Si6 0.323775 0.412997 0.910356
Si Si7 0.273737 0.694056 0.411546
Si Si8 0.025125 0.238146 0.673175
O O1 0.716333 0.158046 0.551268
O O2 0.796224 0.909545 0.561011
O O3 0.736947 0.800543 0.314571
O O4 0.098979 0.086558 0.831401
O O5 0.726682 0.350759 0.333039
O O6 0.924890 0.689219 0.635165
O O7 0.018340 0.360183 0.479302
O O8 0.160822 0.527533 0.814642
O O9 0.448554 0.329611 0.203091
O O10 0.253551 0.466831 0.230584
O O11 0.504394 0.234757 0.314284
O O12 0.839394 0.273277 0.492922
O O13 0.500000 0.000000 0.000000
O O14 0.580097 0.539302 0.186315
O O15 0.256205 0.362347 0.902743
O O16 0.056194 0.703788 0.283832
O O17 0.000000 0.000000 0.500000
#
# Coordination Sequence:
#
# PCOD9082274 Si02
#       8
#     2   2   2   2   2   2   2   2
#     4  11  20  34  55  80 109 145 189 223 265 330
#     4   9  19  33  47  75 112 140 176 225 271 317
#     4  10  22  38  55  83 111 146 184 220 284 331
#     4  10  20  32  55  82 108 138 176 230 279 321
#     4  10  21  33  51  79 112 148 181 222 279 317
#     4  10  20  33  53  81 113 141 178 228 275 322
#     4  10  22  37  57  80 114 147 177 228 277 330
#     4  10  19  33  53  84 109 133 178 223 280 323
#
# _framework density 19.965336000000001
#
# number of rings (size 3 to 8) (size 9 to 14) (size 15 to 20)
#    0.000    2.000    1.250    4.125    1.750    4.000 
#    0.000    0.000    0.000    3.000    0.000    9.625 
#    0.000    0.000    0.000    0.000    0.000    0.000 
#
# Total GULP energy -89257.899618 kJ/mol
# GULP energy per Si atom -5578.618726 kJ/mol
# Density = 1.991989 g / cm^3
# Si number density = 19.965336 Si / 1000 Ang^3
#
#
#
# Elastic Constant Matrix: (Units=GPa)
#
#
# Indices 1 2 3 4 5 6 
#
# 1 103.0725 47.5367 27.3446 6.3041 29.6351 10.1061
# 2 47.5367 107.6799 17.6240 -8.8595 11.1097 21.8356
# 3 27.3446 17.6240 75.9891 -13.4522 24.9801 -0.3647
# 4 6.3041 -8.8595 -13.4522 16.3775 3.5173 2.0472
# 5 29.6351 11.1097 24.9801 3.5173 27.3537 1.3979
# 6 10.1061 21.8356 -0.3647 2.0472 1.3979 40.0300
#
#
#
# Elastic Compliance Matrix: (Units=1/GPa)
#
#
# Indices 1 2 3 4 5 6 
#
# 1 0.017916 -0.007016 -0.002096 -0.009560 -0.013429 0.000243
# 2 -0.007016 0.014727 0.001982 0.013494 -0.001574 -0.006879
# 3 -0.002096 0.001982 0.028341 0.031371 -0.028403 -0.000906
# 4 -0.009560 0.013494 0.031371 0.106870 -0.037063 -0.008832
# 5 -0.013429 -0.001574 -0.028403 -0.037063 0.082297 0.003012
# 6 0.000243 -0.006879 -0.000906 -0.008832 0.003012 0.029011
#
#
# Mechanical properties :
#
#
# Convention : Reuss Voigt Hill
#
# Bulk Modulus (GPa) = 21.40279 52.41690 36.90985
# Shear Modulus (GPa) = 16.18138 29.70132 22.94135
#
# Velocity S-wave (km/s) = 2.84997 3.86118 3.39345
# Velocity P-wave (km/s) = 4.64468 6.79627 5.82075
#
# Compressibility (1/GPa) = 0.04672287
#
# Stress axis : x y z
#
# Youngs Moduli (GPa) = 55.81583 67.90050 35.28514
#
# Poissons Ratio (x) = 0.47642 0.07397
# Poissons Ratio (y) = 0.39163 -0.06994
# Poissons Ratio (z) = 0.11701 -0.13459
#
# Static dielectric constant tensor:
#      x y z
#    x 1.752090 0.041830 -0.000980 
#    y 0.041830 1.746450 -0.029900 
#    z -0.000980 -0.029900 1.708470 
# 
# From -- ./inp_files/425585.got.cif
#   From: 2010.05.17/outbox.cif.g08.bks.cpg/sg2_213_cif.got.tgz:425585.got - 2010.06.03 11:33:40.
