data_PCOD9082664
_publ_section_title
;
Structure prediction by ZEFSAII (Michael W. Deem and Ramdas Pophale) SiO2 
 PCOD9082664
Probable space group: P -1
;
_chemical_formula_sum "Si O2"
_cell_formula_units_Z 12
_cell_length_a 8.835661
_cell_length_b 11.539092
_cell_length_c 5.903476
_cell_angle_alpha 110.511133
_cell_angle_beta 127.147580
_cell_angle_gamma 72.344653
_cell_volume 445.940272
_symmetry_space_group_name_H-M "P -1"
_symmetry_group_IT_number 2
_symmetry_cell_setting 'triclinic'
loop_
_space_group_symop_operation_xyz
x,y,z
-x,-y,-z
loop_
_atom_site_type_symbol
_atom_site_label
_atom_site_fract_x
_atom_site_fract_y
_atom_site_fract_z
Si Si1 0.102613 0.157859 0.558992
Si Si2 0.346793 0.609726 0.022868
Si Si3 0.438126 0.862271 0.049613
Si Si4 0.839743 0.897707 0.915419
Si Si5 0.450560 0.280310 0.334014
Si Si6 0.881636 0.569449 0.141434
O O1 0.334506 0.132375 0.728955
O O2 0.046175 0.108760 0.225732
O O3 0.060711 0.113210 0.749522
O O4 0.040268 0.306110 0.615640
O O5 0.367784 0.738982 0.007742
O O6 0.409138 0.643063 0.353741
O O7 0.158438 0.541838 0.805996
O O8 0.500000 0.500000 0.000000
O O9 0.317619 0.982347 0.123240
O O10 0.420840 0.835371 0.748279
O O11 0.713822 0.779533 0.716126
O O12 0.323648 0.369337 0.105605
O O13 0.000000 0.500000 0.000000
#
# Coordination Sequence:
#
# PCOD9082664 Si02
#       6
#     2   2   2   2   2   2
#     4  10  19  35  56  83 119 151 198 244 290 351
#     4  12  20  36  58  86 122 148 202 249 298 346
#     4  10  20  30  57  85 115 150 193 248 295 349
#     4  10  19  33  56  92 114 151 195 253 297 347
#     4  10  20  35  59  84 120 149 196 252 291 347
#     4  10  22  39  59  85 120 162 197 239 305 363
#
# _framework density 26.909434000000001
#
# number of rings (size 3 to 8) (size 9 to 14) (size 15 to 20)
#    0.000    2.000    5.000    3.000    2.333    0.000 
#    0.000    7.500    0.000    5.000    0.000    0.000 
#    0.000    0.000    0.000    0.000    0.000    0.000 
#
# Total GULP energy -67054.145817 kJ/mol
# GULP energy per Si atom -5587.845485 kJ/mol
# Density = 2.684819 g / cm^3
# Si number density = 26.909434 Si / 1000 Ang^3
#
#
#
# Elastic Constant Matrix: (Units=GPa)
#
#
# Indices 1 2 3 4 5 6 
#
# 1 80.3184 33.5426 25.2658 -10.8526 -13.4497 0.0851
# 2 33.5426 155.8180 37.8795 3.4403 -22.7742 4.7246
# 3 25.2658 37.8795 162.8927 20.9485 -24.9524 -7.0356
# 4 -10.8526 3.4403 20.9485 50.1944 3.5421 -19.8585
# 5 -13.4497 -22.7742 -24.9524 3.5421 51.8346 2.6683
# 6 0.0851 4.7246 -7.0356 -19.8585 2.6683 42.2044
#
#
#
# Elastic Compliance Matrix: (Units=1/GPa)
#
#
# Indices 1 2 3 4 5 6 
#
# 1 0.015159 -0.002757 -0.002082 0.005147 0.001251 0.002274
# 2 -0.002757 0.007674 -0.000842 -0.001720 0.002469 -0.001959
# 3 -0.002082 -0.000842 0.007622 -0.004087 0.003077 -0.000748
# 4 0.005147 -0.001720 -0.004087 0.028314 -0.003996 0.013076
# 5 0.001251 0.002469 0.003077 -0.003996 0.022614 -0.003076
# 6 0.002274 -0.001959 -0.000748 0.013076 -0.003076 0.030131
#
#
# Mechanical properties :
#
#
# Convention : Reuss Voigt Hill
#
# Bulk Modulus (GPa) = 52.37396 65.82276 59.09836
# Shear Modulus (GPa) = 38.68689 49.00276 43.84482
#
# Velocity S-wave (km/s) = 3.79578 4.27198 4.04090
# Velocity P-wave (km/s) = 6.22221 6.98906 6.61675
#
# Compressibility (1/GPa) = 0.01909346
#
# Stress axis : x y z
#
# Youngs Moduli (GPa) = 65.96604 130.30606 131.19239
#
# Poissons Ratio (x) = 0.35923 0.27318
# Poissons Ratio (y) = 0.18186 0.11048
# Poissons Ratio (z) = 0.13736 0.10973
#
# Static dielectric constant tensor:
#      x y z
#    x 2.145110 0.058440 -0.042860 
#    y 0.058440 2.061140 -0.062180 
#    z -0.042860 -0.062180 2.213660 
# 
# From -- ./inp_files/25760.got.cif
#   From: 2010.05.17/outbox.cif.g08.bks.cpg/sg2_13_cif.got.tgz:25760.got - 2010.06.03 11:33:40.
