data_PCOD9082061
_publ_section_title
;
Structure prediction by ZEFSAII (Michael W. Deem and Ramdas Pophale) SiO2 
 PCOD9082061
Probable space group: P -1
;
_chemical_formula_sum "Si O2"
_cell_formula_units_Z 14
_cell_length_a 9.049367
_cell_length_b 9.844490
_cell_length_c 17.484297
_cell_angle_alpha 33.735771
_cell_angle_beta 125.882876
_cell_angle_gamma 139.931803
_cell_volume 551.291126
_symmetry_space_group_name_H-M "P -1"
_symmetry_group_IT_number 2
_symmetry_cell_setting 'triclinic'
loop_
_space_group_symop_operation_xyz
x,y,z
-x,-y,-z
loop_
_atom_site_type_symbol
_atom_site_label
_atom_site_fract_x
_atom_site_fract_y
_atom_site_fract_z
Si Si1 0.042974 0.944637 0.200032
Si Si2 0.601258 0.812998 0.114007
Si Si3 0.755396 0.229674 0.435943
Si Si4 0.792225 0.668144 0.478753
Si Si5 0.404946 0.578224 0.314380
Si Si6 0.510646 0.920415 0.718630
Si Si7 0.659930 0.915019 0.916431
O O1 0.872331 0.028572 0.120153
O O2 0.876925 0.577215 0.338854
O O3 0.283621 0.084025 0.249415
O O4 0.127478 0.998308 0.111787
O O5 0.448069 0.541648 0.257096
O O6 0.500000 0.000000 0.000000
O O7 0.606042 0.737805 0.061971
O O8 0.943854 0.175102 0.531449
O O9 0.500000 0.000000 0.500000
O O10 0.704714 0.222641 0.333753
O O11 0.661336 0.759488 0.345553
O O12 0.752344 0.691425 0.545435
O O13 0.647353 0.293146 0.596045
O O14 0.310742 0.776663 0.195785
O O15 0.460473 0.766350 0.859650
#
# Coordination Sequence:
#
# PCOD9082061 Si02
#       7
#     2   2   2   2   2   2   2
#     4   9  20  37  59  81 117 147 191 237 280 338
#     4  10  19  32  65  87 103 152 200 232 285 337
#     4  11  22  34  57  89 118 148 195 230 280 346
#     4   9  19  36  56  83 116 155 185 231 287 342
#     4   9  17  33  58  84 115 149 186 233 285 332
#     4   8  19  35  57  81 112 150 186 232 286 327
#     4   8  17  37  57  85 106 151 198 223 286 337
#
# _framework density 25.394931
#
# number of rings (size 3 to 8) (size 9 to 14) (size 15 to 20)
#    0.857    2.000    1.429    0.429    4.000    1.143 
#    0.000    7.143    0.000    1.714    0.000    0.000 
#    0.000    0.000    0.000    0.000    0.000    0.000 
#
# Total GULP energy -78063.446903 kJ/mol
# GULP energy per Si atom -5575.960493 kJ/mol
# Density = 2.533713 g / cm^3
# Si number density = 25.394931 Si / 1000 Ang^3
#
#
#
# Elastic Constant Matrix: (Units=GPa)
#
#
# Indices 1 2 3 4 5 6 
#
# 1 149.3962 21.7119 50.6857 1.3882 0.3725 40.7094
# 2 21.7119 76.0981 18.1855 -6.8663 12.8158 18.5209
# 3 50.6857 18.1855 70.6373 1.9443 -23.6389 4.5264
# 4 1.3882 -6.8663 1.9443 25.9355 1.0916 1.9560
# 5 0.3725 12.8158 -23.6389 1.0916 66.4877 14.7673
# 6 40.7094 18.5209 4.5264 1.9560 14.7673 25.2914
#
#
#
# Elastic Compliance Matrix: (Units=1/GPa)
#
#
# Indices 1 2 3 4 5 6 
#
# 1 0.019895 0.006173 -0.013058 0.004156 0.001903 -0.035639
# 2 0.006173 0.020029 -0.009156 0.007429 -0.002349 -0.022167
# 3 -0.013058 -0.009156 0.027312 -0.005512 0.007437 0.018920
# 4 0.004156 0.007429 -0.005512 0.041797 -0.001044 -0.013767
# 5 0.001903 -0.002349 0.007437 -0.001044 0.021509 -0.015153
# 6 -0.035639 -0.022167 0.018920 -0.013767 -0.015153 0.119663
#
#
# Mechanical properties :
#
#
# Convention : Reuss Voigt Hill
#
# Bulk Modulus (GPa) = 28.44719 53.03309 40.74014
# Shear Modulus (GPa) = 17.00650 37.24616 27.12633
#
# Velocity S-wave (km/s) = 2.59063 3.83388 3.27185
# Velocity P-wave (km/s) = 4.49162 6.36607 5.50915
#
# Compressibility (1/GPa) = 0.03515286
#
# Stress axis : x y z
#
# Youngs Moduli (GPa) = 50.26429 49.92817 36.61389
#
# Poissons Ratio (x) = -0.30819 0.47812
# Poissons Ratio (y) = -0.31026 0.33523
# Poissons Ratio (z) = 0.65637 0.45713
#
# Static dielectric constant tensor:
#      x y z
#    x 2.043910 -0.060560 -0.026860 
#    y -0.060560 1.985490 0.018760 
#    z -0.026860 0.018760 2.099640 
# 
# From -- ./inp_files/558392.got.cif
#   From: 2010.05.17/outbox.cif.g08.bks.cpg/sg2_280_cif.got.tgz:558392.got - 2010.06.03 11:33:40.
