data_PCOD9082548
_publ_section_title
;
Structure prediction by ZEFSAII (Michael W. Deem and Ramdas Pophale) SiO2 
 PCOD9082548
Probable space group: P -1
;
_chemical_formula_sum "Si O2"
_cell_formula_units_Z 16
_cell_length_a 10.412884
_cell_length_b 5.757943
_cell_length_c 14.325579
_cell_angle_alpha 128.470133
_cell_angle_beta 86.728959
_cell_angle_gamma 100.244791
_cell_volume 660.149338
_symmetry_space_group_name_H-M "P -1"
_symmetry_group_IT_number 2
_symmetry_cell_setting 'triclinic'
loop_
_space_group_symop_operation_xyz
x,y,z
-x,-y,-z
loop_
_atom_site_type_symbol
_atom_site_label
_atom_site_fract_x
_atom_site_fract_y
_atom_site_fract_z
Si Si1 0.465508 0.872134 0.827304
Si Si2 0.657968 0.034041 0.504547
Si Si3 0.338838 0.577095 0.028812
Si Si4 0.148269 0.102023 0.809394
Si Si5 0.624845 0.392714 0.420882
Si Si6 0.694979 0.517659 0.777907
Si Si7 0.894752 0.090670 0.933164
Si Si8 0.175214 0.610278 0.805837
O O1 0.431128 0.859253 0.715750
O O2 0.579747 0.674569 0.779991
O O3 0.331135 0.717682 0.843185
O O4 0.527674 0.198302 0.947717
O O5 0.697708 0.233218 0.458600
O O6 0.705703 0.233663 0.642765
O O7 0.500000 0.000000 0.500000
O O8 0.688559 0.697815 0.436789
O O9 0.346946 0.544103 0.130159
O O10 0.220797 0.759148 0.066361
O O11 0.279830 0.275941 0.899373
O O12 0.142869 0.262012 0.750014
O O13 0.025394 0.179344 0.891198
O O14 0.145312 0.749734 0.742323
O O15 0.500000 0.500000 0.500000
O O16 0.834159 0.739680 0.835345
O O17 0.896835 0.206008 0.068869
#
# Coordination Sequence:
#
# PCOD9082548 Si02
#       8
#     2   2   2   2   2   2   2   2
#     4  11  24  35  57  91 127 151 192 231 302 369
#     4  10  19  33  56  80 118 146 191 229 292 339
#     4  10  21  35  58  83 122 158 190 238 290 342
#     4  11  24  43  60  80 118 162 208 242 277 331
#     4  10  19  36  55  80 117 155 182 236 278 357
#     4  11  21  34  59  91 120 155 191 242 291 353
#     4  10  23  40  59  84 118 155 209 245 276 336
#     4  11  24  40  59  87 117 167 187 243 292 343
#
# _framework density 24.236941000000002
#
# number of rings (size 3 to 8) (size 9 to 14) (size 15 to 20)
#    0.000    1.500    3.750    3.375    5.250    5.000 
#    0.000    0.000    0.000    0.000    0.000    5.250 
#    0.000    0.000    0.000    0.000    0.000    0.000 
#
# Total GULP energy -89411.396677 kJ/mol
# GULP energy per Si atom -5588.212292 kJ/mol
# Density = 2.418178 g / cm^3
# Si number density = 24.236941 Si / 1000 Ang^3
#
#
#
# Elastic Constant Matrix: (Units=GPa)
#
#
# Indices 1 2 3 4 5 6 
#
# 1 81.2326 27.8049 14.2384 5.8690 -12.0066 18.2750
# 2 27.8049 184.0724 38.0394 -5.7587 -7.5250 -15.4533
# 3 14.2384 38.0394 91.2068 8.8980 -3.3218 -15.2171
# 4 5.8690 -5.7587 8.8980 40.6760 -4.9427 0.2317
# 5 -12.0066 -7.5250 -3.3218 -4.9427 21.1172 0.6979
# 6 18.2750 -15.4533 -15.2171 0.2317 0.6979 41.9251
#
#
#
# Elastic Compliance Matrix: (Units=1/GPa)
#
#
# Indices 1 2 3 4 5 6 
#
# 1 0.017138 -0.002499 -0.002807 -0.001130 0.008463 -0.009545
# 2 -0.002499 0.006556 -0.002031 0.001831 0.000933 0.002743
# 3 -0.002807 -0.002031 0.013396 -0.002976 -0.001086 0.005372
# 4 -0.001130 0.001831 -0.002976 0.026353 0.005715 -0.000153
# 5 0.008463 0.000933 -0.001086 0.005715 0.053820 -0.004667
# 6 -0.009545 0.002743 0.005372 -0.000153 -0.004667 0.031052
#
#
# Mechanical properties :
#
#
# Convention : Reuss Voigt Hill
#
# Bulk Modulus (GPa) = 44.61305 57.40857 51.01081
# Shear Modulus (GPa) = 29.33225 39.17227 34.25226
#
# Velocity S-wave (km/s) = 3.48261 4.02459 3.76337
# Velocity P-wave (km/s) = 5.88374 6.73307 6.32268
#
# Compressibility (1/GPa) = 0.02241497
#
# Stress axis : x y z
#
# Youngs Moduli (GPa) = 58.35108 152.54154 74.64740
#
# Poissons Ratio (x) = 0.38125 0.20954
# Poissons Ratio (y) = 0.14584 0.15160
# Poissons Ratio (z) = 0.16379 0.30980
#
# Static dielectric constant tensor:
#      x y z
#    x 1.998610 -0.066090 -0.044610 
#    y -0.066090 2.118190 0.001830 
#    z -0.044610 0.001830 1.897090 
# 
# From -- ./inp_files/510579.got.cif
#   From: 2010.05.17/outbox.cif.g08.bks.cpg/sg2_256_cif.got.tgz:510579.got - 2010.06.03 11:33:40.
