data_PCOD9082699
_publ_section_title
;
Structure prediction by ZEFSAII (Michael W. Deem and Ramdas Pophale) SiO2 
 PCOD9082699
Probable space group: P -1
;
_chemical_formula_sum "Si O2"
_cell_formula_units_Z 16
_cell_length_a 9.841187
_cell_length_b 24.770770
_cell_length_c 15.823955
_cell_angle_alpha 26.786149
_cell_angle_beta 26.357292
_cell_angle_gamma 40.031942
_cell_volume 760.434930
_symmetry_space_group_name_H-M "P -1"
_symmetry_group_IT_number 2
_symmetry_cell_setting 'triclinic'
loop_
_space_group_symop_operation_xyz
x,y,z
-x,-y,-z
loop_
_atom_site_type_symbol
_atom_site_label
_atom_site_fract_x
_atom_site_fract_y
_atom_site_fract_z
Si Si1 0.302368 0.407513 0.176502
Si Si2 0.039165 0.723599 0.313123
Si Si3 0.625021 0.090779 0.726700
Si Si4 0.663669 0.815367 0.763779
Si Si5 0.340548 0.070937 0.734386
Si Si6 0.231486 0.304220 0.674012
Si Si7 0.393748 0.823816 0.723775
Si Si8 0.319496 0.465300 0.897200
O O1 0.461234 0.293159 0.221882
O O2 0.990153 0.358136 0.472589
O O3 0.500000 0.500000 0.000000
O O4 0.298710 0.474759 0.996614
O O5 0.757818 0.798675 0.373873
O O6 0.953568 0.665562 0.349876
O O7 0.373015 0.808412 0.999070
O O8 0.498917 0.037330 0.779877
O O9 0.484850 0.215953 0.641847
O O10 0.998627 0.122226 0.480627
O O11 0.500000 0.000000 0.000000
O O12 0.568319 0.867074 0.654061
O O13 0.668390 0.671963 0.944695
O O14 0.547236 0.084292 0.515907
O O15 0.000000 0.000000 0.000000
O O16 0.400505 0.433369 0.433757
O O17 0.964814 0.224508 0.989656
O O18 0.000000 0.500000 0.000000
#
# Coordination Sequence:
#
# PCOD9082699 Si02
#       8
#     2   2   2   2   2   2   2   2
#     4  10  19  33  57  82 115 150 191 226 271 330
#     4   9  20  37  60  85 113 150 193 234 273 340
#     4  11  23  40  61  83 115 149 188 243 289 336
#     4  10  21  38  59  88 116 148 193 231 284 336
#     4  10  21  41  62  82 113 149 191 239 286 337
#     4  10  20  38  59  85 116 154 192 227 285 336
#     4   9  21  36  59  86 110 150 193 233 273 339
#     4  11  21  35  57  84 123 154 183 231 281 341
#
# _framework density 21.040590000000002
#
# number of rings (size 3 to 8) (size 9 to 14) (size 15 to 20)
#    0.000    2.000    2.500    0.750    1.750    2.500 
#    2.250    5.625    0.000    0.000    0.000    0.000 
#    0.000    0.000    0.000    0.000    0.000    0.000 
#
# Total GULP energy -89210.459207 kJ/mol
# GULP energy per Si atom -5575.653700 kJ/mol
# Density = 2.099270 g / cm^3
# Si number density = 21.040590 Si / 1000 Ang^3
#
#
#
# Elastic Constant Matrix: (Units=GPa)
#
#
# Indices 1 2 3 4 5 6 
#
# 1 114.1503 15.1075 65.2333 11.5924 -1.3473 -6.0300
# 2 15.1075 43.1517 16.7544 7.5730 2.6333 -9.2539
# 3 65.2333 16.7544 143.2899 28.0287 -7.5945 -3.8611
# 4 11.5924 7.5730 28.0287 39.1036 1.7359 0.6577
# 5 -1.3473 2.6333 -7.5945 1.7359 34.6385 2.7723
# 6 -6.0300 -9.2539 -3.8611 0.6577 2.7723 22.3679
#
#
#
# Elastic Compliance Matrix: (Units=1/GPa)
#
#
# Indices 1 2 3 4 5 6 
#
# 1 0.012116 -0.001856 -0.005423 0.000660 -0.000741 0.001634
# 2 -0.001856 0.027673 -0.001524 -0.003762 -0.003217 0.011195
# 3 -0.005423 -0.001524 0.010939 -0.006049 0.002635 -0.000353
# 4 0.000660 -0.003762 -0.006049 0.030595 -0.002305 -0.003037
# 5 -0.000741 -0.003217 0.002635 -0.002305 0.030158 -0.004746
# 6 0.001634 0.011195 -0.000353 -0.003037 -0.004746 0.050396
#
#
# Mechanical properties :
#
#
# Convention : Reuss Voigt Hill
#
# Bulk Modulus (GPa) = 30.19133 54.97581 42.58357
# Shear Modulus (GPa) = 26.24345 32.78845 29.51595
#
# Velocity S-wave (km/s) = 3.53551 3.95187 3.74947
# Velocity P-wave (km/s) = 5.57196 6.85625 6.24720
#
# Compressibility (1/GPa) = 0.03312209
#
# Stress axis : x y z
#
# Youngs Moduli (GPa) = 82.53754 36.13653 91.41352
#
# Poissons Ratio (x) = 0.06708 0.49574
# Poissons Ratio (y) = 0.15322 0.13927
# Poissons Ratio (z) = 0.44760 0.05505
#
# Static dielectric constant tensor:
#      x y z
#    x 1.809620 0.031440 0.029090 
#    y 0.031440 1.812700 -0.035650 
#    z 0.029090 -0.035650 1.801250 
# 
# From -- ./inp_files/179435.got.cif
#   From: 2010.05.17/outbox.cif.g08.bks.cpg/sg2_90_cif.got.tgz:179435.got - 2010.06.03 11:33:40.
