data_PCOD9082529
_publ_section_title
;
Structure prediction by ZEFSAII (Michael W. Deem and Ramdas Pophale) SiO2 
 PCOD9082529
Probable space group: P -1
;
_chemical_formula_sum "Si O2"
_cell_formula_units_Z 14
_cell_length_a 13.202438
_cell_length_b 8.918833
_cell_length_c 18.664659
_cell_angle_alpha 35.427348
_cell_angle_beta 28.760653
_cell_angle_gamma 31.308174
_cell_volume 530.090109
_symmetry_space_group_name_H-M "P -1"
_symmetry_group_IT_number 2
_symmetry_cell_setting 'triclinic'
loop_
_space_group_symop_operation_xyz
x,y,z
-x,-y,-z
loop_
_atom_site_type_symbol
_atom_site_label
_atom_site_fract_x
_atom_site_fract_y
_atom_site_fract_z
Si Si1 0.253267 0.579271 0.581266
Si Si2 0.774195 0.986396 0.979136
Si Si3 0.265188 0.555612 0.905629
Si Si4 0.186248 0.449286 0.289119
Si Si5 0.740526 0.829922 0.809685
Si Si6 0.316164 0.975526 0.816080
Si Si7 0.647704 0.635378 0.555955
O O1 0.500000 0.500000 0.500000
O O2 0.331008 0.512329 0.477191
O O3 0.981945 0.867639 0.647567
O O4 0.199579 0.321113 0.740505
O O5 0.769706 0.271656 0.835603
O O6 0.553699 0.940977 0.106173
O O7 0.708135 0.087011 0.062936
O O8 0.046495 0.706849 0.924707
O O9 0.210908 0.829908 0.886036
O O10 0.515914 0.507086 0.736712
O O11 0.263610 0.316609 0.054075
O O12 0.209483 0.351324 0.227908
O O13 0.392409 0.176503 0.312756
O O14 0.919317 0.544625 0.442842
O O15 0.500000 0.000000 0.500000
#
# Coordination Sequence:
#
# PCOD9082529 Si02
#       7
#     2   2   2   2   2   2   2
#     4  11  24  43  62  82 121 168 202 238 292 364
#     4  11  18  31  58  95 120 150 197 253 294 356
#     4  12  19  33  61  91 122 150 191 252 311 333
#     4  10  19  33  55  95 126 148 195 253 298 353
#     4  10  20  37  58  85 117 154 204 243 290 353
#     4  11  19  33  61  92 117 157 202 246 299 349
#     4  11  22  36  57  93 124 153 195 250 302 351
#
# _framework density 26.410602999999998
#
# number of rings (size 3 to 8) (size 9 to 14) (size 15 to 20)
#    0.000    1.143    7.143    2.143    0.000    0.571 
#    2.571    7.143    0.000    0.857    0.000    0.000 
#    0.000    0.000    0.000    0.000    0.000    0.000 
#
# Total GULP energy -78271.180612 kJ/mol
# GULP energy per Si atom -5590.798615 kJ/mol
# Density = 2.635049 g / cm^3
# Si number density = 26.410603 Si / 1000 Ang^3
#
#
#
# Elastic Constant Matrix: (Units=GPa)
#
#
# Indices 1 2 3 4 5 6 
#
# 1 82.1902 16.2030 43.9161 6.4823 -11.0771 -20.4252
# 2 16.2030 68.8040 23.5253 15.9517 0.6955 -29.3373
# 3 43.9161 23.5253 161.0690 36.0864 7.4515 -8.3866
# 4 6.4823 15.9517 36.0864 49.9512 -5.5778 -20.7440
# 5 -11.0771 0.6955 7.4515 -5.5778 24.0493 11.5404
# 6 -20.4252 -29.3373 -8.3866 -20.7440 11.5404 42.8488
#
#
#
# Elastic Compliance Matrix: (Units=1/GPa)
#
#
# Indices 1 2 3 4 5 6 
#
# 1 0.018234 -0.000132 -0.006370 0.006672 0.007860 0.008468
# 2 -0.000132 0.022768 -0.002138 0.000709 -0.008391 0.017710
# 3 -0.006370 -0.002138 0.010173 -0.008612 -0.005532 -0.005189
# 4 0.006672 0.000709 -0.008612 0.032506 0.005465 0.016245
# 5 0.007860 -0.008391 -0.005532 0.005465 0.055853 -0.015478
# 6 0.008468 0.017710 -0.005189 0.016245 -0.015478 0.050518
#
#
# Mechanical properties :
#
#
# Convention : Reuss Voigt Hill
#
# Bulk Modulus (GPa) = 29.50208 53.26133 41.38171
# Shear Modulus (GPa) = 22.86985 38.59778 30.73382
#
# Velocity S-wave (km/s) = 2.94587 3.82704 3.41499
# Velocity P-wave (km/s) = 4.77134 6.30387 5.59037
#
# Compressibility (1/GPa) = 0.03389591
#
# Stress axis : x y z
#
# Youngs Moduli (GPa) = 54.84293 43.92105 98.30136
#
# Poissons Ratio (x) = 0.00578 0.62616
# Poissons Ratio (y) = 0.00722 0.21017
# Poissons Ratio (z) = 0.34934 0.09390
#
# Static dielectric constant tensor:
#      x y z
#    x 2.058600 0.088760 -0.011260 
#    y 0.088760 1.950560 0.092510 
#    z -0.011260 0.092510 2.078200 
# 
# From -- ./inp_files/344919.got.cif
#   From: 2010.05.17/outbox.cif.g08.bks.cpg/sg2_173_cif.got.tgz:344919.got - 2010.06.03 11:33:40.
