data_PCOD9082396
_publ_section_title
;
Structure prediction by ZEFSAII (Michael W. Deem and Ramdas Pophale) SiO2 
 PCOD9082396
Probable space group: P -1
;
_chemical_formula_sum "Si O2"
_cell_formula_units_Z 14
_cell_length_a 8.825329
_cell_length_b 9.426866
_cell_length_c 8.559149
_cell_angle_alpha 75.565474
_cell_angle_beta 92.432422
_cell_angle_gamma 84.491482
_cell_volume 684.788393
_symmetry_space_group_name_H-M "P -1"
_symmetry_group_IT_number 2
_symmetry_cell_setting 'triclinic'
loop_
_space_group_symop_operation_xyz
x,y,z
-x,-y,-z
loop_
_atom_site_type_symbol
_atom_site_label
_atom_site_fract_x
_atom_site_fract_y
_atom_site_fract_z
Si Si1 0.848838 0.096818 0.520206
Si Si2 0.273913 0.509258 0.878230
Si Si3 0.527959 0.385726 0.676051
Si Si4 0.716169 0.602956 0.756024
Si Si5 0.589049 0.207127 0.229708
Si Si6 0.985049 0.377961 0.406273
Si Si7 0.438291 0.953644 0.336885
O O1 0.731428 0.143857 0.360585
O O2 0.745133 0.023664 0.660857
O O3 0.908521 0.249862 0.525318
O O4 0.000000 0.000000 0.500000
O O5 0.395357 0.422743 0.788904
O O6 0.348306 0.657346 0.894895
O O7 0.124807 0.560502 0.756560
O O8 0.244992 0.415623 0.054453
O O9 0.500000 0.500000 0.500000
O O10 0.681811 0.441863 0.737562
O O11 0.530101 0.217657 0.664109
O O12 0.556798 0.707259 0.710749
O O13 0.848020 0.665933 0.646545
O O14 0.517608 0.065245 0.197741
O O15 0.000000 0.500000 0.500000
O O16 0.500000 0.000000 0.500000
#
# Coordination Sequence:
#
# PCOD9082396 Si02
#       7
#     2   2   2   2   2   2   2
#     4  10  20  33  51  82 115 143 181 234 287 332
#     4  10  22  39  58  85 117 153 191 235 288 341
#     4  11  20  35  59  86 113 148 196 241 278 336
#     4  11  21  39  59  82 118 157 190 234 286 343
#     4   9  19  35  56  79 110 153 191 224 280 340
#     4  11  22  36  59  88 114 146 191 239 285 337
#     4  10  19  33  54  84 115 148 186 239 290 333
#
# _framework density 20.444272000000002
#
# number of rings (size 3 to 8) (size 9 to 14) (size 15 to 20)
#    0.000    1.714    0.000    9.000    0.000    3.429 
#    0.000    2.857    0.000    0.000    0.000   17.000 
#    0.000    0.000    0.000    0.000    0.000    0.000 
#
# Total GULP energy -77999.249310 kJ/mol
# GULP energy per Si atom -5571.374951 kJ/mol
# Density = 2.039774 g / cm^3
# Si number density = 20.444272 Si / 1000 Ang^3
#
#
#
# Elastic Constant Matrix: (Units=GPa)
#
#
# Indices 1 2 3 4 5 6 
#
# 1 115.8145 32.9748 7.2783 -2.4153 -2.3736 4.8946
# 2 32.9748 146.3730 12.2127 1.9936 3.5686 16.2205
# 3 7.2783 12.2127 51.8801 3.2537 -2.0484 2.8222
# 4 -2.4153 1.9936 3.2537 16.0816 3.4052 1.1065
# 5 -2.3736 3.5686 -2.0484 3.4052 22.4080 -6.2520
# 6 4.8946 16.2205 2.8222 1.1065 -6.2520 37.2053
#
#
#
# Elastic Compliance Matrix: (Units=1/GPa)
#
#
# Indices 1 2 3 4 5 6 
#
# 1 0.009336 -0.002058 -0.000883 0.001647 0.000942 -0.000155
# 2 -0.002058 0.007867 -0.001461 -0.000212 -0.002540 -0.003469
# 3 -0.000883 -0.001461 0.020144 -0.004568 0.002619 -0.000199
# 4 0.001647 -0.000212 -0.004568 0.066014 -0.011254 -0.003632
# 5 0.000942 -0.002540 0.002619 -0.011254 0.049725 0.009475
# 6 -0.000155 -0.003469 -0.000199 -0.003632 0.009475 0.030126
#
#
# Mechanical properties :
#
#
# Convention : Reuss Voigt Hill
#
# Bulk Modulus (GPa) = 35.03612 46.55547 40.79580
# Shear Modulus (GPa) = 24.81029 32.57908 28.69468
#
# Velocity S-wave (km/s) = 3.48739 3.99627 3.75047
# Velocity P-wave (km/s) = 5.77845 6.64190 6.22516
#
# Compressibility (1/GPa) = 0.02854197
#
# Stress axis : x y z
#
# Youngs Moduli (GPa) = 107.11116 127.12031 49.64305
#
# Poissons Ratio (x) = 0.26159 0.04384
# Poissons Ratio (y) = 0.22042 0.07255
# Poissons Ratio (z) = 0.09458 0.18577
#
# Static dielectric constant tensor:
#      x y z
#    x 1.748230 0.017750 0.001680 
#    y 0.017750 1.812650 -0.041180 
#    z 0.001680 -0.041180 1.772620 
# 
# From -- ./inp_files/154026.got.cif
#   From: 2010.05.17/outbox.cif.g08.bks.cpg/sg2_78_cif.got.tgz:154026.got - 2010.06.03 11:33:40.
