data_PCOD9082090
_publ_section_title
;
Structure prediction by ZEFSAII (Michael W. Deem and Ramdas Pophale) SiO2 
 PCOD9082090
Probable space group: P -1
;
_chemical_formula_sum "Si O2"
_cell_formula_units_Z 16
_cell_length_a 13.028329
_cell_length_b 11.888607
_cell_length_c 13.920994
_cell_angle_alpha 77.307888
_cell_angle_beta 115.103665
_cell_angle_gamma 42.582490
_cell_volume 655.148086
_symmetry_space_group_name_H-M "P -1"
_symmetry_group_IT_number 2
_symmetry_cell_setting 'triclinic'
loop_
_space_group_symop_operation_xyz
x,y,z
-x,-y,-z
loop_
_atom_site_type_symbol
_atom_site_label
_atom_site_fract_x
_atom_site_fract_y
_atom_site_fract_z
Si Si1 0.217581 0.131751 0.822091
Si Si2 0.375905 0.002727 0.575318
Si Si3 0.527523 0.500644 0.172789
Si Si4 0.753620 0.862195 0.726811
Si Si5 0.694751 0.840328 0.962300
Si Si6 0.770292 0.101864 0.209452
Si Si7 0.781089 0.427960 0.947363
Si Si8 0.311596 0.408203 0.730772
O O1 0.372662 0.078292 0.824923
O O2 0.088237 0.323873 0.827932
O O3 0.030830 0.204352 0.683626
O O4 0.549041 0.648299 0.909781
O O5 0.302225 0.062034 0.422100
O O6 0.065822 0.264726 0.468631
O O7 0.479113 0.037009 0.625308
O O8 0.830430 0.145369 0.304353
O O9 0.633754 0.508863 0.274528
O O10 0.306845 0.615603 0.116817
O O11 0.311056 0.754719 0.948724
O O12 0.862088 0.876870 0.816693
O O13 0.654810 0.644033 0.782157
O O14 0.535293 0.110952 0.810934
O O15 0.923613 0.529259 0.062078
O O16 0.468681 0.227945 0.932219
#
# Coordination Sequence:
#
# PCOD9082090 Si02
#       8
#     2   2   2   2   2   2   2   2
#     4   8  12  23  48  69  93 122 161 198 238 288
#     4  11  22  31  51  79 102 129 167 209 248 293
#     4   8  15  27  50  75 100 127 163 206 250 289
#     4  11  20  36  51  72 104 136 165 200 252 299
#     4   9  14  27  52  67  98 135 161 197 247 300
#     4   8  13  25  46  74  96 124 162 203 249 281
#     4  10  19  33  50  74 105 129 166 207 251 288
#     4   9  16  29  47  79  98 122 167 204 246 294
#
# _framework density 24.421962000000001
#
# number of rings (size 3 to 8) (size 9 to 14) (size 15 to 20)
#    1.500    1.250    2.500    1.125    0.000    0.500 
#    0.000    0.625    0.000    0.750    0.000   11.375 
#    0.000    0.000    0.000    0.000    0.000    0.000 
#
# Total GULP energy -89078.381316 kJ/mol
# GULP energy per Si atom -5567.398832 kJ/mol
# Density = 2.436638 g / cm^3
# Si number density = 24.421962 Si / 1000 Ang^3
#
#
#
# Elastic Constant Matrix: (Units=GPa)
#
#
# Indices 1 2 3 4 5 6 
#
# 1 137.0580 30.8692 42.4671 17.0684 4.8539 27.2593
# 2 30.8692 51.6781 18.4495 14.9508 0.7215 22.0048
# 3 42.4671 18.4495 73.8529 6.9789 -6.4193 7.2378
# 4 17.0684 14.9508 6.9789 20.4922 -3.0005 -2.7773
# 5 4.8539 0.7215 -6.4193 -3.0005 35.9628 2.5488
# 6 27.2593 22.0048 7.2378 -2.7773 2.5488 46.6045
#
#
#
# Elastic Compliance Matrix: (Units=1/GPa)
#
#
# Indices 1 2 3 4 5 6 
#
# 1 0.011413 0.000707 -0.005448 -0.009475 -0.002852 -0.006572
# 2 0.000707 0.037206 -0.005392 -0.028855 -0.002886 -0.018705
# 3 -0.005448 -0.005392 0.017763 0.003421 0.004090 0.002954
# 4 -0.009475 -0.028855 0.003421 0.080809 0.007578 0.023036
# 5 -0.002852 -0.002886 0.004090 0.007578 0.029524 0.001232
# 6 -0.006572 -0.018705 0.002954 0.023036 0.001232 0.034979
#
#
# Mechanical properties :
#
#
# Convention : Reuss Voigt Hill
#
# Bulk Modulus (GPa) = 21.68449 49.57339 35.62894
# Shear Modulus (GPa) = 20.21565 31.99879 26.10722
#
# Velocity S-wave (km/s) = 2.88021 3.62366 3.27311
# Velocity P-wave (km/s) = 4.46757 6.15229 5.37633
#
# Compressibility (1/GPa) = 0.04611591
#
# Stress axis : x y z
#
# Youngs Moduli (GPa) = 87.61975 26.87714 56.29768
#
# Poissons Ratio (x) = -0.01899 0.30670
# Poissons Ratio (y) = -0.06192 0.30356
# Poissons Ratio (z) = 0.47733 0.14492
#
# Static dielectric constant tensor:
#      x y z
#    x 1.948240 0.045950 0.013350 
#    y 0.045950 2.021330 0.019660 
#    z 0.013350 0.019660 2.006120 
# 
# From -- ./inp_files/531168.got.cif
#   From: 2010.05.17/outbox.cif.g08.bks.cpg/sg2_266_cif.got.tgz:531168.got - 2010.06.03 11:33:40.
