data_PCOD9082333
_publ_section_title
;
Structure prediction by ZEFSAII (Michael W. Deem and Ramdas Pophale) SiO2 
 PCOD9082333
Probable space group: P -1
;
_chemical_formula_sum "Si O2"
_cell_formula_units_Z 16
_cell_length_a 9.269274
_cell_length_b 7.938615
_cell_length_c 20.287570
_cell_angle_alpha 102.691710
_cell_angle_beta 100.650343
_cell_angle_gamma 31.929992
_cell_volume 770.254808
_symmetry_space_group_name_H-M "P -1"
_symmetry_group_IT_number 2
_symmetry_cell_setting 'triclinic'
loop_
_space_group_symop_operation_xyz
x,y,z
-x,-y,-z
loop_
_atom_site_type_symbol
_atom_site_label
_atom_site_fract_x
_atom_site_fract_y
_atom_site_fract_z
Si Si1 0.647034 0.865650 0.929410
Si Si2 0.015165 0.007021 0.159546
Si Si3 0.839013 0.801373 0.151634
Si Si4 0.181021 0.157543 0.430374
Si Si5 0.306876 0.954852 0.287995
Si Si6 0.315344 0.108023 0.572012
Si Si7 0.496735 0.602366 0.077542
Si Si8 0.822803 0.667869 0.284589
O O1 0.957534 0.499401 0.908715
O O2 0.600435 0.105647 0.919171
O O3 0.466508 0.917246 0.875002
O O4 0.500000 0.000000 0.000000
O O5 0.158357 0.976083 0.226420
O O6 0.771902 0.328641 0.121444
O O7 0.912684 0.927865 0.171128
O O8 0.264536 0.731522 0.107901
O O9 0.840222 0.719450 0.217048
O O10 0.268666 0.942732 0.360529
O O11 0.231680 0.060549 0.502643
O O12 0.878040 0.531178 0.426121
O O13 0.380359 0.125232 0.433236
O O14 0.125434 0.306509 0.295987
O O15 0.612362 0.712984 0.275674
O O16 0.269813 0.112761 0.645384
O O17 0.500000 0.500000 0.000000
#
# Coordination Sequence:
#
# PCOD9082333 Si02
#       8
#     2   2   2   2   2   2   2   2
#     4  12  25  43  63  84 110 143 183 227 277 331
#     4  12  24  39  58  84 115 147 184 227 276 329
#     4  12  24  39  58  84 115 147 184 227 276 329
#     4   8  14  25  44  72 103 135 176 224 267 312
#     4  10  19  33  54  79 108 144 185 227 273 323
#     4   8  14  25  44  72 103 135 176 224 267 312
#     4  12  25  43  63  84 110 143 183 227 277 331
#     4  10  19  33  54  79 108 144 185 227 273 323
#
# _framework density 20.772345000000001
#
# number of rings (size 3 to 8) (size 9 to 14) (size 15 to 20)
#    0.000    1.500    0.000    7.500    0.000    0.000 
#    0.000    0.000    0.000    0.750    0.000    0.000 
#    0.000   24.000    0.000    0.000    0.000    5.000 
#
# Total GULP energy -89205.904417 kJ/mol
# GULP energy per Si atom -5575.369026 kJ/mol
# Density = 2.072507 g / cm^3
# Si number density = 20.772345 Si / 1000 Ang^3
#
#
#
# Elastic Constant Matrix: (Units=GPa)
#
#
# Indices 1 2 3 4 5 6 
#
# 1 57.7926 4.6206 10.0389 -4.9513 1.5037 -4.5895
# 2 4.6206 68.1005 -8.3892 -4.8571 3.0175 -15.5813
# 3 10.0389 -8.3892 107.0086 5.5383 -0.2075 3.8226
# 4 -4.9513 -4.8571 5.5383 30.0726 -14.1288 1.8333
# 5 1.5037 3.0175 -0.2075 -14.1288 19.2264 0.4270
# 6 -4.5895 -15.5813 3.8226 1.8333 0.4270 24.2790
#
#
#
# Elastic Compliance Matrix: (Units=1/GPa)
#
#
# Indices 1 2 3 4 5 6 
#
# 1 0.018236 -0.000574 -0.002056 0.003710 0.001299 0.003099
# 2 -0.000574 0.017512 0.000991 0.000770 -0.002371 0.010958
# 3 -0.002056 0.000991 0.009796 -0.002834 -0.001948 -0.001047
# 4 0.003710 0.000770 -0.002834 0.052719 0.038367 -0.003014
# 5 0.001299 -0.002371 -0.001948 0.038367 0.080573 -0.005283
# 6 0.003099 0.010958 -0.001047 -0.003014 -0.005283 0.049291
#
#
# Mechanical properties :
#
#
# Convention : Reuss Voigt Hill
#
# Bulk Modulus (GPa) = 23.65994 27.27136 25.46565
# Shear Modulus (GPa) = 20.36693 29.82436 25.09565
#
# Velocity S-wave (km/s) = 3.13466 3.79327 3.47958
# Velocity P-wave (km/s) = 4.95140 5.68704 5.33192
#
# Compressibility (1/GPa) = 0.04226554
#
# Stress axis : x y z
#
# Youngs Moduli (GPa) = 54.83516 57.10280 102.08332
#
# Poissons Ratio (x) = 0.03280 0.20989
# Poissons Ratio (y) = 0.03150 -0.10116
# Poissons Ratio (z) = 0.11274 -0.05659
#
# Static dielectric constant tensor:
#      x y z
#    x 1.702990 0.005220 -0.009520 
#    y 0.005220 1.730210 0.010970 
#    z -0.009520 0.010970 1.948390 
# 
# From -- ./inp_files/587416.got.cif
#   From: 2010.05.17/outbox.cif.g08.bks.cpg/sg2_294_cif.got.tgz:587416.got - 2010.06.03 11:33:40.
