data_PCOD9082807
_publ_section_title
;
Structure prediction by ZEFSAII (Michael W. Deem and Ramdas Pophale) SiO2 
 PCOD9082807
Probable space group: P -1
;
_chemical_formula_sum "Si O2"
_cell_formula_units_Z 14
_cell_length_a 22.888494
_cell_length_b 17.458163
_cell_length_c 9.394690
_cell_angle_alpha 40.686030
_cell_angle_beta 41.338259
_cell_angle_gamma 13.137266
_cell_volume 554.291637
_symmetry_space_group_name_H-M "P -1"
_symmetry_group_IT_number 2
_symmetry_cell_setting 'triclinic'
loop_
_space_group_symop_operation_xyz
x,y,z
-x,-y,-z
loop_
_atom_site_type_symbol
_atom_site_label
_atom_site_fract_x
_atom_site_fract_y
_atom_site_fract_z
Si Si1 0.146331 0.137027 0.745824
Si Si2 0.745019 0.237654 0.829605
Si Si3 0.452901 0.732021 0.457088
Si Si4 0.652045 0.724873 0.713671
Si Si5 0.310386 0.452046 0.365985
Si Si6 0.186702 0.163036 0.076824
Si Si7 0.283899 0.359968 0.835346
O O1 0.858201 0.543934 0.680288
O O2 0.273371 0.976864 0.579637
O O3 0.388426 0.891049 0.730433
O O4 0.079159 0.092062 0.996271
O O5 0.638763 0.393751 0.644621
O O6 0.818669 0.270700 0.718707
O O7 0.500000 0.500000 0.000000
O O8 0.641476 0.608731 0.278960
O O9 0.278081 0.955586 0.322295
O O10 0.798642 0.454421 0.715840
O O11 0.500000 0.000000 0.500000
O O12 0.444819 0.906190 0.918904
O O13 0.302757 0.361860 0.627999
O O14 0.000000 0.500000 0.000000
O O15 0.004996 0.328132 0.059359
O O16 0.500000 0.000000 0.000000
#
# Coordination Sequence:
#
# PCOD9082807 Si02
#       7
#     2   2   2   2   2   2   2
#     4   9  19  40  64  87 113 148 194 242 288 336
#     4   7  15  35  66  87 107 148 194 237 285 338
#     4   9  18  35  60  83 108 147 191 233 278 341
#     4  12  26  36  54  88 122 154 190 240 291 339
#     4   9  20  38  59  88 115 147 195 239 285 335
#     4  12  23  37  54  77 116 158 192 231 283 346
#     4  10  19  33  58  80 108 150 189 226 281 345
#
# _framework density 25.257459999999998
#
# number of rings (size 3 to 8) (size 9 to 14) (size 15 to 20)
#    0.000    2.857    1.429    2.571    2.000    2.286 
#    0.000    5.000    0.000   17.143    0.000    1.000 
#    0.000    0.000    0.000    0.000    0.000    0.000 
#
# Total GULP energy -78150.661521 kJ/mol
# GULP energy per Si atom -5582.190109 kJ/mol
# Density = 2.519997 g / cm^3
# Si number density = 25.257460 Si / 1000 Ang^3
#
#
#
# Elastic Constant Matrix: (Units=GPa)
#
#
# Indices 1 2 3 4 5 6 
#
# 1 71.6510 11.6644 6.9871 5.1203 5.8533 -21.0033
# 2 11.6644 77.5491 12.9967 24.5933 2.9821 -36.3327
# 3 6.9871 12.9967 124.9939 -3.5347 4.4497 -3.9693
# 4 5.1203 24.5933 -3.5347 49.1772 -4.1594 2.1720
# 5 5.8533 2.9821 4.4497 -4.1594 31.4039 4.0878
# 6 -21.0033 -36.3327 -3.9693 2.1720 4.0878 46.6189
#
#
#
# Elastic Compliance Matrix: (Units=1/GPa)
#
#
# Indices 1 2 3 4 5 6 
#
# 1 0.018010 0.005996 -0.001147 -0.006089 -0.006331 0.013529
# 2 0.005996 0.033329 -0.003027 -0.019726 -0.010404 0.030250
# 3 -0.001147 -0.003027 0.008376 0.002329 -0.000082 -0.002265
# 4 -0.006089 -0.019726 0.002329 0.032713 0.009652 -0.020289
# 5 -0.006331 -0.010404 -0.000082 0.009652 0.037212 -0.014680
# 6 0.013529 0.030250 -0.002265 -0.020289 -0.014680 0.053161
#
#
# Mechanical properties :
#
#
# Convention : Reuss Voigt Hill
#
# Bulk Modulus (GPa) = 15.78333 37.49893 26.64113
# Shear Modulus (GPa) = 24.96528 41.60971 33.28749
#
# Velocity S-wave (km/s) = 3.14734 4.06325 3.63427
# Velocity P-wave (km/s) = 4.41251 6.07390 5.30860
#
# Compressibility (1/GPa) = 0.06335798
#
# Stress axis : x y z
#
# Youngs Moduli (GPa) = 55.52363 30.00415 119.38600
#
# Poissons Ratio (x) = -0.17991 0.13699
# Poissons Ratio (y) = -0.33294 0.36144
# Poissons Ratio (z) = 0.06371 0.09084
#
# Static dielectric constant tensor:
#      x y z
#    x 2.105500 0.055500 -0.000260 
#    y 0.055500 2.099580 -0.056880 
#    z -0.000260 -0.056880 2.025150 
# 
# From -- ./inp_files/426362.got.cif
#   From: 2010.05.17/outbox.cif.g08.bks.cpg/sg2_214_cif.got.tgz:426362.got - 2010.06.03 11:33:40.
