data_PCOD9082647
_publ_section_title
;
Structure prediction by ZEFSAII (Michael W. Deem and Ramdas Pophale) SiO2 
 PCOD9082647
Probable space group: P -1
;
_chemical_formula_sum "Si O2"
_cell_formula_units_Z 16
_cell_length_a 9.673748
_cell_length_b 12.954409
_cell_length_c 15.745568
_cell_angle_alpha 68.790419
_cell_angle_beta 97.931060
_cell_angle_gamma 38.189951
_cell_volume 774.000082
_symmetry_space_group_name_H-M "P -1"
_symmetry_group_IT_number 2
_symmetry_cell_setting 'triclinic'
loop_
_space_group_symop_operation_xyz
x,y,z
-x,-y,-z
loop_
_atom_site_type_symbol
_atom_site_label
_atom_site_fract_x
_atom_site_fract_y
_atom_site_fract_z
Si Si1 0.595950 0.913807 0.825957
Si Si2 0.078297 0.736843 0.542213
Si Si3 0.953358 0.984848 0.305758
Si Si4 0.396026 0.807762 0.505426
Si Si5 0.229866 0.681965 0.255514
Si Si6 0.745018 0.749244 0.461781
Si Si7 0.236754 0.447385 0.122227
Si Si8 0.838182 0.781232 0.140981
O O1 0.649404 0.746493 0.857230
O O2 0.529537 0.016671 0.699261
O O3 0.281484 0.151255 0.791774
O O4 0.925438 0.715017 0.962391
O O5 0.443914 0.482079 0.687947
O O6 0.072118 0.795095 0.430289
O O7 0.922068 0.728221 0.524126
O O8 0.849644 0.982919 0.503079
O O9 0.176716 0.925622 0.372507
O O10 0.031072 0.894144 0.244300
O O11 0.568333 0.280838 0.201767
O O12 0.616684 0.543858 0.627478
O O13 0.599885 0.769366 0.511296
O O14 0.967784 0.814736 0.130597
O O15 0.000000 0.500000 0.500000
O O16 0.106418 0.520468 0.185769
O O17 0.500000 0.000000 0.000000
#
# Coordination Sequence:
#
# PCOD9082647 Si02
#       8
#     2   2   2   2   2   2   2   2
#     4  10  21  37  56  86 115 152 190 238 286 335
#     4  11  21  36  56  83 113 152 198 238 283 342
#     4  11  19  36  59  85 113 151 194 243 286 334
#     4  11  23  35  55  84 116 155 191 237 290 345
#     4  11  20  35  58  86 114 150 195 240 288 339
#     4  12  23  39  55  81 121 155 187 231 297 351
#     4  10  19  35  61  85 113 145 197 241 279 337
#     4  10  19  33  56  88 115 143 186 242 288 327
#
# _framework density 20.671831999999998
#
# number of rings (size 3 to 8) (size 9 to 14) (size 15 to 20)
#    0.000    1.250    2.500    7.125    0.000    0.000 
#    2.250    0.625    0.000    0.000    0.000    7.875 
#    0.000    0.000    0.000    0.000    0.000    0.000 
#
# Total GULP energy -89245.336789 kJ/mol
# GULP energy per Si atom -5577.833549 kJ/mol
# Density = 2.062478 g / cm^3
# Si number density = 20.671832 Si / 1000 Ang^3
#
#
#
# Elastic Constant Matrix: (Units=GPa)
#
#
# Indices 1 2 3 4 5 6 
#
# 1 111.0049 13.9735 26.7813 1.8705 29.1180 9.7139
# 2 13.9735 104.0843 11.2592 -9.4068 12.6868 -0.0810
# 3 26.7813 11.2592 67.0692 -7.6633 26.3205 5.0838
# 4 1.8705 -9.4068 -7.6633 29.4406 -1.1827 11.8522
# 5 29.1180 12.6868 26.3205 -1.1827 32.8413 5.0352
# 6 9.7139 -0.0810 5.0838 11.8522 5.0352 27.5996
#
#
#
# Elastic Compliance Matrix: (Units=1/GPa)
#
#
# Indices 1 2 3 4 5 6 
#
# 1 0.011939 -0.000422 -0.000941 -0.000704 -0.009384 -0.002015
# 2 -0.000422 0.010399 0.000327 0.003592 -0.003659 -0.000756
# 3 -0.000941 0.000327 0.022923 0.006995 -0.016825 -0.003824
# 4 -0.000704 0.003592 0.006995 0.044980 -0.001677 -0.020040
# 5 -0.009384 -0.003659 -0.016825 -0.001677 0.054028 -0.002746
# 6 -0.002015 -0.000756 -0.003824 -0.020040 -0.002746 0.046751
#
#
# Mechanical properties :
#
#
# Convention : Reuss Voigt Hill
#
# Bulk Modulus (GPa) = 23.15555 42.90959 33.03257
# Shear Modulus (GPa) = 24.09771 33.31927 28.70849
#
# Velocity S-wave (km/s) = 3.41798 4.01910 3.73067
# Velocity P-wave (km/s) = 5.17712 6.50693 5.87974
#
# Compressibility (1/GPa) = 0.04318619
#
# Stress axis : x y z
#
# Youngs Moduli (GPa) = 83.76163 96.16288 43.62489
#
# Poissons Ratio (x) = 0.04061 0.04107
# Poissons Ratio (y) = 0.03538 -0.01425
# Poissons Ratio (z) = 0.07885 -0.03141
#
# Static dielectric constant tensor:
#      x y z
#    x 1.767560 -0.022170 0.062830 
#    y -0.022170 1.775100 0.016480 
#    z 0.062830 0.016480 1.836080 
# 
# From -- ./inp_files/381713.got.cif
#   From: 2010.05.17/outbox.cif.g08.bks.cpg/sg2_191_cif.got.tgz:381713.got - 2010.06.03 11:33:40.
