data_PCOD9082981
_publ_section_title
;
Structure prediction by ZEFSAII (Michael W. Deem and Ramdas Pophale) SiO2 
 PCOD9082981
Probable space group: P -1
;
_chemical_formula_sum "Si O2"
_cell_formula_units_Z 16
_cell_length_a 8.053196
_cell_length_b 8.284136
_cell_length_c 11.045899
_cell_angle_alpha 78.190138
_cell_angle_beta 103.946048
_cell_angle_gamma 120.174532
_cell_volume 615.210600
_symmetry_space_group_name_H-M "P -1"
_symmetry_group_IT_number 2
_symmetry_cell_setting 'triclinic'
loop_
_space_group_symop_operation_xyz
x,y,z
-x,-y,-z
loop_
_atom_site_type_symbol
_atom_site_label
_atom_site_fract_x
_atom_site_fract_y
_atom_site_fract_z
Si Si1 0.655321 0.259146 0.848910
Si Si2 0.395177 0.220604 0.220336
Si Si3 0.285045 0.979272 0.466134
Si Si4 0.757874 0.550777 0.360363
Si Si5 0.280831 0.426718 0.024666
Si Si6 0.778440 0.938930 0.287317
Si Si7 0.755323 0.253347 0.130410
Si Si8 0.143120 0.604332 0.384413
O O1 0.713113 0.470711 0.865015
O O2 0.426412 0.147602 0.806178
O O3 0.751063 0.280676 0.732930
O O4 0.720289 0.192110 0.991076
O O5 0.277404 0.087884 0.329771
O O6 0.549756 0.412857 0.286705
O O7 0.243839 0.225806 0.094539
O O8 0.549594 0.177658 0.179536
O O9 0.245279 0.049614 0.574149
O O10 0.500000 0.000000 0.500000
O O11 0.154362 0.760728 0.456902
O O12 0.825552 0.767119 0.307044
O O13 0.757620 0.502453 0.511408
O O14 0.913500 0.492873 0.341010
O O15 0.500000 0.500000 0.000000
O O16 0.179714 0.521582 0.911245
O O17 0.873306 0.155475 0.224535
#
# Coordination Sequence:
#
# PCOD9082981 Si02
#       8
#     2   2   2   2   2   2   2   2
#     4  10  19  33  60  84 114 147 197 236 274 337
#     4  11  18  38  60  91 113 154 189 237 287 344
#     4  12  22  36  62  86 119 146 195 243 286 334
#     4  11  24  38  62  81 122 151 194 235 294 346
#     4   8  18  31  57  89 117 143 193 241 281 330
#     4  12  21  34  59  90 112 156 194 239 286 344
#     4   9  19  33  57  85 122 144 189 240 292 327
#     4  11  24  43  54  87 118 158 185 243 293 339
#
# _framework density 26.007353999999999
#
# number of rings (size 3 to 8) (size 9 to 14) (size 15 to 20)
#    0.750    0.750    5.000    0.375    1.750    1.500 
#    0.000    1.250    0.000    0.000    0.000    0.000 
#    0.000    0.000    0.000    0.000    0.000    0.000 
#
# Total GULP energy -89108.422269 kJ/mol
# GULP energy per Si atom -5569.276392 kJ/mol
# Density = 2.594816 g / cm^3
# Si number density = 26.007354 Si / 1000 Ang^3
#
#
#
# Elastic Constant Matrix: (Units=GPa)
#
#
# Indices 1 2 3 4 5 6 
#
# 1 48.4462 22.4291 31.2130 -17.5540 13.5675 -12.6898
# 2 22.4291 57.7521 39.7426 -25.8751 25.0967 -20.4887
# 3 31.2130 39.7426 200.9463 -42.9733 12.0410 -12.0000
# 4 -17.5540 -25.8751 -42.9733 50.5912 -16.4301 5.5650
# 5 13.5675 25.0967 12.0410 -16.4301 29.5149 -6.6723
# 6 -12.6898 -20.4887 -12.0000 5.5650 -6.6723 30.4912
#
#
#
# Elastic Compliance Matrix: (Units=1/GPa)
#
#
# Indices 1 2 3 4 5 6 
#
# 1 0.028245 -0.002443 -0.002293 0.003789 -0.006245 0.007153
# 2 -0.002443 0.041043 -0.003652 0.007176 -0.024100 0.018542
# 3 -0.002293 -0.003652 0.006712 0.004305 0.003647 -0.000754
# 4 0.003789 0.007176 0.004305 0.030677 0.008460 0.004345
# 5 -0.006245 -0.024100 0.003647 0.008460 0.059118 -0.005966
# 6 0.007153 0.018542 -0.000754 0.004345 -0.005966 0.045837
#
#
# Mechanical properties :
#
#
# Convention : Reuss Voigt Hill
#
# Bulk Modulus (GPa) = 16.88460 54.87934 35.88197
# Shear Modulus (GPa) = 20.14917 36.37012 28.25964
#
# Velocity S-wave (km/s) = 2.78645 3.74365 3.29994
# Velocity P-wave (km/s) = 4.10594 6.31140 5.32412
#
# Compressibility (1/GPa) = 0.05922555
#
# Stress axis : x y z
#
# Youngs Moduli (GPa) = 35.40468 24.36449 148.98696
#
# Poissons Ratio (x) = 0.05951 0.34156
# Poissons Ratio (y) = 0.08648 0.54411
# Poissons Ratio (z) = 0.08117 0.08898
#
# Static dielectric constant tensor:
#      x y z
#    x 2.371450 0.275120 0.157900 
#    y 0.275120 2.322270 0.074000 
#    z 0.157900 0.074000 2.154310 
# 
# From -- ./inp_files/381730.got.cif
#   From: 2010.05.17/outbox.cif.g08.bks.cpg/sg2_191_cif.got.tgz:381730.got - 2010.06.03 11:33:40.
