data_PCOD9082847
_publ_section_title
;
Structure prediction by ZEFSAII (Michael W. Deem and Ramdas Pophale) SiO2 
 PCOD9082847
Probable space group: P -1
;
_chemical_formula_sum "Si O2"
_cell_formula_units_Z 12
_cell_length_a 20.405021
_cell_length_b 15.825448
_cell_length_c 17.207551
_cell_angle_alpha 27.858757
_cell_angle_beta 160.741320
_cell_angle_gamma 164.671766
_cell_volume 461.826237
_symmetry_space_group_name_H-M "P -1"
_symmetry_group_IT_number 2
_symmetry_cell_setting 'triclinic'
loop_
_space_group_symop_operation_xyz
x,y,z
-x,-y,-z
loop_
_atom_site_type_symbol
_atom_site_label
_atom_site_fract_x
_atom_site_fract_y
_atom_site_fract_z
Si Si1 0.900983 0.487067 0.496141
Si Si2 0.816771 0.644630 0.134756
Si Si3 0.293529 0.939318 0.704654
Si Si4 0.308666 0.760654 0.245770
Si Si5 0.558918 0.607078 0.729910
Si Si6 0.564076 0.317630 0.836911
O O1 0.887807 0.261344 0.657559
O O2 0.678159 0.437596 0.226240
O O3 0.946517 0.605687 0.535622
O O4 0.322196 0.842680 0.648178
O O5 0.524037 0.468858 0.883497
O O6 0.043062 0.990924 0.137416
O O7 0.596939 0.230399 0.743076
O O8 0.456945 0.883079 0.972763
O O9 0.275468 0.079254 0.636662
O O10 0.310869 0.587367 0.443691
O O11 0.955531 0.605327 0.997468
O O12 0.547809 0.466363 0.758199
#
# Coordination Sequence:
#
# PCOD9082847 Si02
#       6
#     2   2   2   2   2   2
#     4   8  16  34  58  75 110 152 171 220 281 313
#     4   9  16  33  57  76 116 148 172 231 274 308
#     4   9  20  37  57  82 111 146 180 225 281 323
#     4   9  20  37  55  86 110 142 181 228 275 320
#     4  10  19  33  58  87 106 144 188 224 270 325
#     4  11  20  37  61  80 109 148 183 223 278 327
#
# _framework density 25.983798
#
# number of rings (size 3 to 8) (size 9 to 14) (size 15 to 20)
#    1.000    1.667    1.667    0.500    0.000    0.667 
#    0.000   15.000    0.000    0.000    0.000    0.000 
#    0.000    0.000    0.000    0.000    0.000    0.000 
#
# Total GULP energy -66910.282167 kJ/mol
# GULP energy per Si atom -5575.856847 kJ/mol
# Density = 2.592466 g / cm^3
# Si number density = 25.983798 Si / 1000 Ang^3
#
#
#
# Elastic Constant Matrix: (Units=GPa)
#
#
# Indices 1 2 3 4 5 6 
#
# 1 166.8905 56.1229 43.4233 -5.2942 -23.2536 -50.9036
# 2 56.1229 86.8115 18.1678 -7.9069 4.3709 -37.1014
# 3 43.4233 18.1678 56.8723 -16.2183 -4.1832 -19.8345
# 4 -5.2942 -7.9069 -16.2183 28.2705 5.3703 2.6732
# 5 -23.2536 4.3709 -4.1832 5.3703 37.8085 7.9575
# 6 -50.9036 -37.1014 -19.8345 2.6732 7.9575 62.9709
#
#
#
# Elastic Compliance Matrix: (Units=1/GPa)
#
#
# Indices 1 2 3 4 5 6 
#
# 1 0.011299 -0.005299 -0.006664 -0.004793 0.006820 0.003254
# 2 -0.005299 0.019025 0.002060 0.006218 -0.007862 0.008304
# 3 -0.006664 0.002060 0.027698 0.015639 -0.004430 0.004447
# 4 -0.004793 0.006218 0.015639 0.046597 -0.009381 0.003923
# 5 0.006820 -0.007862 -0.004430 -0.009381 0.033305 -0.004324
# 6 0.003254 0.008304 0.004447 0.003923 -0.004324 0.025184
#
#
# Mechanical properties :
#
#
# Convention : Reuss Voigt Hill
#
# Bulk Modulus (GPa) = 26.16808 60.66691 43.41749
# Shear Modulus (GPa) = 25.55531 38.66734 32.11132
#
# Velocity S-wave (km/s) = 3.13950 3.86182 3.51924
# Velocity P-wave (km/s) = 4.82024 6.57902 5.76707
#
# Compressibility (1/GPa) = 0.03821449
#
# Stress axis : x y z
#
# Youngs Moduli (GPa) = 88.50607 52.56204 36.10311
#
# Poissons Ratio (x) = 0.27853 0.24060
# Poissons Ratio (y) = 0.46900 -0.07435
# Poissons Ratio (z) = 0.58983 -0.10825
#
# Static dielectric constant tensor:
#      x y z
#    x 2.091870 0.013240 -0.038560 
#    y 0.013240 2.134640 0.015570 
#    z -0.038560 0.015570 2.082450 
# 
# From -- ./inp_files/47821.got.cif
#   From: 2010.05.17/outbox.cif.g08.bks.cpg/sg2_24_cif.got.tgz:47821.got - 2010.06.03 11:33:40.
