data_PCOD9082205
_publ_section_title
;
Structure prediction by ZEFSAII (Michael W. Deem and Ramdas Pophale) SiO2 
 PCOD9082205
Probable space group: P -1
;
_chemical_formula_sum "Si O2"
_cell_formula_units_Z 16
_cell_length_a 16.126095
_cell_length_b 11.472225
_cell_length_c 18.922935
_cell_angle_alpha 46.070249
_cell_angle_beta 159.604305
_cell_angle_gamma 124.350061
_cell_volume 825.420483
_symmetry_space_group_name_H-M "P -1"
_symmetry_group_IT_number 2
_symmetry_cell_setting 'triclinic'
loop_
_space_group_symop_operation_xyz
x,y,z
-x,-y,-z
loop_
_atom_site_type_symbol
_atom_site_label
_atom_site_fract_x
_atom_site_fract_y
_atom_site_fract_z
Si Si1 0.251287 0.504748 0.120587
Si Si2 0.645021 0.086969 0.429105
Si Si3 0.106586 0.146143 0.001199
Si Si4 0.506182 0.251592 0.707133
Si Si5 0.322113 0.296406 0.394124
Si Si6 0.358382 0.385265 0.970753
Si Si7 0.047113 0.512700 0.809073
Si Si8 0.143042 0.129646 0.868101
O O1 0.353460 0.646693 0.176577
O O2 0.380047 0.336745 0.343151
O O3 0.258320 0.501056 0.042759
O O4 0.947518 0.559440 0.864983
O O5 0.397020 0.116527 0.267599
O O6 0.555310 0.216676 0.237065
O O7 0.877029 0.126597 0.630575
O O8 0.719055 0.886079 0.554858
O O9 0.963318 0.343798 0.823923
O O10 0.123712 0.130316 0.937167
O O11 0.000000 0.000000 0.000000
O O12 0.515122 0.294239 0.612284
O O13 0.207304 0.322765 0.457040
O O14 0.643011 0.047558 0.910422
O O15 0.500000 0.500000 0.000000
O O16 0.174584 0.488013 0.844096
O O17 0.209155 0.300989 0.833455
#
# Coordination Sequence:
#
# PCOD9082205 Si02
#       8
#     2   2   2   2   2   2   2   2
#     4  10  21  31  56  85 131 159 197 232 290 347
#     4  10  20  38  60  85 118 150 211 242 287 352
#     4  10  23  37  53  83 127 169 204 240 285 348
#     4  11  19  36  60  85 128 156 197 243 297 352
#     4  10  19  33  52  90 118 170 196 230 277 356
#     4  10  23  47  67  83 114 157 203 257 315 366
#     4   9  23  38  55  92 118 155 201 252 296 352
#     4  10  21  38  63  89 113 159 202 249 303 357
#
# _framework density 19.384059000000001
#
# number of rings (size 3 to 8) (size 9 to 14) (size 15 to 20)
#    0.000    2.250    3.750    0.375    3.500    6.000 
#    0.000    0.625    0.000    1.500    0.000    0.000 
#    0.000    0.000    0.000    0.000    0.000    0.000 
#
# Total GULP energy -89131.040081 kJ/mol
# GULP energy per Si atom -5570.690005 kJ/mol
# Density = 1.933994 g / cm^3
# Si number density = 19.384059 Si / 1000 Ang^3
#
#
#
# Elastic Constant Matrix: (Units=GPa)
#
#
# Indices 1 2 3 4 5 6 
#
# 1 47.0983 45.9072 18.4023 5.7397 -2.4761 3.4254
# 2 45.9072 148.9456 34.7792 18.0412 -8.7206 3.8059
# 3 18.4023 34.7792 69.4971 14.5591 0.0795 -5.2550
# 4 5.7397 18.0412 14.5591 31.6993 -3.6146 -5.6200
# 5 -2.4761 -8.7206 0.0795 -3.6146 12.2440 0.7607
# 6 3.4254 3.8059 -5.2550 -5.6200 0.7607 35.0890
#
#
#
# Elastic Compliance Matrix: (Units=1/GPa)
#
#
# Indices 1 2 3 4 5 6 
#
# 1 0.031545 -0.008698 -0.004381 0.000849 0.000630 -0.002670
# 2 -0.008698 0.010672 -0.002513 -0.002995 0.005054 -0.001274
# 3 -0.004381 -0.002513 0.018322 -0.006290 -0.004809 0.002541
# 4 0.000849 -0.002995 -0.006290 0.037925 0.008954 0.005180
# 5 0.000630 0.005054 -0.004809 0.008954 0.088187 -0.001808
# 6 -0.002670 -0.001274 0.002541 0.005180 -0.001808 0.030147
#
#
# Mechanical properties :
#
#
# Convention : Reuss Voigt Hill
#
# Bulk Modulus (GPa) = 34.06261 51.52426 42.79344
# Shear Modulus (GPa) = 19.39740 26.90325 23.15032
#
# Velocity S-wave (km/s) = 3.16680 3.72950 3.45961
# Velocity P-wave (km/s) = 5.56616 6.72191 6.17115
#
# Compressibility (1/GPa) = 0.02935771
#
# Stress axis : x y z
#
# Youngs Moduli (GPa) = 31.70048 93.69890 54.57988
#
# Poissons Ratio (x) = 0.81495 0.23910
# Poissons Ratio (y) = 0.27572 0.13714
# Poissons Ratio (z) = 0.13887 0.23543
#
# Static dielectric constant tensor:
#      x y z
#    x 1.720150 -0.031710 0.013450 
#    y -0.031710 1.734870 0.021050 
#    z 0.013450 0.021050 1.754260 
# 
# From -- ./inp_files/599912.got.cif
#   From: 2010.05.17/outbox.cif.g08.bks.cpg/sg2_300_cif.got.tgz:599912.got - 2010.06.03 11:33:40.
