data_PCOD9082819
_publ_section_title
;
Structure prediction by ZEFSAII (Michael W. Deem and Ramdas Pophale) SiO2 
 PCOD9082819
Probable space group: P -1
;
_chemical_formula_sum "Si O2"
_cell_formula_units_Z 14
_cell_length_a 9.092020
_cell_length_b 12.836733
_cell_length_c 15.588081
_cell_angle_alpha 38.472528
_cell_angle_beta 115.677134
_cell_angle_gamma 135.087288
_cell_volume 768.137472
_symmetry_space_group_name_H-M "P -1"
_symmetry_group_IT_number 2
_symmetry_cell_setting 'triclinic'
loop_
_space_group_symop_operation_xyz
x,y,z
-x,-y,-z
loop_
_atom_site_type_symbol
_atom_site_label
_atom_site_fract_x
_atom_site_fract_y
_atom_site_fract_z
Si Si1 0.396564 0.673932 0.644781
Si Si2 0.704110 0.214363 0.960132
Si Si3 0.014102 0.773241 0.104865
Si Si4 0.130306 0.756313 0.842011
Si Si5 0.707620 0.852991 0.928031
Si Si6 0.687990 0.565912 0.805821
Si Si7 0.494562 0.924982 0.686333
O O1 0.582030 0.661876 0.680426
O O2 0.434902 0.773112 0.686400
O O3 0.167283 0.424396 0.750551
O O4 0.408423 0.836688 0.478543
O O5 0.905056 0.308604 0.888852
O O6 0.688856 0.402680 0.850507
O O7 0.500000 0.000000 0.000000
O O8 0.209762 0.981125 0.076906
O O9 0.894275 0.839396 0.978777
O O10 0.271361 0.870067 0.889790
O O11 0.285667 0.827845 0.754835
O O12 0.936034 0.754646 0.776898
O O13 0.000000 0.500000 0.000000
O O14 0.660798 0.935577 0.781496
O O15 0.480788 0.606804 0.051288
#
# Coordination Sequence:
#
# PCOD9082819 Si02
#       7
#     2   2   2   2   2   2   2
#     4  10  24  36  57  80 116 151 187 225 275 332
#     4  11  19  34  59  85 112 139 183 236 276 325
#     4  10  21  36  58  87 108 146 184 233 283 324
#     4  10  19  33  58  82 108 147 181 229 281 318
#     4  10  20  36  59  84 111 142 192 233 269 328
#     4  10  20  36  54  88 108 145 184 231 277 321
#     4  11  21  40  55  82 113 152 186 228 273 334
#
# _framework density 18.225905000000001
#
# number of rings (size 3 to 8) (size 9 to 14) (size 15 to 20)
#    0.000    1.714    4.286    1.714    2.000    2.286 
#    0.000    0.000    0.000    1.714    0.000    0.000 
#    0.000    0.000    0.000    0.000    0.000    0.000 
#
# Total GULP energy -78060.837223 kJ/mol
# GULP energy per Si atom -5575.774087 kJ/mol
# Density = 1.818442 g / cm^3
# Si number density = 18.225905 Si / 1000 Ang^3
#
#
#
# Elastic Constant Matrix: (Units=GPa)
#
#
# Indices 1 2 3 4 5 6 
#
# 1 71.9260 21.3900 21.0394 4.7826 -0.5597 4.9535
# 2 21.3900 88.9607 32.7907 13.5311 0.2576 9.9307
# 3 21.0394 32.7907 98.3714 14.2228 6.3852 7.5004
# 4 4.7826 13.5311 14.2228 18.8559 -2.6449 0.3577
# 5 -0.5597 0.2576 6.3852 -2.6449 22.0647 -1.7881
# 6 4.9535 9.9307 7.5004 0.3577 -1.7881 18.8718
#
#
#
# Elastic Compliance Matrix: (Units=1/GPa)
#
#
# Indices 1 2 3 4 5 6 
#
# 1 0.015511 -0.002670 -0.002354 -0.000076 0.000964 -0.001638
# 2 -0.002670 0.014737 -0.002694 -0.007878 -0.000884 -0.005918
# 3 -0.002354 -0.002694 0.013365 -0.008208 -0.005172 -0.003611
# 4 -0.000076 -0.007878 -0.008208 0.066304 0.010998 0.007213
# 5 0.000964 -0.000884 -0.005172 0.010998 0.048712 0.006675
# 6 -0.001638 -0.005918 -0.003611 0.007213 0.006675 0.058464
#
#
# Mechanical properties :
#
#
# Convention : Reuss Voigt Hill
#
# Bulk Modulus (GPa) = 35.48966 45.52205 40.50585
# Shear Modulus (GPa) = 20.66789 24.22768 22.44779
#
# Velocity S-wave (km/s) = 3.37112 3.64991 3.51328
# Velocity P-wave (km/s) = 5.88787 6.54166 6.22335
#
# Compressibility (1/GPa) = 0.02817722
#
# Stress axis : x y z
#
# Youngs Moduli (GPa) = 64.46933 67.85474 74.82399
#
# Poissons Ratio (x) = 0.18119 0.17614
# Poissons Ratio (y) = 0.17215 0.20155
# Poissons Ratio (z) = 0.15177 0.18278
#
# Static dielectric constant tensor:
#      x y z
#    x 1.664950 0.011530 0.012970 
#    y 0.011530 1.677920 0.011640 
#    z 0.012970 0.011640 1.611690 
# 
# From -- ./inp_files/560333.got.cif
#   From: 2010.05.17/outbox.cif.g08.bks.cpg/sg2_281_cif.got.tgz:560333.got - 2010.06.03 11:33:40.
