data_PCOD9082404
_publ_section_title
;
Structure prediction by ZEFSAII (Michael W. Deem and Ramdas Pophale) SiO2 
 PCOD9082404
Probable space group: P -1
;
_chemical_formula_sum "Si O2"
_cell_formula_units_Z 16
_cell_length_a 12.140590
_cell_length_b 16.967291
_cell_length_c 17.609980
_cell_angle_alpha 28.300819
_cell_angle_beta 151.052592
_cell_angle_gamma 131.788327
_cell_volume 741.838983
_symmetry_space_group_name_H-M "P -1"
_symmetry_group_IT_number 2
_symmetry_cell_setting 'triclinic'
loop_
_space_group_symop_operation_xyz
x,y,z
-x,-y,-z
loop_
_atom_site_type_symbol
_atom_site_label
_atom_site_fract_x
_atom_site_fract_y
_atom_site_fract_z
Si Si1 0.650374 0.274328 0.051543
Si Si2 0.118695 0.790281 0.522479
Si Si3 0.202079 0.199891 0.825829
Si Si4 0.908640 0.924952 0.621020
Si Si5 0.063421 0.560729 0.825363
Si Si6 0.408563 0.224182 0.531660
Si Si7 0.474115 0.198623 0.340011
Si Si8 0.795342 0.202328 0.676262
O O1 0.721266 0.426807 0.000842
O O2 0.810521 0.197824 0.136948
O O3 0.771853 0.104939 0.329965
O O4 0.366455 0.311763 0.833738
O O5 0.063322 0.680105 0.650475
O O6 0.402729 0.717692 0.719952
O O7 0.934011 0.798623 0.336115
O O8 0.076460 0.989056 0.362950
O O9 0.981829 0.278218 0.689987
O O10 0.405311 0.982195 0.148592
O O11 0.752418 0.810193 0.604668
O O12 0.799448 0.651586 0.636439
O O13 0.182478 0.347288 0.053147
O O14 0.596180 0.295864 0.545303
O O15 0.645896 0.171991 0.540693
O O16 0.500000 0.000000 0.500000
O O17 0.000000 0.000000 0.000000
#
# Coordination Sequence:
#
# PCOD9082404 Si02
#       8
#     2   2   2   2   2   2   2   2
#     4   8  15  29  48  77 110 139 178 221 267 320
#     4  10  19  33  54  85 119 146 183 227 281 339
#     4   9  17  30  54  86 118 151 180 219 278 341
#     4   8  14  26  49  76 106 143 176 219 269 321
#     4  10  21  36  57  85 114 145 188 240 279 324
#     4   9  17  33  56  82 114 150 190 230 273 326
#     4  11  23  39  58  80 110 151 193 234 286 338
#     4   9  19  36  56  79 109 150 189 222 271 338
#
# _framework density 21.568023
#
# number of rings (size 3 to 8) (size 9 to 14) (size 15 to 20)
#    0.000    2.750    0.000    3.375    0.000    3.500 
#    0.000    3.750    0.000    6.750    0.000    3.500 
#    0.000    0.000    0.000    0.000    0.000    0.000 
#
# Total GULP energy -89224.512359 kJ/mol
# GULP energy per Si atom -5576.532022 kJ/mol
# Density = 2.151893 g / cm^3
# Si number density = 21.568023 Si / 1000 Ang^3
#
#
#
# Elastic Constant Matrix: (Units=GPa)
#
#
# Indices 1 2 3 4 5 6 
#
# 1 152.1907 40.5184 67.3482 2.3524 33.9327 7.7700
# 2 40.5184 43.2379 51.3789 -4.1856 29.5734 2.1660
# 3 67.3482 51.3789 92.6622 -2.3448 26.7671 3.5439
# 4 2.3524 -4.1856 -2.3448 26.1340 -0.3124 6.8898
# 5 33.9327 29.5734 26.7671 -0.3124 34.4352 5.9968
# 6 7.7700 2.1660 3.5439 6.8898 5.9968 18.6191
#
#
#
# Elastic Compliance Matrix: (Units=1/GPa)
#
#
# Indices 1 2 3 4 5 6 
#
# 1 0.010895 0.007529 -0.009210 -0.000669 -0.010015 -0.000196
# 2 0.007529 0.170007 -0.070769 0.014261 -0.101407 0.017935
# 3 -0.009210 -0.070769 0.046907 -0.004197 0.034467 -0.006400
# 4 -0.000669 0.014261 -0.004197 0.044185 -0.005271 -0.015233
# 5 -0.010015 -0.101407 0.034467 -0.005271 0.102954 -0.021792
# 6 -0.000196 0.017935 -0.006400 -0.015233 -0.021792 0.065578
#
#
# Mechanical properties :
#
#
# Convention : Reuss Voigt Hill
#
# Bulk Modulus (GPa) = 12.06116 67.39798 39.72957
# Shear Modulus (GPa) = 8.15578 24.42735 16.29156
#
# Velocity S-wave (km/s) = 1.94670 3.36902 2.75136
# Velocity P-wave (km/s) = 3.26453 6.81547 5.34358
#
# Compressibility (1/GPa) = 0.08291075
#
# Stress axis : x y z
#
# Youngs Moduli (GPa) = 91.78418 5.88211 21.31860
#
# Poissons Ratio (x) = -0.04429 0.19634
# Poissons Ratio (y) = -0.69105 1.50869
# Poissons Ratio (z) = 0.84531 0.41627
#
# Static dielectric constant tensor:
#      x y z
#    x 1.843790 0.047610 -0.014830 
#    y 0.047610 1.786620 -0.050440 
#    z -0.014830 -0.050440 1.800010 
# 
# From -- ./inp_files/570340.got.cif
#   From: 2010.05.17/outbox.cif.g08.bks.cpg/sg2_286_cif.got.tgz:570340.got - 2010.06.03 11:33:40.
