data_PCOD9082661
_publ_section_title
;
Structure prediction by ZEFSAII (Michael W. Deem and Ramdas Pophale) SiO2 
 PCOD9082661
Probable space group: P -1
;
_chemical_formula_sum "Si O2"
_cell_formula_units_Z 14
_cell_length_a 8.860772
_cell_length_b 19.062523
_cell_length_c 13.686909
_cell_angle_alpha 144.724926
_cell_angle_beta 43.928618
_cell_angle_gamma 149.791746
_cell_volume 670.886355
_symmetry_space_group_name_H-M "P -1"
_symmetry_group_IT_number 2
_symmetry_cell_setting 'triclinic'
loop_
_space_group_symop_operation_xyz
x,y,z
-x,-y,-z
loop_
_atom_site_type_symbol
_atom_site_label
_atom_site_fract_x
_atom_site_fract_y
_atom_site_fract_z
Si Si1 0.593420 0.056483 0.133973
Si Si2 0.298218 0.635869 0.579884
Si Si3 0.255971 0.232920 0.991566
Si Si4 0.707348 0.735225 0.195385
Si Si5 0.312212 0.765088 0.089959
Si Si6 0.961424 0.557262 0.846105
Si Si7 0.285034 0.369972 0.726853
O O1 0.548649 0.180475 0.316516
O O2 0.946627 0.163298 0.099411
O O3 0.422816 0.908183 0.123242
O O4 0.500000 0.000000 0.000000
O O5 0.531072 0.617096 0.432553
O O6 0.000000 0.500000 0.500000
O O7 0.179333 0.613077 0.718571
O O8 0.500430 0.438837 0.112745
O O9 0.175966 0.153292 0.829286
O O10 0.413078 0.190029 0.932598
O O11 0.353968 0.629843 0.231678
O O12 0.752940 0.747481 0.303966
O O13 0.839450 0.650337 0.010647
O O14 0.052269 0.713059 0.223840
O O15 0.135813 0.602910 0.917153
#
# Coordination Sequence:
#
# PCOD9082661 Si02
#       7
#     2   2   2   2   2   2   2
#     4  12  23  41  66  92 122 161 209 257 300 365
#     4  12  20  38  67  93 121 155 213 264 298 350
#     4  12  20  38  64  91 126 164 204 250 301 382
#     4  10  15  32  60  88 112 153 214 246 279 351
#     4  11  24  37  60  93 128 164 202 245 317 370
#     4  10  17  34  58  91 114 154 205 248 291 352
#     4  11  21  37  64  93 120 160 212 254 303 353
#
# _framework density 20.867916000000001
#
# number of rings (size 3 to 8) (size 9 to 14) (size 15 to 20)
#    0.000    0.857   10.000    1.714    0.000    0.571 
#    0.000    0.714    3.143    1.714    0.000    0.000 
#    0.000    0.000    0.000    0.000    0.000    0.000 
#
# Total GULP energy -77987.835092 kJ/mol
# GULP energy per Si atom -5570.559649 kJ/mol
# Density = 2.082042 g / cm^3
# Si number density = 20.867916 Si / 1000 Ang^3
#
#
#
# Elastic Constant Matrix: (Units=GPa)
#
#
# Indices 1 2 3 4 5 6 
#
# 1 44.3356 28.0468 18.3470 3.8044 -0.9398 0.5997
# 2 28.0468 101.4030 26.4019 -27.9993 -15.0186 3.9611
# 3 18.3470 26.4019 70.7618 -27.6296 -2.5156 -4.6747
# 4 3.8044 -27.9993 -27.6296 42.7297 -3.4221 1.4495
# 5 -0.9398 -15.0186 -2.5156 -3.4221 11.5391 -1.6237
# 6 0.5997 3.9611 -4.6747 1.4495 -1.6237 28.9700
#
#
#
# Elastic Compliance Matrix: (Units=1/GPa)
#
#
# Indices 1 2 3 4 5 6 
#
# 1 0.048438 -0.024884 -0.019141 -0.036443 -0.043607 -0.001310
# 2 -0.024884 0.030536 0.009321 0.032224 0.049163 -0.001013
# 3 -0.019141 0.009321 0.027480 0.027479 0.025219 0.003595
# 4 -0.036443 0.032224 0.027479 0.070792 0.066090 0.000945
# 5 -0.043607 0.049163 0.025219 0.066090 0.172848 0.004631
# 6 -0.001310 -0.001013 0.003595 0.000945 0.004631 0.035476
#
#
# Mechanical properties :
#
#
# Convention : Reuss Voigt Hill
#
# Bulk Modulus (GPa) = 26.99187 40.23243 33.61215
# Shear Modulus (GPa) = 10.69919 26.22806 18.46363
#
# Velocity S-wave (km/s) = 2.26677 3.54907 2.97776
# Velocity P-wave (km/s) = 4.45126 6.00965 5.28818
#
# Compressibility (1/GPa) = 0.03704819
#
# Stress axis : x y z
#
# Youngs Moduli (GPa) = 20.64497 32.74855 36.38979
#
# Poissons Ratio (x) = 0.81490 0.69652
# Poissons Ratio (y) = 0.51372 -0.33920
# Poissons Ratio (z) = 0.39516 -0.30526
#
# Static dielectric constant tensor:
#      x y z
#    x 1.777680 -0.016330 0.027180 
#    y -0.016330 1.815310 0.056720 
#    z 0.027180 0.056720 1.791950 
# 
# From -- ./inp_files/507952.got.cif
#   From: 2010.05.17/outbox.cif.g08.bks.cpg/sg2_254_cif.got.tgz:507952.got - 2010.06.03 11:33:40.
