data_PCOD9082464
_publ_section_title
;
Structure prediction by ZEFSAII (Michael W. Deem and Ramdas Pophale) SiO2 
 PCOD9082464
Probable space group: P -1
;
_chemical_formula_sum "Si O2"
_cell_formula_units_Z 16
_cell_length_a 10.236454
_cell_length_b 19.327357
_cell_length_c 8.329258
_cell_angle_alpha 90.252713
_cell_angle_beta 112.365613
_cell_angle_gamma 37.318447
_cell_volume 782.340882
_symmetry_space_group_name_H-M "P -1"
_symmetry_group_IT_number 2
_symmetry_cell_setting 'triclinic'
loop_
_space_group_symop_operation_xyz
x,y,z
-x,-y,-z
loop_
_atom_site_type_symbol
_atom_site_label
_atom_site_fract_x
_atom_site_fract_y
_atom_site_fract_z
Si Si1 0.827303 0.859842 0.606760
Si Si2 0.577382 0.015382 0.182845
Si Si3 0.468546 0.256540 0.466913
Si Si4 0.722669 0.642820 0.284935
Si Si5 0.058802 0.026077 0.801124
Si Si6 0.890310 0.714784 0.847504
Si Si7 0.924328 0.470131 0.841744
Si Si8 0.170723 0.825910 0.972526
O O1 0.797788 0.887356 0.404596
O O2 0.960307 0.731122 0.724054
O O3 0.998385 0.846926 0.780388
O O4 0.500000 0.000000 0.500000
O O5 0.712127 0.029184 0.185353
O O6 0.292507 0.155137 0.135891
O O7 0.500000 0.000000 0.000000
O O8 0.434372 0.253164 0.640967
O O9 0.785339 0.127770 0.571587
O O10 0.307925 0.263961 0.301656
O O11 0.336669 0.387008 0.369453
O O12 0.000000 0.500000 0.500000
O O13 0.833205 0.636236 0.179780
O O14 0.502281 0.675814 0.134385
O O15 0.963594 0.111850 0.912355
O O16 0.154323 0.910763 0.899105
O O17 0.103211 0.587146 0.064724
O O18 0.000000 0.500000 0.000000
#
# Coordination Sequence:
#
# PCOD9082464 Si02
#       8
#     2   2   2   2   2   2   2   2
#     4  10  21  35  51  76 114 150 183 227 281 338
#     4  11  23  36  55  82 114 149 187 232 287 345
#     4   9  19  34  56  83 112 147 189 238 286 334
#     4   9  18  34  57  83 113 146 186 238 285 331
#     4  10  19  33  55  82 110 141 187 236 282 339
#     4  10  20  35  55  79 114 153 188 231 284 337
#     4   9  18  33  56  82 108 143 188 234 277 330
#     4  10  20  34  56  83 112 149 189 230 283 345
#
# _framework density 20.451443999999999
#
# number of rings (size 3 to 8) (size 9 to 14) (size 15 to 20)
#    0.000    2.250    0.000    3.750    0.000    7.000 
#    0.000    0.000    0.000   25.500    0.000    0.000 
#    0.000    0.000    0.000    0.000    0.000    0.000 
#
# Total GULP energy -89126.996216 kJ/mol
# GULP energy per Si atom -5570.437264 kJ/mol
# Density = 2.040490 g / cm^3
# Si number density = 20.451444 Si / 1000 Ang^3
#
#
#
# Elastic Constant Matrix: (Units=GPa)
#
#
# Indices 1 2 3 4 5 6 
#
# 1 61.6680 4.4773 41.6364 -8.0792 -6.6665 16.3341
# 2 4.4773 33.0689 22.7952 -4.2230 -3.5297 12.9941
# 3 41.6364 22.7952 118.9911 -3.1807 1.9091 17.7940
# 4 -8.0792 -4.2230 -3.1807 30.5354 7.3751 0.4127
# 5 -6.6665 -3.5297 1.9091 7.3751 46.1438 -7.1263
# 6 16.3341 12.9941 17.7940 0.4127 -7.1263 26.2265
#
#
#
# Elastic Compliance Matrix: (Units=1/GPa)
#
#
# Indices 1 2 3 4 5 6 
#
# 1 0.026425 0.009319 -0.008625 0.007241 0.001421 -0.014951
# 2 0.009319 0.044467 -0.008243 0.007967 0.000377 -0.022266
# 3 -0.008625 -0.008243 0.012981 -0.001551 -0.002152 0.000088
# 4 0.007241 0.007967 -0.001551 0.037106 -0.005683 -0.009532
# 5 0.001421 0.000377 -0.002152 -0.005683 0.023983 0.006995
# 6 -0.014951 -0.022266 0.000088 -0.009532 0.006995 0.060463
#
#
# Mechanical properties :
#
#
# Convention : Reuss Voigt Hill
#
# Bulk Modulus (GPa) = 14.54026 39.06067 26.80046
# Shear Modulus (GPa) = 20.53822 30.23574 25.38698
#
# Velocity S-wave (km/s) = 3.17242 3.84919 3.52707
# Velocity P-wave (km/s) = 4.53256 6.23664 5.45159
#
# Compressibility (1/GPa) = 0.06877457
#
# Stress axis : x y z
#
# Youngs Moduli (GPa) = 37.84293 22.48867 77.03565
#
# Poissons Ratio (x) = -0.20957 0.66445
# Poissons Ratio (y) = -0.35265 0.63499
# Poissons Ratio (z) = 0.32640 0.18537
#
# Static dielectric constant tensor:
#      x y z
#    x 1.771980 -0.039270 -0.028670 
#    y -0.039270 1.773810 -0.025790 
#    z -0.028670 -0.025790 1.838180 
# 
# From -- ./inp_files/217486.got.cif
#   From: 2010.05.17/outbox.cif.g08.bks.cpg/sg2_109_cif.got.tgz:217486.got - 2010.06.03 11:33:40.
