data_PCOD9082049
_publ_section_title
;
Structure prediction by ZEFSAII (Michael W. Deem and Ramdas Pophale) SiO2 
 PCOD9082049
Probable space group: P -1
;
_chemical_formula_sum "Si O2"
_cell_formula_units_Z 12
_cell_length_a 8.817793
_cell_length_b 7.542406
_cell_length_c 10.948908
_cell_angle_alpha 80.533430
_cell_angle_beta 139.929058
_cell_angle_gamma 107.524917
_cell_volume 444.412570
_symmetry_space_group_name_H-M "P -1"
_symmetry_group_IT_number 2
_symmetry_cell_setting 'triclinic'
loop_
_space_group_symop_operation_xyz
x,y,z
-x,-y,-z
loop_
_atom_site_type_symbol
_atom_site_label
_atom_site_fract_x
_atom_site_fract_y
_atom_site_fract_z
Si Si1 0.065784 0.202231 0.672956
Si Si2 0.278384 0.911973 0.204202
Si Si3 0.037870 0.245922 0.382463
Si Si4 0.496454 0.153818 0.082105
Si Si5 0.427788 0.745363 0.524714
Si Si6 0.854725 0.637582 0.842175
O O1 0.155845 0.282838 0.585537
O O2 0.828547 0.259487 0.568759
O O3 0.990371 0.975534 0.634217
O O4 0.282566 0.244532 0.901707
O O5 0.375305 0.750148 0.347300
O O6 0.436355 0.030324 0.180217
O O7 0.347587 0.065294 0.336623
O O8 0.013911 0.820502 0.995392
O O9 0.771444 0.280876 0.238245
O O10 0.118977 0.341114 0.291289
O O11 0.500000 0.000000 0.000000
O O12 0.564543 0.604556 0.684238
O O13 0.000000 0.500000 0.000000
#
# Coordination Sequence:
#
# PCOD9082049 Si02
#       6
#     2   2   2   2   2   2
#     4  10  20  35  64  98 122 150 206 276 310 348
#     4  11  22  38  66  97 124 156 210 267 311 356
#     4  10  20  37  61  95 125 157 209 259 312 364
#     4  10  19  32  62  99 121 153 200 271 314 350
#     4  11  25  38  64 100 125 158 212 270 311 356
#     4  12  27  43  62  89 134 177 201 246 318 392
#
# _framework density 27.001936000000001
#
# number of rings (size 3 to 8) (size 9 to 14) (size 15 to 20)
#    0.000    1.333    5.000    2.500    7.000    0.667 
#    0.000    0.833    0.000    2.000    0.000    0.000 
#    0.000    0.000    0.000    0.000    0.000    0.000 
#
# Total GULP energy -67044.625089 kJ/mol
# GULP energy per Si atom -5587.052091 kJ/mol
# Density = 2.694048 g / cm^3
# Si number density = 27.001936 Si / 1000 Ang^3
#
#
#
# Elastic Constant Matrix: (Units=GPa)
#
#
# Indices 1 2 3 4 5 6 
#
# 1 153.4095 27.4743 93.5141 -18.6698 -7.4170 13.8222
# 2 27.4743 63.3269 40.2102 -15.1036 3.1479 3.8534
# 3 93.5141 40.2102 257.0828 -22.0628 11.0484 3.9352
# 4 -18.6698 -15.1036 -22.0628 35.8741 -6.5891 -3.3908
# 5 -7.4170 3.1479 11.0484 -6.5891 64.4221 -10.1717
# 6 13.8222 3.8534 3.9352 -3.3908 -10.1717 28.9917
#
#
#
# Elastic Compliance Matrix: (Units=1/GPa)
#
#
# Indices 1 2 3 4 5 6 
#
# 1 0.009188 -0.001455 -0.002928 0.002338 0.001392 -0.003028
# 2 -0.001455 0.019144 -0.001924 0.005966 -0.000321 -0.001005
# 3 -0.002928 -0.001924 0.005360 0.000850 -0.000967 0.000684
# 4 0.002338 0.005966 0.000850 0.033107 0.003716 0.003153
# 5 0.001392 -0.000321 -0.000967 0.003716 0.017188 0.005975
# 6 -0.003028 -0.001005 0.000684 0.003153 0.005975 0.038442
#
#
# Mechanical properties :
#
#
# Convention : Reuss Voigt Hill
#
# Bulk Modulus (GPa) = 47.43990 88.46849 67.95419
# Shear Modulus (GPa) = 35.19456 46.69896 40.94676
#
# Velocity S-wave (km/s) = 3.61419 4.16320 3.89837
# Velocity P-wave (km/s) = 5.91808 7.47961 6.74419
#
# Compressibility (1/GPa) = 0.02107930
#
# Stress axis : x y z
#
# Youngs Moduli (GPa) = 108.83458 52.23638 186.58031
#
# Poissons Ratio (x) = 0.07599 0.54621
# Poissons Ratio (y) = 0.15832 0.35897
# Poissons Ratio (z) = 0.31861 0.10050
#
# Static dielectric constant tensor:
#      x y z
#    x 2.089400 -0.084720 0.018050 
#    y -0.084720 2.551690 -0.022460 
#    z 0.018050 -0.022460 2.209640 
# 
# From -- ./inp_files/378504.got.cif
#   From: 2010.05.17/outbox.cif.g08.bks.cpg/sg2_190_cif.got.tgz:378504.got - 2010.06.03 11:33:40.
