data_PCOD9082186
_publ_section_title
;
Structure prediction by ZEFSAII (Michael W. Deem and Ramdas Pophale) SiO2 
 PCOD9082186
Probable space group: P -1
;
_chemical_formula_sum "Si O2"
_cell_formula_units_Z 16
_cell_length_a 13.990775
_cell_length_b 7.075795
_cell_length_c 7.272208
_cell_angle_alpha 109.832586
_cell_angle_beta 102.393008
_cell_angle_gamma 99.194030
_cell_volume 639.892350
_symmetry_space_group_name_H-M "P -1"
_symmetry_group_IT_number 2
_symmetry_cell_setting 'triclinic'
loop_
_space_group_symop_operation_xyz
x,y,z
-x,-y,-z
loop_
_atom_site_type_symbol
_atom_site_label
_atom_site_fract_x
_atom_site_fract_y
_atom_site_fract_z
Si Si1 0.429101 0.193058 0.839614
Si Si2 0.111837 0.747322 0.529344
Si Si3 0.476811 0.753022 0.757133
Si Si4 0.695963 0.338904 0.594727
Si Si5 0.361249 0.128084 0.418966
Si Si6 0.211491 0.189312 0.629601
Si Si7 0.976467 0.335176 0.149700
Si Si8 0.149366 0.422005 0.998043
O O1 0.508623 0.324940 0.059305
O O2 0.447762 0.223615 0.639946
O O3 0.310761 0.188083 0.795445
O O4 0.435291 0.959439 0.811412
O O5 0.218335 0.684857 0.526166
O O6 0.077831 0.782552 0.733835
O O7 0.033169 0.558954 0.336875
O O8 0.130771 0.969895 0.516089
O O9 0.397234 0.614883 0.539831
O O10 0.587926 0.825321 0.739344
O O11 0.748841 0.507765 0.820951
O O12 0.666486 0.116925 0.618697
O O13 0.264688 0.214306 0.460801
O O14 0.164062 0.344184 0.774302
O O15 0.063465 0.275335 0.043645
O O16 0.892935 0.375327 0.988398
#
# Coordination Sequence:
#
# PCOD9082186 Si02
#       8
#     2   2   2   2   2   2   2   2
#     4   8  17  28  50  79 103 136 175 222 246 299
#     4   9  17  36  54  76 100 132 182 217 265 308
#     4  10  15  31  54  78 104 145 184 210 250 312
#     4   9  17  31  51  74 102 141 173 217 253 314
#     4   8  17  32  51  76 106 141 176 218 252 303
#     4   9  19  34  52  77 111 137 167 230 260 308
#     4   9  20  35  56  74  99 138 175 218 263 333
#     4  10  20  36  51  76 109 134 173 216 277 313
#
# _framework density 25.004206
#
# number of rings (size 3 to 8) (size 9 to 14) (size 15 to 20)
#    0.750    2.250    1.250    1.500    0.000    2.000 
#    2.250    5.000    0.000    0.000    0.000    0.000 
#    0.000    0.000    0.000    0.000    0.000    0.000 
#
# Total GULP energy -89226.732582 kJ/mol
# GULP energy per Si atom -5576.670786 kJ/mol
# Density = 2.494730 g / cm^3
# Si number density = 25.004206 Si / 1000 Ang^3
#
#
#
# Elastic Constant Matrix: (Units=GPa)
#
#
# Indices 1 2 3 4 5 6 
#
# 1 95.4006 17.6450 21.3404 1.3666 -15.3446 11.3039
# 2 17.6450 46.6028 12.2525 -3.1185 -8.3933 11.0696
# 3 21.3404 12.2525 35.5274 -11.7078 -4.4274 5.1562
# 4 1.3666 -3.1185 -11.7078 29.1993 -1.5120 -1.6206
# 5 -15.3446 -8.3933 -4.4274 -1.5120 44.0554 -3.4667
# 6 11.3039 11.0696 5.1562 -1.6206 -3.4667 24.1735
#
#
#
# Elastic Compliance Matrix: (Units=1/GPa)
#
#
# Indices 1 2 3 4 5 6 
#
# 1 0.013603 -0.001910 -0.007932 -0.004059 0.003153 -0.003614
# 2 -0.001910 0.026642 -0.006262 0.000052 0.003033 -0.009533
# 3 -0.007932 -0.006262 0.040529 0.015933 0.000592 -0.000915
# 4 -0.004059 0.000052 0.015933 0.041002 0.001720 0.001471
# 5 0.003153 0.003033 0.000592 0.001720 0.024544 0.000646
# 6 -0.003614 -0.009533 -0.000915 0.001471 0.000646 0.047809
#
#
# Mechanical properties :
#
#
# Convention : Reuss Voigt Hill
#
# Bulk Modulus (GPa) = 20.59123 31.11185 25.85154
# Shear Modulus (GPa) = 20.61626 27.90516 24.26071
#
# Velocity S-wave (km/s) = 2.87455 3.34431 3.11829
# Velocity P-wave (km/s) = 4.38980 5.23280 4.82973
#
# Compressibility (1/GPa) = 0.04856436
#
# Stress axis : x y z
#
# Youngs Moduli (GPa) = 73.51089 37.53538 24.67374
#
# Poissons Ratio (x) = 0.07170 0.19572
# Poissons Ratio (y) = 0.14042 0.15451
# Poissons Ratio (z) = 0.58312 0.23505
#
# Static dielectric constant tensor:
#      x y z
#    x 2.001420 -0.021030 -0.004310 
#    y -0.021030 2.027640 0.029830 
#    z -0.004310 0.029830 2.021760 
# 
# From -- ./inp_files/301686.got.cif
#   From: 2010.05.17/outbox.cif.g08.bks.cpg/sg2_151_cif.got.tgz:301686.got - 2010.06.03 11:33:40.
