data_PCOD9082838
_publ_section_title
;
Structure prediction by ZEFSAII (Michael W. Deem and Ramdas Pophale) SiO2 
 PCOD9082838
Probable space group: P -1
;
_chemical_formula_sum "Si O2"
_cell_formula_units_Z 16
_cell_length_a 9.954031
_cell_length_b 13.991535
_cell_length_c 8.402382
_cell_angle_alpha 60.205043
_cell_angle_beta 119.215840
_cell_angle_gamma 137.359584
_cell_volume 672.791853
_symmetry_space_group_name_H-M "P -1"
_symmetry_group_IT_number 2
_symmetry_cell_setting 'triclinic'
loop_
_space_group_symop_operation_xyz
x,y,z
-x,-y,-z
loop_
_atom_site_type_symbol
_atom_site_label
_atom_site_fract_x
_atom_site_fract_y
_atom_site_fract_z
Si Si1 0.433221 0.176406 0.912292
Si Si2 0.997923 0.650461 0.735312
Si Si3 0.540701 0.478737 0.356609
Si Si4 0.102057 0.205270 0.651949
Si Si5 0.695877 0.308968 0.349550
Si Si6 0.299522 0.666929 0.337097
Si Si7 0.354845 0.021552 0.306733
Si Si8 0.261412 0.500414 0.013123
O O1 0.231892 0.152851 0.767854
O O2 0.567196 0.202620 0.816575
O O3 0.585743 0.340110 0.943315
O O4 0.381170 0.054978 0.105188
O O5 0.937069 0.746432 0.575880
O O6 0.856382 0.491326 0.701651
O O7 0.953184 0.607350 0.929791
O O8 0.206062 0.720996 0.709180
O O9 0.500000 0.500000 0.500000
O O10 0.749539 0.638540 0.303763
O O11 0.551174 0.354025 0.480366
O O12 0.374161 0.440788 0.166966
O O13 0.881276 0.093803 0.693794
O O14 0.779719 0.311820 0.567195
O O15 0.456889 0.179395 0.305691
O O16 0.755936 0.459316 0.204823
O O17 0.500000 0.000000 0.500000
#
# Coordination Sequence:
#
# PCOD9082838 Si02
#       8
#     2   2   2   2   2   2   2   2
#     4   9  18  35  58  77  98 142 189 215 255 323
#     4  10  17  33  56  77 109 139 179 212 261 328
#     4  10  15  33  59  80  99 136 183 217 254 325
#     4  10  17  33  59  80 100 137 189 215 248 315
#     4  11  22  32  49  81 118 136 169 228 273 311
#     4  10  19  34  55  80 106 139 174 224 273 312
#     4  11  22  36  53  79 108 141 182 224 260 310
#     4   9  17  31  54  83 100 138 178 220 266 308
#
# _framework density 23.781502
#
# number of rings (size 3 to 8) (size 9 to 14) (size 15 to 20)
#    0.000    2.000    6.250    1.125    0.000    0.500 
#    0.000    1.250    0.000    1.500    0.000    0.000 
#    0.000    0.000    0.000    0.000    0.000    0.000 
#
# Total GULP energy -89113.326731 kJ/mol
# GULP energy per Si atom -5569.582921 kJ/mol
# Density = 2.372737 g / cm^3
# Si number density = 23.781502 Si / 1000 Ang^3
#
#
#
# Elastic Constant Matrix: (Units=GPa)
#
#
# Indices 1 2 3 4 5 6 
#
# 1 59.4837 41.1649 38.0168 -5.2552 3.1938 30.2528
# 2 41.1649 66.3709 30.7435 -17.7603 -23.2476 37.5849
# 3 38.0168 30.7435 159.9829 -29.1599 -7.7835 28.9517
# 4 -5.2552 -17.7603 -29.1599 27.8096 11.6208 -9.9171
# 5 3.1938 -23.2476 -7.7835 11.6208 47.8550 -5.1872
# 6 30.2528 37.5849 28.9517 -9.9171 -5.1872 37.7889
#
#
#
# Elastic Compliance Matrix: (Units=1/GPa)
#
#
# Indices 1 2 3 4 5 6 
#
# 1 0.045637 -0.031105 -0.007114 -0.013938 -0.016588 -0.006083
# 2 -0.031105 0.068181 0.006070 0.018700 0.027429 -0.038888
# 3 -0.007114 0.006070 0.009559 0.010009 0.002032 -0.004760
# 4 -0.013938 0.018700 0.010009 0.056442 -0.002127 -0.000589
# 5 -0.016588 0.027429 0.002032 -0.002127 0.034948 -0.011318
# 6 -0.006083 -0.038888 -0.004760 -0.000589 -0.011318 0.071950
#
#
# Mechanical properties :
#
#
# Convention : Reuss Voigt Hill
#
# Bulk Modulus (GPa) = 16.92669 56.18752 36.55711
# Shear Modulus (GPa) = 13.48769 34.41820 23.95294
#
# Velocity S-wave (km/s) = 2.38408 3.80842 3.17710
# Velocity P-wave (km/s) = 3.83555 6.55871 5.37253
#
# Compressibility (1/GPa) = 0.05907829
#
# Stress axis : x y z
#
# Youngs Moduli (GPa) = 21.91207 14.66687 104.60955
#
# Poissons Ratio (x) = 0.45622 0.74419
# Poissons Ratio (y) = 0.68158 -0.63497
# Poissons Ratio (z) = 0.15588 -0.08903
#
# Static dielectric constant tensor:
#      x y z
#    x 2.127120 -0.019110 -0.031560 
#    y -0.019110 1.928490 0.026280 
#    z -0.031560 0.026280 2.077240 
# 
# From -- ./inp_files/277498.got.cif
#   From: 2010.05.17/outbox.cif.g08.bks.cpg/sg2_139_cif.got.tgz:277498.got - 2010.06.03 11:33:40.
