data_PCOD9082149
_publ_section_title
;
Structure prediction by ZEFSAII (Michael W. Deem and Ramdas Pophale) SiO2 
 PCOD9082149
Probable space group: P -1
;
_chemical_formula_sum "Si O2"
_cell_formula_units_Z 14
_cell_length_a 9.338740
_cell_length_b 11.929638
_cell_length_c 9.688224
_cell_angle_alpha 45.937646
_cell_angle_beta 125.598897
_cell_angle_gamma 136.631498
_cell_volume 526.145300
_symmetry_space_group_name_H-M "P -1"
_symmetry_group_IT_number 2
_symmetry_cell_setting 'triclinic'
loop_
_space_group_symop_operation_xyz
x,y,z
-x,-y,-z
loop_
_atom_site_type_symbol
_atom_site_label
_atom_site_fract_x
_atom_site_fract_y
_atom_site_fract_z
Si Si1 0.323883 0.495038 0.737169
Si Si2 0.073082 0.219843 0.598391
Si Si3 0.060695 0.183060 0.058768
Si Si4 0.756468 0.552994 0.839979
Si Si5 0.503205 0.743065 0.255701
Si Si6 0.375548 0.951092 0.179909
Si Si7 0.296783 0.749664 0.712876
O O1 0.547342 0.552564 0.752796
O O2 0.310520 0.656961 0.660070
O O3 0.159730 0.383738 0.618499
O O4 0.266814 0.340024 0.957767
O O5 0.884759 0.209515 0.420904
O O6 0.283082 0.252203 0.615522
O O7 0.975000 0.017752 0.787918
O O8 0.062340 0.249346 0.160800
O O9 0.872762 0.169882 0.878340
O O10 0.702659 0.450592 0.748971
O O11 0.762792 0.407289 0.070195
O O12 0.460110 0.823154 0.296786
O O13 0.551231 0.889281 0.033938
O O14 0.480319 0.065812 0.278419
#
# Coordination Sequence:
#
# PCOD9082149 Si02
#       7
#     2   2   2   2   2   2   2
#     4  10  20  37  53  72 103 139 171 201 249 310
#     4  10  20  33  54  79 102 130 168 214 254 290
#     4  10  19  33  53  77 102 133 171 207 245 301
#     4   9  19  36  56  73  99 138 172 203 248 304
#     4   8  17  35  54  73 101 137 171 203 247 305
#     4   9  18  33  53  76 102 134 172 206 245 301
#     4  10  19  33  52  78 104 132 165 208 259 297
#
# _framework density 26.608619000000001
#
# number of rings (size 3 to 8) (size 9 to 14) (size 15 to 20)
#    0.000    2.571    0.000    3.429    0.000    2.286 
#    0.000   13.571    0.000    4.286    0.000    0.000 
#    0.000    0.000    0.000    0.000    0.000    0.000 
#
# Total GULP energy -78441.909528 kJ/mol
# GULP energy per Si atom -5602.993538 kJ/mol
# Density = 2.654806 g / cm^3
# Si number density = 26.608619 Si / 1000 Ang^3
#
#
#
# Elastic Constant Matrix: (Units=GPa)
#
#
# Indices 1 2 3 4 5 6 
#
# 1 85.1169 58.3583 46.8508 -2.5500 17.1308 -16.6276
# 2 58.3583 189.5477 25.3962 10.0468 21.2144 -20.1636
# 3 46.8508 25.3962 105.4056 -7.9897 29.3301 0.2113
# 4 -2.5500 10.0468 -7.9897 25.8615 5.5047 12.7268
# 5 17.1308 21.2144 29.3301 5.5047 48.2380 -0.4473
# 6 -16.6276 -20.1636 0.2113 12.7268 -0.4473 36.3511
#
#
#
# Elastic Compliance Matrix: (Units=1/GPa)
#
#
# Indices 1 2 3 4 5 6 
#
# 1 0.020864 -0.004247 -0.008510 -0.003015 0.000054 0.008293
# 2 -0.004247 0.007378 0.000057 -0.004915 -0.001174 0.003856
# 3 -0.008510 0.000057 0.016221 0.009486 -0.008016 -0.007375
# 4 -0.003015 -0.004915 0.009486 0.057133 -0.009280 -0.024277
# 5 0.000054 -0.001174 -0.008016 -0.009280 0.027189 0.003004
# 6 0.008293 0.003856 -0.007375 -0.024277 0.003004 0.042021
#
#
# Mechanical properties :
#
#
# Convention : Reuss Voigt Hill
#
# Bulk Modulus (GPa) = 52.46544 71.25342 61.85943
# Shear Modulus (GPa) = 24.68399 38.72111 31.70255
#
# Velocity S-wave (km/s) = 3.04907 3.81886 3.45547
# Velocity P-wave (km/s) = 5.67063 6.80304 6.26248
#
# Compressibility (1/GPa) = 0.01906017
#
# Stress axis : x y z
#
# Youngs Moduli (GPa) = 47.92951 135.53986 61.65014
#
# Poissons Ratio (x) = 0.57570 0.52467
# Poissons Ratio (y) = 0.20358 -0.00350
# Poissons Ratio (z) = 0.40790 -0.00769
#
# Static dielectric constant tensor:
#      x y z
#    x 2.115910 0.023510 -0.101700 
#    y 0.023510 2.084790 0.002720 
#    z -0.101700 0.002720 2.059660 
# 
# From -- ./inp_files/181930.got.cif
#   From: 2010.05.17/outbox.cif.g08.bks.cpg/sg2_91_cif.got.tgz:181930.got - 2010.06.03 11:33:40.
