data_PCOD9082243
_publ_section_title
;
Structure prediction by ZEFSAII (Michael W. Deem and Ramdas Pophale) SiO2 
 PCOD9082243
Probable space group: P -1
;
_chemical_formula_sum "Si O2"
_cell_formula_units_Z 16
_cell_length_a 17.550897
_cell_length_b 5.357235
_cell_length_c 22.920239
_cell_angle_alpha 107.043975
_cell_angle_beta 20.374357
_cell_angle_gamma 106.560036
_cell_volume 716.996289
_symmetry_space_group_name_H-M "P -1"
_symmetry_group_IT_number 2
_symmetry_cell_setting 'triclinic'
loop_
_space_group_symop_operation_xyz
x,y,z
-x,-y,-z
loop_
_atom_site_type_symbol
_atom_site_label
_atom_site_fract_x
_atom_site_fract_y
_atom_site_fract_z
Si Si1 0.805136 0.233933 0.598054
Si Si2 0.743641 0.602559 0.847910
Si Si3 0.168693 0.195128 0.068603
Si Si4 0.336883 0.840953 0.564518
Si Si5 0.263382 0.726892 0.020601
Si Si6 0.296687 0.288899 0.233097
Si Si7 0.819656 0.654988 0.513749
Si Si8 0.753373 0.735498 0.432680
O O1 0.688544 0.394601 0.743802
O O2 0.767999 0.408851 0.577639
O O3 0.064934 0.234946 0.426730
O O4 0.754351 0.929681 0.606747
O O5 0.797614 0.710434 0.880692
O O6 0.763538 0.809584 0.795196
O O7 0.923292 0.392043 0.687947
O O8 0.500000 0.500000 0.000000
O O9 0.275057 0.428752 0.972411
O O10 0.915685 0.149444 0.233520
O O11 0.274817 0.919653 0.971753
O O12 0.366926 0.529349 0.523124
O O13 0.500000 0.000000 0.500000
O O14 0.333337 0.998901 0.515756
O O15 0.016617 0.739850 0.226666
O O16 0.468458 0.798104 0.920003
O O17 0.729237 0.684375 0.515150
#
# Coordination Sequence:
#
# PCOD9082243 Si02
#       8
#     2   2   2   2   2   2   2   2
#     4  10  25  35  50  71 102 155 184 224 254 294
#     4  11  20  33  55  77 104 148 174 220 258 308
#     4  10  21  33  48  83 102 136 173 204 266 314
#     4  10  19  33  53  79 115 137 158 206 272 334
#     4  10  20  33  52  72 106 133 172 220 255 304
#     4  10  22  36  50  73 107 145 190 220 259 300
#     4  11  21  38  53  71 109 141 182 222 252 306
#     4  10  19  34  54  83 104 136 170 214 261 324
#
# _framework density 22.31532
#
# number of rings (size 3 to 8) (size 9 to 14) (size 15 to 20)
#    0.000    1.750    3.750    1.125    7.000    6.000 
#    0.000    0.000    0.000    0.000    0.000    0.000 
#    0.000   80.000    0.000    0.000    0.000    0.000 
#
# Total GULP energy -89105.583217 kJ/mol
# GULP energy per Si atom -5569.098951 kJ/mol
# Density = 2.226453 g / cm^3
# Si number density = 22.315320 Si / 1000 Ang^3
#
#
#
# Elastic Constant Matrix: (Units=GPa)
#
#
# Indices 1 2 3 4 5 6 
#
# 1 65.3931 15.4199 22.3808 -1.3034 -5.8747 -10.2700
# 2 15.4199 116.7001 28.1356 2.2396 -2.7364 -29.4258
# 3 22.3808 28.1356 80.7307 -13.8779 -5.2276 16.0219
# 4 -1.3034 2.2396 -13.8779 16.9096 5.7593 -9.1793
# 5 -5.8747 -2.7364 -5.2276 5.7593 25.2667 -1.3462
# 6 -10.2700 -29.4258 16.0219 -9.1793 -1.3462 43.6759
#
#
#
# Elastic Compliance Matrix: (Units=1/GPa)
#
#
# Indices 1 2 3 4 5 6 
#
# 1 0.019036 0.001363 -0.007370 -0.001833 0.003884 0.007832
# 2 0.001363 0.013199 -0.007536 -0.001954 0.001251 0.011605
# 3 -0.007370 -0.007536 0.021429 0.011880 -0.001455 -0.012219
# 4 -0.001833 -0.001954 0.011880 0.079949 -0.015860 0.010208
# 5 0.003884 0.001251 -0.001455 -0.015860 0.043947 0.000311
# 6 0.007832 0.011605 -0.012219 0.010208 0.000311 0.039194
#
#
# Mechanical properties :
#
#
# Convention : Reuss Voigt Hill
#
# Bulk Modulus (GPa) = 37.62583 43.85516 40.74049
# Shear Modulus (GPa) = 19.78634 30.29628 25.04131
#
# Velocity S-wave (km/s) = 2.98093 3.68862 3.35350
# Velocity P-wave (km/s) = 5.36149 6.15113 5.76983
#
# Compressibility (1/GPa) = 0.02657748
#
# Stress axis : x y z
#
# Youngs Moduli (GPa) = 52.53292 75.76439 46.66468
#
# Poissons Ratio (x) = -0.10326 0.34393
# Poissons Ratio (y) = -0.07160 0.35166
# Poissons Ratio (z) = 0.38718 0.57095
#
# Static dielectric constant tensor:
#      x y z
#    x 2.024940 -0.079500 0.132310 
#    y -0.079500 1.990760 -0.001100 
#    z 0.132310 -0.001100 1.929920 
# 
# From -- ./inp_files/620154.got.cif
#   From: 2010.05.17/outbox.cif.g08.bks.cpg/sg2_311_cif.got.tgz:620154.got - 2010.06.03 11:33:40.
