data_PCOD9082413
_publ_section_title
;
Structure prediction by ZEFSAII (Michael W. Deem and Ramdas Pophale) SiO2 
 PCOD9082413
Probable space group: P -1
;
_chemical_formula_sum "Si O2"
_cell_formula_units_Z 16
_cell_length_a 15.845144
_cell_length_b 28.217477
_cell_length_c 6.632739
_cell_angle_alpha 124.333547
_cell_angle_beta 66.789760
_cell_angle_gamma 158.697712
_cell_volume 799.809583
_symmetry_space_group_name_H-M "P -1"
_symmetry_group_IT_number 2
_symmetry_cell_setting 'triclinic'
loop_
_space_group_symop_operation_xyz
x,y,z
-x,-y,-z
loop_
_atom_site_type_symbol
_atom_site_label
_atom_site_fract_x
_atom_site_fract_y
_atom_site_fract_z
Si Si1 0.040868 0.880354 0.478995
Si Si2 0.370837 0.375231 0.063822
Si Si3 0.237919 0.478912 0.195420
Si Si4 0.077113 0.506511 0.252651
Si Si5 0.367250 0.888660 0.675595
Si Si6 0.559540 0.615462 0.520759
Si Si7 0.360421 0.758802 0.301680
Si Si8 0.158209 0.827771 0.380160
O O1 0.027318 0.812939 0.454628
O O2 0.912178 0.793268 0.173632
O O3 0.826881 0.792137 0.587427
O O4 0.337246 0.071500 0.632967
O O5 0.555855 0.440077 0.923226
O O6 0.534569 0.503508 0.745257
O O7 0.387304 0.361818 0.241366
O O8 0.212853 0.528394 0.258885
O O9 0.332142 0.525623 0.448202
O O10 0.971490 0.292472 0.940176
O O11 0.262778 0.650237 0.272817
O O12 0.000000 0.500000 0.500000
O O13 0.820415 0.343139 0.970605
O O14 0.310005 0.789402 0.542455
O O15 0.152758 0.800264 0.546368
O O16 0.566742 0.998348 0.563699
O O17 0.500000 0.000000 0.000000
#
# Coordination Sequence:
#
# PCOD9082413 Si02
#       8
#     2   2   2   2   2   2   2   2
#     4  10  19  38  59  87 128 152 189 252 305 362
#     4  10  20  35  59  93 127 157 195 244 309 374
#     4  11  20  39  59  84 125 158 201 255 292 352
#     4  11  26  44  64  83 119 170 213 255 295 356
#     4  10  22  34  56  89 124 156 196 248 311 372
#     4  10  20  34  60  94 124 162 196 236 313 376
#     4  10  24  42  60  88 120 161 210 253 301 360
#     4  10  19  33  54  87 125 156 189 244 304 357
#
# _framework density 20.004761999999999
#
# number of rings (size 3 to 8) (size 9 to 14) (size 15 to 20)
#    0.000    1.750    3.750    0.750    1.750    6.000 
#    0.000    2.500    0.000    4.500    0.000    0.000 
#    0.000    0.000    0.000    0.000    0.000    0.000 
#
# Total GULP energy -89196.032072 kJ/mol
# GULP energy per Si atom -5574.752005 kJ/mol
# Density = 1.995923 g / cm^3
# Si number density = 20.004762 Si / 1000 Ang^3
#
#
#
# Elastic Constant Matrix: (Units=GPa)
#
#
# Indices 1 2 3 4 5 6 
#
# 1 131.1715 33.7016 34.9537 13.4742 24.8872 -13.2575
# 2 33.7016 73.9150 32.2443 17.7127 16.3903 -10.1238
# 3 34.9537 32.2443 86.4019 9.1067 22.7683 -1.8573
# 4 13.4742 17.7127 9.1067 28.0849 -0.7592 -0.1619
# 5 24.8872 16.3903 22.7683 -0.7592 37.5438 -2.0373
# 6 -13.2575 -10.1238 -1.8573 -0.1619 -2.0373 12.7850
#
#
#
# Elastic Compliance Matrix: (Units=1/GPa)
#
#
# Indices 1 2 3 4 5 6 
#
# 1 0.010689 -0.000488 -0.002138 -0.004212 -0.005145 0.009514
# 2 -0.000488 0.022226 -0.004950 -0.012247 -0.005795 0.015296
# 3 -0.002138 -0.004950 0.016003 -0.001243 -0.006415 -0.004850
# 4 -0.004212 -0.012247 -0.001243 0.045931 0.009159 -0.012204
# 5 -0.005145 -0.005795 -0.006415 0.009159 0.036384 -0.004942
# 6 0.009514 0.015296 -0.004850 -0.012204 -0.004942 0.098547
#
#
# Mechanical properties :
#
#
# Convention : Reuss Voigt Hill
#
# Bulk Modulus (GPa) = 29.61567 54.80973 42.21270
# Shear Modulus (GPa) = 19.51692 28.38866 23.95279
#
# Velocity S-wave (km/s) = 3.12687 3.77117 3.46403
# Velocity P-wave (km/s) = 5.27948 6.81323 6.09479
#
# Compressibility (1/GPa) = 0.03376590
#
# Stress axis : x y z
#
# Youngs Moduli (GPa) = 93.55397 44.99267 62.48675
#
# Poissons Ratio (x) = 0.02195 0.13360
# Poissons Ratio (y) = 0.04563 0.30933
# Poissons Ratio (z) = 0.20002 0.22273
#
# Static dielectric constant tensor:
#      x y z
#    x 1.828110 0.058570 0.041200 
#    y 0.058570 1.749630 0.007480 
#    z 0.041200 0.007480 1.734200 
# 
# From -- ./inp_files/113433.got.cif
#   From: 2010.05.17/outbox.cif.g08.bks.cpg/sg2_57_cif.got.tgz:113433.got - 2010.06.03 11:33:40.
