data_PCOD9082777
_publ_section_title
;
Structure prediction by ZEFSAII (Michael W. Deem and Ramdas Pophale) SiO2 
 PCOD9082777
Probable space group: P -1
;
_chemical_formula_sum "Si O2"
_cell_formula_units_Z 14
_cell_length_a 11.138844
_cell_length_b 9.095412
_cell_length_c 11.580394
_cell_angle_alpha 75.281928
_cell_angle_beta 135.411758
_cell_angle_gamma 83.612874
_cell_volume 719.064644
_symmetry_space_group_name_H-M "P -1"
_symmetry_group_IT_number 2
_symmetry_cell_setting 'triclinic'
loop_
_space_group_symop_operation_xyz
x,y,z
-x,-y,-z
loop_
_atom_site_type_symbol
_atom_site_label
_atom_site_fract_x
_atom_site_fract_y
_atom_site_fract_z
Si Si1 0.827323 0.818916 0.065332
Si Si2 0.553470 0.025996 0.660060
Si Si3 0.824568 0.967630 0.537506
Si Si4 0.209051 0.417543 0.713970
Si Si5 0.435557 0.866791 0.039343
Si Si6 0.211561 0.753353 0.723564
Si Si7 0.857598 0.105326 0.780631
O O1 0.794436 0.693940 0.155288
O O2 0.050276 0.769021 0.215982
O O3 0.713394 0.853754 0.859931
O O4 0.724519 0.011251 0.007580
O O5 0.361272 0.067043 0.589998
O O6 0.650905 0.153807 0.684104
O O7 0.500000 0.000000 0.500000
O O8 0.002970 0.826802 0.623275
O O9 0.790698 0.138078 0.411915
O O10 0.865393 0.997855 0.692255
O O11 0.369634 0.291295 0.762816
O O12 0.266104 0.563427 0.764549
O O13 0.000000 0.500000 0.500000
O O14 0.340030 0.791907 0.896209
O O15 0.500000 0.000000 0.000000
O O16 0.000000 0.000000 0.000000
#
# Coordination Sequence:
#
# PCOD9082777 Si02
#       7
#     2   2   2   2   2   2   2
#     4  10  19  37  59  85 118 151 197 245 288 350
#     4   9  19  33  59  89 108 146 207 251 281 336
#     4  10  19  33  57  90 115 149 198 240 293 353
#     4  11  24  35  55  91 125 158 188 231 305 361
#     4  10  21  36  56  82 119 155 191 232 293 358
#     4  11  22  35  58  87 127 154 188 239 304 364
#     4   9  17  33  57  83 107 150 199 247 280 334
#
# _framework density 19.469736999999999
#
# number of rings (size 3 to 8) (size 9 to 14) (size 15 to 20)
#    0.000    2.000    1.429    3.000    8.000    0.000 
#    0.000    0.000    0.000    8.571   14.857    0.000 
#    0.000    0.000    0.000    0.000    0.000    0.000 
#
# Total GULP energy -77945.495292 kJ/mol
# GULP energy per Si atom -5567.535378 kJ/mol
# Density = 1.942542 g / cm^3
# Si number density = 19.469737 Si / 1000 Ang^3
#
#
#
# Elastic Constant Matrix: (Units=GPa)
#
#
# Indices 1 2 3 4 5 6 
#
# 1 121.0843 33.1446 32.7780 3.5247 17.8548 19.0115
# 2 33.1446 96.5198 32.7693 -1.7368 5.6887 1.3558
# 3 32.7780 32.7693 97.7988 9.4269 4.2111 -1.5701
# 4 3.5247 -1.7368 9.4269 28.8237 2.7409 5.9109
# 5 17.8548 5.6887 4.2111 2.7409 45.0915 15.0865
# 6 19.0115 1.3558 -1.5701 5.9109 15.0865 17.5637
#
#
#
# Elastic Compliance Matrix: (Units=1/GPa)
#
#
# Indices 1 2 3 4 5 6 
#
# 1 0.012119 -0.002707 -0.003655 0.002486 0.000619 -0.014604
# 2 -0.002707 0.012507 -0.003400 0.001915 -0.000905 0.001794
# 3 -0.003655 -0.003400 0.013387 -0.005818 -0.002087 0.009166
# 4 0.002486 0.001915 -0.005818 0.040155 0.003538 -0.019912
# 5 0.000619 -0.000905 -0.002087 0.003538 0.031837 -0.029325
# 6 -0.014604 0.001794 0.009166 -0.019912 -0.029325 0.105314
#
#
# Mechanical properties :
#
#
# Convention : Reuss Voigt Hill
#
# Bulk Modulus (GPa) = 54.09032 56.97630 55.53331
# Shear Modulus (GPa) = 20.74630 32.74320 26.74475
#
# Velocity S-wave (km/s) = 3.26784 4.10536 3.71031
# Velocity P-wave (km/s) = 6.48694 7.19719 6.85128
#
# Compressibility (1/GPa) = 0.01848759
#
# Stress axis : x y z
#
# Youngs Moduli (GPa) = 82.51842 79.95401 74.69763
#
# Poissons Ratio (x) = 0.21644 0.27305
# Poissons Ratio (y) = 0.22338 0.25399
# Poissons Ratio (z) = 0.30163 0.27187
#
# Static dielectric constant tensor:
#      x y z
#    x 1.772470 0.022710 0.023350 
#    y 0.022710 1.674050 0.046510 
#    z 0.023350 0.046510 1.741450 
# 
# From -- ./inp_files/179466.got.cif
#   From: 2010.05.17/outbox.cif.g08.bks.cpg/sg2_90_cif.got.tgz:179466.got - 2010.06.03 11:33:40.
