data_PCOD9082896
_publ_section_title
;
Structure prediction by ZEFSAII (Michael W. Deem and Ramdas Pophale) SiO2 
 PCOD9082896
Probable space group: P -1
;
_chemical_formula_sum "Si O2"
_cell_formula_units_Z 14
_cell_length_a 9.146606
_cell_length_b 11.830909
_cell_length_c 17.175358
_cell_angle_alpha 53.601854
_cell_angle_beta 30.699999
_cell_angle_gamma 51.883698
_cell_volume 737.414683
_symmetry_space_group_name_H-M "P -1"
_symmetry_group_IT_number 2
_symmetry_cell_setting 'triclinic'
loop_
_space_group_symop_operation_xyz
x,y,z
-x,-y,-z
loop_
_atom_site_type_symbol
_atom_site_label
_atom_site_fract_x
_atom_site_fract_y
_atom_site_fract_z
Si Si1 0.797949 0.656524 0.267897
Si Si2 0.541524 0.526441 0.151468
Si Si3 0.163722 0.327228 0.927408
Si Si4 0.534589 0.983182 0.083937
Si Si5 0.571433 0.280599 0.026204
Si Si6 0.106318 0.389139 0.335111
Si Si7 0.806203 0.132589 0.584529
O O1 0.798253 0.601675 0.201547
O O2 0.494489 0.784084 0.358759
O O3 0.859517 0.521729 0.354138
O O4 0.090172 0.716897 0.114848
O O5 0.574546 0.648494 0.147433
O O6 0.262903 0.458534 0.303375
O O7 0.546031 0.597120 0.035560
O O8 0.842516 0.401609 0.077758
O O9 0.191440 0.157805 0.971881
O O10 0.280635 0.932685 0.268567
O O11 0.563687 0.127859 0.054250
O O12 0.500000 0.000000 0.000000
O O13 0.362389 0.324543 0.179264
O O14 0.972474 0.257409 0.472901
O O15 0.000000 0.000000 0.500000
#
# Coordination Sequence:
#
# PCOD9082896 Si02
#       7
#     2   2   2   2   2   2   2
#     4  10  21  37  61  95 114 161 205 249 295 366
#     4  10  19  34  60  91 119 155 200 252 294 358
#     4  10  19  33  58  93 116 153 207 241 300 345
#     4  11  23  39  60  86 122 163 202 246 298 362
#     4  11  19  37  65  89 122 155 209 248 295 357
#     4  11  20  39  61  93 125 152 200 255 305 356
#     4  11  24  39  61  90 127 159 199 251 312 353
#
# _framework density 18.985247999999999
#
# number of rings (size 3 to 8) (size 9 to 14) (size 15 to 20)
#    0.000    1.429    5.714    1.286    0.000    3.429 
#    0.000    2.857    3.143    1.714    0.000    0.000 
#    0.000    0.000    0.000    0.000    0.000    0.000 
#
# Total GULP energy -78053.866412 kJ/mol
# GULP energy per Si atom -5575.276172 kJ/mol
# Density = 1.894204 g / cm^3
# Si number density = 18.985248 Si / 1000 Ang^3
#
#
#
# Elastic Constant Matrix: (Units=GPa)
#
#
# Indices 1 2 3 4 5 6 
#
# 1 88.1461 20.1982 32.6178 -9.7329 -10.1449 2.5108
# 2 20.1982 111.2847 41.9620 -1.7559 -8.6263 5.5281
# 3 32.6178 41.9620 93.0986 -19.8440 -6.4704 0.4968
# 4 -9.7329 -1.7559 -19.8440 40.1224 0.2265 -3.6604
# 5 -10.1449 -8.6263 -6.4704 0.2265 25.0947 1.2108
# 6 2.5108 5.5281 0.4968 -3.6604 1.2108 21.7716
#
#
#
# Elastic Compliance Matrix: (Units=1/GPa)
#
#
# Indices 1 2 3 4 5 6 
#
# 1 0.013605 -0.000552 -0.003960 0.001167 0.004345 -0.001384
# 2 -0.000552 0.011402 -0.005302 -0.002571 0.002511 -0.003282
# 3 -0.003960 -0.005302 0.016025 0.006966 0.000521 0.002579
# 4 0.001167 -0.002571 0.006966 0.029008 0.000872 0.005188
# 5 0.004345 0.002511 0.000521 0.000872 0.042759 -0.003382
# 6 -0.001384 -0.003282 0.002579 0.005188 -0.003382 0.047926
#
#
# Mechanical properties :
#
#
# Convention : Reuss Voigt Hill
#
# Bulk Modulus (GPa) = 46.71674 53.56502 50.14088
# Shear Modulus (GPa) = 26.66837 30.58116 28.62477
#
# Velocity S-wave (km/s) = 3.75198 4.01781 3.88717
# Velocity P-wave (km/s) = 6.59015 7.05684 6.82749
#
# Compressibility (1/GPa) = 0.02140560
#
# Stress axis : x y z
#
# Youngs Moduli (GPa) = 73.50270 87.70008 62.40061
#
# Poissons Ratio (x) = 0.04844 0.24708
# Poissons Ratio (y) = 0.04059 0.33084
# Poissons Ratio (z) = 0.29104 0.46497
#
# Static dielectric constant tensor:
#      x y z
#    x 1.690370 -0.002480 0.000340 
#    y -0.002480 1.698200 0.006600 
#    z 0.000340 0.006600 1.687380 
# 
# From -- ./inp_files/153825.got.cif
#   From: 2010.05.17/outbox.cif.g08.bks.cpg/sg2_77_cif.got.tgz:153825.got - 2010.06.03 11:33:40.
