data_PCOD9082129
_publ_section_title
;
Structure prediction by ZEFSAII (Michael W. Deem and Ramdas Pophale) SiO2 
 PCOD9082129
Probable space group: P -1
;
_chemical_formula_sum "Si O2"
_cell_formula_units_Z 14
_cell_length_a 22.806882
_cell_length_b 13.724040
_cell_length_c 7.726895
_cell_angle_alpha 129.546329
_cell_angle_beta 145.733910
_cell_angle_gamma 30.560140
_cell_volume 668.218745
_symmetry_space_group_name_H-M "P -1"
_symmetry_group_IT_number 2
_symmetry_cell_setting 'triclinic'
loop_
_space_group_symop_operation_xyz
x,y,z
-x,-y,-z
loop_
_atom_site_type_symbol
_atom_site_label
_atom_site_fract_x
_atom_site_fract_y
_atom_site_fract_z
Si Si1 0.185291 0.215869 0.348285
Si Si2 0.686304 0.576018 0.574053
Si Si3 0.811131 0.720930 0.198669
Si Si4 0.933723 0.782566 0.267710
Si Si5 0.155355 0.765905 0.649530
Si Si6 0.657201 0.168502 0.820727
Si Si7 0.458377 0.119941 0.707448
O O1 0.320328 0.180807 0.552383
O O2 0.053849 0.312594 0.985536
O O3 0.271732 0.997658 0.332430
O O4 0.121779 0.329179 0.500500
O O5 0.771825 0.616282 0.917635
O O6 0.802055 0.352023 0.553079
O O7 0.530822 0.680435 0.426482
O O8 0.612760 0.687669 0.333708
O O9 0.629292 0.956147 0.036986
O O10 0.902565 0.721736 0.282584
O O11 0.088923 0.729153 0.588263
O O12 0.768293 0.018953 0.089123
O O13 0.300264 0.727400 0.000671
O O14 0.000000 0.000000 0.500000
O O15 0.500000 0.000000 0.500000
#
# Coordination Sequence:
#
# PCOD9082129 Si02
#       7
#     2   2   2   2   2   2   2
#     4  10  18  31  59  85 119 141 171 227 287 330
#     4  11  18  33  59  86 109 143 187 230 274 329
#     4  11  18  32  59  91 113 140 173 230 291 328
#     4   9  18  37  54  82 115 146 179 222 275 332
#     4  10  22  36  59  75 109 160 190 223 270 318
#     4   9  17  35  56  81 109 146 187 222 267 327
#     4  10  15  31  52  86 118 133 176 225 280 330
#
# _framework density 20.951224
#
# number of rings (size 3 to 8) (size 9 to 14) (size 15 to 20)
#    0.857    1.143    7.143    0.857    0.000    0.571 
#    0.000    1.429    0.000    0.857    0.000    0.000 
#    0.000    0.000    0.000    0.000    0.000    0.000 
#
# Total GULP energy -78059.847489 kJ/mol
# GULP energy per Si atom -5575.703392 kJ/mol
# Density = 2.090354 g / cm^3
# Si number density = 20.951224 Si / 1000 Ang^3
#
#
#
# Elastic Constant Matrix: (Units=GPa)
#
#
# Indices 1 2 3 4 5 6 
#
# 1 132.7203 32.8893 77.1835 29.5393 31.3060 -15.0341
# 2 32.8893 98.4103 32.5272 17.5391 6.2935 -14.7025
# 3 77.1835 32.5272 98.3260 18.0990 37.1719 5.9477
# 4 29.5393 17.5391 18.0990 31.0956 3.2814 -3.8378
# 5 31.3060 6.2935 37.1719 3.2814 42.1059 1.4307
# 6 -15.0341 -14.7025 5.9477 -3.8378 1.4307 24.6613
#
#
#
# Elastic Compliance Matrix: (Units=1/GPa)
#
#
# Indices 1 2 3 4 5 6 
#
# 1 0.020039 0.002487 -0.015120 -0.009485 -0.001725 0.015970
# 2 0.002487 0.014073 -0.007283 -0.005000 0.002501 0.010740
# 3 -0.015120 -0.007283 0.031329 -0.000741 -0.014577 -0.020385
# 4 -0.009485 -0.005000 -0.000741 0.043621 0.005125 -0.002094
# 5 -0.001725 0.002501 -0.014577 0.005125 0.037039 0.002604
# 6 0.015970 0.010740 -0.020385 -0.002094 0.002604 0.061127
#
#
# Mechanical properties :
#
#
# Convention : Reuss Voigt Hill
#
# Bulk Modulus (GPa) = 39.04972 68.29517 53.67245
# Shear Modulus (GPa) = 19.56211 32.02967 25.79589
#
# Velocity S-wave (km/s) = 3.05896 3.91419 3.51270
# Velocity P-wave (km/s) = 5.58168 7.28669 6.49042
#
# Compressibility (1/GPa) = 0.02560838
#
# Stress axis : x y z
#
# Youngs Moduli (GPa) = 49.90390 71.05727 31.91957
#
# Poissons Ratio (x) = -0.17674 0.48264
# Poissons Ratio (y) = -0.12413 0.23247
# Poissons Ratio (z) = 0.75457 0.51751
#
# Static dielectric constant tensor:
#      x y z
#    x 1.739140 0.018990 0.002080 
#    y 0.018990 1.855220 -0.046420 
#    z 0.002080 -0.046420 1.810790 
# 
# From -- ./inp_files/346385.got.cif
#   From: 2010.05.17/outbox.cif.g08.bks.cpg/sg2_174_cif.got.tgz:346385.got - 2010.06.03 11:33:40.
