data_PCOD9082362
_publ_section_title
;
Structure prediction by ZEFSAII (Michael W. Deem and Ramdas Pophale) SiO2 
 PCOD9082362
Probable space group: P -1
;
_chemical_formula_sum "Si O2"
_cell_formula_units_Z 16
_cell_length_a 9.006897
_cell_length_b 18.498905
_cell_length_c 8.686067
_cell_angle_alpha 95.503099
_cell_angle_beta 103.249926
_cell_angle_gamma 34.660459
_cell_volume 789.864985
_symmetry_space_group_name_H-M "P -1"
_symmetry_group_IT_number 2
_symmetry_cell_setting 'triclinic'
loop_
_space_group_symop_operation_xyz
x,y,z
-x,-y,-z
loop_
_atom_site_type_symbol
_atom_site_label
_atom_site_fract_x
_atom_site_fract_y
_atom_site_fract_z
Si Si1 0.122120 0.614713 0.873126
Si Si2 0.691777 0.195042 0.545860
Si Si3 0.941864 0.334321 0.587945
Si Si4 0.498376 0.414685 0.670611
Si Si5 0.266973 0.988076 0.493140
Si Si6 0.191503 0.152615 0.322740
Si Si7 0.902451 0.632411 0.117848
Si Si8 0.277534 0.349031 0.215812
O O1 0.395405 0.485912 0.824196
O O2 0.009570 0.738823 0.834527
O O3 0.890626 0.651985 0.752449
O O4 0.101870 0.597776 0.040661
O O5 0.564808 0.303246 0.654909
O O6 0.530904 0.268780 0.361644
O O7 0.004062 0.087636 0.559924
O O8 0.662790 0.121565 0.560839
O O9 0.755616 0.356296 0.653682
O O10 0.742064 0.469615 0.482371
O O11 0.150534 0.295293 0.737028
O O12 0.074210 0.233842 0.468224
O O13 0.209362 0.060893 0.345784
O O14 0.508624 0.931771 0.633302
O O15 0.067897 0.497592 0.185697
O O16 0.671322 0.696506 0.957977
#
# Coordination Sequence:
#
# PCOD9082362 Si02
#       8
#     2   2   2   2   2   2   2   2
#     4   9  19  33  53  85 110 136 174 220 273 327
#     4  11  19  35  55  81 108 145 178 229 265 310
#     4  10  19  33  54  81 113 138 170 228 278 319
#     4  10  20  31  52  86 112 132 176 227 279 311
#     4  10  21  33  55  79 106 146 186 224 264 307
#     4  10  19  36  55  85 107 136 189 228 259 315
#     4   9  18  34  53  80 111 150 166 207 285 338
#     4   9  18  33  50  80 110 146 173 209 271 331
#
# _framework density 20.256626000000001
#
# number of rings (size 3 to 8) (size 9 to 14) (size 15 to 20)
#    0.750    1.500    3.750    0.000    0.000    2.000 
#    0.000    0.000    0.000    7.500    3.250    0.000 
#    0.000    0.000    0.000    0.000    0.000    0.000 
#
# Total GULP energy -89157.640411 kJ/mol
# GULP energy per Si atom -5572.352526 kJ/mol
# Density = 2.021052 g / cm^3
# Si number density = 20.256626 Si / 1000 Ang^3
#
#
#
# Elastic Constant Matrix: (Units=GPa)
#
#
# Indices 1 2 3 4 5 6 
#
# 1 51.7842 28.2247 1.9495 -7.1763 -9.7115 16.4125
# 2 28.2247 80.8036 3.8455 -10.1019 -3.6348 24.5290
# 3 1.9495 3.8455 23.5941 1.0823 4.4041 3.3731
# 4 -7.1763 -10.1019 1.0823 14.4418 4.2931 -4.0608
# 5 -9.7115 -3.6348 4.4041 4.2931 18.8401 -8.2946
# 6 16.4125 24.5290 3.3731 -4.0608 -8.2946 47.2422
#
#
#
# Elastic Compliance Matrix: (Units=1/GPa)
#
#
# Indices 1 2 3 4 5 6 
#
# 1 0.027035 -0.007325 -0.002815 0.004436 0.010800 -0.003111
# 2 -0.007325 0.017886 -0.000769 0.008520 -0.005103 -0.006851
# 3 -0.002815 -0.000769 0.046085 -0.002571 -0.013792 -0.004556
# 4 0.004436 0.008520 -0.002571 0.081578 -0.014648 -0.001341
# 5 0.010800 -0.005103 -0.013792 -0.014648 0.068946 0.010728
# 6 -0.003111 -0.006851 -0.004556 -0.001341 0.010728 0.027899
#
#
# Mechanical properties :
#
#
# Convention : Reuss Voigt Hill
#
# Bulk Modulus (GPa) = 14.45301 24.91348 19.68324
# Shear Modulus (GPa) = 15.90789 24.24895 20.07842
#
# Velocity S-wave (km/s) = 2.80539 3.46365 3.15175
# Velocity P-wave (km/s) = 4.20049 5.32179 4.79403
#
# Compressibility (1/GPa) = 0.06918975
#
# Stress axis : x y z
#
# Youngs Moduli (GPa) = 36.98864 55.90973 21.69894
#
# Poissons Ratio (x) = 0.40952 0.06108
# Poissons Ratio (y) = 0.27093 0.01668
# Poissons Ratio (z) = 0.10412 0.04298
#
# Static dielectric constant tensor:
#      x y z
#    x 1.758070 0.018510 0.018260 
#    y 0.018510 1.733610 -0.000500 
#    z 0.018260 -0.000500 1.731090 
# 
# From -- ./inp_files/400555.got.cif
#   From: 2010.05.17/outbox.cif.g08.bks.cpg/sg2_201_cif.got.tgz:400555.got - 2010.06.03 11:33:40.
