data_PCOD9082289
_publ_section_title
;
Structure prediction by ZEFSAII (Michael W. Deem and Ramdas Pophale) SiO2 
 PCOD9082289
Probable space group: P -1
;
_chemical_formula_sum "Si O2"
_cell_formula_units_Z 12
_cell_length_a 35.128463
_cell_length_b 34.192891
_cell_length_c 13.428926
_cell_angle_alpha 15.525714
_cell_angle_beta 164.246809
_cell_angle_gamma 171.634311
_cell_volume 610.453867
_symmetry_space_group_name_H-M "P -1"
_symmetry_group_IT_number 2
_symmetry_cell_setting 'triclinic'
loop_
_space_group_symop_operation_xyz
x,y,z
-x,-y,-z
loop_
_atom_site_type_symbol
_atom_site_label
_atom_site_fract_x
_atom_site_fract_y
_atom_site_fract_z
Si Si1 0.752976 0.544309 0.729383
Si Si2 0.713180 0.911581 0.011549
Si Si3 0.960355 0.022727 0.009572
Si Si4 0.359564 0.013555 0.162408
Si Si5 0.820691 0.706900 0.897783
Si Si6 0.632680 0.765377 0.640042
O O1 0.602246 0.357834 0.706285
O O2 0.554187 0.319594 0.867721
O O3 0.775359 0.738979 0.296832
O O4 0.053573 0.754262 0.988577
O O5 0.808730 0.864846 0.441016
O O6 0.455110 0.617787 0.027042
O O7 0.652128 0.990291 0.738666
O O8 0.942986 0.149702 0.926600
O O9 0.114459 0.240284 0.951721
O O10 0.156934 0.099025 0.247863
O O11 0.793321 0.968539 0.641487
O O12 0.500000 0.000000 0.500000
O O13 0.500000 0.500000 0.000000
#
# Coordination Sequence:
#
# PCOD9082289 Si02
#       6
#     2   2   2   2   2   2
#     4  11  20  36  54  79 112 140 178 230 266 313
#     4  10  21  33  49  78 105 146 179 210 269 322
#     4  10  19  33  53  86 114 144 169 217 283 336
#     4  12  24  38  56  77 109 151 192 223 257 308
#     4  10  20  31  54  75 113 140 166 218 274 333
#     4   9  19  31  55  80 117 137 176 215 278 342
#
# _framework density 19.657505
#
# number of rings (size 3 to 8) (size 9 to 14) (size 15 to 20)
#    0.000    1.667    3.333    1.500    9.333    0.000 
#    0.000    0.000    0.000    0.000    0.000    7.000 
#    0.000    0.000    0.000    0.000    0.000    0.000 
#
# Total GULP energy -66933.216797 kJ/mol
# GULP energy per Si atom -5577.768066 kJ/mol
# Density = 1.961276 g / cm^3
# Si number density = 19.657505 Si / 1000 Ang^3
#
#
#
# Elastic Constant Matrix: (Units=GPa)
#
#
# Indices 1 2 3 4 5 6 
#
# 1 139.8764 39.4836 22.2369 20.9734 -5.7800 -18.8919
# 2 39.4836 100.1613 9.3052 22.7285 -14.6235 1.0834
# 3 22.2369 9.3052 9.9845 7.4397 3.1459 -2.2925
# 4 20.9734 22.7285 7.4397 24.4052 -1.1357 -15.6047
# 5 -5.7800 -14.6235 3.1459 -1.1357 21.6516 6.5102
# 6 -18.8919 1.0834 -2.2925 -15.6047 6.5102 46.4918
#
#
#
# Elastic Compliance Matrix: (Units=1/GPa)
#
#
# Indices 1 2 3 4 5 6 
#
# 1 0.012729 -0.002286 -0.028986 0.002850 0.004996 0.004053
# 2 -0.002286 0.017677 -0.003880 -0.018960 0.013856 -0.009836
# 3 -0.028986 -0.003880 0.211926 -0.044740 -0.040306 -0.010611
# 4 0.002850 -0.018960 -0.044740 0.088960 -0.010099 0.030667
# 5 0.004996 0.013856 -0.040306 -0.010099 0.066091 -0.012925
# 6 0.004053 -0.009836 -0.010611 0.030667 -0.012925 0.034965
#
#
# Mechanical properties :
#
#
# Convention : Reuss Voigt Hill
#
# Bulk Modulus (GPa) = 5.81297 43.56374 24.68836
# Shear Modulus (GPa) = 8.92865 30.44282 19.68574
#
# Velocity S-wave (km/s) = 2.13353 3.93957 3.16798
# Velocity P-wave (km/s) = 3.00547 6.55005 5.09588
#
# Compressibility (1/GPa) = 0.17202915
#
# Stress axis : x y z
#
# Youngs Moduli (GPa) = 78.56022 56.57000 4.71862
#
# Poissons Ratio (x) = 0.12933 0.13677
# Poissons Ratio (y) = 0.17960 0.01831
# Poissons Ratio (z) = 2.27715 0.21947
#
# Static dielectric constant tensor:
#      x y z
#    x 1.741070 -0.014580 -0.018520 
#    y -0.014580 1.757160 0.017520 
#    z -0.018520 0.017520 1.717030 
# 
# From -- ./inp_files/61045.got.cif
#   From: 2010.05.17/outbox.cif.g08.bks.cpg/sg2_31_cif.got.tgz:61045.got - 2010.06.03 11:33:40.
