data_PCOD9082866
_publ_section_title
;
Structure prediction by ZEFSAII (Michael W. Deem and Ramdas Pophale) SiO2 
 PCOD9082866
Probable space group: P -1
;
_chemical_formula_sum "Si O2"
_cell_formula_units_Z 14
_cell_length_a 7.461189
_cell_length_b 10.375878
_cell_length_c 11.945374
_cell_angle_alpha 47.142858
_cell_angle_beta 116.993032
_cell_angle_gamma 128.177574
_cell_volume 531.999083
_symmetry_space_group_name_H-M "P -1"
_symmetry_group_IT_number 2
_symmetry_cell_setting 'triclinic'
loop_
_space_group_symop_operation_xyz
x,y,z
-x,-y,-z
loop_
_atom_site_type_symbol
_atom_site_label
_atom_site_fract_x
_atom_site_fract_y
_atom_site_fract_z
Si Si1 0.138212 0.884393 0.517750
Si Si2 0.259312 0.651400 0.523496
Si Si3 0.489506 0.304555 0.899832
Si Si4 0.122894 0.267098 0.247400
Si Si5 0.101559 0.211503 0.014510
Si Si6 0.711615 0.075640 0.821161
Si Si7 0.676194 0.666805 0.370054
O O1 0.267147 0.776691 0.559708
O O2 0.078505 0.819775 0.667072
O O3 0.900706 0.790537 0.433460
O O4 0.237969 0.121943 0.392114
O O5 0.337968 0.485204 0.644451
O O6 0.000000 0.500000 0.500000
O O7 0.354794 0.804861 0.356451
O O8 0.722417 0.499619 0.826371
O O9 0.388579 0.204971 0.807280
O O10 0.328784 0.339088 0.928315
O O11 0.498398 0.122059 0.075357
O O12 0.087384 0.258442 0.110337
O O13 0.121436 0.004095 0.143098
O O14 0.887295 0.203969 0.891860
O O15 0.500000 0.500000 0.500000
#
# Coordination Sequence:
#
# PCOD9082866 Si02
#       7
#     2   2   2   2   2   2   2
#     4  10  20  35  55  86 124 150 193 234 297 337
#     4  10  20  36  63  86 116 149 198 245 288 335
#     4  10  19  33  58  88 113 155 196 236 284 349
#     4  11  19  31  58  87 121 157 188 236 288 360
#     4   9  17  31  57  83 116 151 196 227 289 340
#     4   9  18  35  59  84 115 154 200 238 283 346
#     4  11  21  39  62  88 111 151 205 244 285 346
#
# _framework density 26.315837999999999
#
# number of rings (size 3 to 8) (size 9 to 14) (size 15 to 20)
#    0.857    1.143    2.857    3.000    0.000    0.000 
#    0.000    1.429    0.000    9.429    0.000    0.000 
#    0.000    0.000    0.000    0.000    0.000    0.000 
#
# Total GULP energy -78107.942513 kJ/mol
# GULP energy per Si atom -5579.138751 kJ/mol
# Density = 2.625594 g / cm^3
# Si number density = 26.315838 Si / 1000 Ang^3
#
#
#
# Elastic Constant Matrix: (Units=GPa)
#
#
# Indices 1 2 3 4 5 6 
#
# 1 49.0124 27.2737 27.4843 6.2301 -12.8397 -18.6041
# 2 27.2737 69.0649 26.3655 -6.1548 -8.7380 -11.5581
# 3 27.4843 26.3655 147.9820 19.0099 -50.1546 2.2496
# 4 6.2301 -6.1548 19.0099 56.1798 0.8174 -13.3473
# 5 -12.8397 -8.7380 -50.1546 0.8174 34.0688 2.5765
# 6 -18.6041 -11.5581 2.2496 -13.3473 2.5765 36.6643
#
#
#
# Elastic Compliance Matrix: (Units=1/GPa)
#
#
# Indices 1 2 3 4 5 6 
#
# 1 0.033980 -0.009275 -0.003280 -0.000402 0.004546 0.014053
# 2 -0.009275 0.020541 -0.004698 0.006058 -0.005641 0.004659
# 3 -0.003280 -0.004698 0.017846 -0.008725 0.024733 -0.009154
# 4 -0.000402 0.006058 -0.008725 0.024518 -0.012943 0.012076
# 5 0.004546 -0.005641 0.024733 -0.012943 0.067129 -0.010419
# 6 0.014053 0.004659 -0.009154 0.012076 -0.010419 0.041564
#
#
# Mechanical properties :
#
#
# Convention : Reuss Voigt Hill
#
# Bulk Modulus (GPa) = 26.41223 47.58960 37.00091
# Shear Modulus (GPa) = 19.78592 37.71164 28.74878
#
# Velocity S-wave (km/s) = 2.74499 3.78966 3.30881
# Velocity P-wave (km/s) = 4.48386 6.10508 5.35616
#
# Compressibility (1/GPa) = 0.03786125
#
# Stress axis : x y z
#
# Youngs Moduli (GPa) = 29.42911 48.68253 56.03371
#
# Poissons Ratio (x) = 0.45155 0.18378
# Poissons Ratio (y) = 0.27297 0.26325
# Poissons Ratio (z) = 0.09652 0.22871
#
# Static dielectric constant tensor:
#      x y z
#    x 2.302420 -0.116390 0.321600 
#    y -0.116390 2.031120 -0.089030 
#    z 0.321600 -0.089030 2.503610 
# 
# From -- ./inp_files/392139.got.cif
#   From: 2010.05.17/outbox.cif.g08.bks.cpg/sg2_197_cif.got.tgz:392139.got - 2010.06.03 11:33:40.
