data_PCOD9082649
_publ_section_title
;
Structure prediction by ZEFSAII (Michael W. Deem and Ramdas Pophale) SiO2 
 PCOD9082649
Probable space group: P -1
;
_chemical_formula_sum "Si O2"
_cell_formula_units_Z 16
_cell_length_a 13.770637
_cell_length_b 13.409247
_cell_length_c 10.869427
_cell_angle_alpha 129.139840
_cell_angle_beta 67.718372
_cell_angle_gamma 149.049265
_cell_volume 731.460620
_symmetry_space_group_name_H-M "P -1"
_symmetry_group_IT_number 2
_symmetry_cell_setting 'triclinic'
loop_
_space_group_symop_operation_xyz
x,y,z
-x,-y,-z
loop_
_atom_site_type_symbol
_atom_site_label
_atom_site_fract_x
_atom_site_fract_y
_atom_site_fract_z
Si Si1 0.795800 0.502818 0.371999
Si Si2 0.425819 0.285216 0.314995
Si Si3 0.420392 0.870410 0.619302
Si Si4 0.715105 0.373627 0.756911
Si Si5 0.053410 0.902257 0.037958
Si Si6 0.246881 0.009441 0.430837
Si Si7 0.023861 0.898589 0.760157
Si Si8 0.438828 0.319335 0.798903
O O1 0.615068 0.384952 0.293884
O O2 0.708852 0.284305 0.313223
O O3 0.836031 0.636020 0.575889
O O4 0.014054 0.732676 0.373686
O O5 0.500000 0.500000 0.500000
O O6 0.293201 0.154905 0.153886
O O7 0.262646 0.061741 0.321606
O O8 0.283122 0.707103 0.433413
O O9 0.554314 0.139212 0.744578
O O10 0.598661 0.947901 0.591346
O O11 0.619634 0.409049 0.790614
O O12 0.931906 0.642697 0.922096
O O13 0.964478 0.941688 0.167535
O O14 0.021669 0.888549 0.897973
O O15 0.357699 0.242492 0.637396
O O16 0.229636 0.039345 0.736689
O O17 0.500000 0.500000 0.000000
#
# Coordination Sequence:
#
# PCOD9082649 Si02
#       8
#     2   2   2   2   2   2   2   2
#     4  10  19  41  59  82 118 155 194 241 290 344
#     4  11  23  37  58  87 122 160 191 234 296 357
#     4   9  19  38  63  84 115 158 196 242 291 341
#     4  10  19  36  58  89 119 147 197 246 290 344
#     4  11  21  35  57  86 119 153 189 240 293 348
#     4   9  22  38  58  84 115 159 200 233 289 353
#     4  10  20  34  57  85 115 149 188 237 299 347
#     4  10  19  33  56  88 117 147 186 247 297 342
#
# _framework density 21.874041999999999
#
# number of rings (size 3 to 8) (size 9 to 14) (size 15 to 20)
#    0.000    2.000    3.750    0.000    1.750    0.500 
#    4.500    5.000    0.000    1.500    0.000    0.000 
#    0.000    0.000    0.000    0.000    0.000    0.000 
#
# Total GULP energy -89126.513890 kJ/mol
# GULP energy per Si atom -5570.407118 kJ/mol
# Density = 2.182426 g / cm^3
# Si number density = 21.874042 Si / 1000 Ang^3
#
#
#
# Elastic Constant Matrix: (Units=GPa)
#
#
# Indices 1 2 3 4 5 6 
#
# 1 28.6871 22.0781 18.3434 10.1368 19.8325 -2.1925
# 2 22.0781 108.8086 8.0150 22.8967 6.3954 2.9038
# 3 18.3434 8.0150 61.6122 30.1138 5.1155 2.6996
# 4 10.1368 22.8967 30.1138 32.3979 7.0161 -3.8974
# 5 19.8325 6.3954 5.1155 7.0161 10.8342 13.5832
# 6 -2.1925 2.9038 2.6996 -3.8974 13.5832 26.0080
#
#
#
# Elastic Compliance Matrix: (Units=1/GPa)
#
#
# Indices 1 2 3 4 5 6 
#
# 1 -0.000477 0.002452 0.008888 -0.024157 0.049136 -0.030519
# 2 0.002452 0.010617 0.002089 -0.006757 -0.013320 0.004748
# 3 0.008888 0.002089 0.025419 -0.020976 -0.026994 0.008832
# 4 -0.024157 -0.006757 -0.020976 0.054546 0.033078 -0.008206
# 5 0.049136 -0.013320 -0.026994 0.033078 -0.044155 0.036449
# 6 -0.030519 0.004748 0.008832 -0.008206 0.036449 0.014164
#
#
# Mechanical properties :
#
#
# Convention : Reuss Voigt Hill
#
# Bulk Modulus (GPa) = 16.02139 32.88676 24.45408
# Shear Modulus (GPa) = 92.48534 23.89276 58.18905
#
# Velocity S-wave (km/s) = 6.50943 3.30856 5.16330
# Velocity P-wave (km/s) = 7.98982 5.44635 6.83739
#
# Compressibility (1/GPa) = 0.06241656
#
# Stress axis : x y z
#
# Youngs Moduli (GPa) = -2096.05092 94.18816 39.34018
#
# Poissons Ratio (x) = -0.23094 -0.34964
# Poissons Ratio (y) = 5.13927 -0.08219
# Poissons Ratio (z) = 18.62890 -0.19677
#
# Static dielectric constant tensor:
#      x y z
#    x 1.822350 -0.029580 -0.016400 
#    y -0.029580 1.858500 -0.001870 
#    z -0.016400 -0.001870 1.891010 
# 
# From -- ./inp_files/433862.got.cif
#   From: 2010.05.17/outbox.cif.g08.bks.cpg/sg2_217_cif.got.tgz:433862.got - 2010.06.03 11:33:40.
