data_PCOD9082361
_publ_section_title
;
Structure prediction by ZEFSAII (Michael W. Deem and Ramdas Pophale) SiO2 
 PCOD9082361
Probable space group: P -1
;
_chemical_formula_sum "Si O2"
_cell_formula_units_Z 16
_cell_length_a 12.100759
_cell_length_b 15.151108
_cell_length_c 8.436928
_cell_angle_alpha 52.580354
_cell_angle_beta 72.443796
_cell_angle_gamma 113.898728
_cell_volume 737.208427
_symmetry_space_group_name_H-M "P -1"
_symmetry_group_IT_number 2
_symmetry_cell_setting 'triclinic'
loop_
_space_group_symop_operation_xyz
x,y,z
-x,-y,-z
loop_
_atom_site_type_symbol
_atom_site_label
_atom_site_fract_x
_atom_site_fract_y
_atom_site_fract_z
Si Si1 0.251981 0.595786 0.164875
Si Si2 0.588270 0.920499 0.868072
Si Si3 0.980324 0.241111 0.857422
Si Si4 0.794698 0.864144 0.685660
Si Si5 0.693598 0.886111 0.168087
Si Si6 0.470004 0.348640 0.214193
Si Si7 0.713853 0.678692 0.196100
Si Si8 0.709338 0.163182 0.297017
O O1 0.075680 0.408339 0.526970
O O2 0.381479 0.750232 0.075118
O O3 0.382714 0.602533 0.015808
O O4 0.216767 0.660350 0.972813
O O5 0.703987 0.906031 0.753308
O O6 0.683007 0.100812 0.556212
O O7 0.604447 0.908471 0.060096
O O8 0.150133 0.308514 0.800768
O O9 0.839425 0.180266 0.118069
O O10 0.862093 0.072134 0.980088
O O11 0.738339 0.825620 0.571617
O O12 0.718868 0.697743 0.984443
O O13 0.000000 0.000000 0.500000
O O14 0.544448 0.722399 0.533021
O O15 0.759958 0.829441 0.098846
O O16 0.500000 0.500000 0.000000
O O17 0.500000 0.500000 0.500000
O O18 0.500000 0.000000 0.500000
#
# Coordination Sequence:
#
# PCOD9082361 Si02
#       8
#     2   2   2   2   2   2   2   2
#     4  10  22  41  62  88 120 163 212 253 303 373
#     4   9  20  39  60  84 120 163 205 249 302 367
#     4  12  22  38  64  94 124 159 206 264 311 360
#     4  10  19  33  54  81 112 152 196 236 291 361
#     4  11  22  37  59  94 128 159 200 257 315 365
#     4  11  22  38  59  87 122 158 196 249 310 363
#     4  11  22  38  59  89 125 162 200 245 304 374
#     4  10  21  42  66  87 118 168 216 255 302 369
#
# _framework density 21.703496999999999
#
# number of rings (size 3 to 8) (size 9 to 14) (size 15 to 20)
#    0.000    1.500    0.000    8.250    0.000    3.000 
#    0.000    8.750    0.000    0.000    0.000    0.000 
#    0.000    0.000    0.000    0.000    0.000    0.000 
#
# Total GULP energy -89204.603838 kJ/mol
# GULP energy per Si atom -5575.287740 kJ/mol
# Density = 2.165410 g / cm^3
# Si number density = 21.703497 Si / 1000 Ang^3
#
#
#
# Elastic Constant Matrix: (Units=GPa)
#
#
# Indices 1 2 3 4 5 6 
#
# 1 90.2469 27.9364 51.6650 -1.2796 19.8051 13.5855
# 2 27.9364 54.4704 29.2534 -0.4962 8.3125 9.4675
# 3 51.6650 29.2534 162.0377 5.5555 28.5182 15.2803
# 4 -1.2796 -0.4962 5.5555 28.7960 7.4473 9.5501
# 5 19.8051 8.3125 28.5182 7.4473 51.8983 8.8217
# 6 13.5855 9.4675 15.2803 9.5501 8.8217 24.2136
#
#
#
# Elastic Compliance Matrix: (Units=1/GPa)
#
#
# Indices 1 2 3 4 5 6 
#
# 1 0.016074 -0.005031 -0.003288 0.003853 -0.003166 -0.005343
# 2 -0.005031 0.023113 -0.002102 0.002531 0.000011 -0.005890
# 3 -0.003288 -0.002102 0.008202 -0.000661 -0.002600 -0.001302
# 4 0.003853 0.002531 -0.000661 0.042111 -0.004549 -0.017686
# 5 -0.003166 0.000011 -0.002600 -0.004549 0.023102 -0.003210
# 6 -0.005343 -0.005890 -0.001302 -0.017686 -0.003210 0.055566
#
#
# Mechanical properties :
#
#
# Convention : Reuss Voigt Hill
#
# Bulk Modulus (GPa) = 37.66869 58.27386 47.97127
# Shear Modulus (GPa) = 25.27048 34.17494 29.72271
#
# Velocity S-wave (km/s) = 3.41596 3.97246 3.70468
# Velocity P-wave (km/s) = 5.74039 6.92451 6.36007
#
# Compressibility (1/GPa) = 0.02654725
#
# Stress axis : x y z
#
# Youngs Moduli (GPa) = 62.21150 43.26588 121.91984
#
# Poissons Ratio (x) = 0.21769 0.40086
# Poissons Ratio (y) = 0.31301 0.25624
# Poissons Ratio (z) = 0.20454 0.09093
#
# Static dielectric constant tensor:
#      x y z
#    x 1.808590 0.020090 0.027120 
#    y 0.020090 1.881780 -0.032350 
#    z 0.027120 -0.032350 1.848600 
# 
# From -- ./inp_files/222999.got.cif
#   From: 2010.05.17/outbox.cif.g08.bks.cpg/sg2_112_cif.got.tgz:222999.got - 2010.06.03 11:33:40.
