data_PCOD9082667
_publ_section_title
;
Structure prediction by ZEFSAII (Michael W. Deem and Ramdas Pophale) SiO2 
 PCOD9082667
Probable space group: P -1
;
_chemical_formula_sum "Si O2"
_cell_formula_units_Z 14
_cell_length_a 8.587388
_cell_length_b 12.806444
_cell_length_c 8.603498
_cell_angle_alpha 89.066899
_cell_angle_beta 114.380554
_cell_angle_gamma 135.067544
_cell_volume 549.811119
_symmetry_space_group_name_H-M "P -1"
_symmetry_group_IT_number 2
_symmetry_cell_setting 'triclinic'
loop_
_space_group_symop_operation_xyz
x,y,z
-x,-y,-z
loop_
_atom_site_type_symbol
_atom_site_label
_atom_site_fract_x
_atom_site_fract_y
_atom_site_fract_z
Si Si1 0.794753 0.809332 0.373272
Si Si2 0.082530 0.274973 0.051785
Si Si3 0.434927 0.297776 0.392883
Si Si4 0.031115 0.632397 0.692154
Si Si5 0.323980 0.015772 0.475826
Si Si6 0.495181 0.988694 0.812601
Si Si7 0.229367 0.554281 0.983194
O O1 0.690367 0.713746 0.496362
O O2 0.528386 0.706498 0.169150
O O3 0.007456 0.845293 0.358568
O O4 0.000000 0.000000 0.500000
O O5 0.279146 0.276064 0.186270
O O6 0.178491 0.406478 0.965686
O O7 0.034015 0.324974 0.184914
O O8 0.793744 0.093543 0.891901
O O9 0.746363 0.470302 0.508460
O O10 0.391895 0.154641 0.412584
O O11 0.246946 0.797227 0.678355
O O12 0.180976 0.597322 0.807841
O O13 0.432492 0.067922 0.699627
O O14 0.500000 0.000000 0.500000
O O15 0.500000 0.000000 0.000000
O O16 0.000000 0.500000 0.000000
#
# Coordination Sequence:
#
# PCOD9082667 Si02
#       7
#     2   2   2   2   2   2   2
#     4  10  21  33  65  93 121 163 227 260 319 374
#     4  10  20  32  58  97 132 156 207 273 324 365
#     4  11  21  38  64  97 127 167 221 273 318 381
#     4  10  20  33  60  98 134 156 209 276 328 368
#     4  11  26  45  65  91 137 178 214 265 333 388
#     4  10  22  37  65  97 124 167 220 262 316 378
#     4  10  19  33  56  94 134 157 202 276 329 362
#
# _framework density 25.463289
#
# number of rings (size 3 to 8) (size 9 to 14) (size 15 to 20)
#    0.000    1.714    2.857    3.000   16.000    0.000 
#    0.000    1.429    0.000    1.714    0.000    0.000 
#    0.000    0.000    0.000    0.000    0.000    0.000 
#
# Total GULP energy -78252.770509 kJ/mol
# GULP energy per Si atom -5589.483608 kJ/mol
# Density = 2.540533 g / cm^3
# Si number density = 25.463289 Si / 1000 Ang^3
#
#
#
# Elastic Constant Matrix: (Units=GPa)
#
#
# Indices 1 2 3 4 5 6 
#
# 1 101.6743 43.9423 41.5853 10.9681 22.9491 -0.5852
# 2 43.9423 192.8139 98.4690 10.4093 40.8945 -15.6219
# 3 41.5853 98.4690 163.1493 23.0889 70.2588 -10.4831
# 4 10.9681 10.4093 23.0889 54.3420 4.9892 23.3500
# 5 22.9491 40.8945 70.2588 4.9892 49.7774 1.0014
# 6 -0.5852 -15.6219 -10.4831 23.3500 1.0014 27.5972
#
#
#
# Elastic Compliance Matrix: (Units=1/GPa)
#
#
# Indices 1 2 3 4 5 6 
#
# 1 0.011658 -0.001641 0.000331 -0.002537 -0.004274 0.001745
# 2 -0.001641 0.007986 -0.003684 -0.001442 -0.000547 0.004326
# 3 0.000331 -0.003684 0.027363 -0.018760 -0.034379 0.025436
# 4 -0.002537 -0.001442 -0.018760 0.045049 0.025264 -0.047029
# 5 -0.004274 -0.000547 -0.034379 0.025264 0.069253 -0.037348
# 6 0.001745 0.004326 0.025436 -0.047029 -0.037348 0.089530
#
#
# Mechanical properties :
#
#
# Convention : Reuss Voigt Hill
#
# Bulk Modulus (GPa) = 27.01404 91.73675 59.37540
# Shear Modulus (GPa) = 18.30377 44.58604 31.44490
#
# Velocity S-wave (km/s) = 2.68401 4.18903 3.51794
# Velocity P-wave (km/s) = 4.49858 7.71379 6.31426
#
# Compressibility (1/GPa) = 0.03701779
#
# Stress axis : x y z
#
# Youngs Moduli (GPa) = 85.78082 125.21640 36.54554
#
# Poissons Ratio (x) = 0.20545 -0.01208
# Poissons Ratio (y) = 0.14074 0.13465
# Poissons Ratio (z) = -0.02835 0.46134
#
# Static dielectric constant tensor:
#      x y z
#    x 2.501510 0.038790 -0.257400 
#    y 0.038790 2.001880 -0.037720 
#    z -0.257400 -0.037720 2.118650 
# 
# From -- ./inp_files/390101.got.cif
#   From: 2010.05.17/outbox.cif.g08.bks.cpg/sg2_196_cif.got.tgz:390101.got - 2010.06.03 11:33:40.
