data_PCOD9082726
_publ_section_title
;
Structure prediction by ZEFSAII (Michael W. Deem and Ramdas Pophale) SiO2 
 PCOD9082726
Probable space group: P -1
;
_chemical_formula_sum "Si O2"
_cell_formula_units_Z 16
_cell_length_a 9.668312
_cell_length_b 15.119824
_cell_length_c 5.023945
_cell_angle_alpha 101.454234
_cell_angle_beta 105.661678
_cell_angle_gamma 89.010750
_cell_volume 692.551189
_symmetry_space_group_name_H-M "P -1"
_symmetry_group_IT_number 2
_symmetry_cell_setting 'triclinic'
loop_
_space_group_symop_operation_xyz
x,y,z
-x,-y,-z
loop_
_atom_site_type_symbol
_atom_site_label
_atom_site_fract_x
_atom_site_fract_y
_atom_site_fract_z
Si Si1 0.265026 0.750190 0.543479
Si Si2 0.363592 0.937361 0.975201
Si Si3 0.641686 0.442833 0.495782
Si Si4 0.763078 0.992324 0.541540
Si Si5 0.050332 0.853119 0.148443
Si Si6 0.016819 0.356278 0.425627
Si Si7 0.128649 0.186544 0.465615
Si Si8 0.835708 0.476584 0.106504
O O1 0.341686 0.832864 0.802753
O O2 0.368786 0.665605 0.510909
O O3 0.189700 0.797265 0.277446
O O4 0.123368 0.698714 0.565518
O O5 0.249174 0.987392 0.763045
O O6 0.500000 0.000000 0.000000
O O7 0.342881 0.955317 0.286856
O O8 0.500000 0.500000 0.500000
O O9 0.707575 0.455948 0.242141
O O10 0.763088 0.480798 0.786744
O O11 0.752488 0.887092 0.540072
O O12 0.912725 0.042315 0.722062
O O13 0.925031 0.818775 0.261995
O O14 0.000919 0.844474 0.816993
O O15 0.950578 0.398025 0.150898
O O16 0.147637 0.288761 0.439898
O O17 0.076064 0.435932 0.691158
#
# Coordination Sequence:
#
# PCOD9082726 Si02
#       8
#     2   2   2   2   2   2   2   2
#     4   9  21  40  65  90 116 166 207 247 306 369
#     4  11  24  43  60  83 120 166 215 251 289 360
#     4  11  23  42  63  92 125 163 207 253 303 361
#     4  11  21  37  57  84 117 154 200 251 303 344
#     4  10  19  33  57  85 120 152 197 240 301 368
#     4   9  20  38  63  94 125 160 201 255 314 374
#     4  11  20  33  55  92 121 153 188 245 307 370
#     4  10  22  40  63  91 128 160 202 255 309 369
#
# _framework density 23.102986000000001
#
# number of rings (size 3 to 8) (size 9 to 14) (size 15 to 20)
#    0.000    1.750    0.000    5.250    0.000    9.500 
#    4.500    0.000    0.000    0.000    0.000    0.000 
#    0.000    0.000    0.000    0.000    0.000    0.000 
#
# Total GULP energy -89173.883710 kJ/mol
# GULP energy per Si atom -5573.367732 kJ/mol
# Density = 2.305040 g / cm^3
# Si number density = 23.102986 Si / 1000 Ang^3
#
#
#
# Elastic Constant Matrix: (Units=GPa)
#
#
# Indices 1 2 3 4 5 6 
#
# 1 58.8915 28.5493 4.2402 7.7785 -6.5796 -4.3337
# 2 28.5493 115.9257 20.7688 19.3796 8.7783 -24.7668
# 3 4.2402 20.7688 59.4821 3.9131 4.9855 -4.1881
# 4 7.7785 19.3796 3.9131 34.0212 5.7245 1.5999
# 5 -6.5796 8.7783 4.9855 5.7245 22.4432 3.4331
# 6 -4.3337 -24.7668 -4.1881 1.5999 3.4331 32.5311
#
#
#
# Elastic Compliance Matrix: (Units=1/GPa)
#
#
# Indices 1 2 3 4 5 6 
#
# 1 0.021183 -0.005994 -0.000230 -0.002919 0.009757 -0.002657
# 2 -0.005994 0.014442 -0.002885 -0.005869 -0.006927 0.010845
# 3 -0.000230 -0.002885 0.018114 0.000107 -0.003055 0.000422
# 4 -0.002919 -0.005869 0.000107 0.034770 -0.006556 -0.005861
# 5 0.009757 -0.006927 -0.003055 -0.006556 0.053967 -0.009740
# 6 -0.002657 0.010845 0.000422 -0.005861 -0.009740 0.040013
#
#
# Mechanical properties :
#
#
# Convention : Reuss Voigt Hill
#
# Bulk Modulus (GPa) = 28.15252 37.93509 33.04380
# Shear Modulus (GPa) = 23.52419 29.84851 26.68635
#
# Velocity S-wave (km/s) = 3.19444 3.59831 3.40237
# Velocity P-wave (km/s) = 5.08114 5.80684 5.45607
#
# Compressibility (1/GPa) = 0.03552080
#
# Stress axis : x y z
#
# Youngs Moduli (GPa) = 47.20811 69.24384 55.20519
#
# Poissons Ratio (x) = 0.41505 0.01269
# Poissons Ratio (y) = 0.28297 0.15927
# Poissons Ratio (z) = 0.01086 0.19977
#
# Static dielectric constant tensor:
#      x y z
#    x 1.939810 -0.039950 -0.021770 
#    y -0.039950 1.995690 0.024470 
#    z -0.021770 0.024470 1.915830 
# 
# From -- ./inp_files/78493.got.cif
#   From: 2010.05.17/outbox.cif.g08.bks.cpg/sg2_40_cif.got.tgz:78493.got - 2010.06.03 11:33:40.
