data_PCOD9082398
_publ_section_title
;
Structure prediction by ZEFSAII (Michael W. Deem and Ramdas Pophale) SiO2 
 PCOD9082398
Probable space group: P -1
;
_chemical_formula_sum "Si O2"
_cell_formula_units_Z 16
_cell_length_a 25.477856
_cell_length_b 14.493204
_cell_length_c 6.998698
_cell_angle_alpha 67.278759
_cell_angle_beta 115.643096
_cell_angle_gamma 162.018334
_cell_volume 716.234255
_symmetry_space_group_name_H-M "P -1"
_symmetry_group_IT_number 2
_symmetry_cell_setting 'triclinic'
loop_
_space_group_symop_operation_xyz
x,y,z
-x,-y,-z
loop_
_atom_site_type_symbol
_atom_site_label
_atom_site_fract_x
_atom_site_fract_y
_atom_site_fract_z
Si Si1 0.552182 0.698026 0.893995
Si Si2 0.164864 0.120364 0.701753
Si Si3 0.511823 0.904459 0.198603
Si Si4 0.672060 0.298470 0.410632
Si Si5 0.753731 0.132376 0.566651
Si Si6 0.167079 0.311012 0.345666
Si Si7 0.049835 0.411309 0.229123
Si Si8 0.253994 0.842918 0.884959
O O1 0.658565 0.886147 0.713938
O O2 0.673075 0.950695 0.034749
O O3 0.500000 0.500000 0.000000
O O4 0.366815 0.454516 0.803413
O O5 0.139968 0.148105 0.449728
O O6 0.123783 0.935432 0.764001
O O7 0.015513 0.924367 0.763777
O O8 0.308710 0.570944 0.202476
O O9 0.610091 0.167658 0.203211
O O10 0.599852 0.967816 0.440512
O O11 0.587649 0.977140 0.067485
O O12 0.751199 0.527076 0.445033
O O13 0.816274 0.453254 0.582944
O O14 0.500000 0.000000 0.500000
O O15 0.806022 0.209592 0.368497
O O16 0.911079 0.429956 0.704233
O O17 0.111512 0.546915 0.009570
#
# Coordination Sequence:
#
# PCOD9082398 Si02
#       8
#     2   2   2   2   2   2   2   2
#     4  11  22  38  61  83 107 146 189 231 278 335
#     4  10  19  33  54  84 116 145 183 227 284 329
#     4   8  14  31  54  79 108 141 187 217 261 327
#     4   8  14  25  50  78 103 143 183 213 261 319
#     4   8  17  36  58  79 108 144 189 221 269 323
#     4   9  16  30  56  81 113 153 177 220 285 328
#     4   9  17  32  55  80 107 147 183 229 273 322
#     4   9  19  35  59  81 111 145 191 229 262 336
#
# _framework density 22.339061000000001
#
# number of rings (size 3 to 8) (size 9 to 14) (size 15 to 20)
#    0.750    2.250    1.250    0.000    1.750    0.500 
#    0.000   11.250    0.000    1.500    0.000    0.000 
#    0.000    0.000    0.000    0.000    0.000    0.000 
#
# Total GULP energy -89071.494520 kJ/mol
# GULP energy per Si atom -5566.968408 kJ/mol
# Density = 2.228822 g / cm^3
# Si number density = 22.339061 Si / 1000 Ang^3
#
#
#
# Elastic Constant Matrix: (Units=GPa)
#
#
# Indices 1 2 3 4 5 6 
#
# 1 69.3865 30.2490 19.1893 -15.0031 7.9213 1.6129
# 2 30.2490 143.0874 43.9086 -20.5481 -6.3064 -9.5130
# 3 19.1893 43.9086 41.0895 -7.2266 -3.9277 3.5843
# 4 -15.0031 -20.5481 -7.2266 38.0430 2.0721 10.1223
# 5 7.9213 -6.3064 -3.9277 2.0721 35.6759 -2.2861
# 6 1.6129 -9.5130 3.5843 10.1223 -2.2861 38.7430
#
#
#
# Elastic Compliance Matrix: (Units=1/GPa)
#
#
# Indices 1 2 3 4 5 6 
#
# 1 0.018958 -0.001549 -0.006389 0.006429 -0.005726 -0.002596
# 2 -0.001549 0.011370 -0.011169 0.002461 0.001194 0.003317
# 3 -0.006389 -0.011169 0.040214 0.000530 0.003448 -0.006132
# 4 0.006429 0.002461 0.000530 0.032684 -0.003374 -0.008451
# 5 -0.005726 0.001194 0.003448 -0.003374 0.030273 0.002880
# 6 -0.002596 0.003317 -0.006132 -0.008451 0.002880 0.029679
#
#
# Mechanical properties :
#
#
# Convention : Reuss Voigt Hill
#
# Bulk Modulus (GPa) = 30.93227 48.91747 39.92487
# Shear Modulus (GPa) = 23.56618 33.17349 28.36984
#
# Velocity S-wave (km/s) = 3.25149 3.85775 3.56752
# Velocity P-wave (km/s) = 5.28896 6.46438 5.90598
#
# Compressibility (1/GPa) = 0.03232869
#
# Stress axis : x y z
#
# Youngs Moduli (GPa) = 52.74712 87.94835 24.86691
#
# Poissons Ratio (x) = 0.13625 0.15886
# Poissons Ratio (y) = 0.08171 0.27775
# Poissons Ratio (z) = 0.33698 0.98232
#
# Static dielectric constant tensor:
#      x y z
#    x 1.885960 -0.051160 0.022940 
#    y -0.051160 1.696080 0.026920 
#    z 0.022940 0.026920 1.925800 
# 
# From -- ./inp_files/460567.got.cif
#   From: 2010.05.17/outbox.cif.g08.bks.cpg/sg2_231_cif.got.tgz:460567.got - 2010.06.03 11:33:40.
