data_PCOD9082225
_publ_section_title
;
Structure prediction by ZEFSAII (Michael W. Deem and Ramdas Pophale) SiO2 
 PCOD9082225
Probable space group: P -1
;
_chemical_formula_sum "Si O2"
_cell_formula_units_Z 16
_cell_length_a 10.446449
_cell_length_b 13.459372
_cell_length_c 7.527672
_cell_angle_alpha 108.132910
_cell_angle_beta 86.602347
_cell_angle_gamma 135.643305
_cell_volume 681.650465
_symmetry_space_group_name_H-M "P -1"
_symmetry_group_IT_number 2
_symmetry_cell_setting 'triclinic'
loop_
_space_group_symop_operation_xyz
x,y,z
-x,-y,-z
loop_
_atom_site_type_symbol
_atom_site_label
_atom_site_fract_x
_atom_site_fract_y
_atom_site_fract_z
Si Si1 0.711950 0.999147 0.566605
Si Si2 0.047420 0.106609 0.794641
Si Si3 0.776716 0.970087 0.078227
Si Si4 0.128849 0.741219 0.795172
Si Si5 0.181015 0.409593 0.960067
Si Si6 0.629754 0.325180 0.672820
Si Si7 0.053589 0.656648 0.365037
Si Si8 0.454519 0.778548 0.755389
O O1 0.549601 0.856443 0.372902
O O2 0.592073 0.942343 0.727585
O O3 0.811740 0.164441 0.593940
O O4 0.877903 0.017882 0.618516
O O5 0.149144 0.057608 0.784931
O O6 0.185952 0.288509 0.857544
O O7 0.939360 0.058799 0.963572
O O8 0.767222 0.088594 0.170817
O O9 0.584462 0.812576 0.918487
O O10 0.016276 0.642446 0.570065
O O11 0.277011 0.737579 0.811763
O O12 0.997196 0.680140 0.941235
O O13 0.349286 0.563593 0.140464
O O14 0.126675 0.436475 0.798016
O O15 0.819242 0.368812 0.697472
O O16 0.596439 0.327004 0.465564
#
# Coordination Sequence:
#
# PCOD9082225 Si02
#       8
#     2   2   2   2   2   2   2   2
#     4   8  16  32  50  74 103 132 166 216 251 289
#     4   8  16  30  53  70 101 134 173 214 243 299
#     4   9  15  30  50  75 103 130 171 215 253 292
#     4  10  20  31  54  80 104 133 169 212 259 304
#     4  10  20  35  51  77 105 141 168 204 259 305
#     4   9  18  31  52  74 107 137 167 205 260 308
#     4  10  19  33  53  77 106 131 172 213 251 308
#     4   8  17  29  48  78 108 126 164 218 249 306
#
# _framework density 23.472442999999998
#
# number of rings (size 3 to 8) (size 9 to 14) (size 15 to 20)
#    0.750    2.250    0.000    1.875    0.000    2.000 
#    0.000    3.125    0.000    0.000    0.000    1.750 
#    0.000    0.000    0.000    0.000    0.000    0.000 
#
# Total GULP energy -89310.829614 kJ/mol
# GULP energy per Si atom -5581.926851 kJ/mol
# Density = 2.341902 g / cm^3
# Si number density = 23.472443 Si / 1000 Ang^3
#
#
#
# Elastic Constant Matrix: (Units=GPa)
#
#
# Indices 1 2 3 4 5 6 
#
# 1 47.2202 16.3116 12.2072 -6.8570 19.7000 -8.7125
# 2 16.3116 65.1991 16.7826 10.5159 14.7853 -9.1225
# 3 12.2072 16.7826 102.0245 11.0195 17.9108 -18.0724
# 4 -6.8570 10.5159 11.0195 42.9658 7.3690 -2.2542
# 5 19.7000 14.7853 17.9108 7.3690 13.2533 -17.7718
# 6 -8.7125 -9.1225 -18.0724 -2.2542 -17.7718 22.1060
#
#
#
# Elastic Compliance Matrix: (Units=1/GPa)
#
#
# Indices 1 2 3 4 5 6 
#
# 1 0.010114 -0.007562 -0.001449 -0.002711 0.050384 0.039910
# 2 -0.007562 0.018368 -0.001083 -0.005849 0.004547 0.006773
# 3 -0.001449 -0.001083 0.011940 -0.002550 -0.000255 0.008278
# 4 -0.002711 -0.005849 -0.002550 0.020992 0.029036 0.019917
# 5 0.050384 0.004547 -0.000255 0.029036 -0.160507 -0.104551
# 6 0.039910 0.006773 0.008278 0.019917 -0.104551 -0.011493
#
#
# Mechanical properties :
#
#
# Convention : Reuss Voigt Hill
#
# Bulk Modulus (GPa) = 49.42162 33.89404 41.65783
# Shear Modulus (GPa) = -59.77094 26.94117 -16.41489
#
# Velocity S-wave (km/s) = -5.05169 3.39156 -2.64735
# Velocity P-wave (km/s) = 3.59517 5.45969 2.90542
#
# Compressibility (1/GPa) = 0.02023406
#
# Stress axis : x y z
#
# Youngs Moduli (GPa) = 98.87009 54.44179 83.75420
#
# Poissons Ratio (x) = 0.41167 0.12136
# Poissons Ratio (y) = 0.74762 0.09075
# Poissons Ratio (z) = 0.14326 0.05899
#
# Static dielectric constant tensor:
#      x y z
#    x 1.838570 0.013750 -0.017020 
#    y 0.013750 1.939840 0.012310 
#    z -0.017020 0.012310 1.956940 
# 
# From -- ./inp_files/270705.got.cif
#   From: 2010.05.17/outbox.cif.g08.bks.cpg/sg2_136_cif.got.tgz:270705.got - 2010.06.03 11:33:40.
