data_PCOD9082203
_publ_section_title
;
Structure prediction by ZEFSAII (Michael W. Deem and Ramdas Pophale) SiO2 
 PCOD9082203
Probable space group: P -1
;
_chemical_formula_sum "Si O2"
_cell_formula_units_Z 16
_cell_length_a 5.529084
_cell_length_b 11.578584
_cell_length_c 13.603512
_cell_angle_alpha 124.311275
_cell_angle_beta 119.927705
_cell_angle_gamma 72.009273
_cell_volume 622.953728
_symmetry_space_group_name_H-M "P -1"
_symmetry_group_IT_number 2
_symmetry_cell_setting 'triclinic'
loop_
_space_group_symop_operation_xyz
x,y,z
-x,-y,-z
loop_
_atom_site_type_symbol
_atom_site_label
_atom_site_fract_x
_atom_site_fract_y
_atom_site_fract_z
Si Si1 0.578819 0.425432 0.583410
Si Si2 0.843573 0.857844 0.808488
Si Si3 0.338700 0.149074 0.029038
Si Si4 0.061986 0.471748 0.843933
Si Si5 0.790611 0.354615 0.306621
Si Si6 0.332191 0.666482 0.137874
Si Si7 0.245600 0.833355 0.606911
Si Si8 0.023109 0.933992 0.236059
O O1 0.500000 0.500000 0.500000
O O2 0.325182 0.487400 0.629962
O O3 0.639146 0.257832 0.505274
O O4 0.862943 0.478247 0.713125
O O5 0.892981 0.859163 0.935078
O O6 0.518126 0.889447 0.742114
O O7 0.933370 0.702803 0.718118
O O8 0.972110 0.956769 0.800902
O O9 0.544196 0.271389 0.160651
O O10 0.222578 0.163483 0.901711
O O11 0.500000 0.000000 0.000000
O O12 0.344008 0.381111 0.830946
O O13 0.848914 0.408855 0.850753
O O14 0.180648 0.613401 0.982089
O O15 0.840471 0.287084 0.392564
O O16 0.290659 0.830053 0.234443
O O17 0.034553 0.968415 0.634001
#
# Coordination Sequence:
#
# PCOD9082203 Si02
#       8
#     2   2   2   2   2   2   2   2
#     4  10  21  44  68  93 134 174 221 277 339 401
#     4  10  19  33  52  89 129 163 212 271 329 395
#     4  11  18  31  52  86 129 158 207 274 336 386
#     4  10  23  50  68 103 132 174 227 288 328 399
#     4   9  19  34  53  87 120 168 208 259 339 392
#     4  10  24  45  75  96 136 175 229 278 338 396
#     4   9  20  36  54  87 129 161 211 266 316 402
#     4  11  21  35  60  89 122 175 212 269 331 398
#
# _framework density 25.684090000000001
#
# number of rings (size 3 to 8) (size 9 to 14) (size 15 to 20)
#    0.000    2.000    3.750    1.125    1.750    0.500 
#   20.250    1.250    0.000    0.000    0.000    0.000 
#    0.000    0.000    0.000    0.000    0.000    0.000 
#
# Total GULP energy -89227.914298 kJ/mol
# GULP energy per Si atom -5576.744644 kJ/mol
# Density = 2.562563 g / cm^3
# Si number density = 25.684090 Si / 1000 Ang^3
#
#
#
# Elastic Constant Matrix: (Units=GPa)
#
#
# Indices 1 2 3 4 5 6 
#
# 1 73.7996 36.0569 18.7360 5.3816 -3.6487 -23.4879
# 2 36.0569 135.6739 39.1937 38.5274 -18.2809 -45.9450
# 3 18.7360 39.1937 80.9577 9.2182 0.2952 -10.3138
# 4 5.3816 38.5274 9.2182 51.2943 -19.7592 -18.3480
# 5 -3.6487 -18.2809 0.2952 -19.7592 35.2447 13.6805
# 6 -23.4879 -45.9450 -10.3138 -18.3480 13.6805 47.4792
#
#
#
# Elastic Compliance Matrix: (Units=1/GPa)
#
#
# Indices 1 2 3 4 5 6 
#
# 1 0.017287 -0.002449 -0.002233 0.002644 -0.000662 0.006909
# 2 -0.002449 0.014181 -0.004421 -0.006324 0.000066 0.009088
# 3 -0.002233 -0.004421 0.014870 -0.000634 -0.002335 -0.001725
# 4 0.002644 -0.006324 -0.000634 0.030039 0.012672 0.003008
# 5 -0.000662 0.000066 -0.002335 0.012672 0.038125 -0.006859
# 6 0.006909 0.009088 -0.001725 0.003008 -0.006859 0.036038
#
#
# Mechanical properties :
#
#
# Convention : Reuss Voigt Hill
#
# Bulk Modulus (GPa) = 35.54800 53.15603 44.35201
# Shear Modulus (GPa) = 28.07026 39.89995 33.98510
#
# Velocity S-wave (km/s) = 3.30950 3.94571 3.64152
# Velocity P-wave (km/s) = 5.33612 6.44199 5.91496
#
# Compressibility (1/GPa) = 0.02813098
#
# Stress axis : x y z
#
# Youngs Moduli (GPa) = 57.84595 70.51779 67.24853
#
# Poissons Ratio (x) = 0.17272 0.15020
# Poissons Ratio (y) = 0.14169 0.29730
# Poissons Ratio (z) = 0.12920 0.31175
#
# Static dielectric constant tensor:
#      x y z
#    x 2.102770 0.006230 -0.001750 
#    y 0.006230 2.028230 0.056570 
#    z -0.001750 0.056570 2.161960 
# 
# From -- ./inp_files/484406.got.cif
#   From: 2010.05.17/outbox.cif.g08.bks.cpg/sg2_243_cif.got.tgz:484406.got - 2010.06.03 11:33:40.
