data_PCOD9082084
_publ_section_title
;
Structure prediction by ZEFSAII (Michael W. Deem and Ramdas Pophale) SiO2 
 PCOD9082084
Probable space group: P -1
;
_chemical_formula_sum "Si O2"
_cell_formula_units_Z 16
_cell_length_a 21.016206
_cell_length_b 17.757912
_cell_length_c 7.495706
_cell_angle_alpha 106.939093
_cell_angle_beta 98.609765
_cell_angle_gamma 19.035432
_cell_volume 798.813150
_symmetry_space_group_name_H-M "P -1"
_symmetry_group_IT_number 2
_symmetry_cell_setting 'triclinic'
loop_
_space_group_symop_operation_xyz
x,y,z
-x,-y,-z
loop_
_atom_site_type_symbol
_atom_site_label
_atom_site_fract_x
_atom_site_fract_y
_atom_site_fract_z
Si Si1 0.910472 0.734433 0.928417
Si Si2 0.775591 0.723154 0.773191
Si Si3 0.210064 0.153498 0.634401
Si Si4 0.500171 0.331510 0.674769
Si Si5 0.686549 0.154285 0.006939
Si Si6 0.346812 0.162779 0.780183
Si Si7 0.613119 0.372279 0.759921
Si Si8 0.992995 0.087721 0.175704
O O1 0.821187 0.762744 0.805208
O O2 0.165861 0.431252 0.812541
O O3 0.800158 0.944885 0.983994
O O4 0.856890 0.779448 0.142390
O O5 0.988768 0.424250 0.623631
O O6 0.581124 0.923616 0.709966
O O7 0.711757 0.782305 0.995603
O O8 0.329345 0.097752 0.639031
O O9 0.350533 0.915070 0.481879
O O10 0.538413 0.296472 0.879349
O O11 0.576336 0.328720 0.634966
O O12 0.256672 0.602320 0.700412
O O13 0.523116 0.398123 0.223246
O O14 0.877847 0.990235 0.913371
O O15 0.500000 0.500000 0.000000
O O16 0.861921 0.096652 0.714366
O O17 0.000000 0.000000 0.000000
#
# Coordination Sequence:
#
# PCOD9082084 Si02
#       8
#     2   2   2   2   2   2   2   2
#     4   9  18  32  48  75  98 120 158 199 236 279
#     4   8  15  31  51  65  95 131 160 190 225 286
#     4   9  18  31  51  72  97 123 158 198 234 280
#     4  10  18  31  50  73  93 125 162 195 234 277
#     4  10  19  30  50  74  94 122 162 197 236 278
#     4   8  15  30  50  70  90 131 165 183 229 287
#     4   8  16  29  47  68  89 123 159 191 228 278
#     4  10  15  31  52  67  90 126 167 194 217 282
#
# _framework density 20.029716000000001
#
# number of rings (size 3 to 8) (size 9 to 14) (size 15 to 20)
#    0.000    3.250    3.750    1.500    0.000    3.000 
#    0.000    3.125    0.000    5.250    0.000    0.000 
#    0.000    0.000    0.000    0.000    0.000    0.000 
#
# Total GULP energy -89106.713551 kJ/mol
# GULP energy per Si atom -5569.169597 kJ/mol
# Density = 1.998413 g / cm^3
# Si number density = 20.029716 Si / 1000 Ang^3
#
#
#
# Elastic Constant Matrix: (Units=GPa)
#
#
# Indices 1 2 3 4 5 6 
#
# 1 102.5922 111.4498 23.4752 29.1258 20.0399 14.3833
# 2 111.4498 192.6961 43.8788 49.2692 31.5455 -14.3148
# 3 23.4752 43.8788 61.8742 28.6786 20.7199 0.9526
# 4 29.1258 49.2692 28.6786 36.9773 25.0166 0.5244
# 5 20.0399 31.5455 20.7199 25.0166 29.0627 8.0215
# 6 14.3833 -14.3148 0.9526 0.5244 8.0215 44.5608
#
#
#
# Elastic Compliance Matrix: (Units=1/GPa)
#
#
# Indices 1 2 3 4 5 6 
#
# 1 0.039331 -0.025128 0.002721 -0.005423 0.009063 -0.022393
# 2 -0.025128 0.024313 -0.002943 -0.006326 -0.006262 0.017186
# 3 0.002721 -0.002943 0.025689 -0.016653 -0.002169 -0.001786
# 4 -0.005423 -0.006326 -0.016653 0.093785 -0.060996 0.009950
# 5 0.009063 -0.006262 -0.002169 -0.060996 0.094872 -0.021251
# 6 -0.022393 0.017186 -0.001786 0.009950 -0.021251 0.038937
#
#
# Mechanical properties :
#
#
# Convention : Reuss Voigt Hill
#
# Bulk Modulus (GPa) = 25.88554 79.41889 52.65221
# Shear Modulus (GPa) = 13.14045 34.01074 23.57560
#
# Velocity S-wave (km/s) = 2.56412 4.12517 3.43451
# Velocity P-wave (km/s) = 4.66025 7.90101 6.48629
#
# Compressibility (1/GPa) = 0.03863160
#
# Stress axis : x y z
#
# Youngs Moduli (GPa) = 25.42507 41.13110 38.92716
#
# Poissons Ratio (x) = 1.03356 -0.10592
# Poissons Ratio (y) = 0.63889 0.11457
# Poissons Ratio (z) = -0.06918 0.12105
#
# Static dielectric constant tensor:
#      x y z
#    x 1.722120 0.032760 -0.014300 
#    y 0.032760 1.747000 -0.023250 
#    z -0.014300 -0.023250 1.762020 
# 
# From -- ./inp_files/348057.got.cif
#   From: 2010.05.17/outbox.cif.g08.bks.cpg/sg2_175_cif.got.tgz:348057.got - 2010.06.03 11:33:40.
