data_PCOD9082752
_publ_section_title
;
Structure prediction by ZEFSAII (Michael W. Deem and Ramdas Pophale) SiO2 
 PCOD9082752
Probable space group: P -1
;
_chemical_formula_sum "Si O2"
_cell_formula_units_Z 12
_cell_length_a 7.604422
_cell_length_b 10.739714
_cell_length_c 9.302958
_cell_angle_alpha 76.490689
_cell_angle_beta 82.205980
_cell_angle_gamma 37.565368
_cell_volume 448.811347
_symmetry_space_group_name_H-M "P -1"
_symmetry_group_IT_number 2
_symmetry_cell_setting 'triclinic'
loop_
_space_group_symop_operation_xyz
x,y,z
-x,-y,-z
loop_
_atom_site_type_symbol
_atom_site_label
_atom_site_fract_x
_atom_site_fract_y
_atom_site_fract_z
Si Si1 0.572754 0.450670 0.331664
Si Si2 0.796985 0.828788 0.717993
Si Si3 0.083992 0.613011 0.042185
Si Si4 0.835905 0.090509 0.647893
Si Si5 0.283288 0.751665 0.919765
Si Si6 0.799266 0.584611 0.632649
O O1 0.897201 0.316444 0.359626
O O2 0.601765 0.417566 0.165787
O O3 0.432301 0.391247 0.391574
O O4 0.356859 0.677972 0.355476
O O5 0.677655 0.041353 0.687972
O O6 0.652543 0.798694 0.650857
O O7 0.879782 0.726129 0.894613
O O8 0.408727 0.368294 0.035572
O O9 0.020849 0.577568 0.208303
O O10 0.090151 0.764741 0.031179
O O11 0.072307 0.952708 0.788403
O O12 0.000000 0.000000 0.500000
O O13 0.000000 0.500000 0.500000
#
# Coordination Sequence:
#
# PCOD9082752 Si02
#       6
#     2   2   2   2   2   2
#     4   9  20  38  57  83 115 148 191 234 282 338
#     4  10  22  40  62  84 115 155 193 237 285 340
#     4   8  16  36  58  80 113 152 191 233 284 339
#     4  10  19  33  57  87 118 152 189 235 291 343
#     4   8  17  34  59  82 109 152 193 235 283 336
#     4  11  21  34  59  89 116 151 191 236 290 342
#
# _framework density 26.737293000000001
#
# number of rings (size 3 to 8) (size 9 to 14) (size 15 to 20)
#    0.000    3.000    0.000    2.500    0.000    7.333 
#    0.000   35.000    0.000   29.000    0.000    0.000 
#    0.000    0.000    0.000    0.000    0.000    0.000 
#
# Total GULP energy -66831.980987 kJ/mol
# GULP energy per Si atom -5569.331749 kJ/mol
# Density = 2.667644 g / cm^3
# Si number density = 26.737293 Si / 1000 Ang^3
#
#
#
# Elastic Constant Matrix: (Units=GPa)
#
#
# Indices 1 2 3 4 5 6 
#
# 1 129.1478 74.8390 49.0668 -10.8410 -14.3803 41.3503
# 2 74.8390 106.1651 17.3635 4.6464 -1.2276 29.7472
# 3 49.0668 17.3635 127.2040 -0.8026 -24.4407 24.3757
# 4 -10.8410 4.6464 -0.8026 33.5359 2.9441 3.8750
# 5 -14.3803 -1.2276 -24.4407 2.9441 47.0339 6.5415
# 6 41.3503 29.7472 24.3757 3.8750 6.5415 35.5469
#
#
#
# Elastic Compliance Matrix: (Units=1/GPa)
#
#
# Indices 1 2 3 4 5 6 
#
# 1 0.021937 -0.010530 -0.002234 0.009903 0.007094 -0.017560
# 2 -0.010530 0.017610 0.002048 -0.005351 -0.000924 -0.003139
# 3 -0.002234 0.002048 0.011161 -0.000380 0.006290 -0.007884
# 4 0.009903 -0.005351 -0.000380 0.034840 0.002033 -0.010954
# 5 0.007094 -0.000924 0.006290 0.002033 0.028959 -0.017343
# 6 -0.017560 -0.003139 -0.007884 -0.010954 -0.017343 0.060977
#
#
# Mechanical properties :
#
#
# Convention : Reuss Voigt Hill
#
# Bulk Modulus (GPa) = 34.15758 71.67284 52.91521
# Shear Modulus (GPa) = 24.19249 37.97319 31.08284
#
# Velocity S-wave (km/s) = 3.01129 3.77269 3.41328
# Velocity P-wave (km/s) = 4.98934 6.77068 5.94708
#
# Compressibility (1/GPa) = 0.02927608
#
# Stress axis : x y z
#
# Youngs Moduli (GPa) = 45.58442 56.78483 89.60020
#
# Poissons Ratio (x) = 0.59795 0.20019
# Poissons Ratio (y) = 0.48001 -0.18352
# Poissons Ratio (z) = 0.10185 -0.11631
#
# Static dielectric constant tensor:
#      x y z
#    x 2.347430 -0.044300 -0.051540 
#    y -0.044300 2.174580 -0.106260 
#    z -0.051540 -0.106260 2.386150 
# 
# From -- ./inp_files/384530.got.cif
#   From: 2010.05.17/outbox.cif.g08.bks.cpg/sg2_193_cif.got.tgz:384530.got - 2010.06.03 11:33:40.
