data_PCOD9082301
_publ_section_title
;
Structure prediction by ZEFSAII (Michael W. Deem and Ramdas Pophale) SiO2 
 PCOD9082301
Probable space group: P -1
;
_chemical_formula_sum "Si O2"
_cell_formula_units_Z 12
_cell_length_a 9.328013
_cell_length_b 13.063355
_cell_length_c 9.522928
_cell_angle_alpha 141.073004
_cell_angle_beta 117.829318
_cell_angle_gamma 54.017789
_cell_volume 589.898575
_symmetry_space_group_name_H-M "P -1"
_symmetry_group_IT_number 2
_symmetry_cell_setting 'triclinic'
loop_
_space_group_symop_operation_xyz
x,y,z
-x,-y,-z
loop_
_atom_site_type_symbol
_atom_site_label
_atom_site_fract_x
_atom_site_fract_y
_atom_site_fract_z
Si Si1 0.236246 0.474649 0.840447
Si Si2 0.396555 0.732294 0.103686
Si Si3 0.721284 0.680492 0.600796
Si Si4 0.441844 0.554456 0.371599
Si Si5 0.091247 0.572219 0.327347
Si Si6 0.875251 0.918976 0.781467
O O1 0.291697 0.640724 0.051328
O O2 0.195093 0.454352 0.635986
O O3 0.070851 0.473127 0.847954
O O4 0.416215 0.304301 0.777585
O O5 0.454348 0.611453 0.860016
O O6 0.270577 0.929876 0.216991
O O7 0.516101 0.704629 0.531543
O O8 0.802979 0.584857 0.681233
O O9 0.771902 0.844530 0.764760
O O10 0.500000 0.500000 0.500000
O O11 0.235349 0.594361 0.314628
O O12 0.998794 0.754960 0.567216
O O13 0.000000 0.000000 0.000000
#
# Coordination Sequence:
#
# PCOD9082301 Si02
#       6
#     2   2   2   2   2   2
#     4   9  18  34  53  72 101 134 167 201 246 300
#     4  10  20  33  53  77  99 130 168 207 246 291
#     4   9  18  33  52  73 103 136 162 199 253 296
#     4   9  18  35  51  70 102 136 163 197 254 301
#     4  10  19  33  54  74 101 135 165 202 248 296
#     4  11  19  31  53  78  98 124 174 213 235 289
#
# _framework density 20.342478
#
# number of rings (size 3 to 8) (size 9 to 14) (size 15 to 20)
#    0.000    2.333    0.000    6.000    0.000    3.333 
#    0.000    9.167    0.000   10.000    0.000    0.000 
#    0.000    0.000    0.000    0.000    0.000    0.000 
#
# Total GULP energy -66899.606098 kJ/mol
# GULP energy per Si atom -5574.967175 kJ/mol
# Density = 2.029618 g / cm^3
# Si number density = 20.342478 Si / 1000 Ang^3
#
#
#
# Elastic Constant Matrix: (Units=GPa)
#
#
# Indices 1 2 3 4 5 6 
#
# 1 201.5568 38.7398 40.3432 7.9172 44.7633 -16.8361
# 2 38.7398 93.2069 13.9547 14.6974 20.4038 -4.9717
# 3 40.3432 13.9547 43.5540 -1.0927 14.3065 -1.7344
# 4 7.9172 14.6974 -1.0927 31.2281 2.8983 5.8926
# 5 44.7633 20.4038 14.3065 2.8983 38.3669 -11.5168
# 6 -16.8361 -4.9717 -1.7344 5.8926 -11.5168 28.1071
#
#
#
# Elastic Compliance Matrix: (Units=1/GPa)
#
#
# Indices 1 2 3 4 5 6 
#
# 1 0.007632 -0.000792 -0.004815 -0.001557 -0.005964 0.002017
# 2 -0.000792 0.013388 -0.002147 -0.005959 -0.004608 0.001122
# 3 -0.004815 -0.002147 0.030111 0.004819 -0.006337 -0.005013
# 4 -0.001557 -0.005959 0.004819 0.037693 -0.002893 -0.010777
# 5 -0.005964 -0.004608 -0.006337 -0.002893 0.041964 0.013022
# 6 0.002017 0.001122 -0.005013 -0.010777 0.013022 0.044271
#
#
# Mechanical properties :
#
#
# Convention : Reuss Voigt Hill
#
# Bulk Modulus (GPa) = 28.07246 58.26589 43.16917
# Shear Modulus (GPa) = 24.69873 35.89240 30.29557
#
# Velocity S-wave (km/s) = 3.48824 4.20504 3.86330
# Velocity P-wave (km/s) = 5.48212 7.23057 6.41618
#
# Compressibility (1/GPa) = 0.03562211
#
# Stress axis : x y z
#
# Youngs Moduli (GPa) = 131.03421 74.69498 33.21078
#
# Poissons Ratio (x) = 0.05918 0.15990
# Poissons Ratio (y) = 0.10382 0.07130
# Poissons Ratio (z) = 0.63091 0.16036
#
# Static dielectric constant tensor:
#      x y z
#    x 1.796430 -0.012730 0.027230 
#    y -0.012730 1.731430 -0.052060 
#    z 0.027230 -0.052060 1.738110 
# 
# From -- ./inp_files/396640.got.cif
#   From: 2010.05.17/outbox.cif.g08.bks.cpg/sg2_199_cif.got.tgz:396640.got - 2010.06.03 11:33:40.
