data_PCOD9082505
_publ_section_title
;
Structure prediction by ZEFSAII (Michael W. Deem and Ramdas Pophale) SiO2 
 PCOD9082505
Probable space group: P -1
;
_chemical_formula_sum "Si O2"
_cell_formula_units_Z 16
_cell_length_a 11.851267
_cell_length_b 16.827675
_cell_length_c 11.748578
_cell_angle_alpha 145.573758
_cell_angle_beta 144.689803
_cell_angle_gamma 49.385328
_cell_volume 763.868110
_symmetry_space_group_name_H-M "P -1"
_symmetry_group_IT_number 2
_symmetry_cell_setting 'triclinic'
loop_
_space_group_symop_operation_xyz
x,y,z
-x,-y,-z
loop_
_atom_site_type_symbol
_atom_site_label
_atom_site_fract_x
_atom_site_fract_y
_atom_site_fract_z
Si Si1 0.611643 0.180662 0.617249
Si Si2 0.468393 0.420207 0.262160
Si Si3 0.163280 0.486592 0.481773
Si Si4 0.249171 0.512284 0.989985
Si Si5 0.975597 0.110182 0.211392
Si Si6 0.070991 0.714514 0.829926
Si Si7 0.620552 0.780065 0.312944
Si Si8 0.549550 0.111479 0.917426
O O1 0.651506 0.330436 0.763682
O O2 0.428995 0.179152 0.552153
O O3 0.574526 0.037184 0.346213
O O4 0.795008 0.183712 0.860133
O O5 0.500000 0.500000 0.500000
O O6 0.650412 0.470906 0.390062
O O7 0.278060 0.466720 0.091647
O O8 0.476112 0.250770 0.081763
O O9 0.177671 0.573197 0.716765
O O10 0.124963 0.328535 0.312948
O O11 0.970046 0.492492 0.247746
O O12 0.358810 0.386330 0.871564
O O13 0.963735 0.244210 0.278591
O O14 0.179156 0.143515 0.480182
O O15 0.779751 0.090068 0.099079
O O16 0.000000 0.000000 0.000000
O O17 0.462994 0.839390 0.167885
#
# Coordination Sequence:
#
# PCOD9082505 Si02
#       8
#     2   2   2   2   2   2   2   2
#     4  11  20  33  54  82 122 155 179 229 279 348
#     4  11  24  42  63  80 106 151 202 248 285 323
#     4  10  20  37  57  84 115 144 187 234 273 337
#     4  10  22  36  57  84 108 150 200 230 283 335
#     4  12  20  30  52  81 117 158 178 211 277 341
#     4  10  19  33  55  85 122 148 173 224 282 341
#     4  11  19  31  53  81 119 154 185 216 276 350
#     4  11  22  38  51  83 123 149 189 234 281 338
#
# _framework density 20.946024999999999
#
# number of rings (size 3 to 8) (size 9 to 14) (size 15 to 20)
#    0.000    1.250    5.000    2.250    1.750    0.500 
#    0.000    0.625    0.000    3.000    0.000    0.000 
#    0.000    0.000    0.000    0.000    0.000    0.000 
#
# Total GULP energy -89093.114164 kJ/mol
# GULP energy per Si atom -5568.319635 kJ/mol
# Density = 2.089835 g / cm^3
# Si number density = 20.946025 Si / 1000 Ang^3
#
#
#
# Elastic Constant Matrix: (Units=GPa)
#
#
# Indices 1 2 3 4 5 6 
#
# 1 28.9054 2.7860 35.4009 2.0298 0.5150 -1.9244
# 2 2.7860 50.8402 34.2358 4.8979 1.1009 -1.4342
# 3 35.4009 34.2358 142.8433 22.6566 3.8115 -3.3245
# 4 2.0298 4.8979 22.6566 43.6805 -1.5362 4.5480
# 5 0.5150 1.1009 3.8115 -1.5362 38.4726 -4.0464
# 6 -1.9244 -1.4342 -3.3245 4.5480 -4.0464 10.4464
#
#
#
# Elastic Compliance Matrix: (Units=1/GPa)
#
#
# Indices 1 2 3 4 5 6 
#
# 1 0.052737 0.007163 -0.015403 0.004321 0.001250 0.004399
# 2 0.007163 0.024450 -0.007710 0.000725 0.000206 0.001987
# 3 -0.015403 -0.007710 0.013674 -0.005819 -0.000882 0.002648
# 4 0.004321 0.000725 -0.005819 0.026950 0.000250 -0.012592
# 5 0.001250 0.000206 -0.000882 0.000250 0.027160 0.010390
# 6 0.004399 0.001987 0.002648 -0.012592 0.010390 0.107159
#
#
# Mechanical properties :
#
#
# Convention : Reuss Voigt Hill
#
# Bulk Modulus (GPa) = 16.96005 40.82601 28.89303
# Shear Modulus (GPa) = 16.46458 28.53098 22.49778
#
# Velocity S-wave (km/s) = 2.80670 3.69469 3.28088
# Velocity P-wave (km/s) = 4.31486 6.14283 5.30812
#
# Compressibility (1/GPa) = 0.05896210
#
# Stress axis : x y z
#
# Youngs Moduli (GPa) = 18.96219 40.89925 73.13236
#
# Poissons Ratio (x) = -0.29297 1.12645
# Poissons Ratio (y) = -0.13583 0.56382
# Poissons Ratio (z) = 0.29207 0.31531
#
# Static dielectric constant tensor:
#      x y z
#    x 1.733480 -0.190720 -0.028830 
#    y -0.190720 3.511970 0.761620 
#    z -0.028830 0.761620 2.176360 
# 
# From -- ./inp_files/426076.got.cif
#   From: 2010.05.17/outbox.cif.g08.bks.cpg/sg2_214_cif.got.tgz:426076.got - 2010.06.03 11:33:40.
