data_PCOD9082121
_publ_section_title
;
Structure prediction by ZEFSAII (Michael W. Deem and Ramdas Pophale) SiO2 
 PCOD9082121
Probable space group: P -1
;
_chemical_formula_sum "Si O2"
_cell_formula_units_Z 16
_cell_length_a 11.109644
_cell_length_b 12.763385
_cell_length_c 17.309843
_cell_angle_alpha 28.001843
_cell_angle_beta 81.623913
_cell_angle_gamma 64.500636
_cell_volume 866.464356
_symmetry_space_group_name_H-M "P -1"
_symmetry_group_IT_number 2
_symmetry_cell_setting 'triclinic'
loop_
_space_group_symop_operation_xyz
x,y,z
-x,-y,-z
loop_
_atom_site_type_symbol
_atom_site_label
_atom_site_fract_x
_atom_site_fract_y
_atom_site_fract_z
Si Si1 0.548405 0.165381 0.473784
Si Si2 0.153943 0.233245 0.705658
Si Si3 0.582672 0.359279 0.705194
Si Si4 0.070101 0.142511 0.936712
Si Si5 0.384728 0.291461 0.113632
Si Si6 0.727836 0.121678 0.216045
Si Si7 0.540073 0.817534 0.290358
Si Si8 0.761753 0.759703 0.584259
O O1 0.508917 0.445016 0.337157
O O2 0.374353 0.265450 0.404623
O O3 0.627479 0.890689 0.703770
O O4 0.667214 0.028251 0.479234
O O5 0.120983 0.215757 0.807874
O O6 0.294571 0.246754 0.682763
O O7 0.000000 0.500000 0.500000
O O8 0.210556 0.960127 0.824217
O O9 0.561149 0.591179 0.496947
O O10 0.507704 0.233370 0.753075
O O11 0.769800 0.097628 0.874150
O O12 0.926123 0.442167 0.798695
O O13 0.000000 0.000000 0.000000
O O14 0.550930 0.222928 0.160748
O O15 0.407357 0.143537 0.125915
O O16 0.262631 0.639751 0.907715
O O17 0.804023 0.856826 0.441711
#
# Coordination Sequence:
#
# PCOD9082121 Si02
#       8
#     2   2   2   2   2   2   2   2
#     4   9  18  32  54  79 110 147 181 227 272 334
#     4  11  21  35  56  82 115 144 183 229 280 328
#     4  10  20  38  62  82 112 149 191 228 276 331
#     4  12  23  34  56  88 115 145 185 237 282 327
#     4   8  16  30  52  78 101 137 188 220 267 324
#     4   9  17  31  51  77 107 142 175 225 275 325
#     4   9  20  39  60  81 110 150 188 229 272 339
#     4  10  19  33  51  81 116 139 183 229 281 325
#
# _framework density 18.465848999999999
#
# number of rings (size 3 to 8) (size 9 to 14) (size 15 to 20)
#    0.000    2.250    2.500    1.500    1.750    3.500 
#    0.000    0.000    2.750    3.750    0.000    0.000 
#    0.000    0.000    0.000    0.000    0.000    0.000 
#
# Total GULP energy -89119.319453 kJ/mol
# GULP energy per Si atom -5569.957466 kJ/mol
# Density = 1.842382 g / cm^3
# Si number density = 18.465849 Si / 1000 Ang^3
#
#
#
# Elastic Constant Matrix: (Units=GPa)
#
#
# Indices 1 2 3 4 5 6 
#
# 1 56.0075 35.3708 17.7652 -17.9441 2.2895 18.5352
# 2 35.3708 95.3911 21.7622 -26.7312 1.4762 17.0593
# 3 17.7652 21.7622 58.4275 -25.9632 10.5796 16.3420
# 4 -17.9441 -26.7312 -25.9632 23.5555 2.9187 -6.9549
# 5 2.2895 1.4762 10.5796 2.9187 19.8266 -0.7232
# 6 18.5352 17.0593 16.3420 -6.9549 -0.7232 31.1421
#
#
#
# Elastic Compliance Matrix: (Units=1/GPa)
#
#
# Indices 1 2 3 4 5 6 
#
# 1 0.032865 -0.001689 0.015768 0.037138 -0.018245 -0.019039
# 2 -0.001689 0.020028 0.014899 0.036798 -0.015025 -0.009915
# 3 0.015768 0.014899 0.077078 0.111316 -0.061707 -0.034566
# 4 0.037138 0.036798 0.111316 0.232829 -0.102564 -0.051059
# 5 -0.018245 -0.015025 -0.061707 -0.102564 0.102818 0.030953
# 6 -0.019039 -0.009915 -0.034566 -0.051059 0.030953 0.056329
#
#
# Mechanical properties :
#
#
# Convention : Reuss Voigt Hill
#
# Bulk Modulus (GPa) = 5.32121 39.95806 22.63964
# Shear Modulus (GPa) = 9.49428 23.90004 16.69716
#
# Velocity S-wave (km/s) = 2.26996 3.60152 3.01028
# Velocity P-wave (km/s) = 3.12381 6.24343 4.93653
#
# Compressibility (1/GPa) = 0.18792718
#
# Stress axis : x y z
#
# Youngs Moduli (GPa) = 30.42721 49.93053 12.97387
#
# Poissons Ratio (x) = 0.08435 -0.20457
# Poissons Ratio (y) = 0.05140 -0.19330
# Poissons Ratio (z) = -0.47977 -0.74394
#
# Static dielectric constant tensor:
#      x y z
#    x 1.667910 -0.053970 -0.017680 
#    y -0.053970 1.720310 -0.018820 
#    z -0.017680 -0.018820 1.676540 
# 
# From -- ./inp_files/305644.got.cif
#   From: 2010.05.17/outbox.cif.g08.bks.cpg/sg2_153_cif.got.tgz:305644.got - 2010.06.03 11:33:40.
