data_PCOD9082577
_publ_section_title
;
Structure prediction by ZEFSAII (Michael W. Deem and Ramdas Pophale) SiO2 
 PCOD9082577
Probable space group: P -1
;
_chemical_formula_sum "Si O2"
_cell_formula_units_Z 14
_cell_length_a 11.836766
_cell_length_b 10.335707
_cell_length_c 9.518546
_cell_angle_alpha 133.223350
_cell_angle_beta 62.915438
_cell_angle_gamma 143.475118
_cell_volume 492.769035
_symmetry_space_group_name_H-M "P -1"
_symmetry_group_IT_number 2
_symmetry_cell_setting 'triclinic'
loop_
_space_group_symop_operation_xyz
x,y,z
-x,-y,-z
loop_
_atom_site_type_symbol
_atom_site_label
_atom_site_fract_x
_atom_site_fract_y
_atom_site_fract_z
Si Si1 0.418425 0.700451 0.881866
Si Si2 0.749255 0.862954 0.438976
Si Si3 0.088456 0.496599 0.082887
Si Si4 0.261884 0.753430 0.763106
Si Si5 0.769274 0.726554 0.912051
Si Si6 0.870018 0.914950 0.704258
Si Si7 0.417939 0.134179 0.717540
O O1 0.360262 0.438711 0.752749
O O2 0.338884 0.667827 0.747569
O O3 0.309295 0.711909 0.066171
O O4 0.638662 0.984320 0.002316
O O5 0.750424 0.874629 0.614775
O O6 0.660902 0.923490 0.439007
O O7 0.975941 0.067775 0.425598
O O8 0.009395 0.213046 0.910532
O O9 0.970900 0.464996 0.252915
O O10 0.000000 0.500000 0.000000
O O11 0.338117 0.878818 0.656827
O O12 0.743903 0.700203 0.739022
O O13 0.648406 0.425185 0.805131
O O14 0.678102 0.798653 0.096887
O O15 0.000000 0.000000 0.000000
#
# Coordination Sequence:
#
# PCOD9082577 Si02
#       7
#     2   2   2   2   2   2   2
#     4   9  19  35  53  80 113 147 183 230 273 337
#     4  10  21  37  56  86 115 150 187 225 288 342
#     4   9  18  33  55  80 105 143 189 228 271 325
#     4  10  19  33  56  83 108 143 189 234 274 321
#     4  11  21  35  55  82 116 144 185 240 281 321
#     4  10  20  36  59  80 116 152 185 231 281 340
#     4  11  22  33  57  88 111 142 191 237 280 326
#
# _framework density 28.410875999999998
#
# number of rings (size 3 to 8) (size 9 to 14) (size 15 to 20)
#    0.000    2.000    2.857    1.714    2.000    0.571 
#    0.000    0.000    0.000   16.286    0.000    0.000 
#    0.000    0.000    0.000    0.000    0.000    0.000 
#
# Total GULP energy -78351.035774 kJ/mol
# GULP energy per Si atom -5596.502555 kJ/mol
# Density = 2.834621 g / cm^3
# Si number density = 28.410876 Si / 1000 Ang^3
#
#
#
# Elastic Constant Matrix: (Units=GPa)
#
#
# Indices 1 2 3 4 5 6 
#
# 1 98.3592 65.7979 36.6870 -14.9214 20.7211 -10.8582
# 2 65.7979 182.6479 37.0691 -14.6325 18.9874 4.0366
# 3 36.6870 37.0691 92.2489 -7.9974 24.5089 -4.3086
# 4 -14.9214 -14.6325 -7.9974 47.4439 -16.9073 21.6077
# 5 20.7211 18.9874 24.5089 -16.9073 54.5995 -10.4099
# 6 -10.8582 4.0366 -4.3086 21.6077 -10.4099 64.4696
#
#
#
# Elastic Compliance Matrix: (Units=1/GPa)
#
#
# Indices 1 2 3 4 5 6 
#
# 1 0.015340 -0.004544 -0.003576 0.001289 -0.001876 0.001894
# 2 -0.004544 0.007522 -0.001096 0.001435 -0.000306 -0.001840
# 3 -0.003576 -0.001096 0.013895 -0.000762 -0.004758 -0.000118
# 4 0.001289 0.001435 -0.000762 0.027820 0.006402 -0.008214
# 5 -0.001876 -0.000306 -0.004758 0.006402 0.023447 0.001025
# 6 0.001894 -0.001840 -0.000118 -0.008214 0.001025 0.018856
#
#
# Mechanical properties :
#
#
# Convention : Reuss Voigt Hill
#
# Bulk Modulus (GPa) = 54.56870 72.48488 63.52679
# Shear Modulus (GPa) = 38.04586 48.88275 43.46430
#
# Velocity S-wave (km/s) = 3.66338 4.15247 3.91557
# Velocity P-wave (km/s) = 6.09446 6.96844 6.54605
#
# Compressibility (1/GPa) = 0.01832552
#
# Stress axis : x y z
#
# Youngs Moduli (GPa) = 65.18765 132.94754 71.96750
#
# Poissons Ratio (x) = 0.60412 0.25737
# Poissons Ratio (y) = 0.29622 0.07885
# Poissons Ratio (z) = 0.23312 0.14566
#
# Static dielectric constant tensor:
#      x y z
#    x 2.356090 0.020590 0.041720 
#    y 0.020590 2.199520 -0.041560 
#    z 0.041720 -0.041560 2.233750 
# 
# From -- ./inp_files/308004.got.cif
#   From: 2010.05.17/outbox.cif.g08.bks.cpg/sg2_155_cif.got.tgz:308004.got - 2010.06.03 11:33:40.
