data_PCOD9082199
_publ_section_title
;
Structure prediction by ZEFSAII (Michael W. Deem and Ramdas Pophale) SiO2 
 PCOD9082199
Probable space group: P -1
;
_chemical_formula_sum "Si O2"
_cell_formula_units_Z 14
_cell_length_a 8.338871
_cell_length_b 7.026923
_cell_length_c 13.744781
_cell_angle_alpha 83.655935
_cell_angle_beta 65.969546
_cell_angle_gamma 123.756478
_cell_volume 548.138160
_symmetry_space_group_name_H-M "P -1"
_symmetry_group_IT_number 2
_symmetry_cell_setting 'triclinic'
loop_
_space_group_symop_operation_xyz
x,y,z
-x,-y,-z
loop_
_atom_site_type_symbol
_atom_site_label
_atom_site_fract_x
_atom_site_fract_y
_atom_site_fract_z
Si Si1 0.218976 0.923182 0.938205
Si Si2 0.440206 0.220439 0.239919
Si Si3 0.882477 0.123172 0.497442
Si Si4 0.960659 0.449470 0.141709
Si Si5 0.903753 0.111107 0.819232
Si Si6 0.361049 0.608807 0.294819
Si Si7 0.343787 0.224698 0.603740
O O1 0.083535 0.795455 0.875089
O O2 0.484128 0.167956 0.836029
O O3 0.173074 0.680730 0.009599
O O4 0.116034 0.958666 0.056285
O O5 0.706870 0.363476 0.191092
O O6 0.404952 0.417150 0.265140
O O7 0.280018 0.970520 0.363246
O O8 0.332454 0.111933 0.166064
O O9 0.088834 0.415413 0.401162
O O10 0.729272 0.979804 0.447496
O O11 0.000000 0.000000 0.500000
O O12 0.038427 0.616830 0.210933
O O13 0.113072 0.156707 0.709440
O O14 0.499355 0.745825 0.352163
O O15 0.500000 0.500000 0.500000
#
# Coordination Sequence:
#
# PCOD9082199 Si02
#       7
#     2   2   2   2   2   2   2
#     4   9  22  40  53  78 116 145 181 224 267 324
#     4  11  19  33  62  82 104 144 181 227 274 318
#     4  10  19  33  52  87 113 135 179 226 275 324
#     4   9  20  41  54  75 112 149 185 218 265 329
#     4  10  19  34  56  82 105 145 182 216 271 330
#     4  11  20  35  55  85 115 138 177 233 268 317
#     4  12  18  32  58  84 109 145 175 222 278 316
#
# _framework density 25.541005999999999
#
# number of rings (size 3 to 8) (size 9 to 14) (size 15 to 20)
#    0.857    0.857    7.143    0.000    0.000    3.429 
#    2.571    0.714    0.000    6.000    0.000    0.000 
#    0.000    0.000    0.000    0.000    0.000    0.000 
#
# Total GULP energy -78028.548170 kJ/mol
# GULP energy per Si atom -5573.467726 kJ/mol
# Density = 2.548287 g / cm^3
# Si number density = 25.541006 Si / 1000 Ang^3
#
#
#
# Elastic Constant Matrix: (Units=GPa)
#
#
# Indices 1 2 3 4 5 6 
#
# 1 53.0006 38.1828 17.8843 -10.2525 -2.3951 4.3421
# 2 38.1828 129.9550 27.8469 -14.4137 15.6947 27.4860
# 3 17.8843 27.8469 131.5166 -45.7319 4.1704 0.8607
# 4 -10.2525 -14.4137 -45.7319 69.6070 9.8401 -1.1852
# 5 -2.3951 15.6947 4.1704 9.8401 25.6028 1.9647
# 6 4.3421 27.4860 0.8607 -1.1852 1.9647 37.5935
#
#
#
# Elastic Compliance Matrix: (Units=1/GPa)
#
#
# Indices 1 2 3 4 5 6 
#
# 1 0.025999 -0.008886 -0.002107 -0.000498 0.008176 0.003099
# 2 -0.008886 0.013557 -0.000495 0.002350 -0.009327 -0.008313
# 3 -0.002107 -0.000495 0.010644 0.007226 -0.004468 0.000823
# 4 -0.000498 0.002350 0.007226 0.021030 -0.010700 -0.000604
# 5 0.008176 -0.009327 -0.004468 -0.010700 0.050149 0.003019
# 6 0.003099 -0.008313 0.000823 -0.000604 0.003019 0.032125
#
#
# Mechanical properties :
#
#
# Convention : Reuss Voigt Hill
#
# Bulk Modulus (GPa) = 36.72962 53.58891 45.15927
# Shear Modulus (GPa) = 26.94654 41.93119 34.43887
#
# Velocity S-wave (km/s) = 3.25165 4.05621 3.67601
# Velocity P-wave (km/s) = 5.33943 6.55471 5.97803
#
# Compressibility (1/GPa) = 0.02722598
#
# Stress axis : x y z
#
# Youngs Moduli (GPa) = 38.46265 73.76271 93.95187
#
# Poissons Ratio (x) = 0.65542 0.19793
# Poissons Ratio (y) = 0.34176 0.04648
# Poissons Ratio (z) = 0.08103 0.03649
#
# Static dielectric constant tensor:
#      x y z
#    x 2.084500 -0.055520 0.028350 
#    y -0.055520 2.064920 0.100880 
#    z 0.028350 0.100880 2.075760 
# 
# From -- ./inp_files/513339.got.cif
#   From: 2010.05.17/outbox.cif.g08.bks.cpg/sg2_257_cif.got.tgz:513339.got - 2010.06.03 11:33:40.
