data_PCOD9082513
_publ_section_title
;
Structure prediction by ZEFSAII (Michael W. Deem and Ramdas Pophale) SiO2 
 PCOD9082513
Probable space group: P -1
;
_chemical_formula_sum "Si O2"
_cell_formula_units_Z 16
_cell_length_a 11.927235
_cell_length_b 11.927238
_cell_length_c 13.342670
_cell_angle_alpha 50.362616
_cell_angle_beta 116.095232
_cell_angle_gamma 141.117574
_cell_volume 911.227013
_symmetry_space_group_name_H-M "P -1"
_symmetry_group_IT_number 2
_symmetry_cell_setting 'triclinic'
loop_
_space_group_symop_operation_xyz
x,y,z
-x,-y,-z
loop_
_atom_site_type_symbol
_atom_site_label
_atom_site_fract_x
_atom_site_fract_y
_atom_site_fract_z
Si Si1 0.508444 0.292558 0.588839
Si Si2 0.130544 0.188828 0.295449
Si Si3 0.515724 0.574008 0.295450
Si Si4 0.867983 0.359801 0.388075
Si Si5 0.101885 0.030318 0.867795
Si Si6 0.747876 0.256057 0.611927
Si Si7 0.968029 0.205218 0.826753
Si Si8 0.881398 0.097284 0.411161
O O1 0.569773 0.472101 0.435055
O O2 0.549720 0.372511 0.672622
O O3 0.592869 0.213200 0.630378
O O4 0.293814 0.105796 0.600389
O O5 0.344739 0.394270 0.260993
O O6 0.045134 0.222345 0.327377
O O7 0.092843 0.995172 0.435056
O O8 0.025768 0.117057 0.191597
O O9 0.691348 0.782637 0.191598
O O10 0.731422 0.231421 0.500002
O O11 0.886206 0.541526 0.255790
O O12 0.843578 0.223246 0.369623
O O13 0.067824 0.497339 0.434838
O O14 0.038937 0.133676 0.827385
O O15 0.078314 0.896639 0.025044
O O16 0.797315 0.141996 0.744212
#
# Coordination Sequence:
#
# PCOD9082513 Si02
#       8
#     2   2   2   2   2   2   2   2
#     4  10  19  33  55  87 115 141 187 235 280 336
#     4  10  21  34  57  87 112 147 187 233 280 327
#     4  10  21  34  57  87 112 147 187 233 280 327
#     4   9  18  33  55  81 110 145 179 228 288 318
#     4  11  20  40  60  78 115 150 197 222 278 337
#     4   9  18  33  55  81 110 145 179 228 288 318
#     4   9  21  36  58  84 107 155 189 229 274 340
#     4  10  19  33  55  87 115 141 187 235 280 336
#
# _framework density 17.558741000000001
#
# number of rings (size 3 to 8) (size 9 to 14) (size 15 to 20)
#    0.750    1.500    1.250    2.250    3.500    0.500 
#    0.000    6.250    0.000    0.000    0.000    0.000 
#    0.000    0.000    0.000    0.000    0.000    0.000 
#
# Total GULP energy -89144.858027 kJ/mol
# GULP energy per Si atom -5571.553627 kJ/mol
# Density = 1.751878 g / cm^3
# Si number density = 17.558741 Si / 1000 Ang^3
#
#
#
# Elastic Constant Matrix: (Units=GPa)
#
#
# Indices 1 2 3 4 5 6 
#
# 1 90.4930 20.0951 59.6330 -3.6533 0.6010 -5.1470
# 2 20.0951 71.0940 48.9944 5.6744 -10.2501 -2.0416
# 3 59.6330 48.9944 115.5043 -1.6307 -7.5679 -4.2404
# 4 -3.6533 5.6744 -1.6307 4.5027 -6.9457 1.9062
# 5 0.6010 -10.2501 -7.5679 -6.9457 19.1945 -4.7256
# 6 -5.1470 -2.0416 -4.2404 1.9062 -4.7256 31.1233
#
#
#
# Elastic Compliance Matrix: (Units=1/GPa)
#
#
# Indices 1 2 3 4 5 6 
#
# 1 0.017305 0.000589 -0.009020 0.009390 -0.000120 0.001078
# 2 0.000589 0.025050 -0.012193 -0.050685 -0.009356 0.001763
# 3 -0.009020 -0.012193 0.020165 0.040709 0.016570 0.000478
# 4 0.009390 -0.050685 0.040709 0.658602 0.226475 -0.002177
# 5 -0.000120 -0.009356 0.016570 0.226475 0.137724 0.008664
# 6 0.001078 0.001763 0.000478 -0.002177 0.008664 0.033938
#
#
# Mechanical properties :
#
#
# Convention : Reuss Voigt Hill
#
# Bulk Modulus (GPa) = 47.01351 59.39290 53.20320
# Shear Modulus (GPa) = 5.31281 20.85533 13.08407
#
# Velocity S-wave (km/s) = 1.74135 3.45011 2.73272
# Velocity P-wave (km/s) = 5.55663 7.05476 6.35003
#
# Compressibility (1/GPa) = 0.02127048
#
# Stress axis : x y z
#
# Youngs Moduli (GPa) = 57.78740 39.92057 49.59205
#
# Poissons Ratio (x) = -0.02350 0.44730
# Poissons Ratio (y) = -0.03402 0.60469
# Poissons Ratio (z) = 0.52122 0.48677
#
# Static dielectric constant tensor:
#      x y z
#    x 1.599360 0.008110 -0.002800 
#    y 0.008110 1.617670 0.003560 
#    z -0.002800 0.003560 1.583360 
# 
# From -- ./inp_files/425490.got.cif
#   From: 2010.05.17/outbox.cif.g08.bks.cpg/sg2_213_cif.got.tgz:425490.got - 2010.06.03 11:33:40.
