data_PCOD9082724
_publ_section_title
;
Structure prediction by ZEFSAII (Michael W. Deem and Ramdas Pophale) SiO2 
 PCOD9082724
Probable space group: P -1
;
_chemical_formula_sum "Si O2"
_cell_formula_units_Z 14
_cell_length_a 10.650843
_cell_length_b 11.562489
_cell_length_c 16.573264
_cell_angle_alpha 137.111853
_cell_angle_beta 29.459098
_cell_angle_gamma 130.304359
_cell_volume 682.893056
_symmetry_space_group_name_H-M "P -1"
_symmetry_group_IT_number 2
_symmetry_cell_setting 'triclinic'
loop_
_space_group_symop_operation_xyz
x,y,z
-x,-y,-z
loop_
_atom_site_type_symbol
_atom_site_label
_atom_site_fract_x
_atom_site_fract_y
_atom_site_fract_z
Si Si1 0.657859 0.386196 0.112663
Si Si2 0.989070 0.140308 0.889891
Si Si3 0.599681 0.454765 0.509512
Si Si4 0.130493 0.242513 0.281102
Si Si5 0.881037 0.446244 0.664017
Si Si6 0.117491 0.818117 0.858922
Si Si7 0.337146 0.350766 0.900068
O O1 0.579053 0.504137 0.293356
O O2 0.412941 0.261023 0.170386
O O3 0.691364 0.494047 0.067065
O O4 0.899992 0.276735 0.944492
O O5 0.265116 0.190113 0.799520
O O6 0.957526 0.949020 0.782145
O O7 0.796698 0.166914 0.087835
O O8 0.500000 0.500000 0.500000
O O9 0.679287 0.257358 0.354195
O O10 0.861346 0.563714 0.434694
O O11 0.138636 0.359908 0.257022
O O12 0.935877 0.335858 0.496428
O O13 0.605710 0.372021 0.805345
O O14 0.887771 0.676462 0.923601
O O15 0.000000 0.000000 0.000000
#
# Coordination Sequence:
#
# PCOD9082724 Si02
#       7
#     2   2   2   2   2   2   2
#     4  10  19  37  59  87 113 151 197 237 283 339
#     4  10  19  33  57  85 117 147 193 235 287 334
#     4  11  20  37  60  82 117 158 189 227 288 352
#     4   9  18  33  56  86 113 150 187 247 281 336
#     4   9  19  35  55  83 116 150 196 231 291 338
#     4  10  22  37  56  87 115 151 193 233 290 346
#     4   9  21  36  58  86 115 147 196 242 284 335
#
# _framework density 20.501014000000001
#
# number of rings (size 3 to 8) (size 9 to 14) (size 15 to 20)
#    0.857    1.429    1.429    2.571    0.000    1.143 
#    2.571    0.000    0.000    2.571    0.000    0.000 
#    0.000    0.000    0.000    0.000    0.000    0.000 
#
# Total GULP energy -77936.251359 kJ/mol
# GULP energy per Si atom -5566.875097 kJ/mol
# Density = 2.045435 g / cm^3
# Si number density = 20.501014 Si / 1000 Ang^3
#
#
#
# Elastic Constant Matrix: (Units=GPa)
#
#
# Indices 1 2 3 4 5 6 
#
# 1 93.6036 18.3785 15.0385 -0.2343 -5.8696 3.5212
# 2 18.3785 85.2723 37.8536 11.9182 0.5984 7.9364
# 3 15.0385 37.8536 63.0757 15.0824 5.2679 -0.5872
# 4 -0.2343 11.9182 15.0824 27.5921 3.7894 4.4275
# 5 -5.8696 0.5984 5.2679 3.7894 24.4854 -3.9056
# 6 3.5212 7.9364 -0.5872 4.4275 -3.9056 22.5916
#
#
#
# Elastic Compliance Matrix: (Units=1/GPa)
#
#
# Indices 1 2 3 4 5 6 
#
# 1 0.011631 -0.001549 -0.002567 0.001972 0.002878 -0.001224
# 2 -0.001549 0.017048 -0.009659 -0.001271 0.000586 -0.005648
# 3 -0.002567 -0.009659 0.024979 -0.009990 -0.003277 0.005834
# 4 0.001972 -0.001271 -0.009990 0.044656 -0.005834 -0.009881
# 5 0.002878 0.000586 -0.003277 -0.005834 0.044413 0.008082
# 6 -0.001224 -0.005648 0.005834 -0.009881 0.008082 0.049924
#
#
# Mechanical properties :
#
#
# Convention : Reuss Voigt Hill
#
# Bulk Modulus (GPa) = 38.30187 42.72142 40.51165
# Shear Modulus (GPa) = 21.84307 26.31255 24.07781
#
# Velocity S-wave (km/s) = 3.26768 3.58645 3.43077
# Velocity P-wave (km/s) = 5.74112 6.16718 5.95796
#
# Compressibility (1/GPa) = 0.02610839
#
# Stress axis : x y z
#
# Youngs Moduli (GPa) = 85.97435 58.65718 40.03286
#
# Poissons Ratio (x) = 0.09088 0.10275
# Poissons Ratio (y) = 0.13321 0.38669
# Poissons Ratio (z) = 0.22066 0.56659
#
# Static dielectric constant tensor:
#      x y z
#    x 1.826760 -0.004130 0.008590 
#    y -0.004130 1.741970 -0.016510 
#    z 0.008590 -0.016510 1.790000 
# 
# From -- ./inp_files/568214.got.cif
#   From: 2010.05.17/outbox.cif.g08.bks.cpg/sg2_285_cif.got.tgz:568214.got - 2010.06.03 11:33:40.
