data_PCOD9082988
_publ_section_title
;
Structure prediction by ZEFSAII (Michael W. Deem and Ramdas Pophale) SiO2 
 PCOD9082988
Probable space group: P -1
;
_chemical_formula_sum "Si O2"
_cell_formula_units_Z 12
_cell_length_a 30.691228
_cell_length_b 9.660916
_cell_length_c 16.767161
_cell_angle_alpha 25.302788
_cell_angle_beta 15.850814
_cell_angle_gamma 23.120725
_cell_volume 524.453811
_symmetry_space_group_name_H-M "P -1"
_symmetry_group_IT_number 2
_symmetry_cell_setting 'triclinic'
loop_
_space_group_symop_operation_xyz
x,y,z
-x,-y,-z
loop_
_atom_site_type_symbol
_atom_site_label
_atom_site_fract_x
_atom_site_fract_y
_atom_site_fract_z
Si Si1 0.306904 0.458213 0.921521
Si Si2 0.112179 0.596950 0.045509
Si Si3 0.194270 0.539396 0.384404
Si Si4 0.607444 0.863339 0.610880
Si Si5 0.600743 0.265881 0.621521
Si Si6 0.495379 0.705107 0.721341
O O1 0.397851 0.398196 0.879917
O O2 0.332404 0.815775 0.667527
O O3 0.428343 0.072310 0.868064
O O4 0.127060 0.560994 0.134474
O O5 0.009996 0.364338 0.318829
O O6 0.303144 0.525511 0.707307
O O7 0.000000 0.000000 0.000000
O O8 0.252205 0.454672 0.418428
O O9 0.293353 0.146199 0.372973
O O10 0.296746 0.753318 0.057212
O O11 0.575171 0.727277 0.654247
O O12 0.603683 0.344392 0.668269
O O13 0.500000 0.000000 0.500000
#
# Coordination Sequence:
#
# PCOD9082988 Si02
#       6
#     2   2   2   2   2   2
#     4  10  15  34  60  80 103 150 187 212 269 335
#     4  10  16  32  60  83 106 143 189 225 264 330
#     4  10  22  36  59  84 108 146 190 223 268 331
#     4  10  18  35  58  79 108 147 191 215 265 336
#     4  10  19  36  59  82 110 146 183 225 275 326
#     4  12  22  35  56  86 115 142 181 235 277 316
#
# _framework density 22.880946999999999
#
# number of rings (size 3 to 8) (size 9 to 14) (size 15 to 20)
#    0.000    1.667    8.333    1.000    0.000    0.000 
#    0.000    5.000    0.000    2.000    0.000    0.000 
#    0.000    0.000    0.000    0.000    0.000    0.000 
#
# Total GULP energy -66818.869825 kJ/mol
# GULP energy per Si atom -5568.239152 kJ/mol
# Density = 2.282887 g / cm^3
# Si number density = 22.880947 Si / 1000 Ang^3
#
#
#
# Elastic Constant Matrix: (Units=GPa)
#
#
# Indices 1 2 3 4 5 6 
#
# 1 180.1131 30.4847 52.5867 1.8563 -28.9747 29.8953
# 2 30.4847 37.4627 14.3677 5.7164 -1.2518 1.8959
# 3 52.5867 14.3677 134.4006 -27.4467 -20.8982 -4.8251
# 4 1.8563 5.7164 -27.4467 21.7467 -3.8668 0.7683
# 5 -28.9747 -1.2518 -20.8982 -3.8668 28.6107 4.5866
# 6 29.8953 1.8959 -4.8251 0.7683 4.5866 32.2308
#
#
#
# Elastic Compliance Matrix: (Units=1/GPa)
#
#
# Indices 1 2 3 4 5 6 
#
# 1 0.011283 -0.007553 -0.002027 0.000964 0.011671 -0.012008
# 2 -0.007553 0.038537 -0.008049 -0.022700 -0.015927 0.006342
# 3 -0.002027 -0.008049 0.016172 0.024815 0.012374 0.002422
# 4 0.000964 -0.022700 0.024815 0.088685 0.030462 -0.002293
# 5 0.011671 -0.015927 0.012374 0.030462 0.062050 -0.017592
# 6 -0.012008 0.006342 0.002422 -0.002293 -0.017592 0.044712
#
#
# Mechanical properties :
#
#
# Convention : Reuss Voigt Hill
#
# Bulk Modulus (GPa) = 32.53658 60.76161 46.64909
# Shear Modulus (GPa) = 16.28968 33.48680 24.88824
#
# Velocity S-wave (km/s) = 2.67110 3.82975 3.30165
# Velocity P-wave (km/s) = 4.87482 6.79479 5.91325
#
# Compressibility (1/GPa) = 0.03073464
#
# Stress axis : x y z
#
# Youngs Moduli (GPa) = 88.62925 25.94891 61.83393
#
# Poissons Ratio (x) = 0.19600 0.12532
# Poissons Ratio (y) = 0.66946 0.49769
# Poissons Ratio (z) = 0.17962 0.20886
#
# Static dielectric constant tensor:
#      x y z
#    x 1.895940 -0.013280 -0.007930 
#    y -0.013280 1.936840 -0.004040 
#    z -0.007930 -0.004040 1.932860 
# 
# From -- ./inp_files/491721.got.cif
#   From: 2010.05.17/outbox.cif.g08.bks.cpg/sg2_246_cif.got.tgz:491721.got - 2010.06.03 11:33:40.
