data_PCOD9082756
_publ_section_title
;
Structure prediction by ZEFSAII (Michael W. Deem and Ramdas Pophale) SiO2 
 PCOD9082756
Probable space group: P -1
;
_chemical_formula_sum "Si O2"
_cell_formula_units_Z 16
_cell_length_a 8.143140
_cell_length_b 10.993132
_cell_length_c 11.676463
_cell_angle_alpha 104.482928
_cell_angle_beta 66.654400
_cell_angle_gamma 125.210922
_cell_volume 783.772335
_symmetry_space_group_name_H-M "P -1"
_symmetry_group_IT_number 2
_symmetry_cell_setting 'triclinic'
loop_
_space_group_symop_operation_xyz
x,y,z
-x,-y,-z
loop_
_atom_site_type_symbol
_atom_site_label
_atom_site_fract_x
_atom_site_fract_y
_atom_site_fract_z
Si Si1 0.754558 0.583691 0.284629
Si Si2 0.172364 0.121078 0.568003
Si Si3 0.064113 0.738120 0.048442
Si Si4 0.466155 0.448749 0.129416
Si Si5 0.005147 0.011237 0.836146
Si Si6 0.503766 0.822645 0.901102
Si Si7 0.595420 0.260896 0.349399
Si Si8 0.021438 0.741291 0.809016
O O1 0.823679 0.726095 0.378617
O O2 0.578509 0.558640 0.231911
O O3 0.663393 0.430596 0.343257
O O4 0.956774 0.627970 0.158372
O O5 0.407679 0.179293 0.472536
O O6 0.000000 0.000000 0.500000
O O7 0.102707 0.039250 0.689658
O O8 0.946648 0.829538 0.100269
O O9 0.319650 0.836967 0.012275
O O10 0.025759 0.674880 0.915949
O O11 0.558626 0.343373 0.089446
O O12 0.214374 0.352610 0.196579
O O13 0.500000 0.500000 0.000000
O O14 0.749449 0.919702 0.888114
O O15 0.076998 0.909976 0.852338
O O16 0.489246 0.827640 0.768941
O O17 0.805462 0.260629 0.317401
#
# Coordination Sequence:
#
# PCOD9082756 Si02
#       8
#     2   2   2   2   2   2   2   2
#     4  10  22  37  62  89 113 152 198 235 289 346
#     4  11  22  41  65  80 112 154 204 245 283 329
#     4  10  19  33  57  87 122 148 189 236 288 353
#     4  10  19  34  55  84 123 152 181 230 293 347
#     4  10  20  36  56  83 116 155 194 233 292 344
#     4   9  19  32  56  86 115 152 191 237 284 346
#     4  10  21  38  60  86 113 153 199 242 281 338
#     4  10  21  35  58  84 121 153 185 235 298 346
#
# _framework density 20.414090000000002
#
# number of rings (size 3 to 8) (size 9 to 14) (size 15 to 20)
#    0.000    2.000    2.500    1.125    1.750    2.000 
#    0.000    0.625    5.500    0.000    0.000    0.000 
#    0.000    0.000    0.000    0.000    0.000    0.000 
#
# Total GULP energy -89120.433665 kJ/mol
# GULP energy per Si atom -5570.027104 kJ/mol
# Density = 2.036763 g / cm^3
# Si number density = 20.414090 Si / 1000 Ang^3
#
#
#
# Elastic Constant Matrix: (Units=GPa)
#
#
# Indices 1 2 3 4 5 6 
#
# 1 80.5280 28.1157 35.8464 -8.3074 -26.2059 0.7296
# 2 28.1157 77.3427 23.9730 -1.2471 -12.3152 5.3941
# 3 35.8464 23.9730 104.9592 -20.0786 -20.8221 1.4043
# 4 -8.3074 -1.2471 -20.0786 31.8268 6.9861 -5.2167
# 5 -26.2059 -12.3152 -20.8221 6.9861 32.7752 -6.8304
# 6 0.7296 5.3941 1.4043 -5.2167 -6.8304 27.5632
#
#
#
# Elastic Compliance Matrix: (Units=1/GPa)
#
#
# Indices 1 2 3 4 5 6 
#
# 1 0.019443 -0.004374 -0.003034 0.000847 0.012581 0.003774
# 2 -0.004374 0.015554 -0.002387 -0.002718 0.000757 -0.003133
# 3 -0.003034 -0.002387 0.013206 0.006915 0.004049 0.002187
# 4 0.000847 -0.002718 0.006915 0.037548 -0.002574 0.006626
# 5 0.012581 0.000757 0.004049 -0.002574 0.046112 0.010252
# 6 0.003774 -0.003133 0.002187 0.006626 0.010252 0.040477
#
#
# Mechanical properties :
#
#
# Convention : Reuss Voigt Hill
#
# Bulk Modulus (GPa) = 34.94757 48.74446 41.84601
# Shear Modulus (GPa) = 24.81795 30.09270 27.45532
#
# Velocity S-wave (km/s) = 3.49051 3.84358 3.67129
# Velocity P-wave (km/s) = 5.77939 6.60509 6.20599
#
# Compressibility (1/GPa) = 0.02861430
#
# Stress axis : x y z
#
# Youngs Moduli (GPa) = 51.43230 64.29010 75.72537
#
# Poissons Ratio (x) = 0.28119 0.22975
# Poissons Ratio (y) = 0.22496 0.18073
# Poissons Ratio (z) = 0.15605 0.15343
#
# Static dielectric constant tensor:
#      x y z
#    x 1.728230 0.008920 -0.004550 
#    y 0.008920 1.827500 0.016550 
#    z -0.004550 0.016550 1.762770 
# 
# From -- ./inp_files/217064.got.cif
#   From: 2010.05.17/outbox.cif.g08.bks.cpg/sg2_109_cif.got.tgz:217064.got - 2010.06.03 11:33:40.
