data_PCOD9082492
_publ_section_title
;
Structure prediction by ZEFSAII (Michael W. Deem and Ramdas Pophale) SiO2 
 PCOD9082492
Probable space group: P -1
;
_chemical_formula_sum "Si O2"
_cell_formula_units_Z 16
_cell_length_a 9.275323
_cell_length_b 12.155912
_cell_length_c 10.096497
_cell_angle_alpha 72.453026
_cell_angle_beta 53.473861
_cell_angle_gamma 51.197937
_cell_volume 708.247842
_symmetry_space_group_name_H-M "P -1"
_symmetry_group_IT_number 2
_symmetry_cell_setting 'triclinic'
loop_
_space_group_symop_operation_xyz
x,y,z
-x,-y,-z
loop_
_atom_site_type_symbol
_atom_site_label
_atom_site_fract_x
_atom_site_fract_y
_atom_site_fract_z
Si Si1 0.185628 0.985997 0.995319
Si Si2 0.419217 0.044788 0.377072
Si Si3 0.584159 0.719802 0.947787
Si Si4 0.373997 0.474319 0.769783
Si Si5 0.109067 0.251846 0.068237
Si Si6 0.106231 0.339659 0.550038
Si Si7 0.358744 0.492420 0.193779
Si Si8 0.598745 0.747926 0.325389
O O1 0.382157 0.966079 0.804900
O O2 0.324146 0.841698 0.056695
O O3 0.096997 0.122433 0.084492
O O4 0.000000 0.000000 0.000000
O O5 0.204836 0.205864 0.447334
O O6 0.500000 0.000000 0.500000
O O7 0.412461 0.917622 0.368347
O O8 0.628501 0.645762 0.807922
O O9 0.657299 0.597959 0.059645
O O10 0.721510 0.780440 0.894878
O O11 0.531872 0.515582 0.723464
O O12 0.468851 0.353126 0.650831
O O13 0.132374 0.610329 0.816349
O O14 0.214405 0.275328 0.872146
O O15 0.287021 0.300071 0.576811
O O16 0.000000 0.500000 0.500000
O O17 0.888817 0.368008 0.727951
O O18 0.500000 0.500000 0.000000
#
# Coordination Sequence:
#
# PCOD9082492 Si02
#       8
#     2   2   2   2   2   2   2   2
#     4  11  22  36  57  87 117 144 186 247 288 322
#     4   9  21  37  55  77 109 154 189 217 277 349
#     4  10  19  33  55  86 115 144 186 235 288 340
#     4  10  19  33  56  85 112 145 189 239 283 329
#     4  10  19  33  55  84 117 151 184 230 288 343
#     4  11  21  36  58  82 111 150 192 232 277 339
#     4  10  20  34  57  86 110 139 186 239 282 327
#     4   9  18  36  55  75 110 153 189 223 277 349
#
# _framework density 22.590962999999999
#
# number of rings (size 3 to 8) (size 9 to 14) (size 15 to 20)
#    0.000    2.000    0.000    5.625    0.000    5.000 
#    0.000    1.250    0.000   10.500    0.000    0.000 
#    0.000    0.000    0.000    0.000    0.000    0.000 
#
# Total GULP energy -89295.835760 kJ/mol
# GULP energy per Si atom -5580.989735 kJ/mol
# Density = 2.253955 g / cm^3
# Si number density = 22.590963 Si / 1000 Ang^3
#
#
#
# Elastic Constant Matrix: (Units=GPa)
#
#
# Indices 1 2 3 4 5 6 
#
# 1 178.9074 70.8804 3.2872 32.0215 16.8366 23.4591
# 2 70.8804 152.0807 34.7490 48.4037 3.1951 18.0947
# 3 3.2872 34.7490 47.2388 16.1014 7.4944 8.5467
# 4 32.0215 48.4037 16.1014 33.1512 3.0977 11.9132
# 5 16.8366 3.1951 7.4944 3.0977 25.2302 10.4125
# 6 23.4591 18.0947 8.5467 11.9132 10.4125 36.3437
#
#
#
# Elastic Compliance Matrix: (Units=1/GPa)
#
#
# Indices 1 2 3 4 5 6 
#
# 1 0.008258 -0.003116 0.004365 -0.004384 -0.005086 -0.001911
# 2 -0.003116 0.014033 -0.005553 -0.015221 0.003715 0.000256
# 3 0.004365 -0.005553 0.029830 -0.009233 -0.009378 -0.001354
# 4 -0.004384 -0.015221 -0.009233 0.064182 0.003637 -0.009501
# 5 -0.005086 0.003715 -0.009378 0.003637 0.049773 -0.011814
# 6 -0.001911 0.000256 -0.001354 -0.009501 -0.011814 0.035439
#
#
# Mechanical properties :
#
#
# Convention : Reuss Voigt Hill
#
# Bulk Modulus (GPa) = 22.98289 66.22891 44.60590
# Shear Modulus (GPa) = 22.25899 36.89905 29.57902
#
# Velocity S-wave (km/s) = 3.14236 4.04586 3.62239
# Velocity P-wave (km/s) = 4.83337 7.15580 6.10602
#
# Compressibility (1/GPa) = 0.04351062
#
# Stress axis : x y z
#
# Youngs Moduli (GPa) = 121.09714 71.26214 33.52297
#
# Poissons Ratio (x) = 0.22209 -0.14632
# Poissons Ratio (y) = 0.37739 0.18617
# Poissons Ratio (z) = -0.52856 0.39575
#
# Static dielectric constant tensor:
#      x y z
#    x 1.864440 0.055430 -0.009450 
#    y 0.055430 1.950590 -0.085550 
#    z -0.009450 -0.085550 1.952180 
# 
# From -- ./inp_files/201426.got.cif
#   From: 2010.05.17/outbox.cif.g08.bks.cpg/sg2_101_cif.got.tgz:201426.got - 2010.06.03 11:33:40.
