data_PCOD9082042
_publ_section_title
;
Structure prediction by ZEFSAII (Michael W. Deem and Ramdas Pophale) SiO2 
 PCOD9082042
Probable space group: P -1
;
_chemical_formula_sum "Si O2"
_cell_formula_units_Z 16
_cell_length_a 8.833785
_cell_length_b 11.614261
_cell_length_c 16.045554
_cell_angle_alpha 41.043963
_cell_angle_beta 83.866555
_cell_angle_gamma 112.256199
_cell_volume 763.801702
_symmetry_space_group_name_H-M "P -1"
_symmetry_group_IT_number 2
_symmetry_cell_setting 'triclinic'
loop_
_space_group_symop_operation_xyz
x,y,z
-x,-y,-z
loop_
_atom_site_type_symbol
_atom_site_label
_atom_site_fract_x
_atom_site_fract_y
_atom_site_fract_z
Si Si1 0.896995 0.232671 0.624673
Si Si2 0.866108 0.134588 0.143037
Si Si3 0.521597 0.708934 0.997267
Si Si4 0.747280 0.675202 0.365849
Si Si5 0.344015 0.545229 0.910989
Si Si6 0.083927 0.500990 0.181099
Si Si7 0.786638 0.376893 0.404293
Si Si8 0.335815 0.932507 0.641012
O O1 0.793344 0.210780 0.555486
O O2 0.000000 0.500000 0.500000
O O3 0.097004 0.260316 0.602151
O O4 0.718641 0.006536 0.821087
O O5 0.701196 0.014366 0.293974
O O6 0.824822 0.933217 0.198177
O O7 0.869049 0.315827 0.992474
O O8 0.097742 0.306371 0.076889
O O9 0.463633 0.654834 0.931717
O O10 0.584734 0.559634 0.092732
O O11 0.311403 0.589709 0.126414
O O12 0.500000 0.500000 0.500000
O O13 0.777838 0.548957 0.363967
O O14 0.349713 0.735842 0.762555
O O15 0.995955 0.528602 0.252313
O O16 0.880017 0.217274 0.318654
O O17 0.571189 0.190028 0.463430
#
# Coordination Sequence:
#
# PCOD9082042 Si02
#       8
#     2   2   2   2   2   2   2   2
#     4  10  22  40  63  84 113 159 207 243 288 358
#     4  11  19  38  63  90 117 154 210 241 291 359
#     4  11  19  36  60  87 118 154 200 245 290 355
#     4  11  23  40  67  88 111 158 212 249 286 359
#     4  10  19  32  62  88 112 148 205 247 282 341
#     4  11  23  36  61  93 127 156 190 250 310 352
#     4  11  23  41  58  89 127 160 193 248 308 350
#     4  11  19  39  61  91 119 165 199 243 291 363
#
# _framework density 20.947845999999998
#
# number of rings (size 3 to 8) (size 9 to 14) (size 15 to 20)
#    0.000    1.250    6.250    1.125    1.750    0.500 
#    0.000    5.625    0.000    0.000    0.000    0.000 
#    0.000    0.000    0.000    0.000    0.000    0.000 
#
# Total GULP energy -89190.075672 kJ/mol
# GULP energy per Si atom -5574.379730 kJ/mol
# Density = 2.090017 g / cm^3
# Si number density = 20.947846 Si / 1000 Ang^3
#
#
#
# Elastic Constant Matrix: (Units=GPa)
#
#
# Indices 1 2 3 4 5 6 
#
# 1 94.2258 22.8829 26.5030 -2.5509 -27.6509 -24.0962
# 2 22.8829 66.4797 35.2802 -6.3571 -8.1424 -21.5706
# 3 26.5030 35.2802 61.1313 -11.0128 -28.9402 -15.9005
# 4 -2.5509 -6.3571 -11.0128 38.1281 -6.6488 -6.8627
# 5 -27.6509 -8.1424 -28.9402 -6.6488 28.7641 1.5468
# 6 -24.0962 -21.5706 -15.9005 -6.8627 1.5468 35.5422
#
#
#
# Elastic Compliance Matrix: (Units=1/GPa)
#
#
# Indices 1 2 3 4 5 6 
#
# 1 0.044027 -0.013172 0.064983 0.049101 0.112340 0.055518
# 2 -0.013172 0.030115 -0.040299 -0.017713 -0.048240 -0.010003
# 3 0.064983 -0.040299 0.181354 0.114414 0.253961 0.111770
# 4 0.049101 -0.017713 0.114414 0.106069 0.177168 0.086495
# 5 0.112340 -0.048240 0.253961 0.177168 0.416074 0.176601
# 6 0.055518 -0.010003 0.111770 0.086495 0.176601 0.118721
#
#
# Mechanical properties :
#
#
# Convention : Reuss Voigt Hill
#
# Bulk Modulus (GPa) = 3.59041 43.46324 23.52683
# Shear Modulus (GPa) = 5.17504 29.63158 17.40331
#
# Velocity S-wave (km/s) = 1.57347 3.76512 2.88547
# Velocity P-wave (km/s) = 2.24026 6.30038 4.72830
#
# Compressibility (1/GPa) = 0.27851970
#
# Stress axis : x y z
#
# Youngs Moduli (GPa) = 22.71335 33.20626 5.51407
#
# Poissons Ratio (x) = 0.43740 -0.35832
# Poissons Ratio (y) = 0.29918 0.22221
# Poissons Ratio (z) = -1.47598 1.33818
#
# Static dielectric constant tensor:
#      x y z
#    x 1.822630 0.027640 -0.023470 
#    y 0.027640 1.842420 -0.009360 
#    z -0.023470 -0.009360 1.760560 
# 
# From -- ./inp_files/177951.got.cif
#   From: 2010.05.17/outbox.cif.g08.bks.cpg/sg2_89_cif.got.tgz:177951.got - 2010.06.03 11:33:40.
