data_PCOD9082194
_publ_section_title
;
Structure prediction by ZEFSAII (Michael W. Deem and Ramdas Pophale) SiO2 
 PCOD9082194
Probable space group: P -1
;
_chemical_formula_sum "Si O2"
_cell_formula_units_Z 16
_cell_length_a 13.163803
_cell_length_b 11.439519
_cell_length_c 12.115478
_cell_angle_alpha 84.547080
_cell_angle_beta 116.053459
_cell_angle_gamma 42.345538
_cell_volume 795.477725
_symmetry_space_group_name_H-M "P -1"
_symmetry_group_IT_number 2
_symmetry_cell_setting 'triclinic'
loop_
_space_group_symop_operation_xyz
x,y,z
-x,-y,-z
loop_
_atom_site_type_symbol
_atom_site_label
_atom_site_fract_x
_atom_site_fract_y
_atom_site_fract_z
Si Si1 0.654077 0.744444 0.611388
Si Si2 0.088520 0.751129 0.986169
Si Si3 0.592130 0.740129 0.835974
Si Si4 0.860385 0.176988 0.757186
Si Si5 0.747491 0.779564 0.331189
Si Si6 0.633308 0.054323 0.826586
Si Si7 0.589055 0.575778 0.447388
Si Si8 0.807926 0.727415 0.112219
O O1 0.663998 0.703879 0.748771
O O2 0.570096 0.705399 0.508250
O O3 0.916616 0.529385 0.719929
O O4 0.500000 0.000000 0.500000
O O5 0.313668 0.475483 0.082219
O O6 0.109403 0.775825 0.120668
O O7 0.047023 0.903190 0.877187
O O8 0.857611 0.876600 0.872022
O O9 0.322563 0.022853 0.692750
O O10 0.726555 0.700855 0.990909
O O11 0.819764 0.297649 0.621337
O O12 0.622621 0.320287 0.645062
O O13 0.552089 0.880861 0.292313
O O14 0.709772 0.799909 0.180767
O O15 0.000000 0.500000 0.500000
O O16 0.467362 0.318418 0.709474
O O17 0.739465 0.913760 0.005708
#
# Coordination Sequence:
#
# PCOD9082194 Si02
#       8
#     2   2   2   2   2   2   2   2
#     4  12  22  32  56  91 123 148 191 241 297 346
#     4  10  19  34  57  89 110 153 194 253 294 334
#     4  11  21  35  57  83 120 154 194 238 288 343
#     4   9  19  34  53  83 128 141 199 239 307 340
#     4  11  24  40  52  84 123 164 194 230 291 365
#     4  10  19  34  58  79 115 151 198 228 292 346
#     4  10  19  33  52  85 121 157 176 243 300 344
#     4  11  22  37  54  82 122 159 195 224 288 365
#
# _framework density 20.113700999999999
#
# number of rings (size 3 to 8) (size 9 to 14) (size 15 to 20)
#    0.000    1.500    2.500    4.875    5.250    0.000 
#    0.000    0.000    0.000    0.000    0.000   73.500 
#    0.000    0.000    0.000    0.000    0.000    0.000 
#
# Total GULP energy -89076.283623 kJ/mol
# GULP energy per Si atom -5567.267726 kJ/mol
# Density = 2.006792 g / cm^3
# Si number density = 20.113701 Si / 1000 Ang^3
#
#
#
# Elastic Constant Matrix: (Units=GPa)
#
#
# Indices 1 2 3 4 5 6 
#
# 1 43.3218 34.8087 31.8648 -9.6944 -15.5980 16.6595
# 2 34.8087 92.7458 48.2154 -25.9280 -7.1274 11.6207
# 3 31.8648 48.2154 104.3350 -32.9178 -20.0284 18.1530
# 4 -9.6944 -25.9280 -32.9178 48.7399 11.2006 -14.5826
# 5 -15.5980 -7.1274 -20.0284 11.2006 49.6551 -10.4604
# 6 16.6595 11.6207 18.1530 -14.5826 -10.4604 23.9163
#
#
#
# Elastic Compliance Matrix: (Units=1/GPa)
#
#
# Indices 1 2 3 4 5 6 
#
# 1 0.050153 -0.015130 -0.005839 -0.011941 0.008272 -0.026814
# 2 -0.015130 0.019463 -0.003903 0.007696 -0.003777 0.007086
# 3 -0.005839 -0.003903 0.015893 0.006659 0.002296 -0.001035
# 4 -0.011941 0.007696 0.006659 0.032959 -0.003593 0.018049
# 5 0.008272 -0.003777 0.002296 -0.003593 0.024537 0.002871
# 6 -0.026814 0.007086 -0.001035 0.018049 0.002871 0.070095
#
#
# Mechanical properties :
#
#
# Convention : Reuss Voigt Hill
#
# Bulk Modulus (GPa) = 27.96066 52.24230 40.10148
# Shear Modulus (GPa) = 18.19729 32.82983 25.51356
#
# Velocity S-wave (km/s) = 3.01112 4.04445 3.56542
# Velocity P-wave (km/s) = 5.10104 6.91664 6.07703
#
# Compressibility (1/GPa) = 0.03576453
#
# Stress axis : x y z
#
# Youngs Moduli (GPa) = 19.93907 51.37871 62.91959
#
# Poissons Ratio (x) = 0.77736 0.36740
# Poissons Ratio (y) = 0.30168 0.24559
# Poissons Ratio (z) = 0.11643 0.20054
#
# Static dielectric constant tensor:
#      x y z
#    x 1.750420 0.034450 -0.032780 
#    y 0.034450 1.728500 -0.046510 
#    z -0.032780 -0.046510 1.832310 
# 
# From -- ./inp_files/437314.got.cif
#   From: 2010.05.17/outbox.cif.g08.bks.cpg/sg2_219_cif.got.tgz:437314.got - 2010.06.03 11:33:40.
