data_PCOD9082918
_publ_section_title
;
Structure prediction by ZEFSAII (Michael W. Deem and Ramdas Pophale) SiO2 
 PCOD9082918
Probable space group: P -1
;
_chemical_formula_sum "Si O2"
_cell_formula_units_Z 14
_cell_length_a 8.048750
_cell_length_b 8.708773
_cell_length_c 10.381388
_cell_angle_alpha 69.247931
_cell_angle_beta 112.501375
_cell_angle_gamma 93.922941
_cell_volume 626.762525
_symmetry_space_group_name_H-M "P -1"
_symmetry_group_IT_number 2
_symmetry_cell_setting 'triclinic'
loop_
_space_group_symop_operation_xyz
x,y,z
-x,-y,-z
loop_
_atom_site_type_symbol
_atom_site_label
_atom_site_fract_x
_atom_site_fract_y
_atom_site_fract_z
Si Si1 0.917981 0.754999 0.983118
Si Si2 0.566564 0.595986 0.612824
Si Si3 0.326800 0.896824 0.457712
Si Si4 0.457802 0.653722 0.109646
Si Si5 0.101432 0.203369 0.343958
Si Si6 0.278493 0.917200 0.131960
Si Si7 0.783234 0.442616 0.164814
O O1 0.895966 0.572461 0.080514
O O2 0.101763 0.830153 0.058815
O O3 0.906993 0.769697 0.821577
O O4 0.759311 0.886259 0.950274
O O5 0.500000 0.500000 0.500000
O O6 0.400958 0.717850 0.580615
O O7 0.630919 0.469428 0.780402
O O8 0.729099 0.701911 0.587160
O O9 0.301323 0.881977 0.300821
O O10 0.500000 0.000000 0.500000
O O11 0.157376 0.008183 0.432830
O O12 0.437874 0.830118 0.119833
O O13 0.656741 0.567233 0.176708
O O14 0.349712 0.645046 0.946515
O O15 0.919215 0.301690 0.308873
#
# Coordination Sequence:
#
# PCOD9082918 Si02
#       7
#     2   2   2   2   2   2   2
#     4  10  19  33  59  85 106 141 186 237 275 318
#     4  11  20  35  60  81 107 144 193 228 262 327
#     4   9  20  34  57  82 106 141 186 233 268 316
#     4  11  22  36  55  86 115 147 180 222 285 331
#     4  10  19  36  57  82 108 143 186 228 278 318
#     4  10  19  34  58  85 107 138 192 232 272 325
#     4  11  22  36  56  83 120 145 174 230 285 330
#
# _framework density 22.337009999999999
#
# number of rings (size 3 to 8) (size 9 to 14) (size 15 to 20)
#    0.000    1.714    4.286    1.286    0.000    0.571 
#    0.000    1.429    0.000    0.000    0.000    0.000 
#    0.000    0.000    0.000    0.000    0.000    0.000 
#
# Total GULP energy -78155.148027 kJ/mol
# GULP energy per Si atom -5582.510573 kJ/mol
# Density = 2.228617 g / cm^3
# Si number density = 22.337010 Si / 1000 Ang^3
#
#
#
# Elastic Constant Matrix: (Units=GPa)
#
#
# Indices 1 2 3 4 5 6 
#
# 1 61.1427 38.0134 8.9429 -7.5186 18.7655 -33.9422
# 2 38.0134 128.6015 30.7031 -19.4443 21.8220 -37.0946
# 3 8.9429 30.7031 56.1979 -5.4196 25.1738 1.6941
# 4 -7.5186 -19.4443 -5.4196 57.6352 -2.4323 16.2866
# 5 18.7655 21.8220 25.1738 -2.4323 27.1535 -13.3643
# 6 -33.9422 -37.0946 1.6941 16.2866 -13.3643 48.4616
#
#
#
# Elastic Compliance Matrix: (Units=1/GPa)
#
#
# Indices 1 2 3 4 5 6 
#
# 1 0.030583 -0.002878 0.001552 -0.001999 -0.012356 0.016428
# 2 -0.002878 0.012604 -0.008455 0.000768 0.004098 0.008800
# 3 0.001552 -0.008455 0.042965 0.005418 -0.043865 -0.020804
# 4 -0.001999 0.000768 0.005418 0.020332 -0.007282 -0.009843
# 5 -0.012356 0.004098 -0.043865 -0.007282 0.094104 0.024414
# 6 0.016428 0.008800 -0.020804 -0.009843 0.024414 0.049644
#
#
# Mechanical properties :
#
#
# Convention : Reuss Voigt Hill
#
# Bulk Modulus (GPa) = 15.01684 44.58453 29.80069
# Shear Modulus (GPa) = 17.12374 37.86888 27.49631
#
# Velocity S-wave (km/s) = 2.77177 4.12192 3.51233
# Velocity P-wave (km/s) = 4.12081 6.53123 5.46068
#
# Compressibility (1/GPa) = 0.06659189
#
# Stress axis : x y z
#
# Youngs Moduli (GPa) = 32.69773 79.33821 23.27452
#
# Poissons Ratio (x) = 0.22832 -0.03613
# Poissons Ratio (y) = 0.09410 0.19679
# Poissons Ratio (z) = -0.05076 0.67081
#
# Static dielectric constant tensor:
#      x y z
#    x 1.895490 -0.059110 0.023480 
#    y -0.059110 1.849130 -0.037560 
#    z 0.023480 -0.037560 1.808230 
# 
# From -- ./inp_files/154602.got.cif
#   From: 2010.05.17/outbox.cif.g08.bks.cpg/sg2_78_cif.got.tgz:154602.got - 2010.06.03 11:33:40.
