data_PCOD9082839
_publ_section_title
;
Structure prediction by ZEFSAII (Michael W. Deem and Ramdas Pophale) SiO2 
 PCOD9082839
Probable space group: P -1
;
_chemical_formula_sum "Si O2"
_cell_formula_units_Z 14
_cell_length_a 14.869560
_cell_length_b 9.364874
_cell_length_c 15.363920
_cell_angle_alpha 78.765313
_cell_angle_beta 149.481134
_cell_angle_gamma 124.093124
_cell_volume 655.521305
_symmetry_space_group_name_H-M "P -1"
_symmetry_group_IT_number 2
_symmetry_cell_setting 'triclinic'
loop_
_space_group_symop_operation_xyz
x,y,z
-x,-y,-z
loop_
_atom_site_type_symbol
_atom_site_label
_atom_site_fract_x
_atom_site_fract_y
_atom_site_fract_z
Si Si1 0.903736 0.603002 0.072883
Si Si2 0.884969 0.064772 0.136725
Si Si3 0.936425 0.123454 0.668506
Si Si4 0.738775 0.418841 0.549325
Si Si5 0.674614 0.258574 0.791078
Si Si6 0.225105 0.698828 0.593027
Si Si7 0.845323 0.053862 0.912519
O O1 0.858813 0.663000 0.116378
O O2 0.166179 0.661584 0.306082
O O3 0.968432 0.759413 0.031714
O O4 0.671798 0.340652 0.871355
O O5 0.937908 0.949364 0.245825
O O6 0.548137 0.889517 0.878025
O O7 0.083151 0.326810 0.301139
O O8 0.971091 0.084179 0.105331
O O9 0.858013 0.191845 0.521685
O O10 0.625591 0.889600 0.483837
O O11 0.802323 0.421052 0.501580
O O12 0.394929 0.210159 0.293041
O O13 0.671383 0.083715 0.799029
O O14 0.000000 0.500000 0.000000
O O15 0.000000 0.500000 0.500000
#
# Coordination Sequence:
#
# PCOD9082839 Si02
#       7
#     2   2   2   2   2   2   2
#     4  10  19  33  61  82 120 169 202 233 293 339
#     4  11  23  39  60  90 124 151 200 245 300 356
#     4  11  23  40  60  89 123 160 196 246 298 350
#     4  10  19  36  62  85 118 160 194 245 299 351
#     4  10  19  33  58  85 117 161 201 239 280 341
#     4  10  23  45  66  87 115 149 201 256 303 361
#     4  10  19  33  58  86 121 161 205 241 275 351
#
# _framework density 21.357047999999999
#
# number of rings (size 3 to 8) (size 9 to 14) (size 15 to 20)
#    0.000    1.714    5.714    0.429    2.000    4.000 
#    0.000    5.714    0.000    0.000    0.000    0.000 
#    0.000    0.000    0.000    0.000    0.000    0.000 
#
# Total GULP energy -77985.809234 kJ/mol
# GULP energy per Si atom -5570.414945 kJ/mol
# Density = 2.130844 g / cm^3
# Si number density = 21.357048 Si / 1000 Ang^3
#
#
#
# Elastic Constant Matrix: (Units=GPa)
#
#
# Indices 1 2 3 4 5 6 
#
# 1 41.9255 47.1735 24.6948 6.5017 -6.0870 -0.5003
# 2 47.1735 137.2007 73.7045 -2.5464 4.9879 -14.9567
# 3 24.6948 73.7045 81.5005 7.6376 -14.2045 -20.5947
# 4 6.5017 -2.5464 7.6376 44.6169 -13.4465 -5.1503
# 5 -6.0870 4.9879 -14.2045 -13.4465 20.0428 0.9839
# 6 -0.5003 -14.9567 -20.5947 -5.1503 0.9839 32.7968
#
#
#
# Elastic Compliance Matrix: (Units=1/GPa)
#
#
# Indices 1 2 3 4 5 6 
#
# 1 0.048995 -0.024172 0.010754 -0.002815 0.026862 -0.004771
# 2 -0.024172 0.031722 -0.028170 -0.000904 -0.035675 -0.002663
# 3 0.010754 -0.028170 0.045793 0.004279 0.044845 0.015400
# 4 -0.002815 -0.000904 0.004279 0.029312 0.021764 0.006182
# 5 0.026862 -0.035675 0.044845 0.021764 0.112707 0.012337
# 6 -0.004771 -0.002663 0.015400 0.006182 0.012337 0.039474
#
#
# Mechanical properties :
#
#
# Convention : Reuss Voigt Hill
#
# Bulk Modulus (GPa) = 23.07607 61.30803 42.19205
# Shear Modulus (GPa) = 12.32672 27.16156 19.74414
#
# Velocity S-wave (km/s) = 2.40505 3.57008 3.04382
# Velocity P-wave (km/s) = 4.30589 6.76480 5.67024
#
# Compressibility (1/GPa) = 0.04333494
#
# Stress axis : x y z
#
# Youngs Moduli (GPa) = 20.41040 31.52358 21.83751
#
# Poissons Ratio (x) = 0.76198 -0.23484
# Poissons Ratio (y) = 0.49336 0.61516
# Poissons Ratio (z) = -0.21950 0.88801
#
# Static dielectric constant tensor:
#      x y z
#    x 1.801370 0.010390 -0.014040 
#    y 0.010390 1.822270 -0.016130 
#    z -0.014040 -0.016130 1.812800 
# 
# From -- ./inp_files/337494.got.cif
#   From: 2010.05.17/outbox.cif.g08.bks.cpg/sg2_169_cif.got.tgz:337494.got - 2010.06.03 11:33:40.
