data_PCOD9082959
_publ_section_title
;
Structure prediction by ZEFSAII (Michael W. Deem and Ramdas Pophale) SiO2 
 PCOD9082959
Probable space group: P -1
;
_chemical_formula_sum "Si O2"
_cell_formula_units_Z 16
_cell_length_a 12.247188
_cell_length_b 8.067878
_cell_length_c 7.509810
_cell_angle_alpha 67.562995
_cell_angle_beta 116.968067
_cell_angle_gamma 94.913797
_cell_volume 607.829794
_symmetry_space_group_name_H-M "P -1"
_symmetry_group_IT_number 2
_symmetry_cell_setting 'triclinic'
loop_
_space_group_symop_operation_xyz
x,y,z
-x,-y,-z
loop_
_atom_site_type_symbol
_atom_site_label
_atom_site_fract_x
_atom_site_fract_y
_atom_site_fract_z
Si Si1 0.038828 0.260647 0.980755
Si Si2 0.281136 0.404918 0.159340
Si Si3 0.455783 0.079285 0.242756
Si Si4 0.163228 0.200941 0.739134
Si Si5 0.637226 0.822968 0.372929
Si Si6 0.619554 0.363370 0.143896
Si Si7 0.882888 0.996965 0.553627
Si Si8 0.160606 0.612538 0.484612
O O1 0.115382 0.159511 0.914513
O O2 0.908480 0.338084 0.771064
O O3 0.133741 0.402115 0.048151
O O4 0.037434 0.125699 0.196590
O O5 0.347848 0.236115 0.156253
O O6 0.335483 0.361884 0.414346
O O7 0.307590 0.583464 0.998849
O O8 0.562859 0.177804 0.187937
O O9 0.500000 0.000000 0.500000
O O10 0.491294 0.888812 0.241544
O O11 0.305861 0.179030 0.784943
O O12 0.100131 0.077436 0.602511
O O13 0.126091 0.415699 0.597241
O O14 0.743431 0.931844 0.506379
O O15 0.694837 0.395827 0.366000
O O16 0.500000 0.500000 0.000000
O O17 0.876751 0.209238 0.495978
#
# Coordination Sequence:
#
# PCOD9082959 Si02
#       8
#     2   2   2   2   2   2   2   2
#     4  11  22  40  62  97 130 173 213 262 325 379
#     4   9  18  33  59  91 125 164 207 264 314 378
#     4   9  16  33  62  85 119 175 202 255 339 359
#     4  10  22  39  64  94 129 172 215 264 319 379
#     4   8  17  37  57  86 123 163 206 256 319 361
#     4  10  19  33  59  94 118 162 215 255 314 377
#     4   9  22  42  59  91 135 163 216 267 314 374
#     4  12  22  39  67  92 131 174 215 260 326 389
#
# _framework density 26.323157999999999
#
# number of rings (size 3 to 8) (size 9 to 14) (size 15 to 20)
#    0.750    1.500    2.500    0.750    0.000    1.000 
#    0.000    4.375    2.750    6.750    0.000    0.000 
#    0.000    0.000    0.000    0.000    0.000    0.000 
#
# Total GULP energy -89077.099719 kJ/mol
# GULP energy per Si atom -5567.318732 kJ/mol
# Density = 2.626325 g / cm^3
# Si number density = 26.323158 Si / 1000 Ang^3
#
#
#
# Elastic Constant Matrix: (Units=GPa)
#
#
# Indices 1 2 3 4 5 6 
#
# 1 81.6764 13.6130 43.9039 8.4710 -4.9244 -3.8252
# 2 13.6130 99.8701 8.0760 14.3634 -11.2076 14.0778
# 3 43.9039 8.0760 107.2539 7.2212 10.1601 4.1701
# 4 8.4710 14.3634 7.2212 34.8819 -7.7653 -11.2178
# 5 -4.9244 -11.2076 10.1601 -7.7653 62.9627 -1.7314
# 6 -3.8252 14.0778 4.1701 -11.2178 -1.7314 43.2585
#
#
#
# Elastic Compliance Matrix: (Units=1/GPa)
#
#
# Indices 1 2 3 4 5 6 
#
# 1 0.016559 -0.001756 -0.006911 -0.000549 0.002103 0.002644
# 2 -0.001756 0.012029 0.000353 -0.006195 0.001027 -0.005669
# 3 -0.006911 0.000353 0.012687 -0.002628 -0.002925 -0.002748
# 4 -0.000549 -0.006195 -0.002628 0.036637 0.004124 0.011886
# 5 0.002103 0.001027 -0.002925 0.004124 0.017262 0.001894
# 6 0.002644 -0.005669 -0.002748 0.011886 0.001894 0.028619
#
#
# Mechanical properties :
#
#
# Convention : Reuss Voigt Hill
#
# Bulk Modulus (GPa) = 40.57250 46.66513 43.61881
# Shear Modulus (GPa) = 33.63935 43.10111 38.37023
#
# Velocity S-wave (km/s) = 3.57870 4.05085 3.82207
# Velocity P-wave (km/s) = 5.70288 6.29646 6.00701
#
# Compressibility (1/GPa) = 0.02464724
#
# Stress axis : x y z
#
# Youngs Moduli (GPa) = 60.39191 83.13192 78.82164
#
# Poissons Ratio (x) = 0.14597 0.54473
# Poissons Ratio (y) = 0.10604 -0.02784
# Poissons Ratio (z) = 0.41736 -0.02936
#
# Static dielectric constant tensor:
#      x y z
#    x 2.286430 -0.014550 0.103210 
#    y -0.014550 2.338310 -0.021480 
#    z 0.103210 -0.021480 2.161380 
# 
# From -- ./inp_files/297719.got.cif
#   From: 2010.05.17/outbox.cif.g08.bks.cpg/sg2_149_cif.got.tgz:297719.got - 2010.06.03 11:33:40.
