data_PCOD9082571
_publ_section_title
;
Structure prediction by ZEFSAII (Michael W. Deem and Ramdas Pophale) SiO2 
 PCOD9082571
Probable space group: P -1
;
_chemical_formula_sum "Si O2"
_cell_formula_units_Z 16
_cell_length_a 11.781876
_cell_length_b 20.278770
_cell_length_c 8.333280
_cell_angle_alpha 29.405738
_cell_angle_beta 115.515957
_cell_angle_gamma 124.675092
_cell_volume 793.500855
_symmetry_space_group_name_H-M "P -1"
_symmetry_group_IT_number 2
_symmetry_cell_setting 'triclinic'
loop_
_space_group_symop_operation_xyz
x,y,z
-x,-y,-z
loop_
_atom_site_type_symbol
_atom_site_label
_atom_site_fract_x
_atom_site_fract_y
_atom_site_fract_z
Si Si1 0.430155 0.783662 0.005401
Si Si2 0.854472 0.599787 0.661213
Si Si3 0.432079 0.920037 0.365091
Si Si4 0.377683 0.336429 0.775436
Si Si5 0.831375 0.302400 0.438602
Si Si6 0.166822 0.563341 0.500753
Si Si7 0.456202 0.288491 0.273313
Si Si8 0.714136 0.605282 0.864027
O O1 0.419243 0.847039 0.689622
O O2 0.475331 0.907988 0.907924
O O3 0.561255 0.743628 0.143946
O O4 0.278044 0.656332 0.234031
O O5 0.757691 0.641695 0.397727
O O6 0.009878 0.665811 0.553071
O O7 0.811739 0.425510 0.049921
O O8 0.834757 0.666024 0.677704
O O9 0.274995 0.862211 0.329822
O O10 0.494975 0.840875 0.446438
O O11 0.500000 0.500000 0.500000
O O12 0.380123 0.280967 0.073676
O O13 0.808215 0.338567 0.530040
O O14 0.219024 0.440177 0.847437
O O15 0.000000 0.500000 0.500000
O O16 0.588863 0.451935 0.038164
O O17 0.352791 0.286078 0.355291
#
# Coordination Sequence:
#
# PCOD9082571 Si02
#       8
#     2   2   2   2   2   2   2   2
#     4  10  24  37  62  87 112 153 198 235 287 347
#     4  10  20  34  55  85 115 147 196 232 291 336
#     4  10  20  43  59  81 117 157 194 232 287 355
#     4  11  19  33  58  86 112 148 190 247 283 335
#     4  10  22  36  56  84 118 160 184 236 299 340
#     4  11  24  35  56  91 121 146 192 248 287 337
#     4  10  19  33  56  82 116 145 193 240 285 334
#     4  10  20  34  53  88 114 148 191 238 293 331
#
# _framework density 20.163810999999999
#
# number of rings (size 3 to 8) (size 9 to 14) (size 15 to 20)
#    0.000    1.750    3.750    1.500   10.500    0.500 
#    0.000    0.625    0.000    0.750    0.000    0.000 
#    0.000    0.000    0.000    0.000    0.000    0.000 
#
# Total GULP energy -89201.331661 kJ/mol
# GULP energy per Si atom -5575.083229 kJ/mol
# Density = 2.011792 g / cm^3
# Si number density = 20.163811 Si / 1000 Ang^3
#
#
#
# Elastic Constant Matrix: (Units=GPa)
#
#
# Indices 1 2 3 4 5 6 
#
# 1 135.3129 31.9909 19.8902 -2.9810 11.2699 -4.3878
# 2 31.9909 91.6127 26.8243 -1.3603 14.5232 4.2719
# 3 19.8902 26.8243 24.6352 8.6885 4.7716 4.6843
# 4 -2.9810 -1.3603 8.6885 29.3977 -3.1099 10.2531
# 5 11.2699 14.5232 4.7716 -3.1099 22.7337 1.7212
# 6 -4.3878 4.2719 4.6843 10.2531 1.7212 41.1729
#
#
#
# Elastic Compliance Matrix: (Units=1/GPa)
#
#
# Indices 1 2 3 4 5 6 
#
# 1 0.008868 -0.000728 -0.006966 0.002211 -0.002270 0.001357
# 2 -0.000728 0.018150 -0.020067 0.006411 -0.006068 -0.001020
# 3 -0.006966 -0.020067 0.077565 -0.024466 -0.003260 -0.001256
# 4 0.002211 0.006411 -0.024466 0.045753 0.006909 -0.009328
# 5 -0.002270 -0.006068 -0.003260 0.006909 0.050852 -0.003088
# 6 0.001357 -0.001020 -0.001256 -0.009328 -0.003088 0.027133
#
#
# Mechanical properties :
#
#
# Convention : Reuss Voigt Hill
#
# Bulk Modulus (GPa) = 20.38209 45.44129 32.91169
# Shear Modulus (GPa) = 16.65579 30.18455 23.42017
#
# Velocity S-wave (km/s) = 2.87718 3.87326 3.41177
# Velocity P-wave (km/s) = 4.60084 6.52594 5.64604
#
# Compressibility (1/GPa) = 0.04906269
#
# Stress axis : x y z
#
# Youngs Moduli (GPa) = 112.76490 55.09651 12.89238
#
# Poissons Ratio (x) = 0.04010 0.08980
# Poissons Ratio (y) = 0.08207 0.25871
# Poissons Ratio (z) = 0.78548 1.10561
#
# Static dielectric constant tensor:
#      x y z
#    x 1.573480 -0.003830 0.069970 
#    y -0.003830 1.722400 0.013940 
#    z 0.069970 0.013940 1.742520 
# 
# From -- ./inp_files/282636.got.cif
#   From: 2010.05.17/outbox.cif.g08.bks.cpg/sg2_142_cif.got.tgz:282636.got - 2010.06.03 11:33:40.
