data_PCOD9082038
_publ_section_title
;
Structure prediction by ZEFSAII (Michael W. Deem and Ramdas Pophale) SiO2 
 PCOD9082038
Probable space group: P -1
;
_chemical_formula_sum "Si O2"
_cell_formula_units_Z 14
_cell_length_a 11.824866
_cell_length_b 21.980020
_cell_length_c 7.947117
_cell_angle_alpha 142.633743
_cell_angle_beta 51.223812
_cell_angle_gamma 141.366686
_cell_volume 782.580261
_symmetry_space_group_name_H-M "P -1"
_symmetry_group_IT_number 2
_symmetry_cell_setting 'triclinic'
loop_
_space_group_symop_operation_xyz
x,y,z
-x,-y,-z
loop_
_atom_site_type_symbol
_atom_site_label
_atom_site_fract_x
_atom_site_fract_y
_atom_site_fract_z
Si Si1 0.377858 0.048629 0.259972
Si Si2 0.299644 0.766078 0.428454
Si Si3 0.593203 0.238073 0.027027
Si Si4 0.740651 0.856399 0.718715
Si Si5 0.737428 0.044781 0.304919
Si Si6 0.046529 0.829325 0.280161
Si Si7 0.885423 0.352641 0.303933
O O1 0.490605 0.147475 0.520270
O O2 0.350389 0.117445 0.290023
O O3 0.180992 0.933056 0.246633
O O4 0.500000 0.000000 0.000000
O O5 0.250323 0.859484 0.627376
O O6 0.188628 0.687963 0.525245
O O7 0.293857 0.702637 0.119261
O O8 0.431009 0.249032 0.240129
O O9 0.721702 0.285709 0.173482
O O10 0.469529 0.085197 0.781816
O O11 0.872863 0.825475 0.467500
O O12 0.838351 0.986280 0.016595
O O13 0.830510 0.119664 0.553356
O O14 0.004708 0.701077 0.971099
O O15 0.000000 0.500000 0.500000
#
# Coordination Sequence:
#
# PCOD9082038 Si02
#       7
#     2   2   2   2   2   2   2
#     4  12  18  32  60  90 122 153 191 238 298 368
#     4  12  19  36  64  88 114 155 203 247 291 354
#     4  10  21  38  61  88 119 153 194 240 311 349
#     4  10  21  33  57  95 128 155 180 243 315 365
#     4  10  19  32  61  94 120 148 184 245 308 365
#     4  12  21  36  57  93 128 153 195 244 303 357
#     4  12  26  41  60  84 117 164 215 250 279 343
#
# _framework density 17.88954
#
# number of rings (size 3 to 8) (size 9 to 14) (size 15 to 20)
#    0.857    0.000    7.143    2.143    0.000    0.571 
#    0.000    0.714    0.000    0.857    0.000    0.000 
#    0.000    0.000    0.000    0.000    0.000    0.000 
#
# Total GULP energy -77956.398236 kJ/mol
# GULP energy per Si atom -5568.314160 kJ/mol
# Density = 1.784882 g / cm^3
# Si number density = 17.889540 Si / 1000 Ang^3
#
#
#
# Elastic Constant Matrix: (Units=GPa)
#
#
# Indices 1 2 3 4 5 6 
#
# 1 85.5668 43.3187 41.9814 -12.7156 5.0076 -7.9991
# 2 43.3187 96.3470 72.9250 -13.2106 -3.3812 -11.8118
# 3 41.9814 72.9250 112.0347 -21.2506 -14.9171 2.0878
# 4 -12.7156 -13.2106 -21.2506 32.8644 2.4781 -0.2883
# 5 5.0076 -3.3812 -14.9171 2.4781 26.8934 -17.6974
# 6 -7.9991 -11.8118 2.0878 -0.2883 -17.6974 24.6393
#
#
#
# Elastic Compliance Matrix: (Units=1/GPa)
#
#
# Indices 1 2 3 4 5 6 
#
# 1 0.016481 -0.004986 -0.003293 0.002747 -0.006869 -0.001662
# 2 -0.004986 0.025839 -0.014488 -0.001349 0.007868 0.017632
# 3 -0.003293 -0.014488 0.021880 0.006455 0.007375 -0.004496
# 4 0.002747 -0.001349 0.006455 0.035158 -0.000509 -0.000256
# 5 -0.006869 0.007868 0.007375 -0.000509 0.083796 0.061098
# 6 -0.001662 0.017632 -0.004496 -0.000256 0.061098 0.092760
#
#
# Mechanical properties :
#
#
# Convention : Reuss Voigt Hill
#
# Bulk Modulus (GPa) = 53.56979 67.82207 60.69593
# Shear Modulus (GPa) = 15.25919 25.92764 20.59341
#
# Velocity S-wave (km/s) = 2.92373 3.81112 3.39653
# Velocity P-wave (km/s) = 6.43485 7.57364 7.02735
#
# Compressibility (1/GPa) = 0.01866724
#
# Stress axis : x y z
#
# Youngs Moduli (GPa) = 60.67439 38.70070 45.70361
#
# Poissons Ratio (x) = 0.19296 0.15051
# Poissons Ratio (y) = 0.30252 0.66214
# Poissons Ratio (z) = 0.19981 0.56069
#
# Static dielectric constant tensor:
#      x y z
#    x 1.641360 -0.022250 0.028830 
#    y -0.022250 1.645060 -0.067140 
#    z 0.028830 -0.067140 1.690960 
# 
# From -- ./inp_files/280699.got.cif
#   From: 2010.05.17/outbox.cif.g08.bks.cpg/sg2_141_cif.got.tgz:280699.got - 2010.06.03 11:33:40.
