data_PCOD9082834
_publ_section_title
;
Structure prediction by ZEFSAII (Michael W. Deem and Ramdas Pophale) SiO2 
 PCOD9082834
Probable space group: P -1
;
_chemical_formula_sum "Si O2"
_cell_formula_units_Z 16
_cell_length_a 13.455154
_cell_length_b 19.042489
_cell_length_c 8.508847
_cell_angle_alpha 135.665320
_cell_angle_beta 134.567149
_cell_angle_gamma 27.837147
_cell_volume 695.250384
_symmetry_space_group_name_H-M "P -1"
_symmetry_group_IT_number 2
_symmetry_cell_setting 'triclinic'
loop_
_space_group_symop_operation_xyz
x,y,z
-x,-y,-z
loop_
_atom_site_type_symbol
_atom_site_label
_atom_site_fract_x
_atom_site_fract_y
_atom_site_fract_z
Si Si1 0.933406 0.040469 0.225082
Si Si2 0.383071 0.108148 0.892895
Si Si3 0.141800 0.299653 0.482832
Si Si4 0.495463 0.799926 0.055306
Si Si5 0.755174 0.670967 0.684750
Si Si6 0.670902 0.219337 0.553238
Si Si7 0.063457 0.178952 0.439460
Si Si8 0.382474 0.475518 0.420830
O O1 0.808614 0.126388 0.393820
O O2 0.986253 0.112778 0.305935
O O3 0.751362 0.087876 0.991286
O O4 0.156560 0.864566 0.248692
O O5 0.531956 0.097555 0.938811
O O6 0.275726 0.085574 0.628345
O O7 0.203907 0.285272 0.045484
O O8 0.500000 0.000000 0.000000
O O9 0.334859 0.249215 0.711573
O O10 0.203672 0.279732 0.338641
O O11 0.111995 0.203816 0.363737
O O12 0.921214 0.486530 0.561918
O O13 0.590685 0.644863 0.835176
O O14 0.506202 0.768344 0.577485
O O15 0.509373 0.396651 0.602056
O O16 0.865494 0.359214 0.566386
O O17 0.500000 0.500000 0.500000
#
# Coordination Sequence:
#
# PCOD9082834 Si02
#       8
#     2   2   2   2   2   2   2   2
#     4  10  20  35  60  83 123 150 192 250 300 347
#     4  11  22  35  60  90 119 154 201 251 296 348
#     4  10  23  37  62  86 121 163 197 243 300 360
#     4  10  20  38  56  88 119 152 203 246 293 354
#     4  11  20  40  60  86 123 159 198 245 304 353
#     4  10  19  33  58  85 112 153 194 239 302 338
#     4  11  20  34  58  91 114 152 202 246 293 351
#     4  11  18  31  59  89 113 149 199 252 294 339
#
# _framework density 23.013292
#
# number of rings (size 3 to 8) (size 9 to 14) (size 15 to 20)
#    0.000    1.500    6.250    1.500    1.750    2.000 
#    0.000    6.250    2.750    2.250    0.000    0.000 
#    0.000    0.000    0.000    0.000    0.000    0.000 
#
# Total GULP energy -89285.577307 kJ/mol
# GULP energy per Si atom -5580.348582 kJ/mol
# Density = 2.296091 g / cm^3
# Si number density = 23.013292 Si / 1000 Ang^3
#
#
#
# Elastic Constant Matrix: (Units=GPa)
#
#
# Indices 1 2 3 4 5 6 
#
# 1 191.1500 40.3631 46.3104 -0.7470 29.4165 5.4740
# 2 40.3631 109.6020 21.2960 -10.4496 4.3645 4.7140
# 3 46.3104 21.2960 32.0095 -0.7828 19.8403 -9.6650
# 4 -0.7470 -10.4496 -0.7828 30.5554 -5.6445 -1.9364
# 5 29.4165 4.3645 19.8403 -5.6445 36.9325 4.6792
# 6 5.4740 4.7140 -9.6650 -1.9364 4.6792 34.0231
#
#
#
# Elastic Compliance Matrix: (Units=1/GPa)
#
#
# Indices 1 2 3 4 5 6 
#
# 1 0.009069 0.000094 -0.016800 -0.000113 0.002611 -0.006610
# 2 0.000094 0.012649 -0.016020 0.005072 0.008728 -0.007230
# 3 -0.016800 -0.016020 0.110482 -0.009768 -0.050988 0.042764
# 4 -0.000113 0.005072 -0.009768 0.035986 0.010601 -0.002869
# 5 0.002611 0.008728 -0.050988 0.010601 0.055916 -0.023200
# 6 -0.006610 -0.007230 0.042764 -0.002869 -0.023200 0.046632
#
#
# Mechanical properties :
#
#
# Convention : Reuss Voigt Hill
#
# Bulk Modulus (GPa) = 14.98185 60.96672 37.97429
# Shear Modulus (GPa) = 13.94952 35.28834 24.61893
#
# Velocity S-wave (km/s) = 2.46468 3.92010 3.27428
# Velocity P-wave (km/s) = 3.82410 6.85850 5.55260
#
# Compressibility (1/GPa) = 0.06674742
#
# Stress axis : x y z
#
# Youngs Moduli (GPa) = 110.26707 79.05750 9.05126
#
# Poissons Ratio (x) = -0.00744 0.15206
# Poissons Ratio (y) = -0.01037 0.14500
# Poissons Ratio (z) = 1.85250 1.26651
#
# Static dielectric constant tensor:
#      x y z
#    x 1.855560 -0.015900 -0.015950 
#    y -0.015900 1.883480 0.026630 
#    z -0.015950 0.026630 1.927570 
# 
# From -- ./inp_files/279971.got.cif
#   From: 2010.05.17/outbox.cif.g08.bks.cpg/sg2_140_cif.got.tgz:279971.got - 2010.06.03 11:33:40.
