data_PCOD9082221
_publ_section_title
;
Structure prediction by ZEFSAII (Michael W. Deem and Ramdas Pophale) SiO2 
 PCOD9082221
Probable space group: P -1
;
_chemical_formula_sum "Si O2"
_cell_formula_units_Z 16
_cell_length_a 9.563150
_cell_length_b 18.825027
_cell_length_c 9.628918
_cell_angle_alpha 132.938228
_cell_angle_beta 126.881498
_cell_angle_gamma 34.123162
_cell_volume 709.125719
_symmetry_space_group_name_H-M "P -1"
_symmetry_group_IT_number 2
_symmetry_cell_setting 'triclinic'
loop_
_space_group_symop_operation_xyz
x,y,z
-x,-y,-z
loop_
_atom_site_type_symbol
_atom_site_label
_atom_site_fract_x
_atom_site_fract_y
_atom_site_fract_z
Si Si1 0.111222 0.563722 0.820963
Si Si2 0.513633 0.926940 0.252636
Si Si3 0.207589 0.496626 0.461937
Si Si4 0.370211 0.151514 0.085075
Si Si5 0.906995 0.033423 0.831026
Si Si6 0.574171 0.284030 0.790158
Si Si7 0.761820 0.776507 0.455153
Si Si8 0.657522 0.217692 0.437675
O O1 0.169165 0.520546 0.636704
O O2 0.375989 0.450959 0.907037
O O3 0.928312 0.547333 0.733901
O O4 0.931237 0.728045 0.938502
O O5 0.396853 0.079284 0.364684
O O6 0.313992 0.955578 0.271277
O O7 0.757592 0.815049 0.343874
O O8 0.541682 0.863519 0.039584
O O9 0.503863 0.359805 0.447909
O O10 0.046115 0.647170 0.501062
O O11 0.471102 0.198142 0.303044
O O12 0.500000 0.000000 0.000000
O O13 0.783196 0.181022 0.893671
O O14 0.103846 0.914889 0.679746
O O15 0.000000 0.000000 0.000000
O O16 0.384917 0.266432 0.665312
O O17 0.694251 0.234384 0.641386
#
# Coordination Sequence:
#
# PCOD9082221 Si02
#       8
#     2   2   2   2   2   2   2   2
#     4   8  15  28  48  77 100 121 164 208 257 288
#     4  10  20  32  49  74 107 133 165 205 255 303
#     4   8  14  29  50  73  99 125 160 212 246 296
#     4  11  19  30  52  79 103 128 163 216 258 296
#     4  11  21  36  48  73 108 139 169 201 247 300
#     4   9  18  34  57  76  97 134 170 214 242 295
#     4   9  17  33  52  76 103 128 164 213 260 291
#     4  10  19  33  53  77 100 132 178 198 245 306
#
# _framework density 22.562994
#
# number of rings (size 3 to 8) (size 9 to 14) (size 15 to 20)
#    0.000    2.500    1.250    4.125    0.000    0.000 
#    2.250    3.125    0.000    0.750    3.250    0.000 
#    0.000    0.000    0.000    0.000    0.000    0.000 
#
# Total GULP energy -89141.069574 kJ/mol
# GULP energy per Si atom -5571.316848 kJ/mol
# Density = 2.251164 g / cm^3
# Si number density = 22.562994 Si / 1000 Ang^3
#
#
#
# Elastic Constant Matrix: (Units=GPa)
#
#
# Indices 1 2 3 4 5 6 
#
# 1 31.5227 21.8649 1.0502 6.3349 -11.0209 1.3513
# 2 21.8649 212.0095 30.6680 9.3966 -23.2626 5.3124
# 3 1.0502 30.6680 38.9377 -2.6122 -9.9140 3.6146
# 4 6.3349 9.3966 -2.6122 35.6965 2.2175 -7.3651
# 5 -11.0209 -23.2626 -9.9140 2.2175 21.1421 6.7440
# 6 1.3513 5.3124 3.6146 -7.3651 6.7440 19.4524
#
#
#
# Elastic Compliance Matrix: (Units=1/GPa)
#
#
# Indices 1 2 3 4 5 6 
#
# 1 0.050050 -0.001103 0.010817 -0.015337 0.039424 -0.024660
# 2 -0.001103 0.006237 -0.002971 -0.003009 0.006651 -0.004520
# 3 0.010817 -0.002971 0.035231 -0.003432 0.024436 -0.016257
# 4 -0.015337 -0.003009 -0.003432 0.038131 -0.025101 0.025665
# 5 0.039424 0.006651 0.024436 -0.025101 0.107028 -0.055705
# 6 -0.024660 -0.004520 -0.016257 0.025665 -0.055705 0.086405
#
#
# Mechanical properties :
#
#
# Convention : Reuss Voigt Hill
#
# Bulk Modulus (GPa) = 9.52349 43.29291 26.40820
# Shear Modulus (GPa) = 14.50960 30.51732 22.51346
#
# Velocity S-wave (km/s) = 2.53863 3.68168 3.16223
# Velocity P-wave (km/s) = 3.58091 6.10755 5.00625
#
# Compressibility (1/GPa) = 0.10500348
#
# Stress axis : x y z
#
# Youngs Moduli (GPa) = 19.97983 160.33926 28.38404
#
# Poissons Ratio (x) = 0.17686 -0.30703
# Poissons Ratio (y) = 0.02204 0.08433
# Poissons Ratio (z) = -0.21612 0.47640
#
# Static dielectric constant tensor:
#      x y z
#    x 1.880280 -0.037960 0.072690 
#    y -0.037960 2.039600 -0.043310 
#    z 0.072690 -0.043310 1.861400 
# 
# From -- ./inp_files/266421.got.cif
#   From: 2010.05.17/outbox.cif.g08.bks.cpg/sg2_134_cif.got.tgz:266421.got - 2010.06.03 11:33:40.
