data_PCOD9082535
_publ_section_title
;
Structure prediction by ZEFSAII (Michael W. Deem and Ramdas Pophale) SiO2 
 PCOD9082535
Probable space group: P -1
;
_chemical_formula_sum "Si O2"
_cell_formula_units_Z 14
_cell_length_a 17.683980
_cell_length_b 14.141084
_cell_length_c 14.658227
_cell_angle_alpha 18.896621
_cell_angle_beta 32.615792
_cell_angle_gamma 40.128277
_cell_volume 628.822420
_symmetry_space_group_name_H-M "P -1"
_symmetry_group_IT_number 2
_symmetry_cell_setting 'triclinic'
loop_
_space_group_symop_operation_xyz
x,y,z
-x,-y,-z
loop_
_atom_site_type_symbol
_atom_site_label
_atom_site_fract_x
_atom_site_fract_y
_atom_site_fract_z
Si Si1 0.465937 0.682220 0.641058
Si Si2 0.046767 0.353171 0.318687
Si Si3 0.562316 0.753602 0.774952
Si Si4 0.193014 0.639882 0.722600
Si Si5 0.810901 0.995896 0.767018
Si Si6 0.510102 0.771807 0.311794
Si Si7 0.176829 0.925839 0.711087
O O1 0.536297 0.688021 0.466097
O O2 0.516400 0.963723 0.399962
O O3 0.305673 0.741171 0.732287
O O4 0.462144 0.385381 0.971731
O O5 0.131694 0.133697 0.487868
O O6 0.899398 0.153480 0.617423
O O7 0.113603 0.503175 0.018747
O O8 0.046842 0.649176 0.109802
O O9 0.735204 0.860791 0.495773
O O10 0.500000 0.500000 0.000000
O O11 0.127515 0.859250 0.523669
O O12 0.348884 0.827628 0.418925
O O13 0.197042 0.355703 0.913253
O O14 0.643745 0.021385 0.920832
O O15 0.500000 0.500000 0.500000
#
# Coordination Sequence:
#
# PCOD9082535 Si02
#       7
#     2   2   2   2   2   2   2
#     4  10  20  35  57  85 113 145 180 222 288 323
#     4  12  20  35  52  75 108 143 186 233 273 324
#     4  10  19  35  59  92 113 130 179 239 288 329
#     4  11  20  36  50  71 102 146 193 241 267 303
#     4  11  24  33  49  77 103 147 193 229 269 317
#     4  10  22  38  57  78 116 155 192 224 269 325
#     4  10  19  33  56  78 108 139 172 221 291 321
#
# _framework density 22.263838
#
# number of rings (size 3 to 8) (size 9 to 14) (size 15 to 20)
#    0.857    0.571    2.857    3.429    0.000    4.571 
#    0.000    0.000    0.000    0.000    0.000    6.000 
#    0.000    0.000    0.000    0.000    0.000    0.000 
#
# Total GULP energy -77938.454887 kJ/mol
# GULP energy per Si atom -5567.032492 kJ/mol
# Density = 2.221316 g / cm^3
# Si number density = 22.263838 Si / 1000 Ang^3
#
#
#
# Elastic Constant Matrix: (Units=GPa)
#
#
# Indices 1 2 3 4 5 6 
#
# 1 87.8472 6.6394 44.6917 -6.2613 -31.0281 -2.8583
# 2 6.6394 21.0941 16.5675 -11.1415 -7.4728 1.8097
# 3 44.6917 16.5675 113.1017 -22.6300 -20.1356 -8.0910
# 4 -6.2613 -11.1415 -22.6300 32.9443 -0.4436 -3.4475
# 5 -31.0281 -7.4728 -20.1356 -0.4436 64.1790 -12.4264
# 6 -2.8583 1.8097 -8.0910 -3.4475 -12.4264 29.9530
#
#
#
# Elastic Compliance Matrix: (Units=1/GPa)
#
#
# Indices 1 2 3 4 5 6 
#
# 1 0.016567 0.001359 -0.005146 0.000499 0.007164 0.003138
# 2 0.001359 0.062779 -0.004963 0.018145 0.006492 -0.000222
# 3 -0.005146 -0.004963 0.013921 0.007507 0.002405 0.005431
# 4 0.000499 0.018145 0.007507 0.042739 0.006683 0.008671
# 5 0.007164 0.006492 0.002405 0.006683 0.022761 0.011153
# 6 0.003138 -0.000222 0.005431 0.008671 0.011153 0.040791
#
#
# Mechanical properties :
#
#
# Convention : Reuss Voigt Hill
#
# Bulk Modulus (GPa) = 13.19811 39.76002 26.47906
# Shear Modulus (GPa) = 20.63453 35.69155 28.16304
#
# Velocity S-wave (km/s) = 3.04767 4.00824 3.56050
# Velocity P-wave (km/s) = 4.28081 6.27046 5.36861
#
# Compressibility (1/GPa) = 0.07576844
#
# Stress axis : x y z
#
# Youngs Moduli (GPa) = 60.36245 15.92877 71.83643
#
# Poissons Ratio (x) = -0.02165 0.36964
# Poissons Ratio (y) = -0.08204 0.35650
# Poissons Ratio (z) = 0.31060 0.07905
#
# Static dielectric constant tensor:
#      x y z
#    x 1.879360 0.016060 -0.096300 
#    y 0.016060 1.899110 -0.019740 
#    z -0.096300 -0.019740 1.944980 
# 
# From -- ./inp_files/81024.got.cif
#   From: 2010.05.17/outbox.cif.g08.bks.cpg/sg2_41_cif.got.tgz:81024.got - 2010.06.03 11:33:40.
