data_PCOD9082304
_publ_section_title
;
Structure prediction by ZEFSAII (Michael W. Deem and Ramdas Pophale) SiO2 
 PCOD9082304
Probable space group: P -1
;
_chemical_formula_sum "Si O2"
_cell_formula_units_Z 12
_cell_length_a 10.744414
_cell_length_b 7.954968
_cell_length_c 11.709196
_cell_angle_alpha 128.067778
_cell_angle_beta 37.603080
_cell_angle_gamma 116.338689
_cell_volume 478.677702
_symmetry_space_group_name_H-M "P -1"
_symmetry_group_IT_number 2
_symmetry_cell_setting 'triclinic'
loop_
_space_group_symop_operation_xyz
x,y,z
-x,-y,-z
loop_
_atom_site_type_symbol
_atom_site_label
_atom_site_fract_x
_atom_site_fract_y
_atom_site_fract_z
Si Si1 0.636379 0.856802 0.934057
Si Si2 0.121646 0.454301 0.541495
Si Si3 0.743796 0.643575 0.354869
Si Si4 0.444313 0.760162 0.435393
Si Si5 0.690300 0.439163 0.956207
Si Si6 0.880659 0.215940 0.955135
O O1 0.807639 0.700310 0.678652
O O2 0.473957 0.706142 0.040972
O O3 0.756192 0.015539 0.990522
O O4 0.500000 0.000000 0.000000
O O5 0.237730 0.331418 0.513899
O O6 0.219519 0.679799 0.552775
O O7 0.882744 0.475777 0.753289
O O8 0.529861 0.664271 0.454674
O O9 0.880156 0.811099 0.261423
O O10 0.850077 0.406165 0.148433
O O11 0.500000 0.000000 0.500000
O O12 0.574802 0.641812 0.188671
O O13 0.786295 0.307445 0.941831
#
# Coordination Sequence:
#
# PCOD9082304 Si02
#       6
#     2   2   2   2   2   2
#     4   9  17  29  48  78 107 129 158 205 256 296
#     4  10  19  33  54  76 100 131 168 208 246 293
#     4   9  17  31  51  78 102 126 166 209 247 292
#     4  10  20  33  50  74 104 134 164 206 255 296
#     4   8  17  31  47  71 100 129 166 202 241 294
#     4   8  15  29  50  76 106 130 156 207 257 290
#
# _framework density 25.069061000000001
#
# number of rings (size 3 to 8) (size 9 to 14) (size 15 to 20)
#    0.000    3.000    0.000    2.500    0.000    6.667 
#    0.000    0.000    0.000    4.000    0.000   49.000 
#    0.000    0.000    0.000    0.000    0.000    0.000 
#
# Total GULP energy -67110.267839 kJ/mol
# GULP energy per Si atom -5592.522320 kJ/mol
# Density = 2.501200 g / cm^3
# Si number density = 25.069061 Si / 1000 Ang^3
#
#
#
# Elastic Constant Matrix: (Units=GPa)
#
#
# Indices 1 2 3 4 5 6 
#
# 1 83.0999 30.8027 35.3456 -9.1581 7.3338 14.2545
# 2 30.8027 178.4472 70.5321 -7.7318 -20.7245 47.7713
# 3 35.3456 70.5321 100.8614 -33.1839 -16.6898 20.2525
# 4 -9.1581 -7.7318 -33.1839 28.8535 13.1594 -3.7317
# 5 7.3338 -20.7245 -16.6898 13.1594 30.6530 -18.7462
# 6 14.2545 47.7713 20.2525 -3.7317 -18.7462 54.8797
#
#
#
# Elastic Compliance Matrix: (Units=1/GPa)
#
#
# Indices 1 2 3 4 5 6 
#
# 1 0.017088 -0.000689 -0.004836 0.004825 -0.013038 -0.006180
# 2 -0.000689 0.010547 -0.008670 -0.009637 0.003493 -0.005265
# 3 -0.004836 -0.008670 0.026260 0.027259 -0.001920 0.000309
# 4 0.004825 -0.009637 0.027259 0.078263 -0.031551 -0.008380
# 5 -0.013038 0.003493 -0.001920 -0.031551 0.063123 0.020471
# 6 -0.006180 -0.005265 0.000309 -0.008380 0.020471 0.030718
#
#
# Mechanical properties :
#
#
# Convention : Reuss Voigt Hill
#
# Bulk Modulus (GPa) = 39.20489 70.64104 54.92296
# Shear Modulus (GPa) = 19.01927 37.92579 28.47253
#
# Velocity S-wave (km/s) = 2.75739 3.89376 3.37377
# Velocity P-wave (km/s) = 5.08039 6.96096 6.09365
#
# Compressibility (1/GPa) = 0.02550702
#
# Stress axis : x y z
#
# Youngs Moduli (GPa) = 58.51958 94.81329 38.08023
#
# Poissons Ratio (x) = 0.06535 0.18414
# Poissons Ratio (y) = 0.04034 0.33014
# Poissons Ratio (z) = 0.28297 0.82199
#
# Static dielectric constant tensor:
#      x y z
#    x 1.999850 -0.048100 -0.033620 
#    y -0.048100 2.030670 -0.038490 
#    z -0.033620 -0.038490 1.932280 
# 
# From -- ./inp_files/386212.got.cif
#   From: 2010.05.17/outbox.cif.g08.bks.cpg/sg2_194_cif.got.tgz:386212.got - 2010.06.03 11:33:40.
