data_PCOD9082503
_publ_section_title
;
Structure prediction by ZEFSAII (Michael W. Deem and Ramdas Pophale) SiO2 
 PCOD9082503
Probable space group: P -1
;
_chemical_formula_sum "Si O2"
_cell_formula_units_Z 16
_cell_length_a 13.858024
_cell_length_b 13.499770
_cell_length_c 12.495297
_cell_angle_alpha 142.896204
_cell_angle_beta 149.891402
_cell_angle_gamma 48.858235
_cell_volume 703.442288
_symmetry_space_group_name_H-M "P -1"
_symmetry_group_IT_number 2
_symmetry_cell_setting 'triclinic'
loop_
_space_group_symop_operation_xyz
x,y,z
-x,-y,-z
loop_
_atom_site_type_symbol
_atom_site_label
_atom_site_fract_x
_atom_site_fract_y
_atom_site_fract_z
Si Si1 0.184105 0.200567 0.945168
Si Si2 0.986070 0.628948 0.455868
Si Si3 0.830117 0.066831 0.826790
Si Si4 0.925109 0.327826 0.971259
Si Si5 0.553611 0.139706 0.377224
Si Si6 0.456706 0.186896 0.558226
Si Si7 0.864127 0.893900 0.412024
Si Si8 0.303303 0.486391 0.733283
O O1 0.175908 0.225486 0.831735
O O2 0.085939 0.331164 0.036599
O O3 0.394315 0.176618 0.171167
O O4 0.045782 0.029009 0.680467
O O5 0.919595 0.789534 0.476309
O O6 0.858403 0.591758 0.406963
O O7 0.209506 0.632305 0.709386
O O8 0.950607 0.478657 0.207704
O O9 0.681389 0.206686 0.829772
O O10 0.666576 0.912292 0.553052
O O11 0.000000 0.000000 0.000000
O O12 0.071263 0.844836 0.106547
O O13 0.713216 0.296735 0.687208
O O14 0.459545 0.101685 0.371325
O O15 0.677658 0.992549 0.335005
O O16 0.354287 0.350282 0.579361
O O17 0.500000 0.500000 0.000000
#
# Coordination Sequence:
#
# PCOD9082503 Si02
#       8
#     2   2   2   2   2   2   2   2
#     4  10  21  42  67  89 120 160 208 260 307 360
#     4  11  25  43  59  89 131 164 202 258 307 361
#     4  10  19  33  55  85 115 151 196 248 291 345
#     4  10  22  40  60  88 123 161 205 253 307 363
#     4  10  20  40  63  92 122 156 204 262 302 364
#     4  10  22  35  58  90 115 158 210 241 297 366
#     4  10  24  41  63  94 122 159 205 258 314 362
#     4  11  24  42  59  87 130 170 204 244 307 373
#
# _framework density 22.745291999999999
#
# number of rings (size 3 to 8) (size 9 to 14) (size 15 to 20)
#    0.000    1.750    0.000    4.125    7.000    2.500 
#    4.500    0.625    0.000    0.000    0.000    0.000 
#    0.000    0.000    0.000    0.000    0.000    0.000 
#
# Total GULP energy -89230.031973 kJ/mol
# GULP energy per Si atom -5576.876998 kJ/mol
# Density = 2.269352 g / cm^3
# Si number density = 22.745292 Si / 1000 Ang^3
#
#
#
# Elastic Constant Matrix: (Units=GPa)
#
#
# Indices 1 2 3 4 5 6 
#
# 1 54.2383 14.1966 17.8440 -12.2174 -4.6657 -19.1958
# 2 14.1966 62.0323 28.0121 -30.8250 11.0179 -20.9151
# 3 17.8440 28.0121 87.1945 -32.4906 0.8518 -17.7101
# 4 -12.2174 -30.8250 -32.4906 44.5683 -8.6748 -0.7385
# 5 -4.6657 11.0179 0.8518 -8.6748 22.9817 -2.7874
# 6 -19.1958 -20.9151 -17.7101 -0.7385 -2.7874 35.6109
#
#
#
# Elastic Compliance Matrix: (Units=1/GPa)
#
#
# Indices 1 2 3 4 5 6 
#
# 1 0.028101 0.005130 0.002529 0.015691 0.011580 0.020650
# 2 0.005130 0.038047 0.003586 0.030284 -0.002587 0.027320
# 3 0.002529 0.003586 0.019780 0.019199 0.007037 0.014255
# 4 0.015691 0.030284 0.019199 0.065711 0.017431 0.038519
# 5 0.011580 -0.002587 0.007037 0.017431 0.054986 0.012887
# 6 0.020650 0.027320 0.014255 0.038519 0.012887 0.064155
#
#
# Mechanical properties :
#
#
# Convention : Reuss Voigt Hill
#
# Bulk Modulus (GPa) = 9.22363 35.95226 22.58794
# Shear Modulus (GPa) = 17.57907 30.19302 23.88604
#
# Velocity S-wave (km/s) = 2.78306 3.64736 3.24412
# Velocity P-wave (km/s) = 3.79358 5.79469 4.89743
#
# Compressibility (1/GPa) = 0.10841718
#
# Stress axis : x y z
#
# Youngs Moduli (GPa) = 35.58544 26.28344 50.55738
#
# Poissons Ratio (x) = -0.13482 -0.12787
# Poissons Ratio (y) = -0.18254 -0.18130
# Poissons Ratio (z) = -0.09000 -0.09425
#
# Static dielectric constant tensor:
#      x y z
#    x 1.863040 -0.042830 -0.039760 
#    y -0.042830 1.969560 0.031130 
#    z -0.039760 0.031130 1.947180 
# 
# From -- ./inp_files/455129.got.cif
#   From: 2010.05.17/outbox.cif.g08.bks.cpg/sg2_228_cif.got.tgz:455129.got - 2010.06.03 11:33:40.
