data_PCOD9082298
_publ_section_title
;
Structure prediction by ZEFSAII (Michael W. Deem and Ramdas Pophale) SiO2 
 PCOD9082298
Probable space group: P -1
;
_chemical_formula_sum "Si O2"
_cell_formula_units_Z 16
_cell_length_a 6.036959
_cell_length_b 14.376765
_cell_length_c 25.557427
_cell_angle_alpha 19.863769
_cell_angle_beta 78.258721
_cell_angle_gamma 80.919425
_cell_volume 734.168519
_symmetry_space_group_name_H-M "P -1"
_symmetry_group_IT_number 2
_symmetry_cell_setting 'triclinic'
loop_
_space_group_symop_operation_xyz
x,y,z
-x,-y,-z
loop_
_atom_site_type_symbol
_atom_site_label
_atom_site_fract_x
_atom_site_fract_y
_atom_site_fract_z
Si Si1 0.723021 0.940857 0.555979
Si Si2 0.430686 0.190467 0.765537
Si Si3 0.600196 0.402842 0.905929
Si Si4 0.136304 0.468941 0.430015
Si Si5 0.221239 0.749931 0.502435
Si Si6 0.196659 0.169609 0.686530
Si Si7 0.162636 0.373741 0.002904
Si Si8 0.226133 0.290898 0.158824
O O1 0.676496 0.619718 0.743289
O O2 0.500000 0.000000 0.500000
O O3 0.000000 0.000000 0.500000
O O4 0.706768 0.114108 0.518474
O O5 0.689070 0.268221 0.727426
O O6 0.410723 0.154284 0.722468
O O7 0.318556 0.458533 0.647044
O O8 0.325951 0.900045 0.946149
O O9 0.693024 0.531072 0.888726
O O10 0.330466 0.364404 0.951225
O O11 0.047063 0.320651 0.460009
O O12 0.238072 0.266285 0.574054
O O13 0.929311 0.589718 0.406599
O O14 0.280914 0.983576 0.331726
O O15 0.028749 0.888430 0.846811
O O16 0.292111 0.369762 0.054538
O O17 0.039965 0.652380 0.859263
#
# Coordination Sequence:
#
# PCOD9082298 Si02
#       8
#     2   2   2   2   2   2   2   2
#     4  11  29  54  81 103 134 176 236 304 373 432
#     4  11  22  37  62 100 135 179 225 283 336 416
#     4  11  24  41  70  96 131 176 230 287 360 407
#     4  10  20  35  58  89 145 183 228 261 329 403
#     4  10  24  42  69  97 133 181 226 280 350 417
#     4  10  19  33  53  93 140 195 222 260 319 404
#     4  11  20  36  60  92 141 182 236 276 329 409
#     4  10  22  38  57  94 141 186 229 276 328 415
#
# _framework density 21.793364
#
# number of rings (size 3 to 8) (size 9 to 14) (size 15 to 20)
#    0.000    1.500    3.750    0.750    5.250    2.000 
#    0.000    1.250    0.000    0.000    0.000    0.000 
#    0.000    0.000    0.000    0.000    0.000    0.000 
#
# Total GULP energy -89146.470331 kJ/mol
# GULP energy per Si atom -5571.654396 kJ/mol
# Density = 2.174376 g / cm^3
# Si number density = 21.793364 Si / 1000 Ang^3
#
#
#
# Elastic Constant Matrix: (Units=GPa)
#
#
# Indices 1 2 3 4 5 6 
#
# 1 79.4094 32.1327 42.2493 8.3096 0.6533 22.4793
# 2 32.1327 46.3057 40.6732 -2.1639 10.9134 16.7999
# 3 42.2493 40.6732 166.0589 -10.4810 9.6597 -3.4622
# 4 8.3096 -2.1639 -10.4810 31.0085 -0.7043 -0.7997
# 5 0.6533 10.9134 9.6597 -0.7043 31.8800 -7.0370
# 6 22.4793 16.7999 -3.4622 -0.7997 -7.0370 43.6459
#
#
#
# Elastic Compliance Matrix: (Units=1/GPa)
#
#
# Indices 1 2 3 4 5 6 
#
# 1 0.021492 -0.009723 -0.003870 -0.007886 0.002250 -0.007415
# 2 -0.009723 0.044503 -0.007663 0.002363 -0.016032 -0.015272
# 3 -0.003870 -0.007663 0.009170 0.003785 0.001322 0.005953
# 4 -0.007886 0.002363 0.003785 0.035910 -0.000097 0.004095
# 5 0.002250 -0.016032 0.001322 -0.000097 0.038921 0.011391
# 6 -0.007415 -0.015272 0.005953 0.004095 0.011391 0.034993
#
#
# Mechanical properties :
#
#
# Convention : Reuss Voigt Hill
#
# Bulk Modulus (GPa) = 30.62524 57.98718 44.30621
# Shear Modulus (GPa) = 20.97433 33.08814 27.03123
#
# Velocity S-wave (km/s) = 3.10565 3.90072 3.52567
# Velocity P-wave (km/s) = 5.19068 6.85223 6.07849
#
# Compressibility (1/GPa) = 0.03265281
#
# Stress axis : x y z
#
# Youngs Moduli (GPa) = 46.52832 22.47018 109.05597
#
# Poissons Ratio (x) = 0.21848 0.42202
# Poissons Ratio (y) = 0.45241 0.83571
# Poissons Ratio (z) = 0.18006 0.17219
#
# Static dielectric constant tensor:
#      x y z
#    x 1.943340 0.003630 0.025500 
#    y 0.003630 1.782880 -0.020810 
#    z 0.025500 -0.020810 1.842750 
# 
# From -- ./inp_files/615627.got.cif
#   From: 2010.05.17/outbox.cif.g08.bks.cpg/sg2_308_cif.got.tgz:615627.got - 2010.06.03 11:33:40.
