data_PCOD9082859
_publ_section_title
;
Structure prediction by ZEFSAII (Michael W. Deem and Ramdas Pophale) SiO2 
 PCOD9082859
Probable space group: P -1
;
_chemical_formula_sum "Si O2"
_cell_formula_units_Z 16
_cell_length_a 11.033988
_cell_length_b 9.861972
_cell_length_c 11.207259
_cell_angle_alpha 124.993555
_cell_angle_beta 138.204555
_cell_angle_gamma 75.474982
_cell_volume 629.996974
_symmetry_space_group_name_H-M "P -1"
_symmetry_group_IT_number 2
_symmetry_cell_setting 'triclinic'
loop_
_space_group_symop_operation_xyz
x,y,z
-x,-y,-z
loop_
_atom_site_type_symbol
_atom_site_label
_atom_site_fract_x
_atom_site_fract_y
_atom_site_fract_z
Si Si1 0.278926 0.433964 0.683497
Si Si2 0.013626 0.694499 0.145480
Si Si3 0.759715 0.086526 0.272042
Si Si4 0.160703 0.940205 0.154103
Si Si5 0.794564 0.759314 0.232240
Si Si6 0.660304 0.337059 0.476426
Si Si7 0.152900 0.763114 0.823520
Si Si8 0.372310 0.329826 0.474470
O O1 0.312555 0.359125 0.797577
O O2 0.231466 0.608908 0.764542
O O3 0.435299 0.436215 0.698460
O O4 0.078511 0.308876 0.408787
O O5 0.067928 0.831976 0.147660
O O6 0.197276 0.740173 0.387296
O O7 0.837626 0.693731 0.100477
O O8 0.000000 0.500000 0.000000
O O9 0.639341 0.214088 0.284057
O O10 0.762878 0.077701 0.126450
O O11 0.988379 0.166829 0.514132
O O12 0.701104 0.907542 0.210290
O O13 0.318410 0.129293 0.380259
O O14 0.207896 0.817474 0.027079
O O15 0.000000 0.000000 0.000000
O O16 0.497129 0.325528 0.446938
O O17 0.742858 0.541703 0.600767
#
# Coordination Sequence:
#
# PCOD9082859 Si02
#       8
#     2   2   2   2   2   2   2   2
#     4  10  19  34  60  86 112 158 195 246 291 356
#     4  11  23  39  62  91 124 156 192 253 308 352
#     4   9  17  34  55  81 112 151 194 244 289 348
#     4  12  23  36  61  95 124 151 200 253 301 350
#     4   9  19  31  55  86 115 143 194 244 297 341
#     4  10  23  42  60  85 121 164 205 236 305 364
#     4  10  19  33  58  87 116 147 199 246 298 346
#     4  11  23  40  62  88 120 164 202 247 294 362
#
# _framework density 25.396947999999998
#
# number of rings (size 3 to 8) (size 9 to 14) (size 15 to 20)
#    0.000    1.750    2.500    2.250    7.000    0.500 
#    0.000    0.625    2.750    1.500    0.000    0.000 
#    0.000    0.000    0.000    0.000    0.000    0.000 
#
# Total GULP energy -89237.436721 kJ/mol
# GULP energy per Si atom -5577.339795 kJ/mol
# Density = 2.533914 g / cm^3
# Si number density = 25.396948 Si / 1000 Ang^3
#
#
#
# Elastic Constant Matrix: (Units=GPa)
#
#
# Indices 1 2 3 4 5 6 
#
# 1 138.8643 76.7543 40.5787 5.8929 -37.0488 14.3103
# 2 76.7543 162.8066 29.3883 12.3585 -9.9086 40.9039
# 3 40.5787 29.3883 48.9917 6.4638 -11.2388 4.9730
# 4 5.8929 12.3585 6.4638 24.9410 0.0431 -14.8185
# 5 -37.0488 -9.9086 -11.2388 0.0431 40.7763 2.5430
# 6 14.3103 40.9039 4.9730 -14.8185 2.5430 55.3463
#
#
#
# Elastic Compliance Matrix: (Units=1/GPa)
#
#
# Indices 1 2 3 4 5 6 
#
# 1 0.014783 -0.005364 -0.006935 0.001334 0.010175 0.000655
# 2 -0.005364 0.012098 -0.000705 -0.010645 -0.001477 -0.010273
# 3 -0.006935 -0.000705 0.027940 -0.006432 0.001359 -0.001981
# 4 0.001334 -0.010645 -0.006432 0.061447 -0.004758 0.024771
# 5 0.010175 -0.001477 0.001359 -0.004758 0.034070 -0.004501
# 6 0.000655 -0.010273 -0.001981 0.024771 -0.004501 0.032508
#
#
# Mechanical properties :
#
#
# Convention : Reuss Voigt Hill
#
# Bulk Modulus (GPa) = 34.70808 71.56724 53.13766
# Shear Modulus (GPa) = 22.88753 37.80882 30.34817
#
# Velocity S-wave (km/s) = 3.00524 3.86257 3.46056
# Velocity P-wave (km/s) = 5.07325 6.93781 6.07746
#
# Compressibility (1/GPa) = 0.02881173
#
# Stress axis : x y z
#
# Youngs Moduli (GPa) = 67.64389 82.66076 35.79039
#
# Poissons Ratio (x) = 0.44340 0.24822
# Poissons Ratio (y) = 0.36285 0.02525
# Poissons Ratio (z) = 0.46913 0.05831
#
# Static dielectric constant tensor:
#      x y z
#    x 1.150480 -0.794930 -0.085880 
#    y -0.794930 1.331590 -0.002490 
#    z -0.085880 -0.002490 2.497000 
# 
# From -- ./inp_files/419820.got.cif
#   From: 2010.05.17/outbox.cif.g08.bks.cpg/sg2_210_cif.got.tgz:419820.got - 2010.06.03 11:33:40.
