data_PCOD9082564
_publ_section_title
;
Structure prediction by ZEFSAII (Michael W. Deem and Ramdas Pophale) SiO2 
 PCOD9082564
Probable space group: P -1
;
_chemical_formula_sum "Si O2"
_cell_formula_units_Z 12
_cell_length_a 11.697713
_cell_length_b 17.891226
_cell_length_c 12.391423
_cell_angle_alpha 147.913179
_cell_angle_beta 58.363508
_cell_angle_gamma 145.343077
_cell_volume 643.291890
_symmetry_space_group_name_H-M "P -1"
_symmetry_group_IT_number 2
_symmetry_cell_setting 'triclinic'
loop_
_space_group_symop_operation_xyz
x,y,z
-x,-y,-z
loop_
_atom_site_type_symbol
_atom_site_label
_atom_site_fract_x
_atom_site_fract_y
_atom_site_fract_z
Si Si1 0.241384 0.641904 0.291814
Si Si2 0.265973 0.699853 0.937954
Si Si3 0.503707 0.833199 0.188762
Si Si4 0.451660 0.650282 0.633633
Si Si5 0.716146 0.297643 0.412744
Si Si6 0.270863 0.186750 0.113433
O O1 0.397783 0.700101 0.194572
O O2 0.287676 0.639280 0.388534
O O3 0.326518 0.880429 0.533010
O O4 0.954879 0.395032 0.104381
O O5 0.280403 0.685160 0.040055
O O6 0.524950 0.000162 0.146902
O O7 0.258919 0.545573 0.688701
O O8 0.639245 0.833839 0.052756
O O9 0.394763 0.697981 0.618035
O O10 0.421365 0.463390 0.384186
O O11 0.694153 0.860421 0.845911
O O12 0.000000 0.500000 0.500000
O O13 0.000000 0.000000 0.000000
#
# Coordination Sequence:
#
# PCOD9082564 Si02
#       6
#     2   2   2   2   2   2
#     4  10  19  34  56  81 113 143 175 232 273 322
#     4  10  19  33  56  82 108 142 179 230 277 312
#     4   9  20  35  54  83 109 142 188 221 270 322
#     4  10  21  34  52  84 107 138 186 219 270 325
#     4  11  22  33  55  86 113 140 179 229 278 325
#     4  10  21  36  57  77 109 149 181 226 262 321
#
# _framework density 18.654050000000002
#
# number of rings (size 3 to 8) (size 9 to 14) (size 15 to 20)
#    0.000    2.000    1.667    2.000    4.667    0.000 
#    0.000    0.833    0.000    2.000    0.000    0.000 
#    0.000    0.000    0.000    0.000    0.000    0.000 
#
# Total GULP energy -66819.832505 kJ/mol
# GULP energy per Si atom -5568.319375 kJ/mol
# Density = 1.861159 g / cm^3
# Si number density = 18.654050 Si / 1000 Ang^3
#
#
#
# Elastic Constant Matrix: (Units=GPa)
#
#
# Indices 1 2 3 4 5 6 
#
# 1 134.5624 53.5927 24.8897 -14.3207 29.2732 -5.0016
# 2 53.5927 97.1180 45.3511 -20.0934 22.4695 -3.3412
# 3 24.8897 45.3511 69.0770 -19.2332 7.0197 5.8869
# 4 -14.3207 -20.0934 -19.2332 21.7967 -1.9300 6.8236
# 5 29.2732 22.4695 7.0197 -1.9300 31.0628 -3.2585
# 6 -5.0016 -3.3412 5.8869 6.8236 -3.2585 33.2942
#
#
#
# Elastic Compliance Matrix: (Units=1/GPa)
#
#
# Indices 1 2 3 4 5 6 
#
# 1 0.010809 -0.003673 0.000200 0.003293 -0.007388 -0.000178
# 2 -0.003673 0.019980 -0.009047 0.007029 -0.008427 0.000788
# 3 0.000200 -0.009047 0.025931 0.017545 0.000642 -0.008996
# 4 0.003293 0.007029 0.017545 0.074857 -0.009407 -0.018165
# 5 -0.007388 -0.008427 0.000642 -0.009407 0.044968 0.004260
# 6 -0.000178 0.000788 -0.008996 -0.018165 0.004260 0.035818
#
#
# Mechanical properties :
#
#
# Convention : Reuss Voigt Hill
#
# Bulk Modulus (GPa) = 31.56786 60.93601 46.25194
# Shear Modulus (GPa) = 20.16430 29.02568 24.59499
#
# Velocity S-wave (km/s) = 3.29136 3.94889 3.63503
# Velocity P-wave (km/s) = 5.60389 7.31635 6.51662
#
# Compressibility (1/GPa) = 0.03167779
#
# Stress axis : x y z
#
# Youngs Moduli (GPa) = 92.51921 50.05088 38.56393
#
# Poissons Ratio (x) = 0.18386 -0.00772
# Poissons Ratio (y) = 0.33986 0.34890
# Poissons Ratio (z) = -0.01851 0.45283
#
# Static dielectric constant tensor:
#      x y z
#    x 1.671000 -0.013690 0.023290 
#    y -0.013690 1.670520 0.037670 
#    z 0.023290 0.037670 1.753530 
# 
# From -- ./inp_files/23373.got.cif
#   From: 2010.05.17/outbox.cif.g08.bks.cpg/sg2_12_cif.got.tgz:23373.got - 2010.06.03 11:33:40.
