data_PCOD9082745
_publ_section_title
;
Structure prediction by ZEFSAII (Michael W. Deem and Ramdas Pophale) SiO2 
 PCOD9082745
Probable space group: P -1
;
_chemical_formula_sum "Si O2"
_cell_formula_units_Z 12
_cell_length_a 13.598872
_cell_length_b 11.664748
_cell_length_c 17.158005
_cell_angle_alpha 27.495381
_cell_angle_beta 156.100103
_cell_angle_gamma 135.649960
_cell_volume 437.069165
_symmetry_space_group_name_H-M "P -1"
_symmetry_group_IT_number 2
_symmetry_cell_setting 'triclinic'
loop_
_space_group_symop_operation_xyz
x,y,z
-x,-y,-z
loop_
_atom_site_type_symbol
_atom_site_label
_atom_site_fract_x
_atom_site_fract_y
_atom_site_fract_z
Si Si1 0.270590 0.627148 0.976339
Si Si2 0.702315 0.379749 0.296223
Si Si3 0.726679 0.829828 0.351125
Si Si4 0.374191 0.108065 0.474651
Si Si5 0.957650 0.686041 0.209419
Si Si6 0.397946 0.826666 0.246244
O O1 0.988716 0.718561 0.667954
O O2 0.255505 0.909928 0.833217
O O3 0.521746 0.513260 0.162942
O O4 0.321186 0.371654 0.224462
O O5 0.811557 0.038841 0.584433
O O6 0.500000 0.500000 0.000000
O O7 0.099177 0.498214 0.657019
O O8 0.448479 0.944310 0.132097
O O9 0.783346 0.555688 0.505669
O O10 0.377904 0.183148 0.522169
O O11 0.701364 0.844196 0.865125
O O12 0.897614 0.965724 0.047958
O O13 0.500000 0.500000 0.500000
#
# Coordination Sequence:
#
# PCOD9082745 Si02
#       6
#     2   2   2   2   2   2
#     4  11  19  32  56  91 117 136 180 230 289 326
#     4  10  15  33  54  80 119 141 168 221 288 330
#     4  11  21  33  59  84 111 149 178 225 285 335
#     4   9  20  34  54  87 114 144 178 233 274 323
#     4   9  20  37  55  84 110 149 183 220 283 327
#     4  10  22  41  57  75 111 155 190 223 270 327
#
# _framework density 27.45561
#
# number of rings (size 3 to 8) (size 9 to 14) (size 15 to 20)
#    1.000    1.000    5.000    0.500    2.333    1.333 
#    0.000    0.833    0.000    1.000    0.000    0.000 
#    0.000    0.000    0.000    0.000    0.000    0.000 
#
# Total GULP energy -67086.943305 kJ/mol
# GULP energy per Si atom -5590.578609 kJ/mol
# Density = 2.739312 g / cm^3
# Si number density = 27.455610 Si / 1000 Ang^3
#
#
#
# Elastic Constant Matrix: (Units=GPa)
#
#
# Indices 1 2 3 4 5 6 
#
# 1 126.2661 14.2175 47.1021 -24.3086 -8.8922 -4.2523
# 2 14.2175 97.4302 49.3708 -47.9062 -3.2329 -13.9694
# 3 47.1021 49.3708 157.5619 -20.9071 -27.4382 0.8634
# 4 -24.3086 -47.9062 -20.9071 66.3667 2.1135 0.2510
# 5 -8.8922 -3.2329 -27.4382 2.1135 44.7760 -20.3970
# 6 -4.2523 -13.9694 0.8634 0.2510 -20.3970 44.6009
#
#
#
# Elastic Compliance Matrix: (Units=1/GPa)
#
#
# Indices 1 2 3 4 5 6 
#
# 1 0.009756 0.002677 -0.002965 0.004526 0.001163 0.002332
# 2 0.002677 0.020520 -0.005122 0.014101 0.001594 0.007431
# 3 -0.002965 -0.005122 0.009453 -0.001967 0.005039 0.000245
# 4 0.004526 0.014101 -0.001967 0.026197 0.002064 0.005682
# 5 0.001163 0.001594 0.005039 0.002064 0.032713 0.015461
# 6 0.002332 0.007431 0.000245 0.005682 0.015461 0.032005
#
#
# Mechanical properties :
#
#
# Convention : Reuss Voigt Hill
#
# Bulk Modulus (GPa) = 34.59086 66.95988 50.77537
# Shear Modulus (GPa) = 33.09032 49.18660 41.13846
#
# Velocity S-wave (km/s) = 3.47541 4.23720 3.87507
# Velocity P-wave (km/s) = 5.36011 6.95556 6.20929
#
# Compressibility (1/GPa) = 0.02890937
#
# Stress axis : x y z
#
# Youngs Moduli (GPa) = 102.49838 48.73227 105.78285
#
# Poissons Ratio (x) = -0.13048 0.31367
# Poissons Ratio (y) = -0.27443 0.54186
# Poissons Ratio (z) = 0.30393 0.24963
#
# Static dielectric constant tensor:
#      x y z
#    x 2.085910 0.013650 0.034530 
#    y 0.013650 2.227310 0.049320 
#    z 0.034530 0.049320 2.198240 
# 
# From -- ./inp_files/573351.got.cif
#   From: 2010.05.17/outbox.cif.g08.bks.cpg/sg2_287_cif.got.tgz:573351.got - 2010.06.03 11:33:40.
