data_PCOD9082405
_publ_section_title
;
Structure prediction by ZEFSAII (Michael W. Deem and Ramdas Pophale) SiO2 
 PCOD9082405
Probable space group: P -1
;
_chemical_formula_sum "Si O2"
_cell_formula_units_Z 16
_cell_length_a 14.872077
_cell_length_b 8.346742
_cell_length_c 10.230830
_cell_angle_alpha 134.823114
_cell_angle_beta 71.297296
_cell_angle_gamma 76.538565
_cell_volume 623.245803
_symmetry_space_group_name_H-M "P -1"
_symmetry_group_IT_number 2
_symmetry_cell_setting 'triclinic'
loop_
_space_group_symop_operation_xyz
x,y,z
-x,-y,-z
loop_
_atom_site_type_symbol
_atom_site_label
_atom_site_fract_x
_atom_site_fract_y
_atom_site_fract_z
Si Si1 0.980622 0.344078 0.691855
Si Si2 0.558329 0.740503 0.031443
Si Si3 0.651906 0.270772 0.314251
Si Si4 0.284381 0.247114 0.825471
Si Si5 0.078270 0.850399 0.646877
Si Si6 0.762783 0.028949 0.496009
Si Si7 0.329618 0.270716 0.299265
Si Si8 0.908250 0.816824 0.812099
O O1 0.950611 0.213920 0.517378
O O2 0.941434 0.659497 0.846347
O O3 0.132153 0.120610 0.524013
O O4 0.868770 0.452662 0.908884
O O5 0.613608 0.748244 0.148895
O O6 0.408875 0.974788 0.187226
O O7 0.633621 0.384071 0.778021
O O8 0.612462 0.806828 0.921469
O O9 0.500000 0.500000 0.500000
O O10 0.663878 0.500703 0.498137
O O11 0.683934 0.027988 0.264601
O O12 0.750688 0.069111 0.030710
O O13 0.281845 0.149598 0.625260
O O14 0.148664 0.971738 0.653068
O O15 0.178315 0.517452 0.481034
O O16 0.948572 0.009826 0.879190
O O17 0.000000 0.500000 0.500000
#
# Coordination Sequence:
#
# PCOD9082405 Si02
#       8
#     2   2   2   2   2   2   2   2
#     4  10  20  37  57  83 122 159 202 250 300 356
#     4  10  20  32  53  87 121 153 200 257 300 349
#     4  11  20  35  60  89 121 161 204 249 299 359
#     4  11  19  34  52  85 121 152 201 254 301 348
#     4  10  19  37  56  86 120 152 194 248 307 355
#     4  11  21  35  58  90 116 159 209 251 297 358
#     4  10  19  33  54  85 122 154 196 250 305 353
#     4   9  22  38  59  91 126 159 198 248 314 361
#
# _framework density 25.672053999999999
#
# number of rings (size 3 to 8) (size 9 to 14) (size 15 to 20)
#    0.000    1.750    6.250    0.750    0.000    0.500 
#    0.000    0.000    0.000    0.750    0.000    7.875 
#    0.000    0.000    0.000    0.000    0.000    0.000 
#
# Total GULP energy -89073.878666 kJ/mol
# GULP energy per Si atom -5567.117417 kJ/mol
# Density = 2.561362 g / cm^3
# Si number density = 25.672054 Si / 1000 Ang^3
#
#
#
# Elastic Constant Matrix: (Units=GPa)
#
#
# Indices 1 2 3 4 5 6 
#
# 1 90.3472 18.8178 25.9087 -8.8959 6.6153 -38.1366
# 2 18.8178 42.7862 29.6382 12.1578 -1.3246 -22.0630
# 3 25.9087 29.6382 99.1740 12.0573 -0.4657 -20.3994
# 4 -8.8959 12.1578 12.0573 35.2239 -7.4248 -4.4747
# 5 6.6153 -1.3246 -0.4657 -7.4248 43.7183 -3.2355
# 6 -38.1366 -22.0630 -20.3994 -4.4747 -3.2355 50.2839
#
#
#
# Elastic Compliance Matrix: (Units=1/GPa)
#
#
# Indices 1 2 3 4 5 6 
#
# 1 0.018354 -0.001986 -0.002531 0.007664 -0.000626 0.012663
# 2 -0.001986 0.037876 -0.007309 -0.009507 0.000595 0.011340
# 3 -0.002531 -0.007309 0.013255 -0.002686 -0.000153 0.000002
# 4 0.007664 -0.009507 -0.002686 0.036089 0.004955 0.004082
# 5 -0.000626 0.000595 -0.000153 0.004955 0.023953 0.001707
# 6 0.012663 0.011340 0.000002 0.004082 0.001707 0.034941
#
#
# Mechanical properties :
#
#
# Convention : Reuss Voigt Hill
#
# Bulk Modulus (GPa) = 21.81897 42.33744 32.07820
# Shear Modulus (GPa) = 24.58248 36.37474 30.47861
#
# Velocity S-wave (km/s) = 3.09780 3.76826 3.44936
# Velocity P-wave (km/s) = 4.61657 5.95487 5.32791
#
# Compressibility (1/GPa) = 0.04583167
#
# Stress axis : x y z
#
# Youngs Moduli (GPa) = 54.48474 26.40212 75.44261
#
# Poissons Ratio (x) = 0.05243 0.19096
# Poissons Ratio (y) = 0.10820 0.55143
# Poissons Ratio (z) = 0.13791 0.19298
#
# Static dielectric constant tensor:
#      x y z
#    x 2.211860 0.025250 -0.133830 
#    y 0.025250 2.176780 -0.107950 
#    z -0.133830 -0.107950 2.196700 
# 
# From -- ./inp_files/452640.got.cif
#   From: 2010.05.17/outbox.cif.g08.bks.cpg/sg2_227_cif.got.tgz:452640.got - 2010.06.03 11:33:40.
