data_PCOD9082850
_publ_section_title
;
Structure prediction by ZEFSAII (Michael W. Deem and Ramdas Pophale) SiO2 
 PCOD9082850
Probable space group: P -1
;
_chemical_formula_sum "Si O2"
_cell_formula_units_Z 14
_cell_length_a 11.698837
_cell_length_b 17.610798
_cell_length_c 18.731064
_cell_angle_alpha 25.359295
_cell_angle_beta 157.674462
_cell_angle_gamma 149.868690
_cell_volume 617.817693
_symmetry_space_group_name_H-M "P -1"
_symmetry_group_IT_number 2
_symmetry_cell_setting 'triclinic'
loop_
_space_group_symop_operation_xyz
x,y,z
-x,-y,-z
loop_
_atom_site_type_symbol
_atom_site_label
_atom_site_fract_x
_atom_site_fract_y
_atom_site_fract_z
Si Si1 0.391092 0.959173 0.198525
Si Si2 0.880165 0.679305 0.079443
Si Si3 0.766354 0.050778 0.722763
Si Si4 0.908940 0.421695 0.434488
Si Si5 0.166501 0.495878 0.277380
Si Si6 0.934291 0.236496 0.255152
Si Si7 0.400393 0.536482 0.230607
O O1 0.220142 0.777629 0.217869
O O2 0.394025 0.951105 0.292120
O O3 0.722395 0.043040 0.289088
O O4 0.133100 0.082752 0.926299
O O5 0.760325 0.549145 0.186960
O O6 0.945434 0.576953 0.133262
O O7 0.707700 0.849124 0.828441
O O8 0.721555 0.221350 0.506060
O O9 0.238871 0.417956 0.593045
O O10 0.000000 0.500000 0.500000
O O11 0.500000 0.500000 0.500000
O O12 0.244546 0.598698 0.159449
O O13 0.010919 0.296940 0.329471
O O14 0.249117 0.322668 0.323272
O O15 0.711588 0.366850 0.984045
#
# Coordination Sequence:
#
# PCOD9082850 Si02
#       7
#     2   2   2   2   2   2   2
#     4   9  16  34  53  82 112 146 193 234 272 337
#     4  10  19  33  58  87 109 152 192 235 285 332
#     4   9  19  32  55  84 117 147 200 229 278 350
#     4  12  18  33  61  84 112 151 194 237 278 345
#     4  10  19  35  55  85 119 149 191 240 293 344
#     4   9  18  35  59  78 121 151 190 241 282 346
#     4   9  19  33  57  85 111 152 196 227 288 348
#
# _framework density 22.660405000000001
#
# number of rings (size 3 to 8) (size 9 to 14) (size 15 to 20)
#    1.714    0.571    4.286    0.000    0.000    0.000 
#    0.000    6.429    0.000    2.571    0.000    0.000 
#    0.000    0.000    0.000    0.000    0.000    0.000 
#
# Total GULP energy -77956.128079 kJ/mol
# GULP energy per Si atom -5568.294863 kJ/mol
# Density = 2.260883 g / cm^3
# Si number density = 22.660405 Si / 1000 Ang^3
#
#
#
# Elastic Constant Matrix: (Units=GPa)
#
#
# Indices 1 2 3 4 5 6 
#
# 1 90.7161 19.0081 15.5985 -10.3092 -5.1729 -20.4516
# 2 19.0081 69.7502 36.8898 -11.9838 -11.6565 3.4837
# 3 15.5985 36.8898 56.8403 -10.5695 -8.1264 -1.7458
# 4 -10.3092 -11.9838 -10.5695 39.5092 6.8376 -0.8196
# 5 -5.1729 -11.6565 -8.1264 6.8376 25.0034 -4.7829
# 6 -20.4516 3.4837 -1.7458 -0.8196 -4.7829 38.2179
#
#
#
# Elastic Compliance Matrix: (Units=1/GPa)
#
#
# Indices 1 2 3 4 5 6 
#
# 1 0.014001 -0.002973 -0.000936 0.002302 0.002114 0.008034
# 2 -0.002973 0.023654 -0.013625 0.001852 0.004763 -0.003734
# 3 -0.000936 -0.013625 0.027566 0.002678 0.002126 0.002324
# 4 0.002302 0.001852 0.002678 0.028124 -0.005265 0.001130
# 5 0.002114 0.004763 0.002126 -0.005265 0.046015 0.006440
# 6 0.008034 -0.003734 0.002324 0.001130 0.006440 0.031742
#
#
# Mechanical properties :
#
#
# Convention : Reuss Voigt Hill
#
# Bulk Modulus (GPa) = 33.16396 40.03327 36.59861
# Shear Modulus (GPa) = 23.12464 30.26678 26.69571
#
# Velocity S-wave (km/s) = 3.19797 3.65864 3.43604
# Velocity P-wave (km/s) = 5.32006 5.96260 5.65047
#
# Compressibility (1/GPa) = 0.03015322
#
# Stress axis : x y z
#
# Youngs Moduli (GPa) = 71.42504 42.27646 36.27676
#
# Poissons Ratio (x) = 0.12569 0.03394
# Poissons Ratio (y) = 0.21236 0.49427
# Poissons Ratio (z) = 0.06682 0.57601
#
# Static dielectric constant tensor:
#      x y z
#    x 1.829480 -0.007350 0.026780 
#    y -0.007350 1.887180 -0.065790 
#    z 0.026780 -0.065790 1.948190 
# 
# From -- ./inp_files/570242.got.cif
#   From: 2010.05.17/outbox.cif.g08.bks.cpg/sg2_286_cif.got.tgz:570242.got - 2010.06.03 11:33:40.
