data_PCOD9082031
_publ_section_title
;
Structure prediction by ZEFSAII (Michael W. Deem and Ramdas Pophale) SiO2 
 PCOD9082031
Probable space group: P -1
;
_chemical_formula_sum "Si O2"
_cell_formula_units_Z 16
_cell_length_a 17.805005
_cell_length_b 9.493149
_cell_length_c 11.609333
_cell_angle_alpha 42.661680
_cell_angle_beta 30.249571
_cell_angle_gamma 53.679077
_cell_volume 664.576727
_symmetry_space_group_name_H-M "P -1"
_symmetry_group_IT_number 2
_symmetry_cell_setting 'triclinic'
loop_
_space_group_symop_operation_xyz
x,y,z
-x,-y,-z
loop_
_atom_site_type_symbol
_atom_site_label
_atom_site_fract_x
_atom_site_fract_y
_atom_site_fract_z
Si Si1 0.420975 0.763716 0.718988
Si Si2 0.294307 0.356077 0.490608
Si Si3 0.615299 0.847793 0.981450
Si Si4 0.876544 0.095450 0.922541
Si Si5 0.621453 0.225700 0.489873
Si Si6 0.765298 0.796032 0.580638
Si Si7 0.827192 0.510296 0.201007
Si Si8 0.845071 0.963170 0.793070
O O1 0.526847 0.637136 0.731227
O O2 0.438622 0.727162 0.583256
O O3 0.500000 0.000000 0.500000
O O4 0.240976 0.748584 0.977036
O O5 0.261272 0.367677 0.391524
O O6 0.247344 0.507817 0.562288
O O7 0.196531 0.131266 0.792946
O O8 0.703145 0.748881 0.821853
O O9 0.725840 0.984851 0.839505
O O10 0.505087 0.708623 0.295502
O O11 0.500000 0.000000 0.000000
O O12 0.053336 0.138024 0.692477
O O13 0.856843 0.101781 0.807378
O O14 0.769521 0.342562 0.282126
O O15 0.667778 0.987668 0.562892
O O16 0.810248 0.731616 0.031709
O O17 0.000000 0.500000 0.000000
O O18 0.000000 0.000000 0.500000
#
# Coordination Sequence:
#
# PCOD9082031 Si02
#       8
#     2   2   2   2   2   2   2   2
#     4  10  19  34  59  93 123 163 217 276 316 374
#     4  10  21  36  58  93 128 163 221 261 321 391
#     4  10  23  36  63  96 132 171 222 267 328 383
#     4  10  19  32  61  89 121 161 217 273 309 366
#     4  11  21  39  64  92 133 165 221 276 324 383
#     4  11  20  36  62  96 123 170 223 264 315 392
#     4  11  26  41  67 100 135 170 217 279 340 374
#     4  11  22  42  64  95 135 174 221 267 323 403
#
# _framework density 24.075475000000001
#
# number of rings (size 3 to 8) (size 9 to 14) (size 15 to 20)
#    0.000    1.500    3.750    4.125    5.250    2.000 
#    0.000    0.625    0.000    3.000    0.000    0.000 
#    0.000    0.000    0.000    0.000    0.000    0.000 
#
# Total GULP energy -89292.145177 kJ/mol
# GULP energy per Si atom -5580.759074 kJ/mol
# Density = 2.402068 g / cm^3
# Si number density = 24.075475 Si / 1000 Ang^3
#
#
#
# Elastic Constant Matrix: (Units=GPa)
#
#
# Indices 1 2 3 4 5 6 
#
# 1 166.0388 34.7639 50.6196 10.0409 -17.5001 35.1794
# 2 34.7639 69.0772 10.0578 13.4917 12.5580 12.9439
# 3 50.6196 10.0578 91.4154 28.3981 -7.2188 -1.8076
# 4 10.0409 13.4917 28.3981 29.9636 5.7327 -4.6608
# 5 -17.5001 12.5580 -7.2188 5.7327 50.1600 15.6853
# 6 35.1794 12.9439 -1.8076 -4.6608 15.6853 39.4455
#
#
#
# Elastic Compliance Matrix: (Units=1/GPa)
#
#
# Indices 1 2 3 4 5 6 
#
# 1 0.012662 -0.004485 -0.005930 -0.000470 0.009038 -0.013742
# 2 -0.004485 0.019210 0.002861 -0.009243 -0.004437 -0.001500
# 3 -0.005930 0.002861 0.019530 -0.017623 0.001200 0.002685
# 4 -0.000470 -0.009243 -0.017623 0.058811 -0.011543 0.014184
# 5 0.009038 -0.004437 0.001200 -0.011543 0.032167 -0.020705
# 6 -0.013742 -0.001500 0.002685 0.014184 -0.020705 0.048132
#
#
# Mechanical properties :
#
#
# Convention : Reuss Voigt Hill
#
# Bulk Modulus (GPa) = 27.55174 57.49045 42.52110
# Shear Modulus (GPa) = 22.96549 39.31983 31.14266
#
# Velocity S-wave (km/s) = 3.09187 4.04566 3.60049
# Velocity P-wave (km/s) = 4.92087 6.76419 5.91478
#
# Compressibility (1/GPa) = 0.03629535
#
# Stress axis : x y z
#
# Youngs Moduli (GPa) = 78.97455 52.05556 51.20247
#
# Poissons Ratio (x) = 0.23348 0.30363
# Poissons Ratio (y) = 0.35422 -0.14651
# Poissons Ratio (z) = 0.46831 -0.14895
#
# Static dielectric constant tensor:
#      x y z
#    x 1.798150 -0.145070 0.056550 
#    y -0.145070 1.883940 -0.121310 
#    z 0.056550 -0.121310 1.835910 
# 
# From -- ./inp_files/461056.got.cif
#   From: 2010.05.17/outbox.cif.g08.bks.cpg/sg2_231_cif.got.tgz:461056.got - 2010.06.03 11:33:40.
