data_PCOD9082268
_publ_section_title
;
Structure prediction by ZEFSAII (Michael W. Deem and Ramdas Pophale) SiO2 
 PCOD9082268
Probable space group: P -1
;
_chemical_formula_sum "Si O2"
_cell_formula_units_Z 16
_cell_length_a 9.938931
_cell_length_b 16.372923
_cell_length_c 11.430518
_cell_angle_alpha 121.523481
_cell_angle_beta 102.246915
_cell_angle_gamma 35.269858
_cell_volume 823.824636
_symmetry_space_group_name_H-M "P -1"
_symmetry_group_IT_number 2
_symmetry_cell_setting 'triclinic'
loop_
_space_group_symop_operation_xyz
x,y,z
-x,-y,-z
loop_
_atom_site_type_symbol
_atom_site_label
_atom_site_fract_x
_atom_site_fract_y
_atom_site_fract_z
Si Si1 0.597580 0.878965 0.091338
Si Si2 0.261506 0.407177 0.496193
Si Si3 0.548070 0.062422 0.401028
Si Si4 0.067193 0.266171 0.157293
Si Si5 0.871915 0.843881 0.523086
Si Si6 0.571447 0.546072 0.633183
Si Si7 0.247327 0.935341 0.139672
Si Si8 0.865376 0.187595 0.049670
O O1 0.527284 0.819630 0.093893
O O2 0.683606 0.910715 0.220394
O O3 0.320580 0.083458 0.142969
O O4 0.802232 0.746011 0.926616
O O5 0.462302 0.213354 0.442996
O O6 0.380759 0.388447 0.390062
O O7 0.000000 0.500000 0.500000
O O8 0.151249 0.555147 0.671319
O O9 0.295788 0.147645 0.454802
O O10 0.721239 0.972818 0.480388
O O11 0.932349 0.253239 0.066127
O O12 0.156139 0.639754 0.396749
O O13 0.889484 0.914851 0.680010
O O14 0.500000 0.500000 0.500000
O O15 0.358733 0.680491 0.794972
O O16 0.208177 0.846366 0.087477
O O17 0.120246 0.015327 0.046607
#
# Coordination Sequence:
#
# PCOD9082268 Si02
#       8
#     2   2   2   2   2   2   2   2
#     4   9  18  33  54  83 111 144 186 236 279 325
#     4  12  21  35  59  90 113 145 196 236 274 332
#     4  10  21  37  60  86 116 148 186 237 287 332
#     4  10  19  33  53  82 116 141 186 238 278 325
#     4  10  20  39  59  84 118 149 185 235 287 336
#     4  12  21  37  60  84 117 149 191 236 278 334
#     4   9  18  33  54  82 108 147 190 227 278 334
#     4  10  20  33  55  81 113 149 186 231 279 334
#
# _framework density 19.421609
#
# number of rings (size 3 to 8) (size 9 to 14) (size 15 to 20)
#    0.000    1.750    5.000    0.750    1.750    2.000 
#    0.000    1.875    0.000    6.000    0.000    0.000 
#    0.000    0.000    0.000    0.000    0.000    0.000 
#
# Total GULP energy -89151.045068 kJ/mol
# GULP energy per Si atom -5571.940317 kJ/mol
# Density = 1.937740 g / cm^3
# Si number density = 19.421609 Si / 1000 Ang^3
#
#
#
# Elastic Constant Matrix: (Units=GPa)
#
#
# Indices 1 2 3 4 5 6 
#
# 1 84.7512 23.7106 16.6246 0.8210 13.1978 9.6243
# 2 23.7106 50.6838 0.9757 1.3980 3.6429 1.5844
# 3 16.6246 0.9757 42.8760 1.7574 5.5342 -7.2551
# 4 0.8210 1.3980 1.7574 12.7696 -3.2296 -0.8721
# 5 13.1978 3.6429 5.5342 -3.2296 37.2282 0.8631
# 6 9.6243 1.5844 -7.2551 -0.8721 0.8631 13.3742
#
#
#
# Elastic Compliance Matrix: (Units=1/GPa)
#
#
# Indices 1 2 3 4 5 6 
#
# 1 0.018312 -0.007524 -0.009245 -0.001287 -0.004096 -0.017121
# 2 -0.007524 0.023143 0.003265 -0.002301 -0.000383 0.004318
# 3 -0.009245 0.003265 0.031198 -0.003104 -0.002486 0.023148
# 4 -0.001287 -0.002301 -0.003104 0.081417 0.008106 0.004300
# 5 -0.004096 -0.000383 -0.002486 0.008106 0.029417 0.000275
# 6 -0.017121 0.004318 0.023148 0.004300 0.000275 0.099400
#
#
# Mechanical properties :
#
#
# Convention : Reuss Voigt Hill
#
# Bulk Modulus (GPa) = 21.90744 28.99253 25.44998
# Shear Modulus (GPa) = 15.37945 21.80774 18.59359
#
# Velocity S-wave (km/s) = 2.81708 3.35455 3.09749
# Velocity P-wave (km/s) = 4.67821 5.47397 5.09166
#
# Compressibility (1/GPa) = 0.04564660
#
# Stress axis : x y z
#
# Youngs Moduli (GPa) = 54.60871 43.20969 32.05298
#
# Poissons Ratio (x) = 0.32509 0.29632
# Poissons Ratio (y) = 0.41085 -0.10465
# Poissons Ratio (z) = 0.50484 -0.14108
#
# Static dielectric constant tensor:
#      x y z
#    x 1.737020 0.033360 0.037980 
#    y 0.033360 1.673800 0.005990 
#    z 0.037980 0.005990 1.722560 
# 
# From -- ./inp_files/321070.got.cif
#   From: 2010.05.17/outbox.cif.g08.bks.cpg/sg2_161_cif.got.tgz:321070.got - 2010.06.03 11:33:40.
