data_PCOD9082284
_publ_section_title
;
Structure prediction by ZEFSAII (Michael W. Deem and Ramdas Pophale) SiO2 
 PCOD9082284
Probable space group: P -1
;
_chemical_formula_sum "Si O2"
_cell_formula_units_Z 16
_cell_length_a 12.757345
_cell_length_b 10.765686
_cell_length_c 12.458088
_cell_angle_alpha 48.411971
_cell_angle_beta 139.806502
_cell_angle_gamma 117.420754
_cell_volume 822.057340
_symmetry_space_group_name_H-M "P -1"
_symmetry_group_IT_number 2
_symmetry_cell_setting 'triclinic'
loop_
_space_group_symop_operation_xyz
x,y,z
-x,-y,-z
loop_
_atom_site_type_symbol
_atom_site_label
_atom_site_fract_x
_atom_site_fract_y
_atom_site_fract_z
Si Si1 0.985214 0.865586 0.469743
Si Si2 0.831791 0.112790 0.821106
Si Si3 0.772470 0.078393 0.565788
Si Si4 0.609944 0.837432 0.138431
Si Si5 0.020852 0.259230 0.062427
Si Si6 0.012056 0.374396 0.212594
Si Si7 0.405092 0.346081 0.558143
Si Si8 0.465559 0.022938 0.223226
O O1 0.798662 0.868626 0.284777
O O2 0.031751 0.694282 0.667883
O O3 0.000000 0.000000 0.500000
O O4 0.100285 0.879454 0.450226
O O5 0.876629 0.237417 0.878177
O O6 0.698182 0.003547 0.826841
O O7 0.778556 0.179308 0.623725
O O8 0.000000 0.000000 0.000000
O O9 0.598291 0.083070 0.372806
O O10 0.835067 0.886463 0.754274
O O11 0.577498 0.686677 0.280349
O O12 0.500000 0.000000 0.000000
O O13 0.568454 0.844961 0.975803
O O14 0.071966 0.442436 0.978595
O O15 0.964311 0.259679 0.141896
O O16 0.210320 0.372537 0.365634
O O17 0.500000 0.500000 0.500000
O O18 0.469013 0.164352 0.661412
#
# Coordination Sequence:
#
# PCOD9082284 Si02
#       8
#     2   2   2   2   2   2   2   2
#     4  11  19  34  57  82 115 145 186 234 282 338
#     4  10  22  36  60  81 107 153 196 233 277 337
#     4  11  21  38  56  85 112 151 194 233 280 333
#     4   9  19  32  50  80 112 147 180 229 281 328
#     4  10  19  37  55  84 113 144 193 226 283 332
#     4  10  20  34  57  86 116 146 181 234 287 333
#     4  10  19  33  53  85 117 148 177 228 289 341
#     4  11  20  37  53  82 116 143 189 236 278 334
#
# _framework density 19.463363000000001
#
# number of rings (size 3 to 8) (size 9 to 14) (size 15 to 20)
#    0.000    1.750    2.500    4.125    0.000    1.000 
#    4.500    0.625    0.000    3.000    0.000    7.875 
#    0.000    0.000    0.000    0.000    0.000    0.000 
#
# Total GULP energy -89197.922659 kJ/mol
# GULP energy per Si atom -5574.870166 kJ/mol
# Density = 1.941906 g / cm^3
# Si number density = 19.463363 Si / 1000 Ang^3
#
#
#
# Elastic Constant Matrix: (Units=GPa)
#
#
# Indices 1 2 3 4 5 6 
#
# 1 100.4030 26.2317 43.7643 11.9881 -20.9231 12.7093
# 2 26.2317 48.5476 38.4372 15.6521 -17.7498 5.3892
# 3 43.7643 38.4372 112.5896 17.9546 -34.3932 -4.9415
# 4 11.9881 15.6521 17.9546 38.4493 -7.0830 -8.5614
# 5 -20.9231 -17.7498 -34.3932 -7.0830 36.9486 3.3025
# 6 12.7093 5.3892 -4.9415 -8.5614 3.3025 18.5330
#
#
#
# Elastic Compliance Matrix: (Units=1/GPa)
#
#
# Indices 1 2 3 4 5 6 
#
# 1 0.015408 0.000484 -0.004369 -0.005406 0.005223 -0.015300
# 2 0.000484 0.038062 -0.008942 -0.014690 0.009407 -0.022247
# 3 -0.004369 -0.008942 0.016251 0.000825 0.007717 0.008935
# 4 -0.005406 -0.014690 0.000825 0.038436 -0.004372 0.026734
# 5 0.005223 0.009407 0.007717 -0.004372 0.042118 -0.013784
# 6 -0.015300 -0.022247 0.008935 0.026734 -0.013784 0.088108
#
#
# Mechanical properties :
#
#
# Convention : Reuss Voigt Hill
#
# Bulk Modulus (GPa) = 22.69263 53.15628 37.92445
# Shear Modulus (GPa) = 17.93882 28.99332 23.46607
#
# Velocity S-wave (km/s) = 3.03920 3.86377 3.47602
# Velocity P-wave (km/s) = 4.89899 6.87569 5.96973
#
# Compressibility (1/GPa) = 0.04406718
#
# Stress axis : x y z
#
# Youngs Moduli (GPa) = 64.90113 26.27285 61.53652
#
# Poissons Ratio (x) = -0.01272 0.26882
# Poissons Ratio (y) = -0.03142 0.55028
# Poissons Ratio (z) = 0.28352 0.23494
#
# Static dielectric constant tensor:
#      x y z
#    x 1.694310 -0.038720 -0.079820 
#    y -0.038720 1.712450 -0.007700 
#    z -0.079820 -0.007700 1.660660 
# 
# From -- ./inp_files/181469.got.cif
#   From: 2010.05.17/outbox.cif.g08.bks.cpg/sg2_91_cif.got.tgz:181469.got - 2010.06.03 11:33:40.
