data_PCOD9082713
_publ_section_title
;
Structure prediction by ZEFSAII (Michael W. Deem and Ramdas Pophale) SiO2 
 PCOD9082713
Probable space group: P -1
;
_chemical_formula_sum "Si O2"
_cell_formula_units_Z 14
_cell_length_a 8.388849
_cell_length_b 14.722809
_cell_length_c 24.009451
_cell_angle_alpha 159.708543
_cell_angle_beta 145.901746
_cell_angle_gamma 32.407771
_cell_volume 540.581325
_symmetry_space_group_name_H-M "P -1"
_symmetry_group_IT_number 2
_symmetry_cell_setting 'triclinic'
loop_
_space_group_symop_operation_xyz
x,y,z
-x,-y,-z
loop_
_atom_site_type_symbol
_atom_site_label
_atom_site_fract_x
_atom_site_fract_y
_atom_site_fract_z
Si Si1 0.257507 0.270918 0.746270
Si Si2 0.630545 0.935722 0.114921
Si Si3 0.183275 0.171914 0.359250
Si Si4 0.894866 0.192463 0.171754
Si Si5 0.192131 0.199241 0.499457
Si Si6 0.210394 0.469989 0.966377
Si Si7 0.203450 0.456266 0.327931
O O1 0.149173 0.333540 0.813586
O O2 0.010543 0.401494 0.703347
O O3 0.451806 0.942587 0.606920
O O4 0.508899 0.419798 0.895923
O O5 0.339484 0.938429 0.995038
O O6 0.909606 0.731113 0.042450
O O7 0.691863 0.756947 0.086835
O O8 0.529984 0.268767 0.291107
O O9 0.145606 0.073958 0.355147
O O10 0.000000 0.500000 0.500000
O O11 0.073636 0.078716 0.215181
O O12 0.731693 0.518999 0.326017
O O13 0.107247 0.221276 0.198829
O O14 0.900376 0.300797 0.514826
O O15 0.500000 0.000000 0.500000
#
# Coordination Sequence:
#
# PCOD9082713 Si02
#       7
#     2   2   2   2   2   2   2
#     4  11  21  37  56  91 108 151 189 237 278 339
#     4  11  21  40  54  88 115 154 179 236 293 335
#     4  10  19  33  57  84 113 144 197 228 273 332
#     4   9  19  31  57  83 111 151 183 234 272 344
#     4   9  17  32  53  88 107 148 194 232 268 330
#     4  10  24  36  59  81 122 145 189 232 290 340
#     4  10  20  32  61  81 119 141 190 230 281 334
#
# _framework density 25.898046000000001
#
# number of rings (size 3 to 8) (size 9 to 14) (size 15 to 20)
#    0.857    1.143    2.857    1.286    4.000    0.571 
#    0.000    0.000    0.000    6.000    3.714    0.000 
#    0.000    0.000    0.000    0.000    0.000    0.000 
#
# Total GULP energy -78124.802220 kJ/mol
# GULP energy per Si atom -5580.343016 kJ/mol
# Density = 2.583910 g / cm^3
# Si number density = 25.898046 Si / 1000 Ang^3
#
#
#
# Elastic Constant Matrix: (Units=GPa)
#
#
# Indices 1 2 3 4 5 6 
#
# 1 98.8376 71.4599 48.5432 -9.6067 -39.8629 8.6704
# 2 71.4599 212.4446 55.5284 0.7892 -41.2320 8.3238
# 3 48.5432 55.5284 84.4610 -1.9284 -48.5448 -3.9585
# 4 -9.6067 0.7892 -1.9284 51.2788 5.6947 -17.7915
# 5 -39.8629 -41.2320 -48.5448 5.6947 52.2414 5.3152
# 6 8.6704 8.3238 -3.9585 -17.7915 5.3152 50.8078
#
#
#
# Elastic Compliance Matrix: (Units=1/GPa)
#
#
# Indices 1 2 3 4 5 6 
#
# 1 0.017952 -0.003453 -0.003773 0.001344 0.007638 -0.003120
# 2 -0.003453 0.006620 -0.001737 -0.001386 0.001254 -0.001247
# 3 -0.003773 -0.001737 0.027442 -0.001987 0.021453 0.000127
# 4 0.001344 -0.001386 -0.001987 0.023254 -0.005319 0.008542
# 5 0.007638 0.001254 0.021453 -0.005319 0.047150 -0.006632
# 6 -0.003120 -0.001247 0.000127 0.008542 -0.006632 0.024114
#
#
# Mechanical properties :
#
#
# Convention : Reuss Voigt Hill
#
# Bulk Modulus (GPa) = 29.33668 82.97847 56.15758
# Shear Modulus (GPa) = 28.43820 45.54637 36.99229
#
# Velocity S-wave (km/s) = 3.31733 4.19821 3.78349
# Velocity P-wave (km/s) = 5.10149 7.45721 6.38887
#
# Compressibility (1/GPa) = 0.03408702
#
# Stress axis : x y z
#
# Youngs Moduli (GPa) = 55.70443 151.05929 36.44090
#
# Poissons Ratio (x) = 0.52153 0.13751
# Poissons Ratio (y) = 0.19232 0.06331
# Poissons Ratio (z) = 0.21020 0.26243
#
# Static dielectric constant tensor:
#      x y z
#    x 2.188510 -0.029650 0.113720 
#    y -0.029650 1.972070 0.011860 
#    z 0.113720 0.011860 2.181320 
# 
# From -- ./inp_files/235863.got.cif
#   From: 2010.05.17/outbox.cif.g08.bks.cpg/sg2_118_cif.got.tgz:235863.got - 2010.06.03 11:33:40.
