data_PCOD9082423
_publ_section_title
;
Structure prediction by ZEFSAII (Michael W. Deem and Ramdas Pophale) SiO2 
 PCOD9082423
Probable space group: P -1
;
_chemical_formula_sum "Si O2"
_cell_formula_units_Z 12
_cell_length_a 14.312040
_cell_length_b 14.914647
_cell_length_c 13.452542
_cell_angle_alpha 160.504205
_cell_angle_beta 33.513079
_cell_angle_gamma 142.396912
_cell_volume 528.821855
_symmetry_space_group_name_H-M "P -1"
_symmetry_group_IT_number 2
_symmetry_cell_setting 'triclinic'
loop_
_space_group_symop_operation_xyz
x,y,z
-x,-y,-z
loop_
_atom_site_type_symbol
_atom_site_label
_atom_site_fract_x
_atom_site_fract_y
_atom_site_fract_z
Si Si1 0.992134 0.501058 0.625866
Si Si2 0.887750 0.181943 0.657065
Si Si3 0.152553 0.038691 0.124916
Si Si4 0.655969 0.215188 0.067750
Si Si5 0.562182 0.559277 0.676748
Si Si6 0.733534 0.646498 0.157488
O O1 0.050265 0.223520 0.331511
O O2 0.000000 0.500000 0.500000
O O3 0.807659 0.568503 0.903748
O O4 0.116367 0.737869 0.806500
O O5 0.070707 0.102780 0.372191
O O6 0.766226 0.960363 0.477279
O O7 0.830094 0.150413 0.789325
O O8 0.849875 0.474317 0.950381
O O9 0.340346 0.166526 0.094780
O O10 0.682793 0.364943 0.304818
O O11 0.576216 0.393141 0.236611
O O12 0.500000 0.000000 0.000000
O O13 0.458298 0.434863 0.730343
#
# Coordination Sequence:
#
# PCOD9082423 Si02
#       6
#     2   2   2   2   2   2
#     4  10  21  40  60  79 105 142 178 221 279 334
#     4   9  18  34  51  77 107 147 177 212 263 314
#     4  10  22  36  58  83 110 136 180 229 267 312
#     4  10  19  33  55  75 113 151 184 207 260 322
#     4  10  21  34  53  83 110 145 181 223 260 309
#     4   9  18  34  55  75 107 143 174 213 275 323
#
# _framework density 22.691952000000001
#
# number of rings (size 3 to 8) (size 9 to 14) (size 15 to 20)
#    0.000    2.333    1.667    0.500    2.333    0.667 
#    0.000    2.500    0.000    0.000    0.000    0.000 
#    0.000    0.000    0.000    0.000    0.000    0.000 
#
# Total GULP energy -66993.924634 kJ/mol
# GULP energy per Si atom -5582.827053 kJ/mol
# Density = 2.264030 g / cm^3
# Si number density = 22.691952 Si / 1000 Ang^3
#
#
#
# Elastic Constant Matrix: (Units=GPa)
#
#
# Indices 1 2 3 4 5 6 
#
# 1 60.6421 21.4705 28.6041 -18.4037 10.9329 -17.6229
# 2 21.4705 148.2828 41.2256 -23.4992 24.6409 0.9671
# 3 28.6041 41.2256 80.4383 -15.2763 14.3842 -9.4620
# 4 -18.4037 -23.4992 -15.2763 53.0796 -10.2143 9.3279
# 5 10.9329 24.6409 14.3842 -10.2143 25.8533 -3.4741
# 6 -17.6229 0.9671 -9.4620 9.3279 -3.4741 40.5769
#
#
#
# Elastic Compliance Matrix: (Units=1/GPa)
#
#
# Indices 1 2 3 4 5 6 
#
# 1 0.023541 -0.000616 -0.005732 0.004228 -0.003483 0.007632
# 2 -0.000616 0.009085 -0.003213 0.002107 -0.006079 -0.002238
# 3 -0.005732 -0.003213 0.017003 0.000598 -0.003588 0.001107
# 4 0.004228 0.002107 0.000598 0.022788 0.004480 -0.002929
# 5 -0.003483 -0.006079 -0.003588 0.004480 0.049852 0.001034
# 6 0.007632 -0.002238 0.001107 -0.002929 0.001034 0.029033
#
#
# Mechanical properties :
#
#
# Convention : Reuss Voigt Hill
#
# Bulk Modulus (GPa) = 32.78009 52.44041 42.61025
# Shear Modulus (GPa) = 27.68674 37.10615 32.39645
#
# Velocity S-wave (km/s) = 3.49680 4.04816 3.78254
# Velocity P-wave (km/s) = 5.54802 6.70895 6.15591
#
# Compressibility (1/GPa) = 0.03050632
#
# Stress axis : x y z
#
# Youngs Moduli (GPa) = 42.47915 110.06974 58.81479
#
# Poissons Ratio (x) = 0.06780 0.33713
# Poissons Ratio (y) = 0.02616 0.18898
# Poissons Ratio (z) = 0.24349 0.35368
#
# Static dielectric constant tensor:
#      x y z
#    x 1.846870 0.007290 -0.111320 
#    y 0.007290 1.885000 -0.044410 
#    z -0.111320 -0.044410 1.942910 
# 
# From -- ./inp_files/18771.got.cif
#   From: 2010.05.17/outbox.cif.g08.bks.cpg/sg2_10_cif.got.tgz:18771.got - 2010.06.03 11:33:40.
