data_PCOD9082220
_publ_section_title
;
Structure prediction by ZEFSAII (Michael W. Deem and Ramdas Pophale) SiO2 
 PCOD9082220
Probable space group: P -1
;
_chemical_formula_sum "Si O2"
_cell_formula_units_Z 14
_cell_length_a 7.869811
_cell_length_b 26.258071
_cell_length_c 6.858993
_cell_angle_alpha 146.105645
_cell_angle_beta 37.488212
_cell_angle_gamma 133.588130
_cell_volume 479.061302
_symmetry_space_group_name_H-M "P -1"
_symmetry_group_IT_number 2
_symmetry_cell_setting 'triclinic'
loop_
_space_group_symop_operation_xyz
x,y,z
-x,-y,-z
loop_
_atom_site_type_symbol
_atom_site_label
_atom_site_fract_x
_atom_site_fract_y
_atom_site_fract_z
Si Si1 0.725748 0.821660 0.482655
Si Si2 0.200111 0.471613 0.956910
Si Si3 0.643872 0.919700 0.502336
Si Si4 0.252247 0.938931 0.423504
Si Si5 0.225819 0.756254 0.272553
Si Si6 0.360096 0.612751 0.973450
Si Si7 0.334765 0.327873 0.653805
O O1 0.788249 0.851842 0.299779
O O2 0.712328 0.716668 0.230330
O O3 0.970453 0.882082 0.569383
O O4 0.430658 0.860629 0.921958
O O5 0.310510 0.574416 0.116605
O O6 0.356547 0.410887 0.463838
O O7 0.262891 0.428976 0.974271
O O8 0.875599 0.451417 0.139005
O O9 0.391580 0.855832 0.428871
O O10 0.849132 0.981405 0.371889
O O11 0.500000 0.000000 0.000000
O O12 0.500000 0.000000 0.500000
O O13 0.900122 0.736808 0.462553
O O14 0.291093 0.712547 0.285006
O O15 0.376582 0.696576 0.783697
#
# Coordination Sequence:
#
# PCOD9082220 Si02
#       7
#     2   2   2   2   2   2   2
#     4  11  22  35  51  73 101 129 161 203 254 295
#     4   8  14  25  45  72  99 121 154 199 245 285
#     4  10  23  38  52  73 102 134 168 207 251 293
#     4  11  22  37  55  72  94 127 170 210 246 292
#     4  10  20  34  53  74 100 132 171 205 242 292
#     4   8  14  26  45  71  97 124 156 200 242 283
#     4  10  19  33  53  77 100 129 165 205 246 295
#
# _framework density 29.22382
#
# number of rings (size 3 to 8) (size 9 to 14) (size 15 to 20)
#    0.000    2.286    0.000    3.429    0.000    5.714 
#    0.000    0.000    0.000    0.857    0.000    0.000 
#    0.000   28.571    0.000    0.000    0.000    4.143 
#
# Total GULP energy -78393.100654 kJ/mol
# GULP energy per Si atom -5599.507190 kJ/mol
# Density = 2.915731 g / cm^3
# Si number density = 29.223820 Si / 1000 Ang^3
#
#
#
# Elastic Constant Matrix: (Units=GPa)
#
#
# Indices 1 2 3 4 5 6 
#
# 1 72.7532 24.6573 26.9628 6.7330 -7.8676 -21.9783
# 2 24.6573 252.8366 13.8372 31.0900 -15.6303 -17.8364
# 3 26.9628 13.8372 102.7063 -12.1713 -6.6386 6.8388
# 4 6.7330 31.0900 -12.1713 41.5601 4.0671 -14.9882
# 5 -7.8676 -15.6303 -6.6386 4.0671 43.6437 18.4229
# 6 -21.9783 -17.8364 6.8388 -14.9882 18.4229 61.3114
#
#
#
# Elastic Compliance Matrix: (Units=1/GPa)
#
#
# Indices 1 2 3 4 5 6 
#
# 1 0.018064 -0.000869 -0.005264 -0.001374 -0.000527 0.006632
# 2 -0.000869 0.004646 -0.000705 -0.003879 0.001935 -0.000411
# 3 -0.005264 -0.000705 0.011945 0.003647 0.001540 -0.002995
# 4 -0.001374 -0.003879 0.003647 0.031863 -0.007425 0.007992
# 5 -0.000527 0.001935 0.001540 -0.007425 0.028767 -0.010257
# 6 0.006632 -0.000411 -0.002995 0.007992 -0.010257 0.023938
#
#
# Mechanical properties :
#
#
# Convention : Reuss Voigt Hill
#
# Bulk Modulus (GPa) = 47.66702 62.13451 54.90077
# Shear Modulus (GPa) = 35.74209 53.49229 44.61719
#
# Velocity S-wave (km/s) = 3.50100 4.28300 3.91159
# Velocity P-wave (km/s) = 5.71744 6.76510 6.26321
#
# Compressibility (1/GPa) = 0.02097886
#
# Stress axis : x y z
#
# Youngs Moduli (GPa) = 55.35819 215.23625 83.72039
#
# Poissons Ratio (x) = 0.18711 0.44068
# Poissons Ratio (y) = 0.04812 0.05902
# Poissons Ratio (z) = 0.29139 0.15173
#
# Static dielectric constant tensor:
#      x y z
#    x 2.551330 -0.089670 0.031700 
#    y -0.089670 2.249560 0.044540 
#    z 0.031700 0.044540 2.116020 
# 
# From -- ./inp_files/32611.got.cif
#   From: 2010.05.17/outbox.cif.g08.bks.cpg/sg2_17_cif.got.tgz:32611.got - 2010.06.03 11:33:40.
