data_PCOD9082512
_publ_section_title
;
Structure prediction by ZEFSAII (Michael W. Deem and Ramdas Pophale) SiO2 
 PCOD9082512
Probable space group: P -1
;
_chemical_formula_sum "Si O2"
_cell_formula_units_Z 14
_cell_length_a 12.682329
_cell_length_b 10.148838
_cell_length_c 9.124555
_cell_angle_alpha 109.003692
_cell_angle_beta 34.032021
_cell_angle_gamma 105.073486
_cell_volume 621.347063
_symmetry_space_group_name_H-M "P -1"
_symmetry_group_IT_number 2
_symmetry_cell_setting 'triclinic'
loop_
_space_group_symop_operation_xyz
x,y,z
-x,-y,-z
loop_
_atom_site_type_symbol
_atom_site_label
_atom_site_fract_x
_atom_site_fract_y
_atom_site_fract_z
Si Si1 0.702976 0.213935 0.043959
Si Si2 0.255172 0.626814 0.243813
Si Si3 0.461258 0.835215 0.484327
Si Si4 0.939598 0.183127 0.230988
Si Si5 0.209944 0.060764 0.300178
Si Si6 0.933417 0.871831 0.226477
Si Si7 0.660191 0.686581 0.945483
O O1 0.560088 0.225250 0.349037
O O2 0.728324 0.325388 0.926509
O O3 0.902792 0.201749 0.894464
O O4 0.667190 0.067915 0.948377
O O5 0.102251 0.711845 0.549493
O O6 0.235399 0.461798 0.221171
O O7 0.459072 0.662170 0.090226
O O8 0.260714 0.823953 0.626606
O O9 0.500000 0.000000 0.500000
O O10 0.610519 0.751205 0.183592
O O11 0.990090 0.030650 0.180963
O O12 0.082041 0.205335 0.938803
O O13 0.234431 0.103587 0.456599
O O14 0.236638 0.196634 0.223103
O O15 0.000000 0.000000 0.500000
#
# Coordination Sequence:
#
# PCOD9082512 Si02
#       7
#     2   2   2   2   2   2   2
#     4  10  19  33  58  84 112 141 194 235 277 332
#     4  10  21  37  57  85 115 153 181 229 292 344
#     4  10  19  33  55  87 111 144 191 237 277 329
#     4   9  18  33  56  81 112 148 182 229 287 330
#     4  10  19  34  57  81 110 144 190 234 270 326
#     4   9  18  33  55  82 109 144 188 238 271 327
#     4  10  22  38  56  81 121 149 184 231 288 339
#
# _framework density 22.531692
#
# number of rings (size 3 to 8) (size 9 to 14) (size 15 to 20)
#    0.000    2.286    2.857    0.000    0.000    2.286 
#    0.000    3.571    0.000    0.000    0.000    0.000 
#    0.000    0.000    0.000    0.000    0.000    0.000 
#
# Total GULP energy -78204.015379 kJ/mol
# GULP energy per Si atom -5586.001098 kJ/mol
# Density = 2.248041 g / cm^3
# Si number density = 22.531692 Si / 1000 Ang^3
#
#
#
# Elastic Constant Matrix: (Units=GPa)
#
#
# Indices 1 2 3 4 5 6 
#
# 1 65.2136 -22.2384 -7.7807 -17.5685 -7.2136 6.9996
# 2 -22.2384 72.0674 3.9365 -16.8023 -13.2005 1.5854
# 3 -7.7807 3.9365 113.7982 -20.3001 16.9231 0.1434
# 4 -17.5685 -16.8023 -20.3001 30.2925 -16.5947 3.9214
# 5 -7.2136 -13.2005 16.9231 -16.5947 22.0740 -6.7475
# 6 6.9996 1.5854 0.1434 3.9214 -6.7475 31.2403
#
#
#
# Elastic Compliance Matrix: (Units=1/GPa)
#
#
# Indices 1 2 3 4 5 6 
#
# 1 -0.008094 -0.020829 -0.000324 -0.041957 -0.047011 -0.002015
# 2 -0.020829 -0.010800 -0.002329 -0.043992 -0.044184 0.001205
# 3 -0.000324 -0.002329 0.010370 0.000368 -0.009788 -0.002017
# 4 -0.041957 -0.043992 0.000368 -0.063810 -0.088084 0.000616
# 5 -0.047011 -0.044184 -0.009788 -0.088084 -0.051285 0.012800
# 6 -0.002015 0.001205 -0.002017 0.000616 0.012800 0.035097
#
#
# Mechanical properties :
#
#
# Convention : Reuss Voigt Hill
#
# Bulk Modulus (GPa) = -18.02158 22.10156 2.03999
# Shear Modulus (GPa) = -83.25591 35.19880 -24.02855
#
# Velocity S-wave (km/s) = -6.08529 3.95674 -3.26917
# Velocity P-wave (km/s) = 7.57562 5.54119 3.65276
#
# Compressibility (1/GPa) = -0.05548902
#
# Stress axis : x y z
#
# Youngs Moduli (GPa) = -123.54113 -92.58879 96.43388
#
# Poissons Ratio (x) = -1.92853 0.03124
# Poissons Ratio (y) = -2.57324 0.22460
# Poissons Ratio (z) = -0.04002 -0.21564
#
# Static dielectric constant tensor:
#      x y z
#    x 1.914950 0.022600 -0.016280 
#    y 0.022600 1.755140 -0.011190 
#    z -0.016280 -0.011190 1.921240 
# 
# From -- ./inp_files/154250.got.cif
#   From: 2010.05.17/outbox.cif.g08.bks.cpg/sg2_78_cif.got.tgz:154250.got - 2010.06.03 11:33:40.
