data_PCOD9082572
_publ_section_title
;
Structure prediction by ZEFSAII (Michael W. Deem and Ramdas Pophale) SiO2 
 PCOD9082572
Probable space group: P -1
;
_chemical_formula_sum "Si O2"
_cell_formula_units_Z 16
_cell_length_a 12.042311
_cell_length_b 7.481790
_cell_length_c 14.625889
_cell_angle_alpha 96.565062
_cell_angle_beta 46.966665
_cell_angle_gamma 129.664256
_cell_volume 608.767749
_symmetry_space_group_name_H-M "P -1"
_symmetry_group_IT_number 2
_symmetry_cell_setting 'triclinic'
loop_
_space_group_symop_operation_xyz
x,y,z
-x,-y,-z
loop_
_atom_site_type_symbol
_atom_site_label
_atom_site_fract_x
_atom_site_fract_y
_atom_site_fract_z
Si Si1 0.960595 0.850572 0.130717
Si Si2 0.051790 0.509662 0.328169
Si Si3 0.765272 0.992036 0.843761
Si Si4 0.944306 0.852178 0.618017
Si Si5 0.680230 0.100290 0.074406
Si Si6 0.996959 0.287403 0.149888
Si Si7 0.513766 0.050215 0.632521
Si Si8 0.476363 0.342397 0.422015
O O1 0.683423 0.586255 0.248643
O O2 0.999567 0.819073 0.212648
O O3 0.062517 0.142278 0.084943
O O4 0.127253 0.862464 0.986930
O O5 0.042807 0.378281 0.234915
O O6 0.213562 0.829558 0.231535
O O7 0.108445 0.410606 0.367406
O O8 0.785764 0.349464 0.478702
O O9 0.754858 0.797260 0.781107
O O10 0.599437 0.916157 0.016572
O O11 0.206904 0.102390 0.528172
O O12 0.000000 0.000000 0.500000
O O13 0.164957 0.586660 0.023979
O O14 0.511429 0.996190 0.246336
O O15 0.712467 0.044414 0.279744
O O16 0.473317 0.819410 0.595576
O O17 0.500000 0.500000 0.500000
#
# Coordination Sequence:
#
# PCOD9082572 Si02
#       8
#     2   2   2   2   2   2   2   2
#     4  10  19  33  56  82 116 153 192 228 286 349
#     4  10  20  36  56  82 111 159 190 236 293 347
#     4   9  19  38  60  81 118 155 191 234 294 350
#     4  11  23  38  59  87 117 149 198 248 287 342
#     4   9  20  37  50  87 128 152 186 245 292 345
#     4  11  19  32  57  82 119 162 188 232 298 345
#     4  11  21  33  55  88 128 147 196 242 292 343
#     4  11  19  36  57  83 116 150 188 237 289 339
#
# _framework density 26.282601
#
# number of rings (size 3 to 8) (size 9 to 14) (size 15 to 20)
#    0.750    1.000    3.750    1.500    1.750    2.000 
#    0.000    0.000    0.000    3.000    0.000   14.875 
#    0.000    0.000    0.000    0.000    0.000    0.000 
#
# Total GULP energy -89422.055958 kJ/mol
# GULP energy per Si atom -5588.878497 kJ/mol
# Density = 2.622278 g / cm^3
# Si number density = 26.282601 Si / 1000 Ang^3
#
#
#
# Elastic Constant Matrix: (Units=GPa)
#
#
# Indices 1 2 3 4 5 6 
#
# 1 79.2291 41.6330 13.9957 -4.8436 9.6089 -24.3302
# 2 41.6330 96.3817 23.6887 0.0666 -5.5046 -14.8634
# 3 13.9957 23.6887 103.8081 8.0916 -0.1593 -5.7501
# 4 -4.8436 0.0666 8.0916 22.6625 -1.6579 1.1659
# 5 9.6089 -5.5046 -0.1593 -1.6579 29.8583 1.6476
# 6 -24.3302 -14.8634 -5.7501 1.1659 1.6476 34.8168
#
#
#
# Elastic Compliance Matrix: (Units=1/GPa)
#
#
# Indices 1 2 3 4 5 6 
#
# 1 0.021986 -0.007949 -0.000781 0.003718 -0.009009 0.012143
# 2 -0.007949 0.014670 -0.002217 -0.000575 0.005213 0.000114
# 3 -0.000781 -0.002217 0.010577 -0.003983 -0.000344 0.000404
# 4 0.003718 -0.000575 -0.003983 0.046431 0.001250 0.000080
# 5 -0.009009 0.005213 -0.000344 0.001250 0.037748 -0.005955
# 6 0.012143 0.000114 0.000404 0.000080 -0.005955 0.037602
#
#
# Mechanical properties :
#
#
# Convention : Reuss Voigt Hill
#
# Bulk Modulus (GPa) = 39.46705 48.67263 44.06984
# Shear Modulus (GPa) = 25.08110 30.80760 27.94435
#
# Velocity S-wave (km/s) = 3.09250 3.42741 3.26425
# Velocity P-wave (km/s) = 5.27261 5.84996 5.56877
#
# Compressibility (1/GPa) = 0.02533759
#
# Stress axis : x y z
#
# Youngs Moduli (GPa) = 45.48436 68.16758 94.54813
#
# Poissons Ratio (x) = 0.54189 0.07385
# Poissons Ratio (y) = 0.36157 0.20958
# Poissons Ratio (z) = 0.03553 0.15111
#
# Static dielectric constant tensor:
#      x y z
#    x 2.189230 -0.046500 0.031920 
#    y -0.046500 2.029960 0.008600 
#    z 0.031920 0.008600 2.134280 
# 
# From -- ./inp_files/514260.got.cif
#   From: 2010.05.17/outbox.cif.g08.bks.cpg/sg2_258_cif.got.tgz:514260.got - 2010.06.03 11:33:40.
