data_PCOD9082579
_publ_section_title
;
Structure prediction by ZEFSAII (Michael W. Deem and Ramdas Pophale) SiO2 
 PCOD9082579
Probable space group: P -1
;
_chemical_formula_sum "Si O2"
_cell_formula_units_Z 16
_cell_length_a 19.732515
_cell_length_b 7.053076
_cell_length_c 14.151950
_cell_angle_alpha 53.881617
_cell_angle_beta 23.079036
_cell_angle_gamma 57.690084
_cell_volume 623.500949
_symmetry_space_group_name_H-M "P -1"
_symmetry_group_IT_number 2
_symmetry_cell_setting 'triclinic'
loop_
_space_group_symop_operation_xyz
x,y,z
-x,-y,-z
loop_
_atom_site_type_symbol
_atom_site_label
_atom_site_fract_x
_atom_site_fract_y
_atom_site_fract_z
Si Si1 0.464197 0.044020 0.697433
Si Si2 0.943115 0.749720 0.040046
Si Si3 0.141038 0.253820 0.132322
Si Si4 0.438309 0.955029 0.203570
Si Si5 0.699235 0.592047 0.708342
Si Si6 0.187800 0.787763 0.898423
Si Si7 0.189529 0.874418 0.340776
Si Si8 0.610641 0.590255 0.612454
O O1 0.528525 0.048518 0.722883
O O2 0.613312 0.154021 0.406006
O O3 0.451989 0.767061 0.768863
O O4 0.282986 0.173715 0.898677
O O5 0.744601 0.687920 0.336880
O O6 0.911423 0.019169 0.968171
O O7 0.000000 0.500000 0.000000
O O8 0.079087 0.782283 0.941659
O O9 0.155126 0.098330 0.254483
O O10 0.172648 0.525167 0.033161
O O11 0.939839 0.190586 0.388466
O O12 0.425892 0.679826 0.279652
O O13 0.294269 0.158425 0.321788
O O14 0.613691 0.067661 0.899520
O O15 0.716285 0.623636 0.564982
O O16 0.809097 0.362791 0.656078
O O17 0.500000 0.500000 0.000000
#
# Coordination Sequence:
#
# PCOD9082579 Si02
#       8
#     2   2   2   2   2   2   2   2
#     4   9  19  35  55  81 108 140 180 222 265 321
#     4  10  21  36  57  87 112 132 171 228 279 327
#     4  10  19  35  55  75 107 147 183 219 261 314
#     4   9  18  34  57  81 110 142 175 222 275 318
#     4   9  18  33  53  80 109 140 180 224 266 312
#     4  10  20  36  59  81 107 141 176 217 277 329
#     4   9  19  33  52  78 107 143 185 222 259 312
#     4  10  19  33  56  83 110 141 178 220 274 328
#
# _framework density 25.661549000000001
#
# number of rings (size 3 to 8) (size 9 to 14) (size 15 to 20)
#    0.000    2.500    0.000    2.625    0.000    5.000 
#    0.000    3.125    0.000   15.000    0.000    0.000 
#    0.000    0.000    0.000    0.000    0.000    0.000 
#
# Total GULP energy -89230.632866 kJ/mol
# GULP energy per Si atom -5576.914554 kJ/mol
# Density = 2.560314 g / cm^3
# Si number density = 25.661549 Si / 1000 Ang^3
#
#
#
# Elastic Constant Matrix: (Units=GPa)
#
#
# Indices 1 2 3 4 5 6 
#
# 1 17.3907 48.8259 5.2615 -5.0802 -2.5910 4.1312
# 2 48.8259 299.5705 78.5407 7.2210 2.9892 -5.1364
# 3 5.2615 78.5407 146.9621 1.9886 -5.7986 -7.4507
# 4 -5.0802 7.2210 1.9886 42.7266 -1.5965 0.7905
# 5 -2.5910 2.9892 -5.7986 -1.5965 18.6614 -6.4689
# 6 4.1312 -5.1364 -7.4507 0.7905 -6.4689 36.9513
#
#
#
# Elastic Compliance Matrix: (Units=1/GPa)
#
#
# Indices 1 2 3 4 5 6 
#
# 1 0.143405 -0.026781 0.009105 0.022313 0.024019 -0.014192
# 2 -0.026781 0.008930 -0.003853 -0.004781 -0.005877 0.002532
# 3 0.009105 -0.003853 0.008774 0.001496 0.005109 0.001078
# 4 0.022313 -0.004781 0.001496 0.027058 0.005805 -0.002420
# 5 0.024019 -0.005877 0.005109 0.005805 0.062862 0.008409
# 6 -0.014192 0.002532 0.001078 -0.002420 0.008409 0.030743
#
#
# Mechanical properties :
#
#
# Convention : Reuss Voigt Hill
#
# Bulk Modulus (GPa) = 8.47091 81.01992 44.74542
# Shear Modulus (GPa) = 13.72949 41.75421 27.74185
#
# Velocity S-wave (km/s) = 2.31556 4.03812 3.29153
# Velocity P-wave (km/s) = 3.23377 7.30636 5.64979
#
# Compressibility (1/GPa) = 0.11805108
#
# Stress axis : x y z
#
# Youngs Moduli (GPa) = 6.97324 111.97671 113.97956
#
# Poissons Ratio (x) = 2.99884 -1.03774
# Poissons Ratio (y) = 0.18675 0.43913
# Poissons Ratio (z) = -0.06349 0.43141
#
# Static dielectric constant tensor:
#      x y z
#    x 2.302620 0.009860 0.002610 
#    y 0.009860 2.131760 0.116870 
#    z 0.002610 0.116870 2.222950 
# 
# From -- ./inp_files/579521.got.cif
#   From: 2010.05.17/outbox.cif.g08.bks.cpg/sg2_290_cif.got.tgz:579521.got - 2010.06.03 11:33:40.
