data_PCOD9082753
_publ_section_title
;
Structure prediction by ZEFSAII (Michael W. Deem and Ramdas Pophale) SiO2 
 PCOD9082753
Probable space group: P -1
;
_chemical_formula_sum "Si O2"
_cell_formula_units_Z 16
_cell_length_a 12.233648
_cell_length_b 13.892742
_cell_length_c 6.495784
_cell_angle_alpha 128.773007
_cell_angle_beta 80.977352
_cell_angle_gamma 70.202630
_cell_volume 699.979068
_symmetry_space_group_name_H-M "P -1"
_symmetry_group_IT_number 2
_symmetry_cell_setting 'triclinic'
loop_
_space_group_symop_operation_xyz
x,y,z
-x,-y,-z
loop_
_atom_site_type_symbol
_atom_site_label
_atom_site_fract_x
_atom_site_fract_y
_atom_site_fract_z
Si Si1 0.169916 0.739944 0.648529
Si Si2 0.566356 0.308074 0.450943
Si Si3 0.338495 0.348606 0.814709
Si Si4 0.024821 0.976637 0.698333
Si Si5 0.680839 0.790763 0.752365
Si Si6 0.265442 0.999896 0.755946
Si Si7 0.544316 0.164218 0.874977
Si Si8 0.132546 0.497819 0.423897
O O1 0.332417 0.642348 0.469649
O O2 0.097092 0.808458 0.541468
O O3 0.118493 0.652784 0.665499
O O4 0.116433 0.896671 0.989233
O O5 0.415362 0.401193 0.715773
O O6 0.638679 0.152308 0.347570
O O7 0.569716 0.265392 0.152976
O O8 0.323482 0.239520 0.525377
O O9 0.438749 0.264283 0.862185
O O10 0.197074 0.456584 0.118234
O O11 0.126340 0.021649 0.786472
O O12 0.000000 0.000000 0.500000
O O13 0.761116 0.627137 0.615950
O O14 0.747421 0.870638 0.929879
O O15 0.530779 0.882595 0.013840
O O16 0.333056 0.970239 0.470091
O O17 0.000000 0.500000 0.500000
#
# Coordination Sequence:
#
# PCOD9082753 Si02
#       8
#     2   2   2   2   2   2   2   2
#     4  10  22  40  61  89 120 152 199 246 294 358
#     4   9  19  36  60  88 117 151 195 253 305 345
#     4   9  21  39  58  86 118 155 203 246 294 353
#     4  10  21  39  63  90 117 149 193 248 305 354
#     4  10  21  37  56  85 121 156 198 243 290 351
#     4  10  19  33  57  87 119 155 194 240 296 352
#     4   9  18  34  57  87 120 153 193 242 299 352
#     4  11  24  42  60  83 119 161 202 242 292 356
#
# _framework density 22.857827
#
# number of rings (size 3 to 8) (size 9 to 14) (size 15 to 20)
#    0.000    2.250    0.000    1.875    0.000    8.500 
#    0.000   11.875    0.000    0.000    0.000    0.000 
#    0.000    0.000    0.000    0.000    0.000    0.000 
#
# Total GULP energy -89217.577671 kJ/mol
# GULP energy per Si atom -5576.098604 kJ/mol
# Density = 2.280580 g / cm^3
# Si number density = 22.857827 Si / 1000 Ang^3
#
#
#
# Elastic Constant Matrix: (Units=GPa)
#
#
# Indices 1 2 3 4 5 6 
#
# 1 112.0299 26.0019 34.6568 -5.7604 -12.2551 17.8874
# 2 26.0019 71.0698 24.8330 -2.1137 2.9084 14.6188
# 3 34.6568 24.8330 103.2426 -27.7439 -5.0801 -13.5076
# 4 -5.7604 -2.1137 -27.7439 33.2423 -3.1200 6.6266
# 5 -12.2551 2.9084 -5.0801 -3.1200 31.8995 0.5436
# 6 17.8874 14.6188 -13.5076 6.6266 0.5436 17.2511
#
#
#
# Elastic Compliance Matrix: (Units=1/GPa)
#
#
# Indices 1 2 3 4 5 6 
#
# 1 0.015795 0.002400 -0.008670 0.001279 0.005034 -0.025850
# 2 0.002400 0.023204 -0.010810 -0.001389 -0.002540 -0.030003
# 3 -0.008670 -0.010810 0.022129 0.010147 0.001634 0.031528
# 4 0.001279 -0.001389 0.010147 0.040900 0.006373 -0.008116
# 5 0.005034 -0.002540 0.001634 0.006373 0.034488 -0.005323
# 6 -0.025850 -0.030003 0.031528 -0.008116 -0.005323 0.138166
#
#
# Mechanical properties :
#
#
# Convention : Reuss Voigt Hill
#
# Bulk Modulus (GPa) = 37.08257 50.81396 43.94827
# Shear Modulus (GPa) = 15.73156 29.86862 22.80009
#
# Velocity S-wave (km/s) = 2.62627 3.61877 3.16171
# Velocity P-wave (km/s) = 5.04527 6.30392 5.70938
#
# Compressibility (1/GPa) = 0.02696685
#
# Stress axis : x y z
#
# Youngs Moduli (GPa) = 63.31086 43.09592 45.19044
#
# Poissons Ratio (x) = -0.10342 0.39180
# Poissons Ratio (y) = -0.15193 0.48852
# Poissons Ratio (z) = 0.54890 0.46588
#
# Static dielectric constant tensor:
#      x y z
#    x 1.921660 0.029270 -0.046570 
#    y 0.029270 1.902210 0.008150 
#    z -0.046570 0.008150 1.938530 
# 
# From -- ./inp_files/78756.got.cif
#   From: 2010.05.17/outbox.cif.g08.bks.cpg/sg2_40_cif.got.tgz:78756.got - 2010.06.03 11:33:40.
