data_PCOD9082222
_publ_section_title
;
Structure prediction by ZEFSAII (Michael W. Deem and Ramdas Pophale) SiO2 
 PCOD9082222
Probable space group: P -1
;
_chemical_formula_sum "Si O2"
_cell_formula_units_Z 16
_cell_length_a 23.493532
_cell_length_b 7.126841
_cell_length_c 8.162684
_cell_angle_alpha 72.988249
_cell_angle_beta 43.858443
_cell_angle_gamma 46.335446
_cell_volume 624.948588
_symmetry_space_group_name_H-M "P -1"
_symmetry_group_IT_number 2
_symmetry_cell_setting 'triclinic'
loop_
_space_group_symop_operation_xyz
x,y,z
-x,-y,-z
loop_
_atom_site_type_symbol
_atom_site_label
_atom_site_fract_x
_atom_site_fract_y
_atom_site_fract_z
Si Si1 0.321977 0.371351 0.935089
Si Si2 0.871077 0.932571 0.301307
Si Si3 0.885418 0.340581 0.525322
Si Si4 0.214680 0.884848 0.221505
Si Si5 0.517170 0.154983 0.043011
Si Si6 0.291588 0.470052 0.605593
Si Si7 0.943561 0.620593 0.769814
Si Si8 0.724420 0.866750 0.481160
O O1 0.334894 0.418561 0.713267
O O2 0.410709 0.053209 0.896745
O O3 0.186674 0.521789 0.189796
O O4 0.318241 0.563120 0.020999
O O5 0.793659 0.013630 0.606181
O O6 0.836211 0.210501 0.247664
O O7 0.003684 0.641317 0.156438
O O8 0.816019 0.887663 0.286654
O O9 0.892381 0.096304 0.547129
O O10 0.998079 0.282384 0.299999
O O11 0.790141 0.593213 0.531516
O O12 0.188257 0.090032 0.084896
O O13 0.385781 0.425056 0.308857
O O14 0.500000 0.000000 0.000000
O O15 0.602634 0.138995 0.757004
O O16 0.297721 0.229900 0.605863
O O17 0.000000 0.500000 0.500000
#
# Coordination Sequence:
#
# PCOD9082222 Si02
#       8
#     2   2   2   2   2   2   2   2
#     4   9  19  31  53  79 102 138 165 204 264 309
#     4  10  19  33  53  77 102 134 175 214 253 298
#     4   8  15  31  52  74  97 131 174 206 255 292
#     4   9  16  32  54  76  98 132 176 214 252 297
#     4   9  17  33  56  77  98 132 177 213 248 300
#     4  11  19  34  52  73 110 137 165 207 261 313
#     4   9  17  28  52  81 101 127 176 224 245 289
#     4   9  18  33  53  76  99 136 176 215 248 295
#
# _framework density 25.602105999999999
#
# number of rings (size 3 to 8) (size 9 to 14) (size 15 to 20)
#    0.750    2.000    1.250    1.500    0.000    0.500 
#    0.000    5.625    0.000   15.000    0.000    0.000 
#    0.000    0.000    0.000    0.000    0.000    0.000 
#
# Total GULP energy -89174.676095 kJ/mol
# GULP energy per Si atom -5573.417256 kJ/mol
# Density = 2.554383 g / cm^3
# Si number density = 25.602106 Si / 1000 Ang^3
#
#
#
# Elastic Constant Matrix: (Units=GPa)
#
#
# Indices 1 2 3 4 5 6 
#
# 1 72.0049 10.8136 20.1996 -0.9031 7.1972 13.7455
# 2 10.8136 85.3761 14.6958 4.4819 -4.5496 -0.9339
# 3 20.1996 14.6958 75.3451 0.2848 2.1622 6.0654
# 4 -0.9031 4.4819 0.2848 18.5050 -1.9121 2.2304
# 5 7.1972 -4.5496 2.1622 -1.9121 33.9245 -3.0657
# 6 13.7455 -0.9339 6.0654 2.2304 -3.0657 37.8436
#
#
#
# Elastic Compliance Matrix: (Units=1/GPa)
#
#
# Indices 1 2 3 4 5 6 
#
# 1 0.016723 -0.001876 -0.003527 0.001630 -0.004023 -0.005977
# 2 -0.001876 0.012618 -0.002146 -0.003091 0.002206 0.001698
# 3 -0.003527 -0.002146 0.014748 0.000205 -0.000576 -0.001195
# 4 0.001630 -0.003091 0.000205 0.055532 0.002012 -0.003811
# 5 -0.004023 0.002206 -0.000576 0.002012 0.031139 0.004012
# 6 -0.005977 0.001698 -0.001195 -0.003811 0.004012 0.029378
#
#
# Mechanical properties :
#
#
# Convention : Reuss Voigt Hill
#
# Bulk Modulus (GPa) = 34.49435 36.01599 35.25517
# Shear Modulus (GPa) = 27.04142 30.52243 28.78193
#
# Velocity S-wave (km/s) = 3.25348 3.45655 3.35655
# Velocity P-wave (km/s) = 5.25509 5.47982 5.36863
#
# Compressibility (1/GPa) = 0.02899025
#
# Stress axis : x y z
#
# Youngs Moduli (GPa) = 59.79925 79.24920 67.80408
#
# Poissons Ratio (x) = 0.14869 0.23913
# Poissons Ratio (y) = 0.11220 0.14554
# Poissons Ratio (z) = 0.21090 0.17011
#
# Static dielectric constant tensor:
#      x y z
#    x 2.052690 -0.015350 -0.000280 
#    y -0.015350 1.995190 0.053950 
#    z -0.000280 0.053950 2.125580 
# 
# From -- ./inp_files/356228.got.cif
#   From: 2010.05.17/outbox.cif.g08.bks.cpg/sg2_179_cif.got.tgz:356228.got - 2010.06.03 11:33:40.
