data_PCOD9082214
_publ_section_title
;
Structure prediction by ZEFSAII (Michael W. Deem and Ramdas Pophale) SiO2 
 PCOD9082214
Probable space group: P -1
;
_chemical_formula_sum "Si O2"
_cell_formula_units_Z 16
_cell_length_a 24.263534
_cell_length_b 5.522570
_cell_length_c 4.986441
_cell_angle_alpha 85.808003
_cell_angle_beta 68.510856
_cell_angle_gamma 87.313480
_cell_volume 619.913397
_symmetry_space_group_name_H-M "P -1"
_symmetry_group_IT_number 2
_symmetry_cell_setting 'triclinic'
loop_
_space_group_symop_operation_xyz
x,y,z
-x,-y,-z
loop_
_atom_site_type_symbol
_atom_site_label
_atom_site_fract_x
_atom_site_fract_y
_atom_site_fract_z
Si Si1 0.500939 0.233366 0.163672
Si Si2 0.752309 0.337665 0.692680
Si Si3 0.375607 0.333601 0.595074
Si Si4 0.002401 0.818162 0.760740
Si Si5 0.879387 0.119768 0.599290
Si Si6 0.626301 0.345664 0.938850
Si Si7 0.753329 0.646101 0.172079
Si Si8 0.118309 0.180925 0.887164
O O1 0.440799 0.221149 0.440893
O O2 0.500000 0.500000 0.000000
O O3 0.567603 0.222397 0.159349
O O4 0.500000 0.000000 0.000000
O O5 0.812903 0.203432 0.658289
O O6 0.689803 0.216053 0.879039
O O7 0.750115 0.403750 0.379206
O O8 0.754881 0.574705 0.862690
O O9 0.377421 0.567563 0.369943
O O10 0.310592 0.223141 0.660340
O O11 0.372379 0.412712 0.902360
O O12 0.068292 0.706805 0.610578
O O13 0.941309 0.675520 0.913394
O O14 0.000000 0.000000 0.500000
O O15 0.000000 0.000000 0.000000
O O16 0.885423 0.882283 0.414294
O O17 0.885929 0.064026 0.905133
O O18 0.816504 0.739532 0.149507
#
# Coordination Sequence:
#
# PCOD9082214 Si02
#       8
#     2   2   2   2   2   2   2   2
#     4  10  21  40  64  92 124 162 206 254 306 364
#     4  10  20  35  54  79 112 144 178 231 291 346
#     4   9  19  37  58  81 115 155 194 238 297 360
#     4   8  16  30  48  70 100 138 180 228 278 334
#     4  10  19  33  53  76 103 141 188 231 278 343
#     4   9  19  37  58  81 115 155 194 238 297 360
#     4  10  20  35  54  79 112 144 178 231 291 346
#     4  10  19  33  53  76 103 141 188 231 278 343
#
# _framework density 25.810057
#
# number of rings (size 3 to 8) (size 9 to 14) (size 15 to 20)
#    0.000    2.500    0.000    1.875    0.000    1.000 
#    0.000   16.250    0.000    0.000    0.000    0.000 
#    0.000    0.000    0.000    0.000    0.000    0.000 
#
# Total GULP energy -89154.330992 kJ/mol
# GULP energy per Si atom -5572.145687 kJ/mol
# Density = 2.575131 g / cm^3
# Si number density = 25.810057 Si / 1000 Ang^3
#
#
#
# Elastic Constant Matrix: (Units=GPa)
#
#
# Indices 1 2 3 4 5 6 
#
# 1 185.3629 18.6063 45.9426 -11.9422 -74.3448 35.7922
# 2 18.6063 54.3318 23.1556 -10.6904 -9.8742 5.1751
# 3 45.9426 23.1556 101.7174 -5.9963 -24.0523 1.2048
# 4 -11.9422 -10.6904 -5.9963 34.6757 2.8974 9.4437
# 5 -74.3448 -9.8742 -24.0523 2.8974 92.3797 -8.1699
# 6 35.7922 5.1751 1.2048 9.4437 -8.1699 27.8201
#
#
#
# Elastic Compliance Matrix: (Units=1/GPa)
#
#
# Indices 1 2 3 4 5 6 
#
# 1 0.013546 0.001998 -0.003892 0.008889 0.008210 -0.018237
# 2 0.001998 0.022882 -0.005072 0.009255 0.001623 -0.009272
# 3 -0.003892 -0.005072 0.012579 -0.002468 0.000237 0.006313
# 4 0.008889 0.009255 -0.002468 0.041031 0.003929 -0.025825
# 5 0.008210 0.001623 0.000237 0.003929 0.016903 -0.007244
# 6 -0.018237 -0.009272 0.006313 -0.025825 -0.007244 0.067498
#
#
# Mechanical properties :
#
#
# Convention : Reuss Voigt Hill
#
# Bulk Modulus (GPa) = 28.51040 57.42456 42.96748
# Shear Modulus (GPa) = 24.99204 47.88895 36.44049
#
# Velocity S-wave (km/s) = 3.11514 4.31215 3.76156
# Velocity P-wave (km/s) = 4.89990 6.86222 5.96234
#
# Compressibility (1/GPa) = 0.03507491
#
# Stress axis : x y z
#
# Youngs Moduli (GPa) = 73.82417 43.70232 79.49551
#
# Poissons Ratio (x) = -0.08731 0.30937
# Poissons Ratio (y) = -0.14749 0.40322
# Poissons Ratio (z) = 0.28730 0.22167
#
# Static dielectric constant tensor:
#      x y z
#    x 2.188930 -0.001740 -0.089650 
#    y -0.001740 2.073100 -0.068060 
#    z -0.089650 -0.068060 1.993630 
# 
# From -- ./inp_files/13296.got.cif
#   From: 2010.05.17/outbox.cif.g08.bks.cpg/sg2_7_cif.got.tgz:13296.got - 2010.06.03 11:33:40.
