data_PCOD9082189
_publ_section_title
;
Structure prediction by ZEFSAII (Michael W. Deem and Ramdas Pophale) SiO2 
 PCOD9082189
Probable space group: P -1
;
_chemical_formula_sum "Si O2"
_cell_formula_units_Z 16
_cell_length_a 9.713626
_cell_length_b 7.798167
_cell_length_c 14.190334
_cell_angle_alpha 119.432513
_cell_angle_beta 101.526907
_cell_angle_gamma 119.698795
_cell_volume 658.969948
_symmetry_space_group_name_H-M "P -1"
_symmetry_group_IT_number 2
_symmetry_cell_setting 'triclinic'
loop_
_space_group_symop_operation_xyz
x,y,z
-x,-y,-z
loop_
_atom_site_type_symbol
_atom_site_label
_atom_site_fract_x
_atom_site_fract_y
_atom_site_fract_z
Si Si1 0.678632 0.352750 0.390288
Si Si2 0.939204 0.411537 0.313680
Si Si3 0.929154 0.102229 0.897724
Si Si4 0.516030 0.990270 0.110588
Si Si5 0.040303 0.543207 0.162518
Si Si6 0.367283 0.486772 0.050567
Si Si7 0.476178 0.800610 0.321203
Si Si8 0.694590 0.529119 0.621305
O O1 0.892431 0.520861 0.420013
O O2 0.539311 0.204151 0.238769
O O3 0.651952 0.508521 0.498460
O O4 0.616422 0.104209 0.379969
O O5 0.728643 0.099913 0.191725
O O6 0.962091 0.539216 0.250769
O O7 0.115740 0.432675 0.350602
O O8 0.143882 0.209955 0.963418
O O9 0.938753 0.261820 0.855022
O O10 0.915256 0.236037 0.021571
O O11 0.773022 0.786301 0.763058
O O12 0.500000 0.000000 0.000000
O O13 0.358496 0.694994 0.056269
O O14 0.256717 0.669261 0.242835
O O15 0.500000 0.500000 0.000000
O O16 0.479819 0.622080 0.201221
O O17 0.479655 0.740891 0.414486
#
# Coordination Sequence:
#
# PCOD9082189 Si02
#       8
#     2   2   2   2   2   2   2   2
#     4   9  20  36  58  85 116 148 187 234 286 340
#     4   9  19  33  61  83 109 148 191 233 283 333
#     4  10  21  33  58  81 117 152 188 234 284 332
#     4   9  18  32  55  78 107 143 186 224 279 325
#     4   9  19  38  55  80 113 153 193 229 281 339
#     4  10  19  33  52  84 115 137 187 242 282 318
#     4   9  20  36  57  80 111 155 186 232 283 333
#     4  11  20  36  57  86 116 150 192 228 282 349
#
# _framework density 24.280318999999999
#
# number of rings (size 3 to 8) (size 9 to 14) (size 15 to 20)
#    0.750    1.750    0.000    2.250    0.000    6.500 
#    0.000    1.250    0.000    0.000    0.000    0.000 
#    0.000    0.000    0.000    0.000    0.000    0.000 
#
# Total GULP energy -89245.442477 kJ/mol
# GULP energy per Si atom -5577.840155 kJ/mol
# Density = 2.422506 g / cm^3
# Si number density = 24.280319 Si / 1000 Ang^3
#
#
#
# Elastic Constant Matrix: (Units=GPa)
#
#
# Indices 1 2 3 4 5 6 
#
# 1 81.6545 6.3745 21.7400 -10.5592 -26.3499 17.9398
# 2 6.3745 93.1831 32.5429 -25.2911 -18.9941 20.8401
# 3 21.7400 32.5429 108.1208 -18.5855 -13.6402 7.2650
# 4 -10.5592 -25.2911 -18.5855 44.7774 13.4954 -8.7874
# 5 -26.3499 -18.9941 -13.6402 13.4954 26.3764 -11.0438
# 6 17.9398 20.8401 7.2650 -8.7874 -11.0438 30.2182
#
#
#
# Elastic Compliance Matrix: (Units=1/GPa)
#
#
# Indices 1 2 3 4 5 6 
#
# 1 0.020753 0.005229 -0.002830 -0.000997 0.020118 -0.008184
# 2 0.005229 0.016800 -0.003520 0.004673 0.009307 -0.009084
# 3 -0.002830 -0.003520 0.011152 0.002367 0.000094 0.002149
# 4 -0.000997 0.004673 0.002367 0.029241 -0.010799 0.001356
# 5 0.020118 0.009307 0.000094 -0.010799 0.072344 0.004914
# 6 -0.008184 -0.009084 0.002149 0.001356 0.004914 0.045890
#
#
# Mechanical properties :
#
#
# Convention : Reuss Voigt Hill
#
# Bulk Modulus (GPa) = 21.52251 44.91926 33.22089
# Shear Modulus (GPa) = 23.37435 35.09446 29.23441
#
# Velocity S-wave (km/s) = 3.10609 3.80595 3.47369
# Velocity P-wave (km/s) = 4.66338 6.15257 5.45899
#
# Compressibility (1/GPa) = 0.04646298
#
# Stress axis : x y z
#
# Youngs Moduli (GPa) = 48.18543 59.52220 89.67212
#
# Poissons Ratio (x) = -0.31126 0.25379
# Poissons Ratio (y) = -0.25198 0.31567
# Poissons Ratio (z) = 0.13638 0.20953
#
# Static dielectric constant tensor:
#      x y z
#    x 2.023990 -0.018040 0.008700 
#    y -0.018040 1.954340 -0.038180 
#    z 0.008700 -0.038180 2.072300 
# 
# From -- ./inp_files/284430.got.cif
#   From: 2010.05.17/outbox.cif.g08.bks.cpg/sg2_143_cif.got.tgz:284430.got - 2010.06.03 11:33:40.
