data_PCOD9082452
_publ_section_title
;
Structure prediction by ZEFSAII (Michael W. Deem and Ramdas Pophale) SiO2 
 PCOD9082452
Probable space group: P -1
;
_chemical_formula_sum "Si O2"
_cell_formula_units_Z 16
_cell_length_a 9.227238
_cell_length_b 22.341523
_cell_length_c 12.473898
_cell_angle_alpha 141.731846
_cell_angle_beta 143.998093
_cell_angle_gamma 37.019695
_cell_volume 836.750879
_symmetry_space_group_name_H-M "P -1"
_symmetry_group_IT_number 2
_symmetry_cell_setting 'triclinic'
loop_
_space_group_symop_operation_xyz
x,y,z
-x,-y,-z
loop_
_atom_site_type_symbol
_atom_site_label
_atom_site_fract_x
_atom_site_fract_y
_atom_site_fract_z
Si Si1 0.486550 0.163496 0.223286
Si Si2 0.802096 0.939775 0.195604
Si Si3 0.356780 0.626997 0.956035
Si Si4 0.303635 0.241074 0.637235
Si Si5 0.691127 0.021436 0.464675
Si Si6 0.057931 0.779222 0.426600
Si Si7 0.171437 0.321922 0.435394
Si Si8 0.354596 0.611121 0.184170
O O1 0.658044 0.222220 0.362456
O O2 0.380460 0.213065 0.345849
O O3 0.690472 0.036527 0.178519
O O4 0.232894 0.162720 0.007247
O O5 0.112126 0.921991 0.371472
O O6 0.622429 0.986032 0.259694
O O7 0.603812 0.506092 0.918551
O O8 0.111356 0.641580 0.748216
O O9 0.474185 0.714941 0.137938
O O10 0.280597 0.627549 0.037278
O O11 0.455860 0.112567 0.521334
O O12 0.159359 0.298078 0.519675
O O13 0.090662 0.261365 0.633671
O O14 0.860018 0.905262 0.458562
O O15 0.147060 0.706966 0.270580
O O16 0.339681 0.393042 0.628576
#
# Coordination Sequence:
#
# PCOD9082452 Si02
#       8
#     2   2   2   2   2   2   2   2
#     4   9  17  32  51  80 105 140 188 230 269 320
#     4   9  17  29  55  79 101 142 192 231 268 313
#     4  10  21  38  64  84 107 143 189 236 281 324
#     4  11  22  38  53  84 120 151 182 220 279 340
#     4  10  19  33  55  80 113 148 182 229 275 323
#     4  10  22  37  54  77 121 153 178 226 276 333
#     4  10  19  35  60  82 112 141 183 237 277 325
#     4   9  21  40  60  87 107 139 191 239 276 322
#
# _framework density 19.121580999999999
#
# number of rings (size 3 to 8) (size 9 to 14) (size 15 to 20)
#    0.000    2.250    1.250    1.500    7.000    0.500 
#    2.250    1.250    0.000    0.000    0.000    0.000 
#    0.000    0.000    0.000    0.000    0.000    0.000 
#
# Total GULP energy -89100.320791 kJ/mol
# GULP energy per Si atom -5568.770049 kJ/mol
# Density = 1.907806 g / cm^3
# Si number density = 19.121581 Si / 1000 Ang^3
#
#
#
# Elastic Constant Matrix: (Units=GPa)
#
#
# Indices 1 2 3 4 5 6 
#
# 1 96.6013 21.0654 24.0150 -0.2162 -3.2797 5.8971
# 2 21.0654 65.9541 22.9136 0.4318 -1.6824 2.2823
# 3 24.0150 22.9136 85.7470 -5.7956 -13.4226 7.3444
# 4 -0.2162 0.4318 -5.7956 30.1068 -1.4489 -1.0612
# 5 -3.2797 -1.6824 -13.4226 -1.4489 13.1504 2.5529
# 6 5.8971 2.2823 7.3444 -1.0612 2.5529 11.2783
#
#
#
# Elastic Compliance Matrix: (Units=1/GPa)
#
#
# Indices 1 2 3 4 5 6 
#
# 1 0.011797 -0.002899 -0.001916 -0.000336 0.001492 -0.004704
# 2 -0.002899 0.017577 -0.004714 -0.001300 -0.003771 0.001760
# 3 -0.001916 -0.004714 0.018184 0.004050 0.020680 -0.014186
# 4 -0.000336 -0.001300 0.004050 0.034361 0.007811 -0.000733
# 5 0.001492 -0.003771 0.020680 0.007811 0.104990 -0.036514
# 6 -0.004704 0.001760 -0.014186 -0.000733 -0.036514 0.108203
#
#
# Mechanical properties :
#
#
# Convention : Reuss Voigt Hill
#
# Bulk Modulus (GPa) = 35.08624 42.69896 38.89260
# Shear Modulus (GPa) = 15.44779 22.92767 19.18773
#
# Velocity S-wave (km/s) = 2.84539 3.46648 3.17118
# Velocity P-wave (km/s) = 5.40221 6.19683 5.81311
#
# Compressibility (1/GPa) = 0.02850120
#
# Stress axis : x y z
#
# Youngs Moduli (GPa) = 84.76475 56.89179 54.99240
#
# Poissons Ratio (x) = 0.16496 0.10534
# Poissons Ratio (y) = 0.24578 0.25923
# Poissons Ratio (z) = 0.16237 0.26818
#
# Static dielectric constant tensor:
#      x y z
#    x 1.644120 -0.022240 0.006270 
#    y -0.022240 1.731290 -0.014220 
#    z 0.006270 -0.014220 1.727630 
# 
# From -- ./inp_files/308776.got.cif
#   From: 2010.05.17/outbox.cif.g08.bks.cpg/sg2_155_cif.got.tgz:308776.got - 2010.06.03 11:33:40.
