data_PCOD9082729
_publ_section_title
;
Structure prediction by ZEFSAII (Michael W. Deem and Ramdas Pophale) SiO2 
 PCOD9082729
Probable space group: P -1
;
_chemical_formula_sum "Si O2"
_cell_formula_units_Z 16
_cell_length_a 7.013234
_cell_length_b 16.019029
_cell_length_c 9.043110
_cell_angle_alpha 91.322673
_cell_angle_beta 78.615390
_cell_angle_gamma 131.187327
_cell_volume 741.609565
_symmetry_space_group_name_H-M "P -1"
_symmetry_group_IT_number 2
_symmetry_cell_setting 'triclinic'
loop_
_space_group_symop_operation_xyz
x,y,z
-x,-y,-z
loop_
_atom_site_type_symbol
_atom_site_label
_atom_site_fract_x
_atom_site_fract_y
_atom_site_fract_z
Si Si1 0.621327 0.621732 0.052830
Si Si2 0.254815 0.846305 0.430928
Si Si3 0.918426 0.318023 0.820927
Si Si4 0.719068 0.954340 0.590944
Si Si5 0.883190 0.704993 0.741629
Si Si6 0.240192 0.564292 0.650319
Si Si7 0.636263 0.251938 0.163260
Si Si8 0.716993 0.490534 0.650697
O O1 0.399646 0.591151 0.194490
O O2 0.858793 0.671328 0.128764
O O3 0.500000 0.500000 0.000000
O O4 0.730473 0.703740 0.900580
O O5 0.184176 0.761067 0.309538
O O6 0.511093 0.889217 0.483733
O O7 0.030015 0.791080 0.589122
O O8 0.284522 0.948060 0.367483
O O9 0.077481 0.444660 0.747827
O O10 0.703568 0.273669 0.980035
O O11 0.606799 0.870545 0.743841
O O12 0.000000 0.000000 0.500000
O O13 0.109471 0.720367 0.799400
O O14 0.694026 0.581894 0.690440
O O15 0.375805 0.661636 0.751882
O O16 0.398069 0.573314 0.487690
O O17 0.026173 0.563711 0.605340
#
# Coordination Sequence:
#
# PCOD9082729 Si02
#       8
#     2   2   2   2   2   2   2   2
#     4   9  19  34  52  81 128 158 193 240 292 364
#     4  10  21  41  69  88 118 163 208 257 304 367
#     4  11  21  37  60  92 120 159 204 244 306 374
#     4  10  23  45  65  88 119 158 211 261 314 358
#     4   8  15  35  55  79 115 158 198 235 306 357
#     4  10  19  33  57  85 126 159 193 238 308 371
#     4   9  20  36  59  84 121 165 193 247 314 361
#     4   9  17  31  51  82 119 160 191 241 287 358
#
# _framework density 21.574693
#
# number of rings (size 3 to 8) (size 9 to 14) (size 15 to 20)
#    0.000    2.500    1.250    1.125    1.750    2.000 
#    6.750    0.625    0.000    0.000    0.000    0.000 
#    0.000    0.000    0.000    0.000    0.000    0.000 
#
# Total GULP energy -89237.826441 kJ/mol
# GULP energy per Si atom -5577.364153 kJ/mol
# Density = 2.152559 g / cm^3
# Si number density = 21.574693 Si / 1000 Ang^3
#
#
#
# Elastic Constant Matrix: (Units=GPa)
#
#
# Indices 1 2 3 4 5 6 
#
# 1 49.6695 9.9319 20.3559 -0.0206 7.1592 13.2204
# 2 9.9319 100.1670 66.8908 -17.8056 5.1630 -12.2196
# 3 20.3559 66.8908 177.9220 -19.2025 -8.9980 -7.2252
# 4 -0.0206 -17.8056 -19.2025 21.0780 7.9057 2.1936
# 5 7.1592 5.1630 -8.9980 7.9057 29.1727 -3.6958
# 6 13.2204 -12.2196 -7.2252 2.1936 -3.6958 29.0536
#
#
#
# Elastic Compliance Matrix: (Units=1/GPa)
#
#
# Indices 1 2 3 4 5 6 
#
# 1 0.027376 -0.001577 -0.003578 0.000647 -0.009655 -0.015287
# 2 -0.001577 0.016297 -0.004867 0.011266 -0.006457 0.004690
# 3 -0.003578 -0.004867 0.008337 0.001729 0.004102 0.002046
# 4 0.000647 0.011266 0.001729 0.066283 -0.019919 -0.002664
# 5 -0.009655 -0.006457 0.004102 -0.019919 0.045723 0.010018
# 6 -0.015287 0.004690 0.002046 -0.002664 0.010018 0.045332
#
#
# Mechanical properties :
#
#
# Convention : Reuss Voigt Hill
#
# Bulk Modulus (GPa) = 31.28430 58.01286 44.64858
# Shear Modulus (GPa) = 20.82920 31.23287 26.03104
#
# Velocity S-wave (km/s) = 3.11053 3.80894 3.47732
# Velocity P-wave (km/s) = 5.23760 6.80380 6.07142
#
# Compressibility (1/GPa) = 0.03196492
#
# Stress axis : x y z
#
# Youngs Moduli (GPa) = 36.52868 61.36004 119.95212
#
# Poissons Ratio (x) = 0.09677 0.42924
# Poissons Ratio (y) = 0.05761 0.58379
# Poissons Ratio (z) = 0.13071 0.29863
#
# Static dielectric constant tensor:
#      x y z
#    x 1.899540 0.000110 -0.035840 
#    y 0.000110 1.776070 -0.020970 
#    z -0.035840 -0.020970 1.816280 
# 
# From -- ./inp_files/217865.got.cif
#   From: 2010.05.17/outbox.cif.g08.bks.cpg/sg2_109_cif.got.tgz:217865.got - 2010.06.03 11:33:40.
