data_PCOD9082650
_publ_section_title
;
Structure prediction by ZEFSAII (Michael W. Deem and Ramdas Pophale) SiO2 
 PCOD9082650
Probable space group: P -1
;
_chemical_formula_sum "Si O2"
_cell_formula_units_Z 14
_cell_length_a 5.492519
_cell_length_b 14.494097
_cell_length_c 11.249469
_cell_angle_alpha 128.510105
_cell_angle_beta 53.086642
_cell_angle_gamma 109.794026
_cell_volume 559.406326
_symmetry_space_group_name_H-M "P -1"
_symmetry_group_IT_number 2
_symmetry_cell_setting 'triclinic'
loop_
_space_group_symop_operation_xyz
x,y,z
-x,-y,-z
loop_
_atom_site_type_symbol
_atom_site_label
_atom_site_fract_x
_atom_site_fract_y
_atom_site_fract_z
Si Si1 0.257074 0.574502 0.546166
Si Si2 0.365624 0.346708 0.718575
Si Si3 0.252287 0.962104 0.789317
Si Si4 0.678472 0.886396 0.795192
Si Si5 0.667932 0.811606 0.191079
Si Si6 0.661272 0.404506 0.995998
Si Si7 0.721987 0.291395 0.131267
O O1 0.500000 0.500000 0.500000
O O2 0.433122 0.640239 0.445121
O O3 0.131398 0.666589 0.755707
O O4 0.000000 0.500000 0.500000
O O5 0.407862 0.224682 0.681101
O O6 0.446246 0.457349 0.870486
O O7 0.004541 0.375379 0.824147
O O8 0.407082 0.068779 0.761744
O O9 0.523351 0.886352 0.712255
O O10 0.033969 0.900624 0.711825
O O11 0.000000 0.000000 0.000000
O O12 0.585393 0.769741 0.796790
O O13 0.500000 0.000000 0.000000
O O14 0.537988 0.701708 0.070480
O O15 0.035824 0.803871 0.071099
O O16 0.684788 0.390340 0.122049
#
# Coordination Sequence:
#
# PCOD9082650 Si02
#       7
#     2   2   2   2   2   2   2
#     4  12  27  45  63  88 129 171 209 248 303 376
#     4  10  23  38  57  88 126 161 208 254 307 367
#     4  10  19  33  56  88 125 147 197 257 308 353
#     4  10  19  34  56  92 122 148 201 260 307 350
#     4  11  21  34  63  92 121 163 203 260 316 361
#     4  10  20  37  60  89 122 157 212 252 313 363
#     4  11  22  36  65  92 121 167 206 256 312 365
#
# _framework density 25.026534000000002
#
# number of rings (size 3 to 8) (size 9 to 14) (size 15 to 20)
#    0.000    1.429    4.286    3.000    4.000    0.000 
#    0.000    0.000    0.000    1.714    0.000    0.000 
#    0.000    0.000    0.000    0.000    0.000    0.000 
#
# Total GULP energy -78249.199089 kJ/mol
# GULP energy per Si atom -5589.228506 kJ/mol
# Density = 2.496957 g / cm^3
# Si number density = 25.026534 Si / 1000 Ang^3
#
#
#
# Elastic Constant Matrix: (Units=GPa)
#
#
# Indices 1 2 3 4 5 6 
#
# 1 125.3765 51.9689 28.4576 -17.5549 5.1551 16.1083
# 2 51.9689 175.2968 41.5347 -42.2165 1.0437 4.2496
# 3 28.4576 41.5347 81.6795 -34.2101 2.2781 -0.4619
# 4 -17.5549 -42.2165 -34.2101 41.9303 -4.1058 8.3631
# 5 5.1551 1.0437 2.2781 -4.1058 20.5731 0.6915
# 6 16.1083 4.2496 -0.4619 8.3631 0.6915 44.2064
#
#
#
# Elastic Compliance Matrix: (Units=1/GPa)
#
#
# Indices 1 2 3 4 5 6 
#
# 1 0.009991 -0.002176 -0.001951 0.000935 -0.001869 -0.003599
# 2 -0.002176 0.008291 -0.000312 0.007648 0.001735 -0.001481
# 3 -0.001951 -0.000312 0.019414 0.015244 0.001463 -0.001963
# 4 0.000935 0.007648 0.015244 0.047087 0.007421 -0.009941
# 5 -0.001869 0.001735 0.001463 0.007421 0.050363 -0.001662
# 6 -0.003599 -0.001481 -0.001963 -0.009941 -0.001662 0.025961
#
#
# Mechanical properties :
#
#
# Convention : Reuss Voigt Hill
#
# Bulk Modulus (GPa) = 34.69995 69.58614 52.14305
# Shear Modulus (GPa) = 27.84128 38.70139 33.27133
#
# Velocity S-wave (km/s) = 3.33899 3.93671 3.65011
# Velocity P-wave (km/s) = 5.36288 6.96627 6.21649
#
# Compressibility (1/GPa) = 0.02881848
#
# Stress axis : x y z
#
# Youngs Moduli (GPa) = 100.08955 120.61414 51.51003
#
# Poissons Ratio (x) = 0.26247 0.10049
# Poissons Ratio (y) = 0.21781 0.01605
# Poissons Ratio (z) = 0.19527 0.03757
#
# Static dielectric constant tensor:
#      x y z
#    x 2.160350 -0.129490 0.111630 
#    y -0.129490 2.087130 0.012750 
#    z 0.111630 0.012750 2.140490 
# 
# From -- ./inp_files/34681.got.cif
#   From: 2010.05.17/outbox.cif.g08.bks.cpg/sg2_18_cif.got.tgz:34681.got - 2010.06.03 11:33:40.
