data_PCOD9082166
_publ_section_title
;
Structure prediction by ZEFSAII (Michael W. Deem and Ramdas Pophale) SiO2 
 PCOD9082166
Probable space group: P -1
;
_chemical_formula_sum "Si O2"
_cell_formula_units_Z 14
_cell_length_a 11.773564
_cell_length_b 5.056946
_cell_length_c 14.279146
_cell_angle_alpha 92.775769
_cell_angle_beta 74.542044
_cell_angle_gamma 61.979347
_cell_volume 708.127145
_symmetry_space_group_name_H-M "P -1"
_symmetry_group_IT_number 2
_symmetry_cell_setting 'triclinic'
loop_
_space_group_symop_operation_xyz
x,y,z
-x,-y,-z
loop_
_atom_site_type_symbol
_atom_site_label
_atom_site_fract_x
_atom_site_fract_y
_atom_site_fract_z
Si Si1 0.064351 0.691684 0.274705
Si Si2 0.865490 0.825496 0.050883
Si Si3 0.249800 0.546074 0.828855
Si Si4 0.129273 0.591689 0.665490
Si Si5 0.470231 0.326228 0.920881
Si Si6 0.901219 0.362217 0.530332
Si Si7 0.274093 0.193719 0.088650
O O1 0.150543 0.573301 0.350811
O O2 0.162375 0.505182 0.165312
O O3 0.761663 0.460513 0.280102
O O4 0.942691 0.610965 0.304548
O O5 0.779646 0.717442 0.132172
O O6 0.864064 0.112920 0.104914
O O7 0.800773 0.933212 0.963543
O O8 0.000000 0.500000 0.000000
O O9 0.387626 0.492969 0.848475
O O10 0.183087 0.547397 0.545948
O O11 0.000000 0.000000 0.500000
O O12 0.006737 0.943605 0.708824
O O13 0.619963 0.040933 0.863705
O O14 0.500000 0.500000 0.000000
O O15 0.369831 0.238767 0.995113
O O16 0.000000 0.500000 0.500000
#
# Coordination Sequence:
#
# PCOD9082166 Si02
#       7
#     2   2   2   2   2   2   2
#     4  10  20  33  54  79 102 130 162 202 254 302
#     4  11  21  32  48  74 101 126 159 206 251 295
#     4  11  21  33  50  70  98 134 166 198 247 295
#     4  10  19  33  52  80 105 127 159 203 255 304
#     4  10  21  37  49  66  99 140 178 206 239 283
#     4   8  16  31  50  74 104 128 154 195 249 307
#     4  10  21  34  51  71  99 134 174 208 240 293
#
# _framework density 19.770461000000001
#
# number of rings (size 3 to 8) (size 9 to 14) (size 15 to 20)
#    0.000    2.000    1.429    3.000    2.000    1.143 
#    0.000    0.000    0.000    0.857    0.000    1.000 
#    0.000    0.000    0.000    0.000    0.000    0.000 
#
# Total GULP energy -77972.306846 kJ/mol
# GULP energy per Si atom -5569.450489 kJ/mol
# Density = 1.972546 g / cm^3
# Si number density = 19.770461 Si / 1000 Ang^3
#
#
#
# Elastic Constant Matrix: (Units=GPa)
#
#
# Indices 1 2 3 4 5 6 
#
# 1 39.5404 8.4850 23.5096 -10.0073 27.0215 -5.4014
# 2 8.4850 55.2864 1.3790 -6.5380 5.2903 12.4433
# 3 23.5096 1.3790 102.0661 -12.3869 46.3819 -12.7082
# 4 -10.0073 -6.5380 -12.3869 24.8396 -6.6242 11.3849
# 5 27.0215 5.2903 46.3819 -6.6242 36.2046 -9.4979
# 6 -5.4014 12.4433 -12.7082 11.3849 -9.4979 33.6775
#
#
#
# Elastic Compliance Matrix: (Units=1/GPa)
#
#
# Indices 1 2 3 4 5 6 
#
# 1 0.070078 0.001443 0.020427 0.023343 -0.077377 -0.011299
# 2 0.001443 0.023541 0.004309 0.012401 -0.011514 -0.014280
# 3 0.020427 0.004309 0.030429 0.013086 -0.054179 -0.006537
# 4 0.023343 0.012401 0.013086 0.063040 -0.031295 -0.026037
# 5 -0.077377 -0.011514 -0.054179 -0.031295 0.157676 0.026447
# 6 -0.011299 -0.014280 -0.006537 -0.026037 0.026447 0.046951
#
#
# Mechanical properties :
#
#
# Convention : Reuss Voigt Hill
#
# Bulk Modulus (GPa) = 5.66870 29.29334 17.48102
# Shear Modulus (GPa) = 12.55780 29.84564 21.20172
#
# Velocity S-wave (km/s) = 2.52301 3.88958 3.27830
# Velocity P-wave (km/s) = 3.37060 5.91783 4.81568
#
# Compressibility (1/GPa) = 0.17640716
#
# Stress axis : x y z
#
# Youngs Moduli (GPa) = 14.26973 42.47920 32.86340
#
# Poissons Ratio (x) = -0.06129 -0.67132
# Poissons Ratio (y) = -0.02059 -0.14161
# Poissons Ratio (z) = -0.29149 -0.18305
#
# Static dielectric constant tensor:
#      x y z
#    x 1.763270 -0.009540 0.053540 
#    y -0.009540 1.749100 -0.047850 
#    z 0.053540 -0.047850 1.756690 
# 
# From -- ./inp_files/509388.got.cif
#   From: 2010.05.17/outbox.cif.g08.bks.cpg/sg2_255_cif.got.tgz:509388.got - 2010.06.03 11:33:40.
