data_PCOD9082939
_publ_section_title
;
Structure prediction by ZEFSAII (Michael W. Deem and Ramdas Pophale) SiO2 
 PCOD9082939
Probable space group: P -1
;
_chemical_formula_sum "Si O2"
_cell_formula_units_Z 14
_cell_length_a 5.082004
_cell_length_b 17.613643
_cell_length_c 21.373645
_cell_angle_alpha 161.773681
_cell_angle_beta 80.901078
_cell_angle_gamma 99.729262
_cell_volume 589.773221
_symmetry_space_group_name_H-M "P -1"
_symmetry_group_IT_number 2
_symmetry_cell_setting 'triclinic'
loop_
_space_group_symop_operation_xyz
x,y,z
-x,-y,-z
loop_
_atom_site_type_symbol
_atom_site_label
_atom_site_fract_x
_atom_site_fract_y
_atom_site_fract_z
Si Si1 0.612183 0.906376 0.756628
Si Si2 0.283214 0.022257 0.971616
Si Si3 0.647534 0.675367 0.447798
Si Si4 0.986679 0.717308 0.913150
Si Si5 0.404010 0.338024 0.017058
Si Si6 0.732520 0.615928 0.126068
Si Si7 0.800447 0.036232 0.372621
O O1 0.610710 0.695897 0.540226
O O2 0.403478 0.857910 0.782944
O O3 0.530140 0.136711 0.898399
O O4 0.895753 0.013728 0.858417
O O5 0.217250 0.256905 0.116012
O O6 0.500000 0.000000 0.000000
O O7 0.000000 0.000000 0.000000
O O8 0.403511 0.768862 0.490386
O O9 0.761633 0.420892 0.226764
O O10 0.898250 0.863989 0.569674
O O11 0.835388 0.573526 0.862498
O O12 0.628145 0.527416 0.128934
O O13 0.260797 0.183091 0.845779
O O14 0.756344 0.904486 0.337917
O O15 0.500000 0.500000 0.000000
O O16 0.000000 0.500000 0.000000
#
# Coordination Sequence:
#
# PCOD9082939 Si02
#       7
#     2   2   2   2   2   2   2
#     4  10  21  42  66  90 125 163 202 251 306 364
#     4  11  23  42  69  94 123 159 200 247 307 373
#     4  11  24  39  63  93 126 160 213 249 303 368
#     4  11  23  41  68  92 123 165 201 254 309 366
#     4   9  20  35  62  90 120 165 216 250 305 367
#     4  10  19  33  59  88 121 167 213 255 309 358
#     4  10  20  38  57  90 126 164 208 263 299 355
#
# _framework density 23.737936999999999
#
# number of rings (size 3 to 8) (size 9 to 14) (size 15 to 20)
#    0.000    1.714    2.857    2.571    6.000    0.000 
#    0.000    2.857    0.000    0.000    0.000    0.000 
#    0.000    0.000    0.000    0.000    0.000    0.000 
#
# Total GULP energy -78115.144314 kJ/mol
# GULP energy per Si atom -5579.653165 kJ/mol
# Density = 2.368391 g / cm^3
# Si number density = 23.737937 Si / 1000 Ang^3
#
#
#
# Elastic Constant Matrix: (Units=GPa)
#
#
# Indices 1 2 3 4 5 6 
#
# 1 137.7464 43.6068 17.8213 -11.9704 -15.2578 14.4698
# 2 43.6068 125.7029 12.0641 -13.5378 -15.4809 19.1098
# 3 17.8213 12.0641 52.2846 -16.3327 -15.0729 -1.7902
# 4 -11.9704 -13.5378 -16.3327 28.2901 9.3959 -6.2572
# 5 -15.2578 -15.4809 -15.0729 9.3959 32.4438 -2.8944
# 6 14.4698 19.1098 -1.7902 -6.2572 -2.8944 43.3463
#
#
#
# Elastic Compliance Matrix: (Units=1/GPa)
#
#
# Indices 1 2 3 4 5 6 
#
# 1 0.008646 -0.002277 -0.001783 0.000541 0.001838 -0.001755
# 2 -0.002277 0.009778 -0.000184 0.002050 0.002640 -0.003086
# 3 -0.001783 -0.000184 0.026112 0.012497 0.007951 0.004090
# 4 0.000541 0.002050 0.012497 0.047078 -0.006077 0.005822
# 5 0.001838 0.002640 0.007951 -0.006077 0.038422 0.000239
# 6 -0.001755 -0.003086 0.004090 0.005822 0.000239 0.026042
#
#
# Mechanical properties :
#
#
# Convention : Reuss Voigt Hill
#
# Bulk Modulus (GPa) = 27.74068 51.41315 39.57692
# Shear Modulus (GPa) = 28.31544 36.96549 32.64046
#
# Velocity S-wave (km/s) = 3.45749 3.95046 3.71217
# Velocity P-wave (km/s) = 5.25838 6.52026 5.92302
#
# Compressibility (1/GPa) = 0.03604814
#
# Stress axis : x y z
#
# Youngs Moduli (GPa) = 115.65826 102.27191 38.29639
#
# Poissons Ratio (x) = 0.23285 0.06828
# Poissons Ratio (y) = 0.26333 0.00706
# Poissons Ratio (z) = 0.20621 0.01885
#
# Static dielectric constant tensor:
#      x y z
#    x 1.917760 0.013590 0.016360 
#    y 0.013590 1.996120 0.020080 
#    z 0.016360 0.020080 1.994450 
# 
# From -- ./inp_files/45657.got.cif
#   From: 2010.05.17/outbox.cif.g08.bks.cpg/sg2_23_cif.got.tgz:45657.got - 2010.06.03 11:33:40.
