data_PCOD9082551
_publ_section_title
;
Structure prediction by ZEFSAII (Michael W. Deem and Ramdas Pophale) SiO2 
 PCOD9082551
Probable space group: P -1
;
_chemical_formula_sum "Si O2"
_cell_formula_units_Z 16
_cell_length_a 18.478863
_cell_length_b 24.677220
_cell_length_c 8.545875
_cell_angle_alpha 145.745214
_cell_angle_beta 34.482937
_cell_angle_gamma 160.969850
_cell_volume 695.390937
_symmetry_space_group_name_H-M "P -1"
_symmetry_group_IT_number 2
_symmetry_cell_setting 'triclinic'
loop_
_space_group_symop_operation_xyz
x,y,z
-x,-y,-z
loop_
_atom_site_type_symbol
_atom_site_label
_atom_site_fract_x
_atom_site_fract_y
_atom_site_fract_z
Si Si1 0.303205 0.999280 0.460798
Si Si2 0.701129 0.850989 0.408653
Si Si3 0.460528 0.999890 0.752675
Si Si4 0.155714 0.048157 0.101492
Si Si5 0.512054 0.540426 0.893165
Si Si6 0.419820 0.629211 0.695678
Si Si7 0.004030 0.233522 0.097027
Si Si8 0.061930 0.682899 0.265208
O O1 0.124311 0.800595 0.301640
O O2 0.374574 0.097387 0.412708
O O3 0.504418 0.073263 0.377789
O O4 0.184316 0.007413 0.794455
O O5 0.563155 0.743281 0.555479
O O6 0.648224 0.725002 0.091550
O O7 0.974170 0.020399 0.350348
O O8 0.204217 0.876639 0.911311
O O9 0.500000 0.000000 0.500000
O O10 0.686346 0.202946 0.878639
O O11 0.409984 0.230539 0.138773
O O12 0.040411 0.900350 0.074295
O O13 0.605684 0.502687 0.556717
O O14 0.500000 0.500000 0.000000
O O15 0.250443 0.395422 0.967475
O O16 0.164551 0.511237 0.850626
O O17 0.996800 0.298346 0.420330
#
# Coordination Sequence:
#
# PCOD9082551 Si02
#       8
#     2   2   2   2   2   2   2   2
#     4   9  20  36  56  75 105 140 177 217 262 300
#     4  11  20  34  52  81 110 136 171 222 260 311
#     4   8  16  31  61  74  93 140 197 205 237 316
#     4  11  20  31  53  83 108 136 174 215 262 315
#     4  10  17  30  52  74 107 138 174 203 261 318
#     4  11  20  32  54  83 108 136 176 212 265 314
#     4  10  15  32  55  77  96 140 187 211 236 314
#     4   8  16  33  53  74  99 142 175 206 252 318
#
# _framework density 23.00864
#
# number of rings (size 3 to 8) (size 9 to 14) (size 15 to 20)
#    0.750    1.500    6.250    1.500    0.000    0.000 
#    0.000    3.750    0.000    0.750    0.000    0.000 
#    0.000    0.000    0.000    0.000    0.000    0.000 
#
# Total GULP energy -89227.414846 kJ/mol
# GULP energy per Si atom -5576.713428 kJ/mol
# Density = 2.295627 g / cm^3
# Si number density = 23.008640 Si / 1000 Ang^3
#
#
#
# Elastic Constant Matrix: (Units=GPa)
#
#
# Indices 1 2 3 4 5 6 
#
# 1 97.9417 49.0368 15.7162 -8.1897 -26.5910 14.0291
# 2 49.0368 123.4311 15.4466 -0.2632 -3.4060 44.8007
# 3 15.7162 15.4466 35.8313 -4.8898 -1.6012 0.5662
# 4 -8.1897 -0.2632 -4.8898 32.2351 6.5725 -13.5921
# 5 -26.5910 -3.4060 -1.6012 6.5725 20.9841 -0.3694
# 6 14.0291 44.8007 0.5662 -13.5921 -0.3694 48.2736
#
#
#
# Elastic Compliance Matrix: (Units=1/GPa)
#
#
# Indices 1 2 3 4 5 6 
#
# 1 0.021774 -0.007637 -0.005139 -0.000216 0.026045 0.000958
# 2 -0.007637 0.017686 -0.005405 -0.008635 -0.004807 -0.016599
# 3 -0.005139 -0.005405 0.033227 0.008816 -0.007465 0.008545
# 4 -0.000216 -0.008635 0.008816 0.043652 -0.014320 0.020154
# 5 0.026045 -0.004807 -0.007465 -0.014320 0.083682 -0.006412
# 6 0.000958 -0.016599 0.008545 0.020154 -0.006412 0.041367
#
#
# Mechanical properties :
#
#
# Convention : Reuss Voigt Hill
#
# Bulk Modulus (GPa) = 27.52960 46.40036 36.96498
# Shear Modulus (GPa) = 17.24976 32.09885 24.67430
#
# Velocity S-wave (km/s) = 2.74105 3.73913 3.27829
# Velocity P-wave (km/s) = 4.69134 6.23311 5.51636
#
# Compressibility (1/GPa) = 0.03632453
#
# Stress axis : x y z
#
# Youngs Moduli (GPa) = 45.92555 56.54285 30.09569
#
# Poissons Ratio (x) = 0.43181 0.15467
# Poissons Ratio (y) = 0.35073 0.16268
# Poissons Ratio (z) = 0.23602 0.30563
#
# Static dielectric constant tensor:
#      x y z
#    x 1.910480 0.017750 0.007420 
#    y 0.017750 1.861820 0.009260 
#    z 0.007420 0.009260 1.921770 
# 
# From -- ./inp_files/338610.got.cif
#   From: 2010.05.17/outbox.cif.g08.bks.cpg/sg2_170_cif.got.tgz:338610.got - 2010.06.03 11:33:40.
