data_PCOD9082476
_publ_section_title
;
Structure prediction by ZEFSAII (Michael W. Deem and Ramdas Pophale) SiO2 
 PCOD9082476
Probable space group: P -1
;
_chemical_formula_sum "Si O2"
_cell_formula_units_Z 16
_cell_length_a 17.097373
_cell_length_b 10.593862
_cell_length_c 10.045527
_cell_angle_alpha 101.434274
_cell_angle_beta 149.375766
_cell_angle_gamma 57.002916
_cell_volume 601.867019
_symmetry_space_group_name_H-M "P -1"
_symmetry_group_IT_number 2
_symmetry_cell_setting 'triclinic'
loop_
_space_group_symop_operation_xyz
x,y,z
-x,-y,-z
loop_
_atom_site_type_symbol
_atom_site_label
_atom_site_fract_x
_atom_site_fract_y
_atom_site_fract_z
Si Si1 0.855515 0.210020 0.708801
Si Si2 0.329310 0.937437 0.711920
Si Si3 0.500065 0.858315 0.410194
Si Si4 0.834266 0.320865 0.181426
Si Si5 0.326165 0.765794 0.295818
Si Si6 0.707057 0.791602 0.432781
Si Si7 0.129208 0.446036 0.820218
Si Si8 0.983832 0.763395 0.294340
O O1 0.739549 0.161738 0.452758
O O2 0.719286 0.308582 0.668199
O O3 0.884379 0.309116 0.669082
O O4 0.119236 0.997251 0.077128
O O5 0.370936 0.010478 0.664796
O O6 0.548491 0.810363 0.102077
O O7 0.109184 0.135865 0.509378
O O8 0.500000 0.000000 0.500000
O O9 0.532062 0.733281 0.547256
O O10 0.674943 0.756038 0.523768
O O11 0.241400 0.003228 0.998909
O O12 0.839279 0.308060 0.344892
O O13 0.721984 0.526270 0.011388
O O14 0.724847 0.279394 0.923301
O O15 0.965830 0.616455 0.725720
O O16 0.132356 0.299111 0.850077
O O17 0.000000 0.500000 0.500000
#
# Coordination Sequence:
#
# PCOD9082476 Si02
#       8
#     2   2   2   2   2   2   2   2
#     4   9  18  32  52  81 112 142 185 230 278 328
#     4   9  17  29  54  83 108 139 184 233 276 319
#     4  11  22  35  57  86 118 141 186 236 283 327
#     4   9  17  34  58  81 110 142 189 231 266 332
#     4   9  19  33  53  81 113 145 181 232 283 322
#     4  10  19  33  55  83 112 144 185 231 280 326
#     4   9  20  37  56  83 113 146 188 230 277 334
#     4  10  20  35  59  83 107 150 190 225 277 334
#
# _framework density 26.583943999999999
#
# number of rings (size 3 to 8) (size 9 to 14) (size 15 to 20)
#    0.000    2.500    1.250    0.750    3.500    4.500 
#    0.000    3.125    0.000    1.500    0.000    0.000 
#    0.000    0.000    0.000    0.000    0.000    0.000 
#
# Total GULP energy -89380.350985 kJ/mol
# GULP energy per Si atom -5586.271937 kJ/mol
# Density = 2.652344 g / cm^3
# Si number density = 26.583944 Si / 1000 Ang^3
#
#
#
# Elastic Constant Matrix: (Units=GPa)
#
#
# Indices 1 2 3 4 5 6 
#
# 1 206.1813 31.7894 30.1459 -5.8978 -15.9482 6.4091
# 2 31.7894 58.5210 22.1103 16.1984 -9.1512 21.1876
# 3 30.1459 22.1103 50.6009 1.3852 3.2797 -1.5257
# 4 -5.8978 16.1984 1.3852 44.1952 5.0292 6.5686
# 5 -15.9482 -9.1512 3.2797 5.0292 43.1464 -4.4752
# 6 6.4091 21.1876 -1.5257 6.5686 -4.4752 35.0290
#
#
#
# Elastic Compliance Matrix: (Units=1/GPa)
#
#
# Indices 1 2 3 4 5 6 
#
# 1 0.005754 -0.002419 -0.002513 0.001511 0.001652 0.000229
# 2 -0.002419 0.034323 -0.014255 -0.010544 0.006822 -0.018090
# 3 -0.002513 -0.014255 0.028027 0.003307 -0.005537 0.008975
# 4 0.001511 -0.010544 0.003307 0.027084 -0.005032 0.000523
# 5 0.001652 0.006822 -0.005537 -0.005032 0.026203 -0.000379
# 6 0.000229 -0.018090 0.008975 0.000523 -0.000379 0.039692
#
#
# Mechanical properties :
#
#
# Convention : Reuss Voigt Hill
#
# Bulk Modulus (GPa) = 33.63594 53.71052 43.67323
# Shear Modulus (GPa) = 23.88144 39.89127 31.88636
#
# Velocity S-wave (km/s) = 3.00048 3.87793 3.46708
# Velocity P-wave (km/s) = 4.96831 6.34816 5.70014
#
# Compressibility (1/GPa) = 0.02973010
#
# Stress axis : x y z
#
# Youngs Moduli (GPa) = 173.77903 29.13538 35.67952
#
# Poissons Ratio (x) = 0.07049 0.08965
# Poissons Ratio (y) = 0.42042 0.50861
# Poissons Ratio (z) = 0.43666 0.41533
#
# Static dielectric constant tensor:
#      x y z
#    x 2.144980 0.088560 -0.077870 
#    y 0.088560 2.115560 -0.079980 
#    z -0.077870 -0.079980 2.221820 
# 
# From -- ./inp_files/307829.got.cif
#   From: 2010.05.17/outbox.cif.g08.bks.cpg/sg2_154_cif.got.tgz:307829.got - 2010.06.03 11:33:40.
