data_PCOD9082192
_publ_section_title
;
Structure prediction by ZEFSAII (Michael W. Deem and Ramdas Pophale) SiO2 
 PCOD9082192
Probable space group: P -1
;
_chemical_formula_sum "Si O2"
_cell_formula_units_Z 16
_cell_length_a 15.384171
_cell_length_b 11.480951
_cell_length_c 9.470938
_cell_angle_alpha 118.343560
_cell_angle_beta 139.059708
_cell_angle_gamma 79.278780
_cell_volume 920.515247
_symmetry_space_group_name_H-M "P -1"
_symmetry_group_IT_number 2
_symmetry_cell_setting 'triclinic'
loop_
_space_group_symop_operation_xyz
x,y,z
-x,-y,-z
loop_
_atom_site_type_symbol
_atom_site_label
_atom_site_fract_x
_atom_site_fract_y
_atom_site_fract_z
Si Si1 0.917773 0.299128 0.843008
Si Si2 0.928429 0.282070 0.512893
Si Si3 0.641869 0.689359 0.880442
Si Si4 0.859899 0.973893 0.219204
Si Si5 0.049585 0.981539 0.205809
Si Si6 0.176905 0.465944 0.451426
Si Si7 0.809733 0.708948 0.357827
Si Si8 0.324563 0.559855 0.408668
O O1 0.961258 0.299652 0.731358
O O2 0.882085 0.141236 0.760863
O O3 0.792571 0.366976 0.731971
O O4 0.042772 0.383862 0.145459
O O5 0.852884 0.395659 0.449123
O O6 0.064500 0.306028 0.596790
O O7 0.834782 0.123584 0.281371
O O8 0.479146 0.663316 0.641140
O O9 0.685125 0.574757 0.775049
O O10 0.738076 0.843165 0.047303
O O11 0.674537 0.665056 0.069144
O O12 0.911695 0.944847 0.112694
O O13 0.000000 0.000000 0.500000
O O14 0.149806 0.128216 0.464097
O O15 0.000000 0.000000 0.000000
O O16 0.197965 0.374720 0.555318
O O17 0.298313 0.510797 0.510691
#
# Coordination Sequence:
#
# PCOD9082192 Si02
#       8
#     2   2   2   2   2   2   2   2
#     4  11  19  35  57  81 116 140 191 230 270 323
#     4  10  19  33  52  85 110 140 185 226 275 320
#     4  11  21  41  57  80 112 149 193 219 276 332
#     4  11  19  34  60  79 107 146 185 230 270 324
#     4  11  20  33  54  91 109 140 180 232 285 322
#     4  11  21  33  56  86 113 143 182 234 278 318
#     4  11  20  33  57  85 114 146 177 231 281 324
#     4  10  24  37  59  80 110 155 185 228 268 330
#
# _framework density 17.381568999999999
#
# number of rings (size 3 to 8) (size 9 to 14) (size 15 to 20)
#    0.000    1.250    5.000    4.125    0.000    0.500 
#    0.000    5.625    0.000    0.750    0.000    0.000 
#    0.000    0.000    0.000    0.000    0.000    0.000 
#
# Total GULP energy -89302.019081 kJ/mol
# GULP energy per Si atom -5581.376193 kJ/mol
# Density = 1.734201 g / cm^3
# Si number density = 17.381569 Si / 1000 Ang^3
#
#
#
# Elastic Constant Matrix: (Units=GPa)
#
#
# Indices 1 2 3 4 5 6 
#
# 1 71.2610 35.8041 34.1720 -1.7802 -4.5512 3.5976
# 2 35.8041 120.6242 27.8283 13.6463 1.0065 7.5901
# 3 34.1720 27.8283 67.5524 11.4699 4.8231 3.0336
# 4 -1.7802 13.6463 11.4699 25.7626 7.5297 -8.7316
# 5 -4.5512 1.0065 4.8231 7.5297 22.6884 0.9305
# 6 3.5976 7.5901 3.0336 -8.7316 0.9305 29.1712
#
#
#
# Elastic Compliance Matrix: (Units=1/GPa)
#
#
# Indices 1 2 3 4 5 6 
#
# 1 0.022319 -0.005259 -0.011012 0.008823 0.004030 0.002273
# 2 -0.005259 0.011150 -0.000456 -0.008060 0.001413 -0.004663
# 3 -0.011012 -0.000456 0.022873 -0.011182 -0.003170 -0.004148
# 4 0.008823 -0.008060 -0.011182 0.060533 -0.016438 0.020815
# 5 0.004030 0.001413 -0.003170 -0.016438 0.051241 -0.007090
# 6 0.002273 -0.004663 -0.004148 0.020815 -0.007090 0.042101
#
#
# Mechanical properties :
#
#
# Convention : Reuss Voigt Hill
#
# Bulk Modulus (GPa) = 43.69082 50.56072 47.12577
# Shear Modulus (GPa) = 19.89665 26.29999 23.09832
#
# Velocity S-wave (km/s) = 3.38701 3.89407 3.64936
# Velocity P-wave (km/s) = 6.36291 7.02640 6.70287
#
# Compressibility (1/GPa) = 0.02288810
#
# Stress axis : x y z
#
# Youngs Moduli (GPa) = 44.80536 89.68732 43.72045
#
# Poissons Ratio (x) = 0.47169 0.48143
# Poissons Ratio (y) = 0.23564 0.01993
# Poissons Ratio (z) = 0.49338 0.04088
#
# Static dielectric constant tensor:
#      x y z
#    x 1.598550 0.000290 -0.017300 
#    y 0.000290 1.615520 0.014520 
#    z -0.017300 0.014520 1.590640 
# 
# From -- ./inp_files/271044.got.cif
#   From: 2010.05.17/outbox.cif.g08.bks.cpg/sg2_136_cif.got.tgz:271044.got - 2010.06.03 11:33:40.
