data_PCOD9082162
_publ_section_title
;
Structure prediction by ZEFSAII (Michael W. Deem and Ramdas Pophale) SiO2 
 PCOD9082162
Probable space group: P -1
;
_chemical_formula_sum "Si O2"
_cell_formula_units_Z 14
_cell_length_a 16.671563
_cell_length_b 5.443607
_cell_length_c 12.297912
_cell_angle_alpha 92.849629
_cell_angle_beta 29.993015
_cell_angle_gamma 106.683337
_cell_volume 486.139727
_symmetry_space_group_name_H-M "P -1"
_symmetry_group_IT_number 2
_symmetry_cell_setting 'triclinic'
loop_
_space_group_symop_operation_xyz
x,y,z
-x,-y,-z
loop_
_atom_site_type_symbol
_atom_site_label
_atom_site_fract_x
_atom_site_fract_y
_atom_site_fract_z
Si Si1 0.240376 0.127387 0.942058
Si Si2 0.676605 0.626479 0.452555
Si Si3 0.744566 0.569106 0.604187
Si Si4 0.637936 0.093801 0.440975
Si Si5 0.410866 0.025467 0.927935
Si Si6 0.176274 0.465763 0.267776
Si Si7 0.073116 0.480914 0.144693
O O1 0.454090 0.396782 0.688963
O O2 0.244416 0.051701 0.066433
O O3 0.108900 0.238331 0.047181
O O4 0.875946 0.438291 0.411485
O O5 0.734066 0.724347 0.511438
O O6 0.726485 0.895370 0.329770
O O7 0.169187 0.794341 0.985085
O O8 0.538957 0.317222 0.840911
O O9 0.810604 0.707455 0.647881
O O10 0.500000 0.000000 0.500000
O O11 0.521665 0.005417 0.690805
O O12 0.241055 0.573450 0.682827
O O13 0.353391 0.775725 0.073265
O O14 0.167407 0.460691 0.147231
O O15 0.000000 0.500000 0.500000
#
# Coordination Sequence:
#
# PCOD9082162 Si02
#       7
#     2   2   2   2   2   2   2
#     4   9  18  34  53  77 110 146 191 232 272 330
#     4  10  20  36  57  87 113 146 188 236 286 335
#     4   9  19  33  53  83 120 151 184 234 282 334
#     4  10  20  36  60  88 113 143 188 242 287 332
#     4   9  19  35  56  84 114 148 191 238 282 332
#     4   9  17  33  54  84 116 154 192 226 276 340
#     4  10  19  33  52  79 112 156 193 222 268 333
#
# _framework density 28.798306
#
# number of rings (size 3 to 8) (size 9 to 14) (size 15 to 20)
#    0.000    2.857    0.000    3.429    0.000    2.286 
#    0.000   30.000    0.000    0.000    0.000  210.000 
#    0.000    0.000    0.000    0.000    0.000    0.000 
#
# Total GULP energy -77956.700752 kJ/mol
# GULP energy per Si atom -5568.335768 kJ/mol
# Density = 2.873276 g / cm^3
# Si number density = 28.798306 Si / 1000 Ang^3
#
#
#
# Elastic Constant Matrix: (Units=GPa)
#
#
# Indices 1 2 3 4 5 6 
#
# 1 155.5034 72.7626 24.1820 -18.5902 37.5237 -14.4107
# 2 72.7626 119.7048 33.6861 4.2868 24.4630 -41.1582
# 3 24.1820 33.6861 82.8343 4.8740 7.3619 -1.0897
# 4 -18.5902 4.2868 4.8740 26.9671 -5.4366 4.4666
# 5 37.5237 24.4630 7.3619 -5.4366 44.9450 -2.2782
# 6 -14.4107 -41.1582 -1.0897 4.4666 -2.2782 60.8285
#
#
#
# Elastic Compliance Matrix: (Units=1/GPa)
#
#
# Indices 1 2 3 4 5 6 
#
# 1 0.012042 -0.007555 -0.000586 0.009138 -0.004898 -0.003124
# 2 -0.007555 0.019612 -0.004626 -0.010334 -0.004251 0.011997
# 3 -0.000586 -0.004626 0.014156 -0.001682 0.000340 -0.002879
# 4 0.009138 -0.010334 -0.001682 0.047411 0.003590 -0.008204
# 5 -0.004898 -0.004251 0.000340 0.003590 0.028868 -0.003213
# 6 -0.003124 0.011997 -0.002879 -0.008204 -0.003213 0.024247
#
#
# Mechanical properties :
#
#
# Convention : Reuss Voigt Hill
#
# Bulk Modulus (GPa) = 49.32454 68.81157 59.06805
# Shear Modulus (GPa) = 27.99084 41.70892 34.84988
#
# Velocity S-wave (km/s) = 3.12101 3.80980 3.48248
# Velocity P-wave (km/s) = 5.49112 6.58019 6.06017
#
# Compressibility (1/GPa) = 0.02027388
#
# Stress axis : x y z
#
# Youngs Moduli (GPa) = 83.04233 50.98992 70.64259
#
# Poissons Ratio (x) = 0.38523 0.04143
# Poissons Ratio (y) = 0.62739 0.32681
# Poissons Ratio (z) = 0.04870 0.23589
#
# Static dielectric constant tensor:
#      x y z
#    x 2.220140 0.086590 -0.026360 
#    y 0.086590 2.983620 0.105130 
#    z -0.026360 0.105130 2.286850 
# 
# From -- ./inp_files/447097.got.cif
#   From: 2010.05.17/outbox.cif.g08.bks.cpg/sg2_224_cif.got.tgz:447097.got - 2010.06.03 11:33:40.
