data_PCOD9082852
_publ_section_title
;
Structure prediction by ZEFSAII (Michael W. Deem and Ramdas Pophale) SiO2 
 PCOD9082852
Probable space group: P -1
;
_chemical_formula_sum "Si O2"
_cell_formula_units_Z 15
_cell_length_a 14.558355
_cell_length_b 5.203595
_cell_length_c 9.240473
_cell_angle_alpha 68.222308
_cell_angle_beta 93.759407
_cell_angle_gamma 59.963595
_cell_volume 534.565586
_symmetry_space_group_name_H-M "P -1"
_symmetry_group_IT_number 2
_symmetry_cell_setting 'triclinic'
loop_
_space_group_symop_operation_xyz
x,y,z
-x,-y,-z
loop_
_atom_site_type_symbol
_atom_site_label
_atom_site_fract_x
_atom_site_fract_y
_atom_site_fract_z
Si Si1 0.765473 0.322463 0.595442
Si Si2 0.000000 0.000000 0.000000
Si Si3 0.565508 0.454622 0.240953
Si Si4 0.291327 0.307733 0.914759
Si Si5 0.756578 0.220421 0.937804
Si Si6 0.942935 0.068371 0.320334
Si Si7 0.183628 0.170365 0.524267
Si Si8 0.529898 0.922062 0.350707
O O1 0.838500 0.473968 0.576929
O O2 0.658736 0.603203 0.434610
O O3 0.826864 0.963549 0.603152
O O4 0.723924 0.322580 0.748740
O O5 0.108731 0.022552 0.999959
O O6 0.013042 0.925097 0.835859
O O7 0.606382 0.665687 0.122488
O O8 0.485249 0.731571 0.297678
O O9 0.686495 0.112116 0.366735
O O10 0.511400 0.262637 0.214351
O O11 0.266587 0.461135 0.041369
O O12 0.179344 0.571191 0.758090
O O13 0.300711 0.962656 0.973801
O O14 0.897208 0.828859 0.368236
O O15 0.000000 0.000000 0.500000
O O16 0.500000 0.000000 0.500000
#
# Coordination Sequence:
#
# PCOD9082852 Si02
#       8
#     2   1   2   2   2   2   2   2
#     4  10  20  36  58  84 114 153 197 242 297 361
#     4  10  24  38  56  90 122 156 204 260 310 356
#     4   9  18  34  54  79 110 143 186 231 285 359
#     4  10  22  38  58  82 112 161 202 238 296 368
#     4  11  22  38  57  81 119 156 199 249 299 356
#     4  10  21  38  60  86 121 159 204 259 313 362
#     4   9  19  34  55  81 109 151 198 237 290 359
#     4  10  19  33  58  87 112 139 183 248 303 352
#
# _framework density 28.060165999999999
#
# number of rings (size 3 to 8) (size 9 to 14) (size 15 to 20)
#    0.000    2.133    0.000    2.800    0.000    9.600 
#    0.000    4.000    0.000    4.800    0.000    0.000 
#    0.000    0.000    0.000    0.000    0.000    0.000 
#
# Total GULP energy -83559.651908 kJ/mol
# GULP energy per Si atom -5570.643461 kJ/mol
# Density = 2.799630 g / cm^3
# Si number density = 28.060166 Si / 1000 Ang^3
#
#
#
# Elastic Constant Matrix: (Units=GPa)
#
#
# Indices 1 2 3 4 5 6 
#
# 1 85.2100 36.0616 50.6377 3.2051 -1.7261 25.9310
# 2 36.0616 126.6521 57.1320 12.8642 7.2747 23.7952
# 3 50.6377 57.1320 133.5155 23.5344 -0.3715 -3.6604
# 4 3.2051 12.8642 23.5344 57.5516 -4.9013 -4.9195
# 5 -1.7261 7.2747 -0.3715 -4.9013 47.8100 2.8777
# 6 25.9310 23.7952 -3.6604 -4.9195 2.8777 49.9013
#
#
#
# Elastic Compliance Matrix: (Units=1/GPa)
#
#
# Indices 1 2 3 4 5 6 
#
# 1 0.019789 -0.000285 -0.007921 0.001415 0.001484 -0.010675
# 2 -0.000285 0.011373 -0.004703 -0.001219 -0.001562 -0.005651
# 3 -0.007921 -0.004703 0.013291 -0.003363 -0.000234 0.007016
# 4 0.001415 -0.001219 -0.003363 0.019241 0.002100 0.001375
# 5 0.001484 -0.001562 -0.000234 0.002100 0.021486 -0.001075
# 6 -0.010675 -0.005651 0.007016 0.001375 -0.001075 0.028993
#
#
# Mechanical properties :
#
#
# Convention : Reuss Voigt Hill
#
# Bulk Modulus (GPa) = 53.66204 70.33781 61.99993
# Shear Modulus (GPa) = 34.19894 44.48900 39.34397
#
# Velocity S-wave (km/s) = 3.49488 3.98614 3.74856
# Velocity P-wave (km/s) = 5.95407 6.80492 6.39367
#
# Compressibility (1/GPa) = 0.01863515
#
# Stress axis : x y z
#
# Youngs Moduli (GPa) = 50.53327 87.92411 75.23866
#
# Poissons Ratio (x) = 0.02502 0.59599
# Poissons Ratio (y) = 0.01438 0.35386
# Poissons Ratio (z) = 0.40029 0.41352
#
# Static dielectric constant tensor:
#      x y z
#    x 2.399330 -0.046870 0.119040 
#    y -0.046870 2.196210 0.034470 
#    z 0.119040 0.034470 2.468410 
# 
# From -- ./inp_files/321636.got.cif
#   From: 2010.05.17/outbox.cif.g08.bks.cpg/sg2_161_cif.got.tgz:321636.got - 2010.06.03 11:33:40.
