data_PCOD9082925
_publ_section_title
;
Structure prediction by ZEFSAII (Michael W. Deem and Ramdas Pophale) SiO2 
 PCOD9082925
Probable space group: P -1
;
_chemical_formula_sum "Si O2"
_cell_formula_units_Z 14
_cell_length_a 18.156199
_cell_length_b 20.672676
_cell_length_c 17.746128
_cell_angle_alpha 19.351208
_cell_angle_beta 148.767233
_cell_angle_gamma 160.577251
_cell_volume 696.501617
_symmetry_space_group_name_H-M "P -1"
_symmetry_group_IT_number 2
_symmetry_cell_setting 'triclinic'
loop_
_space_group_symop_operation_xyz
x,y,z
-x,-y,-z
loop_
_atom_site_type_symbol
_atom_site_label
_atom_site_fract_x
_atom_site_fract_y
_atom_site_fract_z
Si Si1 0.898189 0.230567 0.265937
Si Si2 0.559591 0.562582 0.644239
Si Si3 0.274367 0.807201 0.386338
Si Si4 0.332736 0.680166 0.254360
Si Si5 0.763722 0.807935 0.085974
Si Si6 0.541919 0.997376 0.836548
Si Si7 0.309918 0.441643 0.863304
O O1 0.678663 0.100552 0.253291
O O2 0.087591 0.395807 0.312511
O O3 0.806366 0.931112 0.476323
O O4 0.000000 0.500000 0.000000
O O5 0.449058 0.594222 0.454561
O O6 0.393327 0.402101 0.748462
O O7 0.547303 0.322175 0.876046
O O8 0.383303 0.749346 0.592963
O O9 0.000000 0.500000 0.500000
O O10 0.324729 0.852351 0.291180
O O11 0.332020 0.092692 0.141856
O O12 0.318249 0.765559 0.230069
O O13 0.500000 0.000000 0.000000
O O14 0.725810 0.622164 0.188003
O O15 0.039156 0.116806 0.010588
O O16 0.500000 0.500000 0.000000
#
# Coordination Sequence:
#
# PCOD9082925 Si02
#       7
#     2   2   2   2   2   2   2
#     4  11  22  41  59  87 123 156 200 255 301 357
#     4  10  22  39  60  85 121 161 200 245 301 362
#     4   9  19  39  59  83 122 156 191 243 292 351
#     4  11  22  41  60  88 120 154 204 255 300 357
#     4   9  20  37  54  82 119 154 196 245 294 351
#     4  10  22  40  64  89 119 162 201 245 307 354
#     4  10  19  33  59  86 113 156 198 240 298 351
#
# _framework density 20.100456000000001
#
# number of rings (size 3 to 8) (size 9 to 14) (size 15 to 20)
#    0.000    2.000    2.857    1.714    0.000    5.143 
#    0.000    7.143    0.000    0.000    0.000    0.000 
#    0.000    0.000    0.000    0.000    0.000    0.000 
#
# Total GULP energy -78038.751425 kJ/mol
# GULP energy per Si atom -5574.196530 kJ/mol
# Density = 2.005471 g / cm^3
# Si number density = 20.100456 Si / 1000 Ang^3
#
#
#
# Elastic Constant Matrix: (Units=GPa)
#
#
# Indices 1 2 3 4 5 6 
#
# 1 35.3394 12.4351 -6.4288 -6.3214 10.3614 0.5800
# 2 12.4351 131.7127 42.3091 13.0731 14.1252 -20.4186
# 3 -6.4288 42.3091 140.6842 14.6831 25.5691 -3.1910
# 4 -6.3214 13.0731 14.6831 25.9524 4.9089 1.9623
# 5 10.3614 14.1252 25.5691 4.9089 32.0456 -7.4214
# 6 0.5800 -20.4186 -3.1910 1.9623 -7.4214 22.7077
#
#
#
# Elastic Compliance Matrix: (Units=1/GPa)
#
#
# Indices 1 2 3 4 5 6 
#
# 1 0.040967 -0.007393 0.005875 0.015379 -0.020479 -0.014891
# 2 -0.007393 0.011584 -0.003511 -0.007317 0.003998 0.012050
# 3 0.005875 -0.003511 0.010080 -0.000332 -0.009494 -0.004965
# 4 0.015379 -0.007317 -0.000332 0.049719 -0.012679 -0.015459
# 5 -0.020479 0.003998 -0.009494 -0.012679 0.050286 0.020314
# 6 -0.014891 0.012050 -0.004965 -0.015459 0.020314 0.062531
#
#
# Mechanical properties :
#
#
# Convention : Reuss Voigt Hill
#
# Bulk Modulus (GPa) = 19.02192 44.92968 31.97580
# Shear Modulus (GPa) = 19.78236 33.43587 26.60912
#
# Velocity S-wave (km/s) = 3.14056 4.08295 3.64236
# Velocity P-wave (km/s) = 4.75760 6.68045 5.79928
#
# Compressibility (1/GPa) = 0.05257092
#
# Stress axis : x y z
#
# Youngs Moduli (GPa) = 24.40993 86.32781 99.20632
#
# Poissons Ratio (x) = 0.63826 -0.58281
# Poissons Ratio (y) = 0.18047 0.34833
# Poissons Ratio (z) = -0.14340 0.30311
#
# Static dielectric constant tensor:
#      x y z
#    x 1.726510 0.002590 0.011360 
#    y 0.002590 1.688360 -0.002960 
#    z 0.011360 -0.002960 1.794370 
# 
# From -- ./inp_files/533653.got.cif
#   From: 2010.05.17/outbox.cif.g08.bks.cpg/sg2_267_cif.got.tgz:533653.got - 2010.06.03 11:33:40.
