data_PCOD9082058
_publ_section_title
;
Structure prediction by ZEFSAII (Michael W. Deem and Ramdas Pophale) SiO2 
 PCOD9082058
Probable space group: P -1
;
_chemical_formula_sum "Si O2"
_cell_formula_units_Z 16
_cell_length_a 7.554908
_cell_length_b 12.077588
_cell_length_c 9.819623
_cell_angle_alpha 51.560927
_cell_angle_beta 80.827686
_cell_angle_gamma 73.448302
_cell_volume 672.535932
_symmetry_space_group_name_H-M "P -1"
_symmetry_group_IT_number 2
_symmetry_cell_setting 'triclinic'
loop_
_space_group_symop_operation_xyz
x,y,z
-x,-y,-z
loop_
_atom_site_type_symbol
_atom_site_label
_atom_site_fract_x
_atom_site_fract_y
_atom_site_fract_z
Si Si1 0.358820 0.969963 0.349211
Si Si2 0.785464 0.303043 0.435938
Si Si3 0.399123 0.414225 0.856691
Si Si4 0.652378 0.143359 0.121762
Si Si5 0.150957 0.307393 0.750394
Si Si6 0.715005 0.004124 0.963689
Si Si7 0.125526 0.055011 0.550664
Si Si8 0.253897 0.536369 0.389942
O O1 0.545097 0.014732 0.254532
O O2 0.346879 0.804510 0.500833
O O3 0.291847 0.062583 0.422637
O O4 0.242294 0.996642 0.200573
O O5 0.746251 0.430042 0.229461
O O6 0.744493 0.378621 0.531365
O O7 0.996592 0.208198 0.494862
O O8 0.280153 0.325913 0.848480
O O9 0.565966 0.457482 0.720541
O O10 0.508761 0.298540 0.041791
O O11 0.819191 0.079043 0.249239
O O12 0.719148 0.137975 0.960203
O O13 0.162920 0.137810 0.871230
O O14 0.242503 0.375118 0.562431
O O15 0.939278 0.396827 0.714080
O O16 0.500000 0.000000 0.000000
O O17 0.000000 0.000000 0.500000
#
# Coordination Sequence:
#
# PCOD9082058 Si02
#       8
#     2   2   2   2   2   2   2   2
#     4  10  21  39  65  88 125 169 210 252 319 378
#     4  10  21  39  60  91 123 168 213 259 311 385
#     4  11  22  39  62  95 131 164 208 269 325 366
#     4  11  22  39  67  95 127 163 213 264 321 373
#     4  10  19  37  54  92 133 167 202 259 314 388
#     4  10  19  32  64  94 123 153 211 259 315 362
#     4  10  23  43  62  88 126 172 214 260 306 387
#     4  10  22  33  62  90 135 166 207 253 337 369
#
# _framework density 23.790552000000002
#
# number of rings (size 3 to 8) (size 9 to 14) (size 15 to 20)
#    0.000    1.750    2.500    3.375    5.250    2.000 
#    0.000    7.500    0.000    0.000    0.000    0.000 
#    0.000    0.000    0.000    0.000    0.000    0.000 
#
# Total GULP energy -89184.999187 kJ/mol
# GULP energy per Si atom -5574.062449 kJ/mol
# Density = 2.373640 g / cm^3
# Si number density = 23.790552 Si / 1000 Ang^3
#
#
#
# Elastic Constant Matrix: (Units=GPa)
#
#
# Indices 1 2 3 4 5 6 
#
# 1 87.5011 -6.5986 14.8199 3.4342 17.9940 -3.6566
# 2 -6.5986 32.4698 37.8295 -10.7765 3.8643 -9.8239
# 3 14.8199 37.8295 110.2847 -25.5947 41.3183 -7.1349
# 4 3.4342 -10.7765 -25.5947 42.3797 -4.3865 0.3737
# 5 17.9940 3.8643 41.3183 -4.3865 48.6981 -8.9395
# 6 -3.6566 -9.8239 -7.1349 0.3737 -8.9395 22.5392
#
#
#
# Elastic Compliance Matrix: (Units=1/GPa)
#
#
# Indices 1 2 3 4 5 6 
#
# 1 0.013331 0.008690 -0.004435 -0.001715 -0.001259 0.004076
# 2 0.008690 0.088111 -0.040629 0.000078 0.031519 0.039452
# 3 -0.004435 -0.040629 0.034416 0.008183 -0.026972 -0.018367
# 4 -0.001715 0.000078 0.008183 0.028312 -0.003689 0.000414
# 5 -0.001259 0.031519 -0.026972 -0.003689 0.045276 0.023014
# 6 0.004076 0.039452 -0.018367 0.000414 0.023014 0.065531
#
#
# Mechanical properties :
#
#
# Convention : Reuss Voigt Hill
#
# Bulk Modulus (GPa) = 15.84547 35.81748 25.83147
# Shear Modulus (GPa) = 13.55887 35.00372 24.28129
#
# Velocity S-wave (km/s) = 2.38990 3.83995 3.19819
# Velocity P-wave (km/s) = 3.78026 5.89477 4.95170
#
# Compressibility (1/GPa) = 0.06310954
#
# Stress axis : x y z
#
# Youngs Moduli (GPa) = 75.01073 11.34933 29.05613
#
# Poissons Ratio (x) = -0.09862 0.12886
# Poissons Ratio (y) = -0.65183 1.18053
# Poissons Ratio (z) = 0.33267 0.46112
#
# Static dielectric constant tensor:
#      x y z
#    x 2.109910 -0.178770 -0.019070 
#    y -0.178770 2.168170 0.046980 
#    z -0.019070 0.046980 2.008810 
# 
# From -- ./inp_files/396940.got.cif
#   From: 2010.05.17/outbox.cif.g08.bks.cpg/sg2_199_cif.got.tgz:396940.got - 2010.06.03 11:33:40.
