data_PCOD9082418
_publ_section_title
;
Structure prediction by ZEFSAII (Michael W. Deem and Ramdas Pophale) SiO2 
 PCOD9082418
Probable space group: P -1
;
_chemical_formula_sum "Si O2"
_cell_formula_units_Z 16
_cell_length_a 7.178069
_cell_length_b 20.155212
_cell_length_c 11.042292
_cell_angle_alpha 33.643038
_cell_angle_beta 68.157170
_cell_angle_gamma 63.572598
_cell_volume 792.574983
_symmetry_space_group_name_H-M "P -1"
_symmetry_group_IT_number 2
_symmetry_cell_setting 'triclinic'
loop_
_space_group_symop_operation_xyz
x,y,z
-x,-y,-z
loop_
_atom_site_type_symbol
_atom_site_label
_atom_site_fract_x
_atom_site_fract_y
_atom_site_fract_z
Si Si1 0.792128 0.872453 0.269524
Si Si2 0.696009 0.000373 0.330441
Si Si3 0.157305 0.946592 0.372166
Si Si4 0.386230 0.733527 0.158955
Si Si5 0.174060 0.395751 0.774611
Si Si6 0.953511 0.664030 0.371845
Si Si7 0.141782 0.143369 0.260426
Si Si8 0.734485 0.141815 0.761142
O O1 0.667160 0.906519 0.373959
O O2 0.791572 0.764225 0.339771
O O3 0.035611 0.839409 0.300036
O O4 0.739070 0.003416 0.013961
O O5 0.699436 0.932633 0.561384
O O6 0.942358 0.999944 0.268904
O O7 0.593866 0.143022 0.104851
O O8 0.305418 0.861181 0.368274
O O9 0.080947 0.873916 0.611845
O O10 0.205108 0.066180 0.238857
O O11 0.579591 0.621352 0.245775
O O12 0.162349 0.709581 0.227304
O O13 0.399989 0.765271 0.249900
O O14 0.035603 0.533670 0.620688
O O15 0.132346 0.363068 0.695651
O O16 0.126310 0.286504 0.032191
#
# Coordination Sequence:
#
# PCOD9082418 Si02
#       8
#     2   2   2   2   2   2   2   2
#     4   8  13  26  49  70  93 125 168 196 247 288
#     4   8  15  28  50  76  97 130 156 204 254 295
#     4   8  14  27  49  73 103 133 159 194 255 302
#     4  10  19  33  55  75 101 129 163 210 254 286
#     4  11  22  34  49  77 101 132 174 200 239 303
#     4  10  21  35  52  70 100 139 167 208 242 280
#     4   9  17  28  47  75 107 129 164 198 248 306
#     4   8  13  25  49  76  94 125 161 207 251 292
#
# _framework density 20.187366000000001
#
# number of rings (size 3 to 8) (size 9 to 14) (size 15 to 20)
#    0.750    2.250    0.000    4.125    0.000    0.500 
#    0.000    6.250    0.000    0.000    0.000    1.750 
#    0.000    0.250    0.000    0.000    0.000    0.000 
#
# Total GULP energy -89080.907459 kJ/mol
# GULP energy per Si atom -5567.556716 kJ/mol
# Density = 2.014142 g / cm^3
# Si number density = 20.187366 Si / 1000 Ang^3
#
#
#
# Elastic Constant Matrix: (Units=GPa)
#
#
# Indices 1 2 3 4 5 6 
#
# 1 42.3921 -6.2099 -1.5889 1.7353 0.1976 -0.1899
# 2 -6.2099 26.7510 -21.1000 3.3209 1.0645 11.1425
# 3 -1.5889 -21.1000 56.9196 -0.0912 -9.6907 -3.6363
# 4 1.7353 3.3209 -0.0912 24.4387 2.3138 5.5485
# 5 0.1976 1.0645 -9.6907 2.3138 18.2346 -1.4265
# 6 -0.1899 11.1425 -3.6363 5.5485 -1.4265 20.8501
#
#
#
# Elastic Compliance Matrix: (Units=1/GPa)
#
#
# Indices 1 2 3 4 5 6 
#
# 1 0.025664 0.012286 0.005276 -0.002596 0.001778 -0.004599
# 2 0.012286 0.076852 0.028006 -0.004165 0.008100 -0.034411
# 3 0.005276 0.028006 0.029998 -0.003644 0.014106 -0.007752
# 4 -0.002596 -0.004165 -0.003644 0.044920 -0.008222 -0.010949
# 5 0.001778 0.008100 0.014106 -0.008222 0.063253 0.004663
# 6 -0.004599 -0.034411 -0.007752 -0.010949 0.004663 0.068190
#
#
# Mechanical properties :
#
#
# Convention : Reuss Voigt Hill
#
# Bulk Modulus (GPa) = 4.47129 7.58500 6.02814
# Shear Modulus (GPa) = 17.10619 23.03546 20.07082
#
# Velocity S-wave (km/s) = 2.91412 3.38166 3.15656
# Velocity P-wave (km/s) = 3.68002 4.36038 4.03457
#
# Compressibility (1/GPa) = 0.22364888
#
# Stress axis : x y z
#
# Youngs Moduli (GPa) = 38.96478 13.01209 33.33540
#
# Poissons Ratio (x) = -0.15987 -0.17586
# Poissons Ratio (y) = -0.47873 -0.93358
# Poissons Ratio (z) = -0.20556 -0.36441
#
# Static dielectric constant tensor:
#      x y z
#    x 1.820390 -0.033450 -0.012410 
#    y -0.033450 1.787580 0.033950 
#    z -0.012410 0.033950 1.700670 
# 
# From -- ./inp_files/404036.got.cif
#   From: 2010.05.17/outbox.cif.g08.bks.cpg/sg2_203_cif.got.tgz:404036.got - 2010.06.03 11:33:40.
