data_PCOD9082005
_publ_section_title
;
Structure prediction by ZEFSAII (Michael W. Deem and Ramdas Pophale) SiO2 
 PCOD9082005
Probable space group: P -1
;
_chemical_formula_sum "Si O2"
_cell_formula_units_Z 16
_cell_length_a 14.442485
_cell_length_b 11.824196
_cell_length_c 8.438078
_cell_angle_alpha 64.558295
_cell_angle_beta 56.331577
_cell_angle_gamma 40.389233
_cell_volume 777.025400
_symmetry_space_group_name_H-M "P -1"
_symmetry_group_IT_number 2
_symmetry_cell_setting 'triclinic'
loop_
_space_group_symop_operation_xyz
x,y,z
-x,-y,-z
loop_
_atom_site_type_symbol
_atom_site_label
_atom_site_fract_x
_atom_site_fract_y
_atom_site_fract_z
Si Si1 0.819154 0.760548 0.445209
Si Si2 0.270514 0.995856 0.886672
Si Si3 0.737684 0.489286 0.122167
Si Si4 0.006495 0.753017 0.763422
Si Si5 0.447964 0.894307 0.102777
Si Si6 0.908314 0.587453 0.766656
Si Si7 0.821845 0.159256 0.128621
Si Si8 0.151365 0.036125 0.498587
O O1 0.781686 0.719383 0.670641
O O2 0.928802 0.574744 0.369111
O O3 0.715803 0.905878 0.319680
O O4 0.903808 0.816417 0.408399
O O5 0.278402 0.857175 0.873353
O O6 0.388312 0.920422 0.964336
O O7 0.100798 0.133507 0.050502
O O8 0.578189 0.689478 0.145798
O O9 0.757255 0.350673 0.079223
O O10 0.813104 0.394530 0.276693
O O11 0.856616 0.502707 0.948184
O O12 0.938502 0.675525 0.806180
O O13 0.969919 0.876244 0.581080
O O14 0.307008 0.968742 0.310260
O O15 0.500000 0.000000 0.000000
O O16 0.817605 0.110706 0.341664
O O17 0.000000 0.000000 0.000000
#
# Coordination Sequence:
#
# PCOD9082005 Si02
#       8
#     2   2   2   2   2   2   2   2
#     4   9  17  33  60  82 119 156 198 260 324 340
#     4  10  20  40  62  88 123 166 201 257 316 356
#     4  12  22  36  62  92 123 165 213 246 309 372
#     4  10  19  35  63  91 121 158 206 270 310 352
#     4  11  25  42  64  90 130 169 207 249 312 379
#     4  10  19  32  59  95 120 150 210 273 310 355
#     4  11  22  42  70  91 124 160 215 260 305 368
#     4   9  21  41  61  90 126 162 204 257 311 363
#
# _framework density 20.591346999999999
#
# number of rings (size 3 to 8) (size 9 to 14) (size 15 to 20)
#    0.000    1.750    2.500    3.375    1.750    1.500 
#    0.000    5.625    5.500    0.000    0.000    0.000 
#    0.000    0.000    0.000    0.000    0.000    0.000 
#
# Total GULP energy -89115.956908 kJ/mol
# GULP energy per Si atom -5569.747307 kJ/mol
# Density = 2.054448 g / cm^3
# Si number density = 20.591347 Si / 1000 Ang^3
#
#
#
# Elastic Constant Matrix: (Units=GPa)
#
#
# Indices 1 2 3 4 5 6 
#
# 1 109.1857 65.1343 46.3096 -17.6072 19.6586 6.3019
# 2 65.1343 142.1601 28.0383 -13.6265 9.7365 9.8015
# 3 46.3096 28.0383 62.7376 -7.0089 16.1441 4.9419
# 4 -17.6072 -13.6265 -7.0089 17.9202 1.2138 0.2582
# 5 19.6586 9.7365 16.1441 1.2138 26.6572 -9.3845
# 6 6.3019 9.8015 4.9419 0.2582 -9.3845 43.5216
#
#
#
# Elastic Compliance Matrix: (Units=1/GPa)
#
#
# Indices 1 2 3 4 5 6 
#
# 1 0.019673 -0.005372 -0.008116 0.012733 -0.009187 -0.002774
# 2 -0.005372 0.009831 0.000010 0.002241 -0.000268 -0.001508
# 3 -0.008116 0.000010 0.025373 0.002758 -0.010949 -0.004085
# 4 0.012733 0.002241 0.002758 0.072387 -0.017599 -0.006886
# 5 -0.009187 -0.000268 -0.010949 -0.017599 0.057119 0.015055
# 6 -0.002774 -0.001508 -0.004085 -0.006886 0.015055 0.027469
#
#
# Mechanical properties :
#
#
# Convention : Reuss Voigt Hill
#
# Bulk Modulus (GPa) = 35.81504 65.89420 50.85462
# Shear Modulus (GPa) = 20.15197 29.25985 24.70591
#
# Velocity S-wave (km/s) = 3.13175 3.77368 3.46760
# Velocity P-wave (km/s) = 5.52342 7.14548 6.38616
#
# Compressibility (1/GPa) = 0.02792123
#
# Stress axis : x y z
#
# Youngs Moduli (GPa) = 50.83091 101.72018 39.41224
#
# Poissons Ratio (x) = 0.54645 0.31986
# Poissons Ratio (y) = 0.27307 -0.00039
# Poissons Ratio (z) = 0.41253 -0.00102
#
# Static dielectric constant tensor:
#      x y z
#    x 1.752890 -0.021650 0.006390 
#    y -0.021650 1.817610 -0.008170 
#    z 0.006390 -0.008170 1.796070 
# 
# From -- ./inp_files/306709.got.cif
#   From: 2010.05.17/outbox.cif.g08.bks.cpg/sg2_154_cif.got.tgz:306709.got - 2010.06.03 11:33:40.
