data_PCOD9082944
_publ_section_title
;
Structure prediction by ZEFSAII (Michael W. Deem and Ramdas Pophale) SiO2 
 PCOD9082944
Probable space group: P -1
;
_chemical_formula_sum "Si O2"
_cell_formula_units_Z 16
_cell_length_a 9.324819
_cell_length_b 12.548788
_cell_length_c 18.753677
_cell_angle_alpha 30.446983
_cell_angle_beta 136.352865
_cell_angle_gamma 133.340465
_cell_volume 755.177088
_symmetry_space_group_name_H-M "P -1"
_symmetry_group_IT_number 2
_symmetry_cell_setting 'triclinic'
loop_
_space_group_symop_operation_xyz
x,y,z
-x,-y,-z
loop_
_atom_site_type_symbol
_atom_site_label
_atom_site_fract_x
_atom_site_fract_y
_atom_site_fract_z
Si Si1 0.765437 0.050544 0.483262
Si Si2 0.741239 0.312824 0.030816
Si Si3 0.856465 0.579031 0.789666
Si Si4 0.394364 0.298328 0.029394
Si Si5 0.676089 0.490441 0.508651
Si Si6 0.996202 0.497491 0.259361
Si Si7 0.329325 0.928129 0.333440
Si Si8 0.060323 0.099654 0.696735
O O1 0.822424 0.817990 0.622910
O O2 0.512849 0.025190 0.400094
O O3 0.874923 0.248238 0.359183
O O4 0.881500 0.102806 0.569891
O O5 0.534906 0.259761 0.034797
O O6 0.917674 0.419208 0.090764
O O7 0.838122 0.112868 0.151260
O O8 0.707027 0.463655 0.864991
O O9 0.858326 0.466135 0.779600
O O10 0.361659 0.092837 0.185515
O O11 0.500000 0.500000 0.000000
O O12 0.176573 0.355188 0.892210
O O13 0.500000 0.500000 0.500000
O O14 0.618127 0.294169 0.547687
O O15 0.754299 0.702949 0.368000
O O16 0.874541 0.461046 0.645765
O O17 0.086831 0.897514 0.289171
#
# Coordination Sequence:
#
# PCOD9082944 Si02
#       8
#     2   2   2   2   2   2   2   2
#     4  10  21  35  64  96 127 157 214 265 319 368
#     4  10  21  36  58  94 124 162 200 260 317 367
#     4  10  19  33  59  89 128 159 206 255 313 369
#     4  12  23  38  65  93 131 163 208 259 319 376
#     4  11  25  44  66  90 130 170 213 258 314 377
#     4  11  22  40  62  94 125 167 213 259 312 379
#     4  12  23  41  66  93 127 172 208 262 318 373
#     4  10  23  41  65  94 127 165 215 262 314 376
#
# _framework density 21.187083999999999
#
# number of rings (size 3 to 8) (size 9 to 14) (size 15 to 20)
#    0.000    1.250    2.500    3.375    3.500    4.500 
#    0.000    1.250    0.000    5.250    0.000    0.000 
#    0.000    0.000    0.000    0.000    0.000    0.000 
#
# Total GULP energy -89336.008300 kJ/mol
# GULP energy per Si atom -5583.500519 kJ/mol
# Density = 2.113886 g / cm^3
# Si number density = 21.187084 Si / 1000 Ang^3
#
#
#
# Elastic Constant Matrix: (Units=GPa)
#
#
# Indices 1 2 3 4 5 6 
#
# 1 118.6738 -0.1662 0.4566 -20.8166 -11.4293 2.2706
# 2 -0.1662 49.6268 8.2956 -12.0973 -6.6044 5.6711
# 3 0.4566 8.2956 48.1730 -8.7594 -2.3524 4.9544
# 4 -20.8166 -12.0973 -8.7594 26.8304 7.4735 -0.6486
# 5 -11.4293 -6.6044 -2.3524 7.4735 21.6703 1.9726
# 6 2.2706 5.6711 4.9544 -0.6486 1.9726 24.9582
#
#
#
# Elastic Compliance Matrix: (Units=1/GPa)
#
#
# Indices 1 2 3 4 5 6 
#
# 1 0.010309 0.002583 0.001382 0.008570 0.003588 -0.001860
# 2 0.002583 0.024418 -0.001400 0.010915 0.005402 -0.005649
# 3 0.001382 -0.001400 0.022833 0.007649 0.000524 -0.004183
# 4 0.008570 0.010915 0.007649 0.053978 -0.009701 -0.002609
# 5 0.003588 0.005402 0.000524 -0.009701 0.053647 -0.006150
# 6 -0.001860 -0.005649 -0.004183 -0.002609 -0.006150 0.042768
#
#
# Mechanical properties :
#
#
# Convention : Reuss Voigt Hill
#
# Bulk Modulus (GPa) = 15.95147 25.96062 20.95605
# Shear Modulus (GPa) = 22.34930 28.55094 25.45012
#
# Velocity S-wave (km/s) = 3.25138 3.67490 3.46961
# Velocity P-wave (km/s) = 4.65193 5.50329 5.09542
#
# Compressibility (1/GPa) = 0.06269013
#
# Stress axis : x y z
#
# Youngs Moduli (GPa) = 97.00141 40.95308 43.79618
#
# Poissons Ratio (x) = -0.10576 -0.06054
# Poissons Ratio (y) = -0.25051 0.06131
# Poissons Ratio (z) = -0.13409 0.05733
#
# Static dielectric constant tensor:
#      x y z
#    x 1.794050 0.014790 -0.012800 
#    y 0.014790 1.795530 -0.017300 
#    z -0.012800 -0.017300 1.743600 
# 
# From -- ./inp_files/279203.got.cif
#   From: 2010.05.17/outbox.cif.g08.bks.cpg/sg2_140_cif.got.tgz:279203.got - 2010.06.03 11:33:40.
