data_PCOD9082984
_publ_section_title
;
Structure prediction by ZEFSAII (Michael W. Deem and Ramdas Pophale) SiO2 
 PCOD9082984
Probable space group: P -1
;
_chemical_formula_sum "Si O2"
_cell_formula_units_Z 16
_cell_length_a 14.972432
_cell_length_b 12.185143
_cell_length_c 8.947966
_cell_angle_alpha 129.448226
_cell_angle_beta 38.284608
_cell_angle_gamma 109.702484
_cell_volume 735.123110
_symmetry_space_group_name_H-M "P -1"
_symmetry_group_IT_number 2
_symmetry_cell_setting 'triclinic'
loop_
_space_group_symop_operation_xyz
x,y,z
-x,-y,-z
loop_
_atom_site_type_symbol
_atom_site_label
_atom_site_fract_x
_atom_site_fract_y
_atom_site_fract_z
Si Si1 0.221694 0.032601 0.699571
Si Si2 0.960441 0.995032 0.794869
Si Si3 0.946635 0.245093 0.806060
Si Si4 0.322570 0.565723 0.841547
Si Si5 0.715522 0.825837 0.669557
Si Si6 0.372027 0.290438 0.733253
Si Si7 0.578397 0.175866 0.098263
Si Si8 0.538221 0.852138 0.216522
O O1 0.268415 0.183518 0.749472
O O2 0.099017 0.016302 0.728534
O O3 0.381183 0.892010 0.364667
O O4 0.151999 0.030916 0.954791
O O5 0.005039 0.861763 0.497917
O O6 0.895649 0.146824 0.911558
O O7 0.106600 0.260123 0.662283
O O8 0.810963 0.397756 0.074784
O O9 0.500000 0.500000 0.500000
O O10 0.300144 0.457645 0.905757
O O11 0.320990 0.733699 0.024718
O O12 0.590574 0.768468 0.704928
O O13 0.671600 0.835013 0.909058
O O14 0.665908 0.997945 0.823748
O O15 0.530418 0.214323 0.367762
O O16 0.412844 0.283598 0.848148
O O17 0.500000 0.000000 0.500000
#
# Coordination Sequence:
#
# PCOD9082984 Si02
#       8
#     2   2   2   2   2   2   2   2
#     4  10  20  37  58  91 123 148 190 245 301 347
#     4  10  22  35  61  94 118 144 191 256 301 338
#     4  11  22  37  62  87 121 151 196 244 300 342
#     4  10  24  39  58  82 121 163 201 237 288 359
#     4  11  21  35  63  96 116 144 196 255 298 338
#     4  10  20  38  58  80 113 166 196 228 288 360
#     4  10  20  36  61  90 120 148 195 247 294 340
#     4  10  19  33  60  85 117 150 195 231 291 353
#
# _framework density 21.765060999999999
#
# number of rings (size 3 to 8) (size 9 to 14) (size 15 to 20)
#    0.000    1.750    2.500    3.750    7.000    0.000 
#    0.000    8.750    0.000    0.000    0.000    0.000 
#    0.000    0.000    0.000    0.000    0.000    0.000 
#
# Total GULP energy -89306.027889 kJ/mol
# GULP energy per Si atom -5581.626743 kJ/mol
# Density = 2.171552 g / cm^3
# Si number density = 21.765061 Si / 1000 Ang^3
#
#
#
# Elastic Constant Matrix: (Units=GPa)
#
#
# Indices 1 2 3 4 5 6 
#
# 1 96.3780 41.1195 21.1742 -6.4744 -28.7593 -10.5574
# 2 41.1195 156.2568 34.5439 -20.3798 -17.9402 -17.5511
# 3 21.1742 34.5439 62.5870 -14.8817 -23.9530 -12.0788
# 4 -6.4744 -20.3798 -14.8817 26.7237 -9.1822 -5.0977
# 5 -28.7593 -17.9402 -23.9530 -9.1822 48.6623 -1.6442
# 6 -10.5574 -17.5511 -12.0788 -5.0977 -1.6442 39.1075
#
#
#
# Elastic Compliance Matrix: (Units=1/GPa)
#
#
# Indices 1 2 3 4 5 6 
#
# 1 0.015379 -0.001305 0.004558 0.011132 0.013188 0.006979
# 2 -0.001305 0.009012 0.000644 0.009606 0.004862 0.005348
# 3 0.004558 0.000644 0.037149 0.035702 0.028591 0.018849
# 4 0.011132 0.009606 0.035702 0.089063 0.045576 0.031869
# 5 0.013188 0.004862 0.028591 0.045576 0.053579 0.022766
# 6 0.006979 0.005348 0.018849 0.031869 0.022766 0.040788
#
#
# Mechanical properties :
#
#
# Convention : Reuss Voigt Hill
#
# Bulk Modulus (GPa) = 14.42261 56.54411 35.48336
# Shear Modulus (GPa) = 19.20959 37.45764 28.33361
#
# Velocity S-wave (km/s) = 2.97406 4.15299 3.61195
# Velocity P-wave (km/s) = 4.29351 7.00230 5.80803
#
# Compressibility (1/GPa) = 0.06933560
#
# Stress axis : x y z
#
# Youngs Moduli (GPa) = 65.02554 110.95736 26.91841
#
# Poissons Ratio (x) = 0.14477 -0.12270
# Poissons Ratio (y) = 0.08484 -0.01734
# Poissons Ratio (z) = -0.29640 -0.07147
#
# Static dielectric constant tensor:
#      x y z
#    x 1.900410 0.006590 -0.002570 
#    y 0.006590 1.831330 0.014020 
#    z -0.002570 0.014020 1.816420 
# 
# From -- ./inp_files/308248.got.cif
#   From: 2010.05.17/outbox.cif.g08.bks.cpg/sg2_155_cif.got.tgz:308248.got - 2010.06.03 11:33:40.
