data_PCOD9082592
_publ_section_title
;
Structure prediction by ZEFSAII (Michael W. Deem and Ramdas Pophale) SiO2 
 PCOD9082592
Probable space group: P -1
;
_chemical_formula_sum "Si O2"
_cell_formula_units_Z 12
_cell_length_a 9.749743
_cell_length_b 14.186112
_cell_length_c 12.840614
_cell_angle_alpha 38.910681
_cell_angle_beta 109.447813
_cell_angle_gamma 140.575967
_cell_volume 524.489541
_symmetry_space_group_name_H-M "P -1"
_symmetry_group_IT_number 2
_symmetry_cell_setting 'triclinic'
loop_
_space_group_symop_operation_xyz
x,y,z
-x,-y,-z
loop_
_atom_site_type_symbol
_atom_site_label
_atom_site_fract_x
_atom_site_fract_y
_atom_site_fract_z
Si Si1 0.518098 0.769783 0.725719
Si Si2 0.276828 0.879352 0.191132
Si Si3 0.603654 0.532862 0.864540
Si Si4 0.770178 0.274615 0.473557
Si Si5 0.054365 0.152327 0.749650
Si Si6 0.590613 0.436647 0.716976
O O1 0.321055 0.526248 0.979790
O O2 0.349338 0.698195 0.650720
O O3 0.717943 0.077614 0.562650
O O4 0.668464 0.755576 0.730828
O O5 0.390727 0.896891 0.308342
O O6 0.094108 0.607568 0.305079
O O7 0.044735 0.792792 0.254987
O O8 0.508805 0.189559 0.924856
O O9 0.713192 0.597854 0.721115
O O10 0.248773 0.201032 0.050998
O O11 0.285637 0.253368 0.778841
O O12 0.215372 0.349632 0.516147
#
# Coordination Sequence:
#
# PCOD9082592 Si02
#       6
#     2   2   2   2   2   2
#     4  10  19  33  58  83 108 146 181 215 270 327
#     4  10  19  36  58  78 109 144 180 221 272 315
#     4  10  19  36  58  78 109 144 180 221 272 315
#     4  10  19  33  58  83 108 146 181 215 270 327
#     4  10  19  33  56  84 108 138 184 229 267 314
#     4  10  19  33  56  84 108 138 184 229 267 314
#
# _framework density 22.879389
#
# number of rings (size 3 to 8) (size 9 to 14) (size 15 to 20)
#    0.000    2.000    3.333    4.000    0.000    0.000 
#    0.000    6.667    0.000    8.000    0.000    0.000 
#    0.000    0.000    0.000    0.000    0.000    0.000 
#
# Total GULP energy -67056.975619 kJ/mol
# GULP energy per Si atom -5588.081302 kJ/mol
# Density = 2.282731 g / cm^3
# Si number density = 22.879389 Si / 1000 Ang^3
#
#
#
# Elastic Constant Matrix: (Units=GPa)
#
#
# Indices 1 2 3 4 5 6 
#
# 1 65.2196 32.4187 52.7944 2.0730 10.8748 -10.0486
# 2 32.4187 133.4399 76.7871 18.7678 20.5340 -16.3271
# 3 52.7944 76.7871 164.6633 35.7520 7.7047 -19.7159
# 4 2.0730 18.7678 35.7520 50.6922 6.7487 20.6102
# 5 10.8748 20.5340 7.7047 6.7487 44.0770 0.3202
# 6 -10.0486 -16.3271 -19.7159 20.6102 0.3202 45.4985
#
#
#
# Elastic Compliance Matrix: (Units=1/GPa)
#
#
# Indices 1 2 3 4 5 6 
#
# 1 0.022889 -0.001321 -0.008224 0.006792 -0.004620 -0.002027
# 2 -0.001321 0.011312 -0.003816 -0.002189 -0.003965 0.003134
# 3 -0.008224 -0.003816 0.013867 -0.011750 0.003123 0.008124
# 4 0.006792 -0.002189 -0.011750 0.037849 -0.004241 -0.021492
# 5 -0.004620 -0.003965 0.003123 -0.004241 0.025773 0.000650
# 6 -0.002027 0.003134 0.008124 -0.021492 0.000650 0.035907
#
#
# Mechanical properties :
#
#
# Convention : Reuss Voigt Hill
#
# Bulk Modulus (GPa) = 46.84514 76.36924 61.60719
# Shear Modulus (GPa) = 27.55842 41.47504 34.51673
#
# Velocity S-wave (km/s) = 3.47437 4.26228 3.88833
# Velocity P-wave (km/s) = 6.05097 7.59436 6.86617
#
# Compressibility (1/GPa) = 0.02134693
#
# Stress axis : x y z
#
# Youngs Moduli (GPa) = 43.68998 88.40220 72.11507
#
# Poissons Ratio (x) = 0.11675 0.59307
# Poissons Ratio (y) = 0.05770 0.27516
# Poissons Ratio (z) = 0.35930 0.33730
#
# Static dielectric constant tensor:
#      x y z
#    x 1.870330 0.003310 -0.004900 
#    y 0.003310 1.872510 0.013370 
#    z -0.004900 0.013370 1.891290 
# 
# From -- ./inp_files/432456.got.cif
#   From: 2010.05.17/outbox.cif.g08.bks.cpg/sg2_217_cif.got.tgz:432456.got - 2010.06.03 11:33:40.
