data_PCOD9082821
_publ_section_title
;
Structure prediction by ZEFSAII (Michael W. Deem and Ramdas Pophale) SiO2 
 PCOD9082821
Probable space group: P -1
;
_chemical_formula_sum "Si O2"
_cell_formula_units_Z 16
_cell_length_a 9.247736
_cell_length_b 28.166367
_cell_length_c 12.640367
_cell_angle_alpha 30.095759
_cell_angle_beta 132.442903
_cell_angle_gamma 154.139836
_cell_volume 634.056692
_symmetry_space_group_name_H-M "P -1"
_symmetry_group_IT_number 2
_symmetry_cell_setting 'triclinic'
loop_
_space_group_symop_operation_xyz
x,y,z
-x,-y,-z
loop_
_atom_site_type_symbol
_atom_site_label
_atom_site_fract_x
_atom_site_fract_y
_atom_site_fract_z
Si Si1 0.930423 0.413407 0.758909
Si Si2 0.647550 0.929060 0.476833
Si Si3 0.389493 0.694425 0.971612
Si Si4 0.722524 0.932394 0.282814
Si Si5 0.439466 0.504273 0.338123
Si Si6 0.836978 0.761099 0.711884
Si Si7 0.316671 0.391999 0.273616
Si Si8 0.819827 0.276198 0.769794
O O1 0.682047 0.252590 0.862237
O O2 0.342742 0.543264 0.690264
O O3 0.946965 0.532779 0.519630
O O4 0.808897 0.346043 0.946831
O O5 0.357054 0.750105 0.748868
O O6 0.550106 0.910338 0.344547
O O7 0.000000 0.000000 0.500000
O O8 0.815985 0.080089 0.342843
O O9 0.268717 0.538393 0.189059
O O10 0.831595 0.867295 0.886941
O O11 0.683375 0.802652 0.528752
O O12 0.507369 0.874951 0.183318
O O13 0.500000 0.500000 0.500000
O O14 0.223092 0.359456 0.415065
O O15 0.868606 0.677000 0.171582
O O16 0.945599 0.754996 0.667070
O O17 0.517698 0.570132 0.984523
#
# Coordination Sequence:
#
# PCOD9082821 Si02
#       8
#     2   2   2   2   2   2   2   2
#     4  10  20  36  54  81 114 144 181 226 269 321
#     4   8  17  34  56  76 109 142 176 221 273 323
#     4  10  20  36  58  81 110 145 184 223 274 321
#     4  10  19  36  58  80 113 147 180 219 279 333
#     4  11  21  35  55  81 114 142 181 230 268 320
#     4   9  17  33  57  80 101 145 183 217 269 328
#     4  10  19  33  58  83 109 141 184 223 276 322
#     4  10  21  36  55  79 113 149 179 223 274 320
#
# _framework density 25.234335999999999
#
# number of rings (size 3 to 8) (size 9 to 14) (size 15 to 20)
#    0.000    2.500    2.500    2.250    0.000    1.000 
#    0.000    6.875    0.000    0.000    0.000    0.000 
#    0.000    0.000    0.000    0.000    0.000    0.000 
#
# Total GULP energy -89433.020826 kJ/mol
# GULP energy per Si atom -5589.563802 kJ/mol
# Density = 2.517690 g / cm^3
# Si number density = 25.234336 Si / 1000 Ang^3
#
#
#
# Elastic Constant Matrix: (Units=GPa)
#
#
# Indices 1 2 3 4 5 6 
#
# 1 119.1211 66.7540 30.4404 13.5407 -16.1442 -45.9126
# 2 66.7540 155.7382 17.1561 5.4367 0.7403 -52.8215
# 3 30.4404 17.1561 60.6446 11.5639 0.8404 -21.1551
# 4 13.5407 5.4367 11.5639 24.5390 -6.1889 -1.6734
# 5 -16.1442 0.7403 0.8404 -6.1889 32.2117 5.8933
# 6 -45.9126 -52.8215 -21.1551 -1.6734 5.8933 61.0207
#
#
#
# Elastic Compliance Matrix: (Units=1/GPa)
#
#
# Indices 1 2 3 4 5 6 
#
# 1 0.015089 -0.003921 -0.003734 -0.003795 0.005925 0.005988
# 2 -0.003921 0.010326 0.001798 -0.001456 -0.003798 0.006938
# 3 -0.003734 0.001798 0.022117 -0.009711 -0.005579 0.006687
# 4 -0.003795 -0.001456 -0.009711 0.049585 0.009195 -0.007011
# 5 0.005925 -0.003798 -0.005579 0.009195 0.036757 -0.004062
# 6 0.005988 0.006938 0.006687 -0.007011 -0.004062 0.029418
#
#
# Mechanical properties :
#
#
# Convention : Reuss Voigt Hill
#
# Bulk Modulus (GPa) = 27.92011 62.68943 45.30477
# Shear Modulus (GPa) = 26.74590 38.29783 32.52186
#
# Velocity S-wave (km/s) = 3.25914 3.89998 3.59387
# Velocity P-wave (km/s) = 5.02504 6.72135 5.93412
#
# Compressibility (1/GPa) = 0.03581648
#
# Stress axis : x y z
#
# Youngs Moduli (GPa) = 66.27558 96.84522 45.21406
#
# Poissons Ratio (x) = 0.37971 0.16884
# Poissons Ratio (y) = 0.25985 -0.08128
# Poissons Ratio (z) = 0.24748 -0.17409
#
# Static dielectric constant tensor:
#      x y z
#    x 2.008550 -0.025770 -0.002730 
#    y -0.025770 2.104510 -0.006660 
#    z -0.002730 -0.006660 2.008120 
# 
# From -- ./inp_files/406615.got.cif
#   From: 2010.05.17/outbox.cif.g08.bks.cpg/sg2_204_cif.got.tgz:406615.got - 2010.06.03 11:33:40.
