data_PCOD9082302
_publ_section_title
;
Structure prediction by ZEFSAII (Michael W. Deem and Ramdas Pophale) SiO2 
 PCOD9082302
Probable space group: P -1
;
_chemical_formula_sum "Si O2"
_cell_formula_units_Z 14
_cell_length_a 6.764658
_cell_length_b 8.059202
_cell_length_c 14.210879
_cell_angle_alpha 50.279102
_cell_angle_beta 121.856909
_cell_angle_gamma 104.209905
_cell_volume 501.122311
_symmetry_space_group_name_H-M "P -1"
_symmetry_group_IT_number 2
_symmetry_cell_setting 'triclinic'
loop_
_space_group_symop_operation_xyz
x,y,z
-x,-y,-z
loop_
_atom_site_type_symbol
_atom_site_label
_atom_site_fract_x
_atom_site_fract_y
_atom_site_fract_z
Si Si1 0.803235 0.424588 0.212624
Si Si2 0.352382 0.243373 0.725807
Si Si3 0.222792 0.188975 0.161035
Si Si4 0.510485 0.245686 0.572741
Si Si5 0.576457 0.318769 0.352110
Si Si6 0.896289 0.249679 0.901858
Si Si7 0.594557 0.222156 0.070456
O O1 0.766656 0.240303 0.345991
O O2 0.004959 0.575590 0.204248
O O3 0.789124 0.320360 0.143987
O O4 0.563469 0.604777 0.098052
O O5 0.327070 0.194658 0.626232
O O6 0.264291 0.489872 0.642390
O O7 0.624413 0.266749 0.807496
O O8 0.316203 0.023131 0.850537
O O9 0.337444 0.299935 0.237217
O O10 0.395112 0.206127 0.107742
O O11 0.258801 0.929751 0.284696
O O12 0.973588 0.278453 0.019317
O O13 0.500000 0.500000 0.500000
O O14 0.498147 0.225868 0.464866
O O15 0.000000 0.000000 0.000000
#
# Coordination Sequence:
#
# PCOD9082302 Si02
#       7
#     2   2   2   2   2   2   2
#     4   9  17  30  50  73  99 131 171 205 254 290
#     4  10  19  33  54  75 102 135 172 202 253 302
#     4   9  17  31  52  74 102 131 172 204 254 293
#     4   9  17  31  51  76 100 135 172 207 242 299
#     4  10  20  31  50  81 102 130 170 219 239 290
#     4  11  18  34  55  73 102 140 163 203 259 316
#     4   8  15  30  48  69  96 134 165 200 242 305
#
# _framework density 27.937290999999998
#
# number of rings (size 3 to 8) (size 9 to 14) (size 15 to 20)
#    0.000    2.571    4.286    1.286    0.000    1.143 
#    0.000    0.714    0.000    0.000    0.000   20.000 
#    0.000    0.000    0.000    0.000    0.000    0.000 
#
# Total GULP energy -77953.641495 kJ/mol
# GULP energy per Si atom -5568.117250 kJ/mol
# Density = 2.787370 g / cm^3
# Si number density = 27.937291 Si / 1000 Ang^3
#
#
#
# Elastic Constant Matrix: (Units=GPa)
#
#
# Indices 1 2 3 4 5 6 
#
# 1 65.8607 20.4513 28.0938 17.3875 -12.2867 9.4292
# 2 20.4513 154.0212 29.7357 5.3172 -6.3267 2.4390
# 3 28.0938 29.7357 118.1063 24.5011 -18.0775 -9.3056
# 4 17.3875 5.3172 24.5011 48.7750 -19.4203 -8.8410
# 5 -12.2867 -6.3267 -18.0775 -19.4203 33.7604 7.4011
# 6 9.4292 2.4390 -9.3056 -8.8410 7.4011 41.5694
#
#
#
# Elastic Compliance Matrix: (Units=1/GPa)
#
#
# Indices 1 2 3 4 5 6 
#
# 1 0.020148 -0.001594 -0.003295 -0.005074 0.003882 -0.006984
# 2 -0.001594 0.006988 -0.001481 0.000643 0.000374 -0.000310
# 3 -0.003295 -0.001481 0.010708 -0.002770 0.002169 0.002256
# 4 -0.005074 0.000643 -0.002770 0.029544 0.012799 0.004498
# 5 0.003882 0.000374 0.002169 0.012799 0.040711 -0.004943
# 6 -0.006984 -0.000310 0.002256 0.004498 -0.004943 0.028000
#
#
# Mechanical properties :
#
#
# Convention : Reuss Voigt Hill
#
# Bulk Modulus (GPa) = 39.83294 54.94996 47.39145
# Shear Modulus (GPa) = 31.80531 42.13480 36.97005
#
# Velocity S-wave (km/s) = 3.37776 3.88776 3.64170
# Velocity P-wave (km/s) = 5.43151 6.31384 5.88922
#
# Compressibility (1/GPa) = 0.02510485
#
# Stress axis : x y z
#
# Youngs Moduli (GPa) = 49.63374 143.09773 93.38868
#
# Poissons Ratio (x) = 0.22809 0.30769
# Poissons Ratio (y) = 0.07911 0.13829
# Poissons Ratio (z) = 0.16353 0.21190
#
# Static dielectric constant tensor:
#      x y z
#    x 2.242740 -0.057030 0.012230 
#    y -0.057030 2.511800 -0.168070 
#    z 0.012230 -0.168070 2.424740 
# 
# From -- ./inp_files/221941.got.cif
#   From: 2010.05.17/outbox.cif.g08.bks.cpg/sg2_111_cif.got.tgz:221941.got - 2010.06.03 11:33:40.
