data_PCOD9082390
_publ_section_title
;
Structure prediction by ZEFSAII (Michael W. Deem and Ramdas Pophale) SiO2 
 PCOD9082390
Probable space group: P -1
;
_chemical_formula_sum "Si O2"
_cell_formula_units_Z 16
_cell_length_a 9.916113
_cell_length_b 13.501997
_cell_length_c 20.157577
_cell_angle_alpha 148.320606
_cell_angle_beta 36.467843
_cell_angle_gamma 123.796823
_cell_volume 768.197821
_symmetry_space_group_name_H-M "P -1"
_symmetry_group_IT_number 2
_symmetry_cell_setting 'triclinic'
loop_
_space_group_symop_operation_xyz
x,y,z
-x,-y,-z
loop_
_atom_site_type_symbol
_atom_site_label
_atom_site_fract_x
_atom_site_fract_y
_atom_site_fract_z
Si Si1 0.452063 0.557178 0.861725
Si Si2 0.734432 0.691375 0.719098
Si Si3 0.316078 0.230199 0.003783
Si Si4 0.531468 0.153215 0.662311
Si Si5 0.970150 0.701965 0.215187
Si Si6 0.294156 0.952944 0.967516
Si Si7 0.749753 0.181651 0.723249
Si Si8 0.037019 0.296004 0.015917
O O1 0.544722 0.620929 0.794241
O O2 0.502591 0.315924 0.708668
O O3 0.617085 0.621667 0.887504
O O4 0.158345 0.673242 0.062980
O O5 0.586111 0.797974 0.771861
O O6 0.000000 0.500000 0.500000
O O7 0.760537 0.873788 0.855113
O O8 0.578355 0.106259 0.792408
O O9 0.243327 0.077030 0.989632
O O10 0.132785 0.327187 0.069607
O O11 0.614000 0.256774 0.750865
O O12 0.271676 0.164038 0.799896
O O13 0.738226 0.924369 0.435273
O O14 0.162301 0.680249 0.187155
O O15 0.902727 0.511009 0.151357
O O16 0.128900 0.827717 0.974129
O O17 0.000000 0.000000 0.500000
#
# Coordination Sequence:
#
# PCOD9082390 Si02
#       8
#     2   2   2   2   2   2   2   2
#     4   9  18  33  55  81 105 137 184 226 262 309
#     4  10  23  41  60  77  98 138 191 236 268 306
#     4   9  17  32  54  81 114 145 172 213 268 321
#     4   9  17  29  50  79 111 144 175 214 262 315
#     4   9  17  30  51  80 112 142 174 216 264 315
#     4  10  22  39  57  78 107 143 182 225 268 316
#     4   8  14  25  46  75 106 139 173 207 250 308
#     4  10  19  33  54  83 116 144 171 208 269 336
#
# _framework density 20.827967999999998
#
# number of rings (size 3 to 8) (size 9 to 14) (size 15 to 20)
#    0.000    2.750    0.000    1.125    0.000    9.000 
#    0.000    6.250    0.000   15.750    0.000    0.000 
#    0.000    0.000    0.000    0.000    0.000    0.000 
#
# Total GULP energy -89141.646404 kJ/mol
# GULP energy per Si atom -5571.352900 kJ/mol
# Density = 2.078056 g / cm^3
# Si number density = 20.827968 Si / 1000 Ang^3
#
#
#
# Elastic Constant Matrix: (Units=GPa)
#
#
# Indices 1 2 3 4 5 6 
#
# 1 70.3180 17.5785 13.4217 4.3462 -3.5351 -8.6303
# 2 17.5785 115.6674 22.2276 5.4393 -1.2800 -10.3430
# 3 13.4217 22.2276 110.1221 20.2891 -17.3418 -12.1995
# 4 4.3462 5.4393 20.2891 19.5179 -4.9683 -2.0732
# 5 -3.5351 -1.2800 -17.3418 -4.9683 18.3283 0.2379
# 6 -8.6303 -10.3430 -12.1995 -2.0732 0.2379 22.0455
#
#
#
# Elastic Compliance Matrix: (Units=1/GPa)
#
#
# Indices 1 2 3 4 5 6 
#
# 1 0.015529 -0.001754 -0.000401 -0.001521 0.002018 0.004870
# 2 -0.001754 0.009470 -0.001435 -0.000775 -0.001283 0.002903
# 3 -0.000401 -0.001435 0.013487 -0.010481 0.009671 0.005543
# 4 -0.001521 -0.000775 -0.010481 0.064438 0.007213 -0.000777
# 5 0.002018 -0.001283 0.009671 0.007213 0.065894 0.005507
# 6 0.004870 0.002903 0.005543 -0.000777 0.005507 0.051564
#
#
# Mechanical properties :
#
#
# Convention : Reuss Voigt Hill
#
# Bulk Modulus (GPa) = 31.94286 44.72921 38.33604
# Shear Modulus (GPa) = 21.00855 28.17031 24.58943
#
# Velocity S-wave (km/s) = 3.17940 3.68166 3.43971
# Velocity P-wave (km/s) = 5.37103 6.29245 5.84991
#
# Compressibility (1/GPa) = 0.03130590
#
# Stress axis : x y z
#
# Youngs Moduli (GPa) = 64.39478 105.60074 74.14305
#
# Poissons Ratio (x) = 0.18518 0.02975
# Poissons Ratio (y) = 0.11292 0.10642
# Poissons Ratio (z) = 0.02584 0.15157
#
# Static dielectric constant tensor:
#      x y z
#    x 1.888550 0.006930 0.000890 
#    y 0.006930 1.718990 0.003660 
#    z 0.000890 0.003660 1.714560 
# 
# From -- ./inp_files/523978.got.cif
#   From: 2010.05.17/outbox.cif.g08.bks.cpg/sg2_262_cif.got.tgz:523978.got - 2010.06.03 11:33:40.
