data_PCOD9082721
_publ_section_title
;
Structure prediction by ZEFSAII (Michael W. Deem and Ramdas Pophale) SiO2 
 PCOD9082721
Probable space group: P -1
;
_chemical_formula_sum "Si O2"
_cell_formula_units_Z 14
_cell_length_a 7.648544
_cell_length_b 14.284283
_cell_length_c 8.358819
_cell_angle_alpha 44.785393
_cell_angle_beta 95.719176
_cell_angle_gamma 97.868717
_cell_volume 637.269377
_symmetry_space_group_name_H-M "P -1"
_symmetry_group_IT_number 2
_symmetry_cell_setting 'triclinic'
loop_
_space_group_symop_operation_xyz
x,y,z
-x,-y,-z
loop_
_atom_site_type_symbol
_atom_site_label
_atom_site_fract_x
_atom_site_fract_y
_atom_site_fract_z
Si Si1 0.468733 0.696695 0.431521
Si Si2 0.385638 0.798939 0.640572
Si Si3 0.821719 0.783022 0.945672
Si Si4 0.758982 0.982441 0.467878
Si Si5 0.483487 0.430287 0.908830
Si Si6 0.674187 0.930283 0.039938
Si Si7 0.817611 0.162872 0.940904
O O1 0.377358 0.733836 0.544830
O O2 0.511759 0.545143 0.639955
O O3 0.647900 0.794654 0.306242
O O4 0.331686 0.737984 0.233617
O O5 0.246346 0.900020 0.546118
O O6 0.572622 0.889545 0.553990
O O7 0.388042 0.686529 0.914523
O O8 0.877981 0.874730 0.685227
O O9 0.707159 0.649283 0.044123
O O10 0.697703 0.869772 0.939823
O O11 0.993016 0.763255 0.090222
O O12 0.775167 0.059766 0.208751
O O13 0.500000 0.500000 0.000000
O O14 0.500000 0.000000 0.000000
O O15 0.819170 0.054143 0.929923
#
# Coordination Sequence:
#
# PCOD9082721 Si02
#       7
#     2   2   2   2   2   2   2
#     4  10  20  37  58  83 118 151 196 236 275 340
#     4   9  18  34  60  83 108 151 198 242 275 329
#     4  11  23  38  58  87 120 155 187 231 300 345
#     4  10  19  33  57  85 114 147 195 239 287 334
#     4   9  21  39  61  82 112 155 201 235 278 337
#     4  10  21  36  58  90 115 146 192 239 286 339
#     4  11  22  35  58  89 123 148 182 243 296 342
#
# _framework density 21.968731999999999
#
# number of rings (size 3 to 8) (size 9 to 14) (size 15 to 20)
#    0.000    2.000    1.429    2.571   10.000    1.143 
#    0.000    0.000    0.000    1.714    0.000    0.000 
#    0.000    0.000    0.000    0.000    0.000    0.000 
#
# Total GULP energy -77958.146027 kJ/mol
# GULP energy per Si atom -5568.439002 kJ/mol
# Density = 2.191873 g / cm^3
# Si number density = 21.968732 Si / 1000 Ang^3
#
#
#
# Elastic Constant Matrix: (Units=GPa)
#
#
# Indices 1 2 3 4 5 6 
#
# 1 34.4161 1.9959 7.2000 0.5860 9.7291 7.2720
# 2 1.9959 91.4722 22.3497 1.5932 -2.6925 12.0872
# 3 7.2000 22.3497 164.2562 -16.5260 12.9661 4.5017
# 4 0.5860 1.5932 -16.5260 37.6770 -1.0035 -3.2311
# 5 9.7291 -2.6925 12.9661 -1.0035 18.4742 8.3665
# 6 7.2720 12.0872 4.5017 -3.2311 8.3665 27.2266
#
#
#
# Elastic Compliance Matrix: (Units=1/GPa)
#
#
# Indices 1 2 3 4 5 6 
#
# 1 0.034663 -0.000645 -0.000157 -0.001367 -0.016481 -0.004043
# 2 -0.000645 0.012733 -0.002255 -0.001974 0.007075 -0.007516
# 3 -0.000157 -0.002255 0.007148 0.003253 -0.006038 0.002103
# 4 -0.001367 -0.001974 0.003253 0.028422 -0.002501 0.004845
# 5 -0.016481 0.007075 -0.006038 -0.002501 0.077894 -0.021973
# 6 -0.004043 -0.007516 0.002103 0.004845 -0.021973 0.048125
#
#
# Mechanical properties :
#
#
# Convention : Reuss Voigt Hill
#
# Bulk Modulus (GPa) = 20.64863 39.24840 29.94851
# Shear Modulus (GPa) = 21.62223 33.91550 27.76886
#
# Velocity S-wave (km/s) = 3.14064 3.93339 3.55916
# Velocity P-wave (km/s) = 4.75090 6.20751 5.52739
#
# Compressibility (1/GPa) = 0.04842937
#
# Stress axis : x y z
#
# Youngs Moduli (GPa) = 28.84897 78.53461 139.89712
#
# Poissons Ratio (x) = 0.05065 0.02201
# Poissons Ratio (y) = 0.01861 0.31552
# Poissons Ratio (z) = 0.00454 0.17713
#
# Static dielectric constant tensor:
#      x y z
#    x 1.893000 0.035060 -0.003810 
#    y 0.035060 1.887020 0.055100 
#    z -0.003810 0.055100 1.871940 
# 
# From -- ./inp_files/167653.got.cif
#   From: 2010.05.17/outbox.cif.g08.bks.cpg/sg2_84_cif.got.tgz:167653.got - 2010.06.03 11:33:40.
