data_PCOD9082023
_publ_section_title
;
Structure prediction by ZEFSAII (Michael W. Deem and Ramdas Pophale) SiO2 
 PCOD9082023
Probable space group: P -1
;
_chemical_formula_sum "Si O2"
_cell_formula_units_Z 16
_cell_length_a 11.868027
_cell_length_b 9.260139
_cell_length_c 19.664950
_cell_angle_alpha 110.750634
_cell_angle_beta 143.851455
_cell_angle_gamma 95.338577
_cell_volume 865.914851
_symmetry_space_group_name_H-M "P -1"
_symmetry_group_IT_number 2
_symmetry_cell_setting 'triclinic'
loop_
_space_group_symop_operation_xyz
x,y,z
-x,-y,-z
loop_
_atom_site_type_symbol
_atom_site_label
_atom_site_fract_x
_atom_site_fract_y
_atom_site_fract_z
Si Si1 0.241865 0.269123 0.859236
Si Si2 0.052807 0.504394 0.604993
Si Si3 0.885797 0.665539 0.765647
Si Si4 0.054889 0.896707 0.455168
Si Si5 0.495431 0.003785 0.381556
Si Si6 0.432778 0.628081 0.570960
Si Si7 0.879937 0.322531 0.746831
Si Si8 0.614800 0.921902 0.000117
O O1 0.086953 0.147454 0.693451
O O2 0.100338 0.317740 0.844567
O O3 0.500000 0.500000 0.000000
O O4 0.288120 0.147374 0.908310
O O5 0.353647 0.717281 0.801292
O O6 0.000000 0.500000 0.500000
O O7 0.029115 0.316345 0.590607
O O8 0.819302 0.475470 0.521634
O O9 0.676648 0.646961 0.705911
O O10 0.714979 0.520237 0.592327
O O11 0.964695 0.546468 0.817846
O O12 0.143797 0.897085 0.901702
O O13 0.354544 0.028949 0.600893
O O14 0.000000 0.000000 0.500000
O O15 0.266918 0.789940 0.273447
O O16 0.432746 0.130122 0.335661
O O17 0.689398 0.171594 0.564968
O O18 0.500000 0.000000 0.000000
#
# Coordination Sequence:
#
# PCOD9082023 Si02
#       8
#     2   2   2   2   2   2   2   2
#     4  11  21  37  60  85 120 153 193 249 294 346
#     4  11  24  42  59  87 128 160 196 249 303 361
#     4  10  19  32  60  91 117 148 204 247 295 357
#     4  10  22  38  60  88 115 158 200 241 297 356
#     4   8  16  32  53  78 117 150 192 239 290 345
#     4   9  18  35  55  86 119 155 194 244 297 353
#     4   9  17  32  54  85 115 148 192 249 293 337
#     4  12  23  38  61  94 120 158 203 247 302 353
#
# _framework density 18.477568000000002
#
# number of rings (size 3 to 8) (size 9 to 14) (size 15 to 20)
#    0.000    2.000    2.500    2.250    1.750    4.000 
#    0.000    0.625    0.000    0.750    0.000    0.000 
#    0.000    0.000    0.000    0.000    0.000    0.000 
#
# Total GULP energy -89090.206531 kJ/mol
# GULP energy per Si atom -5568.137908 kJ/mol
# Density = 1.843551 g / cm^3
# Si number density = 18.477568 Si / 1000 Ang^3
#
#
#
# Elastic Constant Matrix: (Units=GPa)
#
#
# Indices 1 2 3 4 5 6 
#
# 1 147.4054 75.5095 47.3053 7.0655 16.7955 -16.7342
# 2 75.5095 141.0975 56.6543 -3.3433 21.0491 -6.3130
# 3 47.3053 56.6543 57.3622 0.9630 12.3278 0.4525
# 4 7.0655 -3.3433 0.9630 26.1791 7.2783 8.0510
# 5 16.7955 21.0491 12.3278 7.2783 25.5589 -0.9434
# 6 -16.7342 -6.3130 0.4525 8.0510 -0.9434 33.8587
#
#
#
# Elastic Compliance Matrix: (Units=1/GPa)
#
#
# Indices 1 2 3 4 5 6 
#
# 1 0.011505 -0.003656 -0.005841 -0.005313 0.000015 0.006346
# 2 -0.003656 0.013796 -0.009443 0.004837 -0.005798 -0.000420
# 3 -0.005841 -0.009443 0.032661 0.002342 -0.005019 -0.005781
# 4 -0.005313 0.004837 0.002342 0.048878 -0.016051 -0.013825
# 5 0.000015 -0.005798 -0.005019 -0.016051 0.051038 0.004232
# 6 0.006346 -0.000420 -0.005781 -0.013825 0.004232 0.036075
#
#
# Mechanical properties :
#
#
# Convention : Reuss Voigt Hill
#
# Bulk Modulus (GPa) = 49.79449 78.31150 64.05300
# Shear Modulus (GPa) = 20.96207 28.21242 24.58725
#
# Velocity S-wave (km/s) = 3.37183 3.91173 3.65177
# Velocity P-wave (km/s) = 6.49354 7.92944 7.24714
#
# Compressibility (1/GPa) = 0.02008254
#
# Stress axis : x y z
#
# Youngs Moduli (GPa) = 86.92235 72.48531 30.61721
#
# Poissons Ratio (x) = 0.26497 0.17884
# Poissons Ratio (y) = 0.31775 0.28911
# Poissons Ratio (z) = 0.50773 0.68447
#
# Static dielectric constant tensor:
#      x y z
#    x 1.646550 -0.007650 0.018340 
#    y -0.007650 1.648500 -0.005610 
#    z 0.018340 -0.005610 1.686460 
# 
# From -- ./inp_files/566078.got.cif
#   From: 2010.05.17/outbox.cif.g08.bks.cpg/sg2_284_cif.got.tgz:566078.got - 2010.06.03 11:33:40.
