data_PCOD9082249
_publ_section_title
;
Structure prediction by ZEFSAII (Michael W. Deem and Ramdas Pophale) SiO2 
 PCOD9082249
Probable space group: P -1
;
_chemical_formula_sum "Si O2"
_cell_formula_units_Z 16
_cell_length_a 9.893761
_cell_length_b 13.382994
_cell_length_c 9.577907
_cell_angle_alpha 46.969309
_cell_angle_beta 124.377958
_cell_angle_gamma 93.447930
_cell_volume 644.466751
_symmetry_space_group_name_H-M "P -1"
_symmetry_group_IT_number 2
_symmetry_cell_setting 'triclinic'
loop_
_space_group_symop_operation_xyz
x,y,z
-x,-y,-z
loop_
_atom_site_type_symbol
_atom_site_label
_atom_site_fract_x
_atom_site_fract_y
_atom_site_fract_z
Si Si1 0.404248 0.514707 0.780894
Si Si2 0.038990 0.271969 0.675992
Si Si3 0.838436 0.654648 0.059138
Si Si4 0.055771 0.068491 0.647733
Si Si5 0.832815 0.954398 0.803601
Si Si6 0.522824 0.750265 0.558709
Si Si7 0.834100 0.537159 0.753407
Si Si8 0.750817 0.266521 0.044870
O O1 0.180420 0.575247 0.616363
O O2 0.412120 0.656435 0.571664
O O3 0.500000 0.500000 0.000000
O O4 0.550716 0.353552 0.932816
O O5 0.018783 0.151778 0.886315
O O6 0.118547 0.168607 0.681319
O O7 0.169965 0.308413 0.816352
O O8 0.831395 0.816917 0.842675
O O9 0.671245 0.666170 0.856424
O O10 0.050638 0.500704 0.288184
O O11 0.219397 0.882164 0.888426
O O12 0.894118 0.054974 0.652629
O O13 0.938291 0.175089 0.344047
O O14 0.629759 0.069221 0.653988
O O15 0.651153 0.708367 0.534398
O O16 0.766416 0.408732 0.847209
O O17 0.000000 0.500000 0.000000
#
# Coordination Sequence:
#
# PCOD9082249 Si02
#       8
#     2   2   2   2   2   2   2   2
#     4  11  20  36  55  78 108 141 182 226 266 327
#     4  10  21  34  54  78 117 137 174 233 272 306
#     4   9  20  35  53  80 110 140 179 222 267 318
#     4  11  19  34  55  81 110 141 173 237 263 319
#     4  10  19  33  53  80 111 136 180 219 270 311
#     4  10  19  33  57  80 102 146 182 214 267 328
#     4   9  18  35  54  78 110 144 181 223 261 323
#     4  10  20  33  55  82 104 142 189 211 274 322
#
# _framework density 24.826727000000002
#
# number of rings (size 3 to 8) (size 9 to 14) (size 15 to 20)
#    0.750    1.250    3.750    0.750    0.000    0.000 
#    2.250    2.500    0.000    0.000    0.000    6.125 
#    0.000    0.000    0.000    0.000    0.000    0.000 
#
# Total GULP energy -89301.807033 kJ/mol
# GULP energy per Si atom -5581.362940 kJ/mol
# Density = 2.477022 g / cm^3
# Si number density = 24.826727 Si / 1000 Ang^3
#
#
#
# Elastic Constant Matrix: (Units=GPa)
#
#
# Indices 1 2 3 4 5 6 
#
# 1 53.4495 33.0683 11.0477 -8.1506 20.9103 -2.0352
# 2 33.0683 158.2155 36.1414 -35.6333 23.2792 -10.5495
# 3 11.0477 36.1414 96.4350 -17.1897 22.2420 -17.0858
# 4 -8.1506 -35.6333 -17.1897 39.4900 -15.4495 9.0022
# 5 20.9103 23.2792 22.2420 -15.4495 34.9739 -15.5849
# 6 -2.0352 -10.5495 -17.0858 9.0022 -15.5849 31.9289
#
#
#
# Elastic Compliance Matrix: (Units=1/GPa)
#
#
# Indices 1 2 3 4 5 6 
#
# 1 0.028078 -0.004593 0.000955 -0.003788 -0.019408 -0.007622
# 2 -0.004593 0.009105 -0.001854 0.006782 0.000992 0.000296
# 3 0.000955 -0.001854 0.013064 0.001258 -0.005595 0.003353
# 4 -0.003788 0.006782 0.001258 0.036388 0.012325 -0.001571
# 5 -0.019408 0.000992 -0.005595 0.012325 0.057830 0.020849
# 6 -0.007622 0.000296 0.003353 -0.001571 0.020849 0.043346
#
#
# Mechanical properties :
#
#
# Convention : Reuss Voigt Hill
#
# Bulk Modulus (GPa) = 25.46834 52.06830 38.76832
# Shear Modulus (GPa) = 23.59824 36.46807 30.03315
#
# Velocity S-wave (km/s) = 3.08639 3.83679 3.48186
# Velocity P-wave (km/s) = 4.79393 6.37543 5.64039
#
# Compressibility (1/GPa) = 0.03926444
#
# Stress axis : x y z
#
# Youngs Moduli (GPa) = 35.61521 109.83043 76.54734
#
# Poissons Ratio (x) = 0.50440 -0.07311
# Poissons Ratio (y) = 0.16356 0.14190
# Poissons Ratio (z) = -0.03402 0.20359
#
# Static dielectric constant tensor:
#      x y z
#    x 2.133620 0.051250 -0.047330 
#    y 0.051250 1.990890 -0.034300 
#    z -0.047330 -0.034300 1.949020 
# 
# From -- ./inp_files/432739.got.cif
#   From: 2010.05.17/outbox.cif.g08.bks.cpg/sg2_217_cif.got.tgz:432739.got - 2010.06.03 11:33:40.
