data_PCOD9082708
_publ_section_title
;
Structure prediction by ZEFSAII (Michael W. Deem and Ramdas Pophale) SiO2 
 PCOD9082708
Probable space group: P -1
;
_chemical_formula_sum "Si O2"
_cell_formula_units_Z 16
_cell_length_a 9.328218
_cell_length_b 8.449151
_cell_length_c 21.768261
_cell_angle_alpha 91.742603
_cell_angle_beta 29.752999
_cell_angle_gamma 93.369410
_cell_volume 849.217043
_symmetry_space_group_name_H-M "P -1"
_symmetry_group_IT_number 2
_symmetry_cell_setting 'triclinic'
loop_
_space_group_symop_operation_xyz
x,y,z
-x,-y,-z
loop_
_atom_site_type_symbol
_atom_site_label
_atom_site_fract_x
_atom_site_fract_y
_atom_site_fract_z
Si Si1 0.714925 0.174077 0.110507
Si Si2 0.751586 0.845025 0.161850
Si Si3 0.897075 0.307964 0.603257
Si Si4 0.642870 0.838574 0.881066
Si Si5 0.885153 0.173280 0.850656
Si Si6 0.846709 0.185613 0.383132
Si Si7 0.192750 0.199106 0.614855
Si Si8 0.804028 0.679045 0.632525
O O1 0.529711 0.120815 0.117229
O O2 0.515532 0.286930 0.224332
O O3 0.758775 0.024245 0.135817
O O4 0.026169 0.237211 0.968307
O O5 0.421702 0.778292 0.283962
O O6 0.886416 0.836296 0.179367
O O7 0.852502 0.494230 0.618308
O O8 0.039852 0.262956 0.613209
O O9 0.108599 0.267615 0.468012
O O10 0.915522 0.749712 0.754306
O O11 0.772710 0.995782 0.869148
O O12 0.400829 0.754584 0.014045
O O13 0.033980 0.250016 0.736351
O O14 0.532814 0.246765 0.490900
O O15 0.972647 0.229146 0.403260
O O16 0.829412 0.994023 0.381384
#
# Coordination Sequence:
#
# PCOD9082708 Si02
#       8
#     2   2   2   2   2   2   2   2
#     4   9  19  35  57  82 104 133 173 219 264 307
#     4  10  19  33  57  84 106 132 172 216 263 312
#     4  11  23  36  51  75 107 144 180 211 253 313
#     4   8  15  29  49  74 103 127 158 204 259 306
#     4   9  16  28  50  77 104 128 157 208 261 305
#     4   9  18  34  54  76 100 130 171 218 262 301
#     4  10  20  33  53  78 100 130 174 217 260 306
#     4  10  22  38  53  72 106 145 177 214 258 305
#
# _framework density 18.840883999999999
#
# number of rings (size 3 to 8) (size 9 to 14) (size 15 to 20)
#    0.000    2.500    0.000    3.000    0.000    7.000 
#    0.000    0.000    0.000    6.750    0.000    0.000 
#    0.000    0.000    0.000    0.000    0.000    0.000 
#
# Total GULP energy -89159.816319 kJ/mol
# GULP energy per Si atom -5572.488520 kJ/mol
# Density = 1.879800 g / cm^3
# Si number density = 18.840884 Si / 1000 Ang^3
#
#
#
# Elastic Constant Matrix: (Units=GPa)
#
#
# Indices 1 2 3 4 5 6 
#
# 1 85.6409 2.9406 73.7605 1.6274 31.2434 -22.9288
# 2 2.9406 6.7011 17.0767 5.5956 11.3786 -8.2515
# 3 73.7605 17.0767 151.1593 12.3456 35.1967 -26.4988
# 4 1.6274 5.5956 12.3456 18.2495 0.4765 3.8806
# 5 31.2434 11.3786 35.1967 0.4765 20.0213 8.7863
# 6 -22.9288 -8.2515 -26.4988 3.8806 8.7863 6.3436
#
#
#
# Elastic Compliance Matrix: (Units=1/GPa)
#
#
# Indices 1 2 3 4 5 6 
#
# 1 0.016514 -0.010538 -0.010789 0.011435 0.004039 -0.011678
# 2 -0.010538 0.087594 -0.021829 0.000234 0.030154 -0.057245
# 3 -0.010789 -0.021829 0.016281 -0.004630 -0.002001 0.006224
# 4 0.011435 0.000234 -0.004630 0.055043 -0.015697 0.010364
# 5 0.004039 0.030154 -0.002001 -0.015697 0.015891 0.033056
# 6 -0.011678 -0.057245 0.006224 0.010364 0.033056 0.014841
#
#
# Mechanical properties :
#
#
# Convention : Reuss Voigt Hill
#
# Bulk Modulus (GPa) = 29.34569 47.89522 38.62045
# Shear Modulus (GPa) = 16.45630 18.90446 17.68038
#
# Velocity S-wave (km/s) = 2.95860 3.17104 3.06666
# Velocity P-wave (km/s) = 5.22307 6.23566 5.75169
#
# Compressibility (1/GPa) = 0.03407656
#
# Stress axis : x y z
#
# Youngs Moduli (GPa) = 60.55579 11.41630 61.42041
#
# Poissons Ratio (x) = 0.12031 0.66267
# Poissons Ratio (y) = 0.63816 1.34073
# Poissons Ratio (z) = 0.65334 0.24920
#
# Static dielectric constant tensor:
#      x y z
#    x 1.624940 0.017080 0.009170 
#    y 0.017080 1.622010 0.005820 
#    z 0.009170 0.005820 1.722530 
# 
# From -- ./inp_files/239095.got.cif
#   From: 2010.05.17/outbox.cif.g08.bks.cpg/sg2_120_cif.got.tgz:239095.got - 2010.06.03 11:33:40.
