data_PCOD9082139
_publ_section_title
;
Structure prediction by ZEFSAII (Michael W. Deem and Ramdas Pophale) SiO2 
 PCOD9082139
Probable space group: P -1
;
_chemical_formula_sum "Si O2"
_cell_formula_units_Z 16
_cell_length_a 23.388284
_cell_length_b 10.014293
_cell_length_c 5.111471
_cell_angle_alpha 110.467426
_cell_angle_beta 95.833716
_cell_angle_gamma 44.892633
_cell_volume 772.055617
_symmetry_space_group_name_H-M "P -1"
_symmetry_group_IT_number 2
_symmetry_cell_setting 'triclinic'
loop_
_space_group_symop_operation_xyz
x,y,z
-x,-y,-z
loop_
_atom_site_type_symbol
_atom_site_label
_atom_site_fract_x
_atom_site_fract_y
_atom_site_fract_z
Si Si1 0.460334 0.226807 0.825116
Si Si2 0.748671 0.151720 0.698469
Si Si3 0.427745 0.777028 0.829254
Si Si4 0.077897 0.236572 0.551935
Si Si5 0.643185 0.401674 0.330853
Si Si6 0.734363 0.859725 0.651852
Si Si7 0.096399 0.398875 0.172977
Si Si8 0.384699 0.094295 0.637796
O O1 0.409499 0.374472 0.653346
O O2 0.404970 0.196634 0.890513
O O3 0.550501 0.003666 0.636968
O O4 0.487620 0.315175 0.066895
O O5 0.690152 0.326626 0.575237
O O6 0.844997 0.009587 0.584337
O O7 0.743537 0.987318 0.571408
O O8 0.713879 0.248565 0.035984
O O9 0.418022 0.625669 0.700502
O O10 0.414116 0.894330 0.645204
O O11 0.346558 0.964433 0.090295
O O12 0.079532 0.301969 0.308074
O O13 0.984472 0.356665 0.661782
O O14 0.096352 0.327453 0.838792
O O15 0.815562 0.697729 0.757605
O O16 0.708114 0.770189 0.407150
#
# Coordination Sequence:
#
# PCOD9082139 Si02
#       8
#     2   2   2   2   2   2   2   2
#     4  10  23  35  50  76  98 137 178 219 262 306
#     4  10  19  33  52  75 109 135 169 210 260 304
#     4  10  19  34  53  73 101 135 170 220 262 305
#     4   9  16  29  45  77 108 139 160 206 259 304
#     4  11  22  35  54  78 102 138 175 215 254 313
#     4   9  18  31  49  78 100 138 170 209 259 308
#     4   9  17  26  49  75 109 134 168 203 254 312
#     4  10  20  37  53  69 105 134 175 218 266 302
#
# _framework density 20.723894999999999
#
# number of rings (size 3 to 8) (size 9 to 14) (size 15 to 20)
#    0.000    2.250    1.250    3.000    3.500    0.500 
#    0.000    0.000    0.000    0.000    0.000    1.750 
#    0.000    0.000    0.000    0.000    0.000    0.000 
#
# Total GULP energy -89182.142393 kJ/mol
# GULP energy per Si atom -5573.883900 kJ/mol
# Density = 2.067673 g / cm^3
# Si number density = 20.723895 Si / 1000 Ang^3
#
#
#
# Elastic Constant Matrix: (Units=GPa)
#
#
# Indices 1 2 3 4 5 6 
#
# 1 67.9324 43.8091 8.7908 2.4710 2.9611 -13.4876
# 2 43.8091 87.5189 14.5918 -2.2454 2.9901 -21.8154
# 3 8.7908 14.5918 60.4236 -6.1968 -12.6785 -3.8939
# 4 2.4710 -2.2454 -6.1968 31.8810 -9.4129 -1.2365
# 5 2.9611 2.9901 -12.6785 -9.4129 19.8689 3.7097
# 6 -13.4876 -21.8154 -3.8939 -1.2365 3.7097 36.9937
#
#
#
# Elastic Compliance Matrix: (Units=1/GPa)
#
#
# Indices 1 2 3 4 5 6 
#
# 1 0.022497 -0.010182 -0.002382 -0.004591 -0.005962 0.002391
# 2 -0.010182 0.019260 -0.003717 0.000219 -0.005100 0.007773
# 3 -0.002382 -0.003717 0.023163 0.010578 0.021152 -0.002389
# 4 -0.004591 0.000219 0.010578 0.041864 0.027570 -0.001797
# 5 -0.005962 -0.005100 0.021152 0.027570 0.080430 -0.010099
# 6 0.002391 0.007773 -0.002389 -0.001797 -0.010099 0.033188
#
#
# Mechanical properties :
#
#
# Convention : Reuss Voigt Hill
#
# Bulk Modulus (GPa) = 30.90347 38.91759 34.91053
# Shear Modulus (GPa) = 18.95745 27.66095 23.30920
#
# Velocity S-wave (km/s) = 3.02779 3.65737 3.35737
# Velocity P-wave (km/s) = 5.21226 6.05434 5.64901
#
# Compressibility (1/GPa) = 0.03235882
#
# Stress axis : x y z
#
# Youngs Moduli (GPa) = 44.45091 51.92131 43.17255
#
# Poissons Ratio (x) = 0.52866 0.10283
# Poissons Ratio (y) = 0.45260 0.16045
# Poissons Ratio (z) = 0.10587 0.19297
#
# Static dielectric constant tensor:
#      x y z
#    x 1.809330 -0.031310 0.022500 
#    y -0.031310 1.769570 0.024740 
#    z 0.022500 0.024740 1.859820 
# 
# From -- ./inp_files/48642.got.cif
#   From: 2010.05.17/outbox.cif.g08.bks.cpg/sg2_25_cif.got.tgz:48642.got - 2010.06.03 11:33:40.
