data_PCOD9082662
_publ_section_title
;
Structure prediction by ZEFSAII (Michael W. Deem and Ramdas Pophale) SiO2 
 PCOD9082662
Probable space group: P -1
;
_chemical_formula_sum "Si O2"
_cell_formula_units_Z 14
_cell_length_a 12.376231
_cell_length_b 11.717812
_cell_length_c 9.525260
_cell_angle_alpha 53.953501
_cell_angle_beta 40.034101
_cell_angle_gamma 51.225426
_cell_volume 676.193053
_symmetry_space_group_name_H-M "P -1"
_symmetry_group_IT_number 2
_symmetry_cell_setting 'triclinic'
loop_
_space_group_symop_operation_xyz
x,y,z
-x,-y,-z
loop_
_atom_site_type_symbol
_atom_site_label
_atom_site_fract_x
_atom_site_fract_y
_atom_site_fract_z
Si Si1 0.221317 0.816423 0.842981
Si Si2 0.466215 0.471248 0.213359
Si Si3 0.902334 0.839906 0.335996
Si Si4 0.895342 0.712914 0.747578
Si Si5 0.094316 0.441718 0.596922
Si Si6 0.580541 0.648979 0.211788
Si Si7 0.787875 0.319166 0.336874
O O1 0.418582 0.700157 0.745838
O O2 0.147518 0.752377 0.827432
O O3 0.203299 0.986118 0.708191
O O4 0.104505 0.812271 0.100091
O O5 0.260274 0.495964 0.418033
O O6 0.533879 0.577802 0.166999
O O7 0.500000 0.500000 0.000000
O O8 0.890945 0.792189 0.543471
O O9 0.840872 0.734945 0.365288
O O10 0.953295 0.533244 0.785864
O O11 0.047605 0.732257 0.682576
O O12 0.703128 0.748753 0.985291
O O13 0.000000 0.500000 0.500000
O O14 0.698256 0.501487 0.289546
O O15 0.386358 0.726258 0.417965
#
# Coordination Sequence:
#
# PCOD9082662 Si02
#       7
#     2   2   2   2   2   2   2
#     4  10  23  41  59  84 128 161 201 252 305 363
#     4  11  19  34  61  89 119 153 199 253 301 353
#     4  10  22  41  59  86 121 164 207 248 301 364
#     4  11  20  38  67  91 120 157 208 252 302 361
#     4  10  19  33  56  90 115 144 201 250 291 350
#     4  10  21  36  59  95 124 152 196 260 307 352
#     4  10  21  39  60  91 124 159 199 251 310 359
#
# _framework density 20.704146000000001
#
# number of rings (size 3 to 8) (size 9 to 14) (size 15 to 20)
#    0.000    1.714    1.429    5.571    0.000    1.143 
#    0.000    0.714    0.000    0.000    0.000    0.000 
#    0.000    0.000    0.000    0.000    0.000    0.000 
#
# Total GULP energy -78117.553539 kJ/mol
# GULP energy per Si atom -5579.825253 kJ/mol
# Density = 2.065702 g / cm^3
# Si number density = 20.704146 Si / 1000 Ang^3
#
#
#
# Elastic Constant Matrix: (Units=GPa)
#
#
# Indices 1 2 3 4 5 6 
#
# 1 90.3570 6.9534 44.7014 -2.0468 -3.4636 -8.1056
# 2 6.9534 56.9914 7.3374 -7.8039 2.4119 2.0770
# 3 44.7014 7.3374 129.9554 -0.8556 -5.8928 -9.9616
# 4 -2.0468 -7.8039 -0.8556 24.8201 -1.1945 -1.9460
# 5 -3.4636 2.4119 -5.8928 -1.1945 31.7796 5.1710
# 6 -8.1056 2.0770 -9.9616 -1.9460 5.1710 12.0870
#
#
#
# Elastic Compliance Matrix: (Units=1/GPa)
#
#
# Indices 1 2 3 4 5 6 
#
# 1 0.013821 -0.001216 -0.004206 0.001095 -0.000158 0.006255
# 2 -0.001216 0.018725 -0.000915 0.005435 -0.000948 -0.003506
# 3 -0.004206 -0.000915 0.009606 0.000118 0.000579 0.005024
# 4 0.001095 0.005435 0.000118 0.042627 0.000248 0.006655
# 5 -0.000158 -0.000948 0.000579 0.000248 0.033905 -0.013931
# 6 0.006255 -0.003506 0.005024 0.006655 -0.013931 0.098703
#
#
# Mechanical properties :
#
#
# Convention : Reuss Voigt Hill
#
# Bulk Modulus (GPa) = 33.92392 43.92090 38.92241
# Shear Modulus (GPa) = 20.84317 28.29147 24.56732
#
# Velocity S-wave (km/s) = 3.17632 3.70058 3.44843
# Velocity P-wave (km/s) = 5.46559 6.28639 5.89030
#
# Compressibility (1/GPa) = 0.02947772
#
# Stress axis : x y z
#
# Youngs Moduli (GPa) = 72.35109 53.40499 104.10635
#
# Poissons Ratio (x) = 0.06495 0.43788
# Poissons Ratio (y) = 0.08799 0.09525
# Poissons Ratio (z) = 0.30431 0.04886
#
# Static dielectric constant tensor:
#      x y z
#    x 1.728620 -0.010440 -0.003830 
#    y -0.010440 1.784780 0.016090 
#    z -0.003830 0.016090 1.814800 
# 
# From -- ./inp_files/256547.got.cif
#   From: 2010.05.17/outbox.cif.g08.bks.cpg/sg2_129_cif.got.tgz:256547.got - 2010.06.03 11:33:40.
