data_PCOD9082426
_publ_section_title
;
Structure prediction by ZEFSAII (Michael W. Deem and Ramdas Pophale) SiO2 
 PCOD9082426
Probable space group: P -1
;
_chemical_formula_sum "Si O2"
_cell_formula_units_Z 14
_cell_length_a 9.238011
_cell_length_b 19.420899
_cell_length_c 23.417888
_cell_angle_alpha 165.312349
_cell_angle_beta 144.463892
_cell_angle_gamma 40.697410
_cell_volume 607.047861
_symmetry_space_group_name_H-M "P -1"
_symmetry_group_IT_number 2
_symmetry_cell_setting 'triclinic'
loop_
_space_group_symop_operation_xyz
x,y,z
-x,-y,-z
loop_
_atom_site_type_symbol
_atom_site_label
_atom_site_fract_x
_atom_site_fract_y
_atom_site_fract_z
Si Si1 0.388430 0.115581 0.990986
Si Si2 0.603354 0.461768 0.439362
Si Si3 0.092327 0.696584 0.740677
Si Si4 0.695929 0.197147 0.781327
Si Si5 0.836744 0.611436 0.258292
Si Si6 0.650195 0.546845 0.265716
Si Si7 0.857200 0.824981 0.162560
O O1 0.414046 0.357487 0.241332
O O2 0.673950 0.094940 0.045548
O O3 0.246237 0.155398 0.919290
O O4 0.273498 0.814201 0.736943
O O5 0.500000 0.500000 0.500000
O O6 0.819571 0.726527 0.703222
O O7 0.226301 0.552333 0.717850
O O8 0.000000 0.500000 0.500000
O O9 0.422716 0.271193 0.741557
O O10 0.873645 0.257537 0.830920
O O11 0.665558 0.876424 0.531949
O O12 0.832245 0.387895 0.028872
O O13 0.802573 0.481813 0.206469
O O14 0.069975 0.871263 0.542404
O O15 0.360913 0.378904 0.037958
#
# Coordination Sequence:
#
# PCOD9082426 Si02
#       7
#     2   2   2   2   2   2   2
#     4   9  20  35  51  77 108 139 181 230 272 321
#     4  10  19  33  55  77 103 144 184 222 275 326
#     4   9  19  37  54  77 113 142 177 228 269 316
#     4  10  22  38  57  83 113 145 185 232 280 333
#     4  10  22  38  56  84 116 143 182 235 282 330
#     4  10  20  37  61  82 108 151 188 223 278 333
#     4  10  20  36  57  80 111 147 184 227 277 331
#
# _framework density 23.062432999999999
#
# number of rings (size 3 to 8) (size 9 to 14) (size 15 to 20)
#    0.000    2.286    0.000    3.429    0.000    6.286 
#    0.000   10.000    0.000    0.000    0.000    0.000 
#    0.000    0.000    0.000    0.000    0.000    0.000 
#
# Total GULP energy -78115.773498 kJ/mol
# GULP energy per Si atom -5579.698107 kJ/mol
# Density = 2.300994 g / cm^3
# Si number density = 23.062433 Si / 1000 Ang^3
#
#
#
# Elastic Constant Matrix: (Units=GPa)
#
#
# Indices 1 2 3 4 5 6 
#
# 1 103.8977 -11.6486 69.0767 -2.0268 -1.2366 8.0659
# 2 -11.6486 52.6443 14.9556 -14.6563 -7.5611 22.8696
# 3 69.0767 14.9556 171.3221 -20.2764 8.3081 5.3042
# 4 -2.0268 -14.6563 -20.2764 24.1851 8.0954 -3.7089
# 5 -1.2366 -7.5611 8.3081 8.0954 51.1701 -6.5660
# 6 8.0659 22.8696 5.3042 -3.7089 -6.5660 28.2757
#
#
#
# Elastic Compliance Matrix: (Units=1/GPa)
#
#
# Indices 1 2 3 4 5 6 
#
# 1 0.016874 0.011266 -0.007569 -0.000582 0.001834 -0.012156
# 2 0.011266 0.042764 -0.005197 0.017109 0.000300 -0.034513
# 3 -0.007569 -0.005197 0.010103 0.006402 -0.003013 0.004607
# 4 -0.000582 0.017109 0.006402 0.058622 -0.008989 -0.009271
# 5 0.001834 0.000300 -0.003013 -0.008989 0.022022 0.003735
# 6 -0.012156 -0.034513 0.004607 -0.009271 0.003735 0.065535
#
#
# Mechanical properties :
#
#
# Convention : Reuss Voigt Hill
#
# Bulk Modulus (GPa) = 14.98274 52.51463 33.74869
# Shear Modulus (GPa) = 20.73265 37.75822 29.24543
#
# Velocity S-wave (km/s) = 3.00155 4.05064 3.56490
# Velocity P-wave (km/s) = 4.30385 6.68558 5.62228
#
# Compressibility (1/GPa) = 0.06674345
#
# Stress axis : x y z
#
# Youngs Moduli (GPa) = 59.26226 23.38425 98.97676
#
# Poissons Ratio (x) = -0.26345 0.74911
# Poissons Ratio (y) = -0.66766 0.51435
# Poissons Ratio (z) = 0.44853 0.12152
#
# Static dielectric constant tensor:
#      x y z
#    x 1.907250 -0.052510 0.009800 
#    y -0.052510 1.885960 -0.052760 
#    z 0.009800 -0.052760 1.871120 
# 
# From -- ./inp_files/337573.got.cif
#   From: 2010.05.17/outbox.cif.g08.bks.cpg/sg2_169_cif.got.tgz:337573.got - 2010.06.03 11:33:40.
