data_PCOD9082335
_publ_section_title
;
Structure prediction by ZEFSAII (Michael W. Deem and Ramdas Pophale) SiO2 
 PCOD9082335
Probable space group: P -1
;
_chemical_formula_sum "Si O2"
_cell_formula_units_Z 16
_cell_length_a 8.208926
_cell_length_b 16.643867
_cell_length_c 13.847658
_cell_angle_alpha 112.528143
_cell_angle_beta 28.215323
_cell_angle_gamma 120.940468
_cell_volume 755.727159
_symmetry_space_group_name_H-M "P -1"
_symmetry_group_IT_number 2
_symmetry_cell_setting 'triclinic'
loop_
_space_group_symop_operation_xyz
x,y,z
-x,-y,-z
loop_
_atom_site_type_symbol
_atom_site_label
_atom_site_fract_x
_atom_site_fract_y
_atom_site_fract_z
Si Si1 0.441812 0.655208 0.807131
Si Si2 0.912720 0.822169 0.522214
Si Si3 0.941824 0.037578 0.312056
Si Si4 0.865834 0.523212 0.479847
Si Si5 0.077772 0.211199 0.209995
Si Si6 0.825404 0.650466 0.255982
Si Si7 0.190623 0.154504 0.637140
Si Si8 0.334409 0.696548 0.202200
O O1 0.527632 0.734461 0.715492
O O2 0.586147 0.577184 0.660264
O O3 0.715416 0.711940 0.779392
O O4 0.025173 0.616591 0.050888
O O5 0.906706 0.852988 0.429484
O O6 0.993233 0.906380 0.594655
O O7 0.217448 0.774513 0.351570
O O8 0.149729 0.117617 0.159880
O O9 0.500000 0.000000 0.500000
O O10 0.023021 0.944311 0.241126
O O11 0.599555 0.420467 0.530122
O O12 0.000000 0.500000 0.500000
O O13 0.227470 0.600123 0.272987
O O14 0.635902 0.182407 0.427156
O O15 0.255980 0.253031 0.033774
O O16 0.870745 0.755142 0.250209
O O17 0.061047 0.663898 0.236719
#
# Coordination Sequence:
#
# PCOD9082335 Si02
#       8
#     2   2   2   2   2   2   2   2
#     4   9  19  36  54  74 107 142 173 212 261 311
#     4   9  18  34  54  77 106 138 173 214 259 307
#     4   9  18  34  55  77 106 141 172 213 263 308
#     4  11  21  34  55  82 105 135 175 219 262 309
#     4   9  18  36  55  77 106 140 174 215 263 309
#     4  10  20  36  54  76 106 144 176 211 259 311
#     4  10  19  33  54  80 106 136 177 219 255 305
#     4   9  20  37  55  75 106 140 172 213 264 314
#
# _framework density 21.171662000000001
#
# number of rings (size 3 to 8) (size 9 to 14) (size 15 to 20)
#    0.000    2.500    0.000    1.875    0.000    2.000 
#    0.000   20.625    0.000    0.000    0.000    0.000 
#    0.000    0.000    0.000    0.000    0.000    0.000 
#
# Total GULP energy -89256.537495 kJ/mol
# GULP energy per Si atom -5578.533593 kJ/mol
# Density = 2.112347 g / cm^3
# Si number density = 21.171662 Si / 1000 Ang^3
#
#
#
# Elastic Constant Matrix: (Units=GPa)
#
#
# Indices 1 2 3 4 5 6 
#
# 1 30.0468 2.5494 -5.6535 -1.4329 -4.3811 -9.0966
# 2 2.5494 9.6492 -31.4514 -1.6831 6.5873 20.1291
# 3 -5.6535 -31.4514 42.7055 -12.7257 14.1495 7.9770
# 4 -1.4329 -1.6831 -12.7257 18.4577 2.6689 -3.1068
# 5 -4.3811 6.5873 14.1495 2.6689 20.8754 -6.4041
# 6 -9.0966 20.1291 7.9770 -3.1068 -6.4041 16.0712
#
#
#
# Elastic Compliance Matrix: (Units=1/GPa)
#
#
# Indices 1 2 3 4 5 6 
#
# 1 0.039002 0.006171 0.011567 0.013441 0.000132 0.011256
# 2 0.006171 -0.003067 -0.014494 -0.009163 0.019564 0.020554
# 3 0.011567 -0.014494 0.011599 0.010739 0.004801 0.022933
# 4 0.013441 -0.009163 0.010739 0.066434 -0.002166 0.025733
# 5 0.000132 0.019564 0.004801 -0.002166 0.034664 -0.013418
# 6 0.011256 0.020554 0.022933 0.025733 -0.013418 0.031096
#
#
# Mechanical properties :
#
#
# Convention : Reuss Voigt Hill
#
# Bulk Modulus (GPa) = 18.51042 1.47670 9.99356
# Shear Modulus (GPa) = 26.14426 18.87798 22.51112
#
# Velocity S-wave (km/s) = 3.51788 2.98931 3.26431
# Velocity P-wave (km/s) = 5.02620 3.55157 4.35180
#
# Compressibility (1/GPa) = 0.05402363
#
# Stress axis : x y z
#
# Youngs Moduli (GPa) = 25.63948 -326.00771 86.21477
#
# Poissons Ratio (x) = 2.01191 -0.99726
# Poissons Ratio (y) = -0.15823 1.24957
# Poissons Ratio (z) = -0.29658 -4.72505
#
# Static dielectric constant tensor:
#      x y z
#    x 1.744040 -0.013630 0.008560 
#    y -0.013630 1.809760 -0.016210 
#    z 0.008560 -0.016210 1.818630 
# 
# From -- ./inp_files/196324.got.cif
#   From: 2010.05.17/outbox.cif.g08.bks.cpg/sg2_99_cif.got.tgz:196324.got - 2010.06.03 11:33:40.
