data_PCOD9082311
_publ_section_title
;
Structure prediction by ZEFSAII (Michael W. Deem and Ramdas Pophale) SiO2 
 PCOD9082311
Probable space group: P -1
;
_chemical_formula_sum "Si O2"
_cell_formula_units_Z 16
_cell_length_a 12.220243
_cell_length_b 5.809323
_cell_length_c 10.504576
_cell_angle_alpha 53.715510
_cell_angle_beta 106.665142
_cell_angle_gamma 106.306687
_cell_volume 569.891240
_symmetry_space_group_name_H-M "P -1"
_symmetry_group_IT_number 2
_symmetry_cell_setting 'triclinic'
loop_
_space_group_symop_operation_xyz
x,y,z
-x,-y,-z
loop_
_atom_site_type_symbol
_atom_site_label
_atom_site_fract_x
_atom_site_fract_y
_atom_site_fract_z
Si Si1 0.559970 0.933642 0.415514
Si Si2 0.627323 0.930610 0.106313
Si Si3 0.833461 0.563562 0.846289
Si Si4 0.630460 0.455372 0.089805
Si Si5 0.814326 0.143698 0.754267
Si Si6 0.060960 0.352353 0.681918
Si Si7 0.921214 0.239826 0.219572
Si Si8 0.654127 0.504905 0.493841
O O1 0.666415 0.756907 0.520514
O O2 0.445868 0.723899 0.397424
O O3 0.500000 0.000000 0.500000
O O4 0.606560 0.225453 0.269539
O O5 0.682158 0.760797 0.067435
O O6 0.622266 0.700763 0.298904
O O7 0.678351 0.251192 0.067480
O O8 0.500000 0.000000 0.000000
O O9 0.781922 0.301900 0.821158
O O10 0.938541 0.731642 0.738752
O O11 0.770338 0.813489 0.809214
O O12 0.893011 0.427522 0.029352
O O13 0.500000 0.500000 0.000000
O O14 0.953533 0.182591 0.784117
O O15 0.761083 0.338875 0.566422
O O16 0.000000 0.500000 0.500000
O O17 0.117596 0.602321 0.717304
O O18 0.121689 0.096689 0.720592
#
# Coordination Sequence:
#
# PCOD9082311 Si02
#       8
#     2   2   2   2   2   2   2   2
#     4  10  19  33  54  77 101 139 186 226 276 329
#     4   9  17  30  49  71  96 131 174 216 262 326
#     4   9  18  33  53  82 106 140 183 224 274 327
#     4   9  17  30  49  72  95 123 168 215 258 315
#     4  10  21  33  53  82 110 142 180 232 282 322
#     4  10  19  33  55  83 113 148 188 219 263 332
#     4   9  17  32  56  79 109 144 184 223 261 325
#     4  10  21  33  52  80 107 138 180 241 282 321
#
# _framework density 28.075530000000001
#
# number of rings (size 3 to 8) (size 9 to 14) (size 15 to 20)
#    0.000    2.500    1.250    1.125    1.750    3.000 
#    0.000    0.000    0.000   16.500    0.000    0.000 
#    0.000    0.000    0.000    0.000    0.000    0.000 
#
# Total GULP energy -89215.681321 kJ/mol
# GULP energy per Si atom -5575.980083 kJ/mol
# Density = 2.801163 g / cm^3
# Si number density = 28.075530 Si / 1000 Ang^3
#
#
#
# Elastic Constant Matrix: (Units=GPa)
#
#
# Indices 1 2 3 4 5 6 
#
# 1 101.3549 44.8916 16.3105 -12.0915 5.3411 -6.0006
# 2 44.8916 316.8094 89.0164 -28.3142 2.6740 -40.1487
# 3 16.3105 89.0164 125.3055 -26.5335 15.2350 -9.9143
# 4 -12.0915 -28.3142 -26.5335 57.6135 -11.7387 5.0146
# 5 5.3411 2.6740 15.2350 -11.7387 21.8050 -11.8337
# 6 -6.0006 -40.1487 -9.9143 5.0146 -11.8337 56.8112
#
#
#
# Elastic Compliance Matrix: (Units=1/GPa)
#
#
# Indices 1 2 3 4 5 6 
#
# 1 0.010733 -0.001493 0.000140 0.001184 -0.002150 -0.000450
# 2 -0.001493 0.004789 -0.003238 0.001177 0.004580 0.003512
# 3 0.000140 -0.003238 0.011520 0.002392 -0.007504 -0.002037
# 4 0.001184 0.001177 0.002392 0.021223 0.010202 0.001626
# 5 -0.002150 0.004580 -0.007504 0.010202 0.064260 0.014185
# 6 -0.000450 0.003512 -0.002037 0.001626 0.014185 0.022492
#
#
# Mechanical properties :
#
#
# Convention : Reuss Voigt Hill
#
# Bulk Modulus (GPa) = 55.98730 93.76743 74.87737
# Shear Modulus (GPa) = 33.29947 53.46269 43.38108
#
# Velocity S-wave (km/s) = 3.44767 4.36850 3.93511
# Velocity P-wave (km/s) = 5.98611 7.67566 6.88293
#
# Compressibility (1/GPa) = 0.01786119
#
# Stress axis : x y z
#
# Youngs Moduli (GPa) = 93.16950 208.79327 86.80497
#
# Poissons Ratio (x) = 0.31179 -0.01219
# Poissons Ratio (y) = 0.13913 0.28106
# Poissons Ratio (z) = -0.01308 0.67604
#
# Static dielectric constant tensor:
#      x y z
#    x 2.876610 0.545400 0.374660 
#    y 0.545400 2.822690 0.517960 
#    z 0.374660 0.517960 2.312510 
# 
# From -- ./inp_files/123826.got.cif
#   From: 2010.05.17/outbox.cif.g08.bks.cpg/sg2_62_cif.got.tgz:123826.got - 2010.06.03 11:33:40.
