data_PCOD9082951
_publ_section_title
;
Structure prediction by ZEFSAII (Michael W. Deem and Ramdas Pophale) SiO2 
 PCOD9082951
Probable space group: P -1
;
_chemical_formula_sum "Si O2"
_cell_formula_units_Z 16
_cell_length_a 10.438997
_cell_length_b 9.503897
_cell_length_c 15.791908
_cell_angle_alpha 105.905892
_cell_angle_beta 35.104114
_cell_angle_gamma 123.151501
_cell_volume 703.741400
_symmetry_space_group_name_H-M "P -1"
_symmetry_group_IT_number 2
_symmetry_cell_setting 'triclinic'
loop_
_space_group_symop_operation_xyz
x,y,z
-x,-y,-z
loop_
_atom_site_type_symbol
_atom_site_label
_atom_site_fract_x
_atom_site_fract_y
_atom_site_fract_z
Si Si1 0.952771 0.655088 0.137695
Si Si2 0.527301 0.503397 0.086590
Si Si3 0.336549 0.397621 0.412099
Si Si4 0.025896 0.135993 0.682688
Si Si5 0.969138 0.425203 0.389614
Si Si6 0.541957 0.802886 0.812197
Si Si7 0.364396 0.974246 0.477594
Si Si8 0.890510 0.326070 0.213256
O O1 0.648261 0.571397 0.254043
O O2 0.024787 0.806431 0.191630
O O3 0.895910 0.482115 0.189188
O O4 0.230533 0.732213 0.947429
O O5 0.485503 0.322695 0.115069
O O6 0.285155 0.512148 0.252642
O O7 0.500000 0.500000 0.000000
O O8 0.842992 0.660994 0.958865
O O9 0.255271 0.316133 0.537485
O O10 0.133286 0.453258 0.514266
O O11 0.315241 0.242013 0.343424
O O12 0.143301 0.018430 0.611507
O O13 0.743849 0.010966 0.762703
O O14 0.923081 0.377501 0.304828
O O15 0.782483 0.230527 0.502645
O O16 0.614262 0.131894 0.314082
O O17 0.500000 0.000000 0.500000
#
# Coordination Sequence:
#
# PCOD9082951 Si02
#       8
#     2   2   2   2   2   2   2   2
#     4  11  21  40  65  90 122 163 213 253 304 372
#     4   9  19  37  60  84 120 162 204 249 305 366
#     4  12  24  40  64  93 130 165 204 257 320 368
#     4  12  22  41  65  94 123 166 215 256 301 372
#     4  10  19  36  58  88 118 157 205 253 301 365
#     4  11  25  41  61  95 130 164 203 261 320 365
#     4  10  19  33  59  92 119 150 208 262 297 347
#     4   9  17  33  59  89 112 155 206 256 294 354
#
# _framework density 22.735624999999999
#
# number of rings (size 3 to 8) (size 9 to 14) (size 15 to 20)
#    0.000    1.500    3.750    3.000    0.000    0.500 
#    0.000    0.000    0.000    3.000    0.000    0.000 
#    0.000    0.000    0.000    0.000    0.000    0.000 
#
# Total GULP energy -89404.628770 kJ/mol
# GULP energy per Si atom -5587.789298 kJ/mol
# Density = 2.268388 g / cm^3
# Si number density = 22.735625 Si / 1000 Ang^3
#
#
#
# Elastic Constant Matrix: (Units=GPa)
#
#
# Indices 1 2 3 4 5 6 
#
# 1 39.5818 10.0746 28.1395 2.4442 -11.9090 -1.0764
# 2 10.0746 61.9647 26.3787 4.2741 -11.9997 9.1953
# 3 28.1395 26.3787 112.0997 -7.4422 -26.8464 4.6864
# 4 2.4442 4.2741 -7.4422 28.8677 4.9587 -0.6508
# 5 -11.9090 -11.9997 -26.8464 4.9587 45.6627 0.6478
# 6 -1.0764 9.1953 4.6864 -0.6508 0.6478 29.1077
#
#
#
# Elastic Compliance Matrix: (Units=1/GPa)
#
#
# Indices 1 2 3 4 5 6 
#
# 1 0.032450 -0.001389 -0.007218 -0.005095 0.004370 0.002590
# 2 -0.001389 0.019685 -0.003543 -0.004408 0.003290 -0.005871
# 3 -0.007218 -0.003543 0.012916 0.003682 0.004398 -0.001243
# 4 -0.005095 -0.004408 0.003682 0.037467 -0.004413 0.001547
# 5 0.004370 0.003290 0.004398 -0.004413 0.027001 -0.002285
# 6 0.002590 -0.005871 -0.001243 0.001547 -0.002285 0.036591
#
#
# Mechanical properties :
#
#
# Convention : Reuss Voigt Hill
#
# Bulk Modulus (GPa) = 24.54053 38.09243 31.31648
# Shear Modulus (GPa) = 24.51059 30.66452 27.58755
#
# Velocity S-wave (km/s) = 3.28696 3.67651 3.48718
# Velocity P-wave (km/s) = 5.02223 5.90027 5.47887
#
# Compressibility (1/GPa) = 0.04074892
#
# Stress axis : x y z
#
# Youngs Moduli (GPa) = 30.81705 50.80117 77.42405
#
# Poissons Ratio (x) = 0.07059 0.55888
# Poissons Ratio (y) = 0.04282 0.27428
# Poissons Ratio (z) = 0.22245 0.17997
#
# Static dielectric constant tensor:
#      x y z
#    x 1.922730 0.031360 -0.008370 
#    y 0.031360 1.800350 -0.029990 
#    z -0.008370 -0.029990 1.884340 
# 
# From -- ./inp_files/243121.got.cif
#   From: 2010.05.17/outbox.cif.g08.bks.cpg/sg2_122_cif.got.tgz:243121.got - 2010.06.03 11:33:40.
