data_PCOD9082178
_publ_section_title
;
Structure prediction by ZEFSAII (Michael W. Deem and Ramdas Pophale) SiO2 
 PCOD9082178
Probable space group: P -1
;
_chemical_formula_sum "Si O2"
_cell_formula_units_Z 16
_cell_length_a 23.180429
_cell_length_b 6.576212
_cell_length_c 28.627630
_cell_angle_alpha 131.202830
_cell_angle_beta 169.234222
_cell_angle_gamma 47.147781
_cell_volume 596.194477
_symmetry_space_group_name_H-M "P -1"
_symmetry_group_IT_number 2
_symmetry_cell_setting 'triclinic'
loop_
_space_group_symop_operation_xyz
x,y,z
-x,-y,-z
loop_
_atom_site_type_symbol
_atom_site_label
_atom_site_fract_x
_atom_site_fract_y
_atom_site_fract_z
Si Si1 0.640537 0.954139 0.439911
Si Si2 0.317416 0.957864 0.082557
Si Si3 0.133719 0.713676 0.033315
Si Si4 0.165861 0.914037 0.541769
Si Si5 0.883243 0.872052 0.209078
Si Si6 0.271383 0.665039 0.681993
Si Si7 0.252636 0.525698 0.243524
Si Si8 0.197645 0.271612 0.326984
O O1 0.444177 0.019678 0.244280
O O2 0.520336 0.238710 0.416543
O O3 0.504214 0.721265 0.323539
O O4 0.997162 0.919868 0.700197
O O5 0.524526 0.640363 0.191668
O O6 0.469363 0.117985 0.188570
O O7 0.952191 0.933354 0.790750
O O8 0.977758 0.479454 0.896591
O O9 0.001988 0.725800 0.878490
O O10 0.000000 0.000000 0.000000
O O11 0.155743 0.689501 0.540008
O O12 0.972757 0.913112 0.340100
O O13 0.013269 0.203777 0.490294
O O14 0.087700 0.569441 0.309831
O O15 0.519713 0.863252 0.913737
O O16 0.444588 0.742326 0.408571
O O17 0.000000 0.500000 0.000000
#
# Coordination Sequence:
#
# PCOD9082178 Si02
#       8
#     2   2   2   2   2   2   2   2
#     4   8  17  35  52  73 110 143 182 226 278 338
#     4   9  18  37  56  79 116 150 184 235 284 327
#     4   9  17  33  55  71 103 143 179 224 272 334
#     4  10  20  36  58  86 118 144 193 242 270 348
#     4   9  18  36  56  80 118 148 186 236 285 331
#     4  10  20  35  59  87 110 155 193 223 297 335
#     4  10  19  33  52  82 107 138 183 233 281 326
#     4   9  18  35  54  76 107 147 187 219 285 346
#
# _framework density 26.836880000000001
#
# number of rings (size 3 to 8) (size 9 to 14) (size 15 to 20)
#    0.000    2.750    0.000    1.125    0.000    0.000 
#   22.500    9.375    0.000   13.500    0.000    0.000 
#    0.000    0.000    0.000    0.000    0.000    0.000 
#
# Total GULP energy -89429.495501 kJ/mol
# GULP energy per Si atom -5589.343469 kJ/mol
# Density = 2.677580 g / cm^3
# Si number density = 26.836880 Si / 1000 Ang^3
#
#
#
# Elastic Constant Matrix: (Units=GPa)
#
#
# Indices 1 2 3 4 5 6 
#
# 1 135.7305 39.1804 40.3603 -1.4403 30.3363 -13.5170
# 2 39.1804 84.2626 27.6613 17.3526 19.5162 0.2389
# 3 40.3603 27.6613 122.3592 15.1730 34.4362 4.7762
# 4 -1.4403 17.3526 15.1730 49.0593 6.4452 18.8138
# 5 30.3363 19.5162 34.4362 6.4452 61.5680 1.8895
# 6 -13.5170 0.2389 4.7762 18.8138 1.8895 47.6187
#
#
#
# Elastic Compliance Matrix: (Units=1/GPa)
#
#
# Indices 1 2 3 4 5 6 
#
# 1 0.009903 -0.003637 -0.001925 0.001591 -0.002893 0.002509
# 2 -0.003637 0.015503 -0.001125 -0.005459 -0.001959 0.001237
# 3 -0.001925 -0.001125 0.010579 -0.002132 -0.004371 -0.000586
# 4 0.001591 -0.005459 -0.002132 0.026869 -0.000370 -0.009908
# 5 -0.002893 -0.001959 -0.004371 -0.000370 0.020805 -0.001053
# 6 0.002509 0.001237 -0.000586 -0.009908 -0.001053 0.025721
#
#
# Mechanical properties :
#
#
# Convention : Reuss Voigt Hill
#
# Bulk Modulus (GPa) = 44.22696 61.86182 53.04439
# Shear Modulus (GPa) = 38.37529 47.32589 42.85059
#
# Velocity S-wave (km/s) = 3.78557 4.20392 4.00021
# Velocity P-wave (km/s) = 5.96850 6.83118 6.41436
#
# Compressibility (1/GPa) = 0.02261064
#
# Stress axis : x y z
#
# Youngs Moduli (GPa) = 100.97511 64.50445 94.52412
#
# Poissons Ratio (x) = 0.23463 0.18198
# Poissons Ratio (y) = 0.36729 0.10632
# Poissons Ratio (z) = 0.19440 0.07255
#
# Static dielectric constant tensor:
#      x y z
#    x 2.196410 0.131650 0.027000 
#    y 0.131650 2.288490 0.048470 
#    z 0.027000 0.048470 2.084910 
# 
# From -- ./inp_files/591463.got.cif
#   From: 2010.05.17/outbox.cif.g08.bks.cpg/sg2_296_cif.got.tgz:591463.got - 2010.06.03 11:33:40.
