data_PCOD9082179
_publ_section_title
;
Structure prediction by ZEFSAII (Michael W. Deem and Ramdas Pophale) SiO2 
 PCOD9082179
Probable space group: P -1
;
_chemical_formula_sum "Si O2"
_cell_formula_units_Z 16
_cell_length_a 7.424965
_cell_length_b 10.930799
_cell_length_c 8.671682
_cell_angle_alpha 110.318887
_cell_angle_beta 70.360599
_cell_angle_gamma 94.900746
_cell_volume 621.221538
_symmetry_space_group_name_H-M "P -1"
_symmetry_group_IT_number 2
_symmetry_cell_setting 'triclinic'
loop_
_space_group_symop_operation_xyz
x,y,z
-x,-y,-z
loop_
_atom_site_type_symbol
_atom_site_label
_atom_site_fract_x
_atom_site_fract_y
_atom_site_fract_z
Si Si1 0.911406 0.940735 0.340624
Si Si2 0.473209 0.519368 0.834865
Si Si3 0.833551 0.282269 0.726981
Si Si4 0.728574 0.320627 0.463423
Si Si5 0.133872 0.466274 0.707502
Si Si6 0.217856 0.040599 0.112442
Si Si7 0.508142 0.196914 0.986077
Si Si8 0.356037 0.193518 0.442433
O O1 0.702212 0.897829 0.434443
O O2 0.025941 0.800882 0.240074
O O3 0.000000 0.000000 0.500000
O O4 0.995850 0.015163 0.200531
O O5 0.601259 0.424583 0.648547
O O6 0.256274 0.497586 0.836145
O O7 0.520146 0.668766 0.854701
O O8 0.500000 0.500000 0.000000
O O9 0.852016 0.247004 0.526109
O O10 0.916753 0.426323 0.773977
O O11 0.624001 0.241239 0.821228
O O12 0.845055 0.408460 0.352850
O O13 0.578406 0.224248 0.394264
O O14 0.241767 0.334660 0.549807
O O15 0.306199 0.128845 0.991458
O O16 0.291867 0.117374 0.276536
O O17 0.344004 0.905924 0.020405
#
# Coordination Sequence:
#
# PCOD9082179 Si02
#       8
#     2   2   2   2   2   2   2   2
#     4   8  16  32  53  79 103 144 183 231 282 324
#     4  11  21  37  57  83 116 149 186 226 282 344
#     4  10  20  34  53  82 113 144 187 235 278 330
#     4  11  20  35  56  85 113 147 191 234 273 332
#     4  10  21  35  58  82 112 151 189 229 280 330
#     4   9  17  32  57  80 107 145 190 231 272 341
#     4  10  19  33  52  82 110 150 184 223 284 330
#     4   9  17  33  56  81 106 140 189 230 280 324
#
# _framework density 25.755706
#
# number of rings (size 3 to 8) (size 9 to 14) (size 15 to 20)
#    0.000    2.250    1.250    3.375    0.000    0.500 
#    0.000    5.625    0.000    0.750    6.500    0.000 
#    0.000    0.000    0.000    0.000    0.000    0.000 
#
# Total GULP energy -89301.669810 kJ/mol
# GULP energy per Si atom -5581.354363 kJ/mol
# Density = 2.569709 g / cm^3
# Si number density = 25.755706 Si / 1000 Ang^3
#
#
#
# Elastic Constant Matrix: (Units=GPa)
#
#
# Indices 1 2 3 4 5 6 
#
# 1 68.8107 47.3933 20.8897 -19.3524 2.3440 26.4306
# 2 47.3933 142.2474 39.3297 -27.5004 -14.4201 44.4918
# 3 20.8897 39.3297 82.6519 -22.6522 -5.6301 10.4873
# 4 -19.3524 -27.5004 -22.6522 54.6545 5.1525 -24.4576
# 5 2.3440 -14.4201 -5.6301 5.1525 30.0638 -3.0581
# 6 26.4306 44.4918 10.4873 -24.4576 -3.0581 46.0333
#
#
#
# Elastic Compliance Matrix: (Units=1/GPa)
#
#
# Indices 1 2 3 4 5 6 
#
# 1 0.021773 -0.004675 -0.002266 0.001868 -0.005379 -0.006831
# 2 -0.004675 0.012741 -0.003750 -0.001382 0.005077 -0.009173
# 3 -0.002266 -0.003750 0.015492 0.005651 0.000763 0.004449
# 4 0.001868 -0.001382 0.005651 0.026685 -0.003006 0.012954
# 5 -0.005379 0.005077 0.000763 -0.003006 0.036658 -0.001154
# 6 -0.006831 -0.009173 0.004449 0.012954 -0.001154 0.040304
#
#
# Mechanical properties :
#
#
# Convention : Reuss Voigt Hill
#
# Bulk Modulus (GPa) = 34.93621 56.54837 45.74229
# Shear Modulus (GPa) = 27.08887 38.55680 32.82283
#
# Velocity S-wave (km/s) = 3.24661 3.87333 3.57373
# Velocity P-wave (km/s) = 5.25812 6.48127 5.90147
#
# Compressibility (1/GPa) = 0.02862360
#
# Stress axis : x y z
#
# Youngs Moduli (GPa) = 45.92805 78.48590 64.54816
#
# Poissons Ratio (x) = 0.36694 0.14626
# Poissons Ratio (y) = 0.21473 0.24207
# Poissons Ratio (z) = 0.10407 0.29434
#
# Static dielectric constant tensor:
#      x y z
#    x 2.103430 -0.029790 -0.043980 
#    y -0.029790 2.095060 -0.016760 
#    z -0.043980 -0.016760 2.097820 
# 
# From -- ./inp_files/181327.got.cif
#   From: 2010.05.17/outbox.cif.g08.bks.cpg/sg2_91_cif.got.tgz:181327.got - 2010.06.03 11:33:40.
