data_PCOD9082983
_publ_section_title
;
Structure prediction by ZEFSAII (Michael W. Deem and Ramdas Pophale) SiO2 
 PCOD9082983
Probable space group: P -1
;
_chemical_formula_sum "Si O2"
_cell_formula_units_Z 16
_cell_length_a 11.558636
_cell_length_b 9.910346
_cell_length_c 27.690301
_cell_angle_alpha 28.354222
_cell_angle_beta 154.957361
_cell_angle_gamma 138.593903
_cell_volume 619.784382
_symmetry_space_group_name_H-M "P -1"
_symmetry_group_IT_number 2
_symmetry_cell_setting 'triclinic'
loop_
_space_group_symop_operation_xyz
x,y,z
-x,-y,-z
loop_
_atom_site_type_symbol
_atom_site_label
_atom_site_fract_x
_atom_site_fract_y
_atom_site_fract_z
Si Si1 0.569609 0.689834 0.846786
Si Si2 0.812186 0.273872 0.639897
Si Si3 0.589027 0.434449 0.281921
Si Si4 0.740680 0.859568 0.671459
Si Si5 0.847876 0.930132 0.361779
Si Si6 0.139618 0.436958 0.342741
Si Si7 0.309130 0.723463 0.894082
Si Si8 0.918312 0.074535 0.060327
O O1 0.446412 0.678418 0.750242
O O2 0.886642 0.726312 0.949781
O O3 0.405189 0.972148 0.726500
O O4 0.563553 0.395901 0.967521
O O5 0.473355 0.368696 0.482764
O O6 0.903775 0.524050 0.627455
O O7 0.875138 0.118637 0.661611
O O8 0.951404 0.003355 0.812786
O O9 0.414724 0.280427 0.301869
O O10 0.914453 0.358325 0.444957
O O11 0.406798 0.767542 0.109324
O O12 0.997876 0.664707 0.801016
O O13 0.500000 0.000000 0.500000
O O14 0.018454 0.178930 0.358557
O O15 0.738595 0.978926 0.250073
O O16 0.991367 0.753578 0.165290
O O17 0.500000 0.500000 0.000000
#
# Coordination Sequence:
#
# PCOD9082983 Si02
#       8
#     2   2   2   2   2   2   2   2
#     4  11  21  35  59  89 119 152 195 255 291 335
#     4   9  18  33  58  84 119 152 197 235 290 351
#     4  12  20  34  59  94 116 142 207 258 282 337
#     4  12  19  33  62  88 118 151 206 246 284 351
#     4  11  22  39  59  87 124 157 195 240 302 358
#     4   9  18  37  57  84 125 158 193 236 293 374
#     4  10  22  36  56  86 123 156 194 242 302 349
#     4  10  19  33  60  85 116 144 198 249 288 332
#
# _framework density 25.815428000000001
#
# number of rings (size 3 to 8) (size 9 to 14) (size 15 to 20)
#    0.750    0.750    5.000    1.500    0.000    0.000 
#    0.000    1.250    0.000    1.500    0.000    7.000 
#    0.000    0.000    0.000    0.000    0.000    0.000 
#
# Total GULP energy -89286.488504 kJ/mol
# GULP energy per Si atom -5580.405532 kJ/mol
# Density = 2.575667 g / cm^3
# Si number density = 25.815428 Si / 1000 Ang^3
#
#
#
# Elastic Constant Matrix: (Units=GPa)
#
#
# Indices 1 2 3 4 5 6 
#
# 1 141.5220 15.9347 54.7386 11.2994 -15.1365 -8.3377
# 2 15.9347 68.2926 3.5430 -9.7452 -7.1671 -3.3588
# 3 54.7386 3.5430 194.6704 -0.6357 3.5892 -1.7512
# 4 11.2994 -9.7452 -0.6357 26.3344 2.2493 3.2024
# 5 -15.1365 -7.1671 3.5892 2.2493 50.9589 3.7113
# 6 -8.3377 -3.3588 -1.7512 3.2024 3.7113 24.9746
#
#
#
# Elastic Compliance Matrix: (Units=1/GPa)
#
#
# Indices 1 2 3 4 5 6 
#
# 1 0.009224 -0.002382 -0.002590 -0.005477 0.002618 0.002891
# 2 -0.002382 0.016313 0.000376 0.006920 0.001229 0.000355
# 3 -0.002590 0.000376 0.005881 0.001544 -0.001168 -0.000426
# 4 -0.005477 0.006920 0.001544 0.043853 -0.002255 -0.006078
# 5 0.002618 0.001229 -0.001168 -0.002255 0.020891 -0.001858
# 6 0.002891 0.000355 -0.000426 -0.006078 -0.001858 0.042079
#
#
# Mechanical properties :
#
#
# Convention : Reuss Voigt Hill
#
# Bulk Modulus (GPa) = 44.99486 61.43530 53.21508
# Shear Modulus (GPa) = 32.29077 42.47150 37.38113
#
# Velocity S-wave (km/s) = 3.54055 4.06050 3.80941
# Velocity P-wave (km/s) = 5.84647 6.77002 6.32513
#
# Compressibility (1/GPa) = 0.02222476
#
# Stress axis : x y z
#
# Youngs Moduli (GPa) = 108.41444 61.30032 170.03415
#
# Poissons Ratio (x) = 0.14604 0.44046
# Poissons Ratio (y) = 0.25829 -0.06396
# Poissons Ratio (z) = 0.28084 -0.02306
#
# Static dielectric constant tensor:
#      x y z
#    x 2.098680 0.003930 0.022790 
#    y 0.003930 2.031930 -0.056480 
#    z 0.022790 -0.056480 2.150510 
# 
# From -- ./inp_files/623060.got.cif
#   From: 2010.05.17/outbox.cif.g08.bks.cpg/sg2_312_cif.got.tgz:623060.got - 2010.06.03 11:33:40.
