data_PCOD9082002
_publ_section_title
;
Structure prediction by ZEFSAII (Michael W. Deem and Ramdas Pophale) SiO2 
 PCOD9082002
Probable space group: P -1
;
_chemical_formula_sum "Si O2"
_cell_formula_units_Z 12
_cell_length_a 16.685973
_cell_length_b 13.422192
_cell_length_c 6.656408
_cell_angle_alpha 46.735134
_cell_angle_beta 133.314774
_cell_angle_gamma 151.389848
_cell_volume 504.399600
_symmetry_space_group_name_H-M "P -1"
_symmetry_group_IT_number 2
_symmetry_cell_setting 'triclinic'
loop_
_space_group_symop_operation_xyz
x,y,z
-x,-y,-z
loop_
_atom_site_type_symbol
_atom_site_label
_atom_site_fract_x
_atom_site_fract_y
_atom_site_fract_z
Si Si1 0.279216 0.823504 0.596453
Si Si2 0.015489 0.114699 0.554002
Si Si3 0.313666 0.132177 0.484448
Si Si4 0.436041 0.111328 0.113522
Si Si5 0.900687 0.515374 0.940371
Si Si6 0.365454 0.561387 0.633977
O O1 0.138429 0.583466 0.771690
O O2 0.276710 0.950712 0.564784
O O3 0.286662 0.896217 0.286776
O O4 0.544772 0.095995 0.214213
O O5 0.205096 0.304385 0.716156
O O6 0.997964 0.247259 0.237826
O O7 0.000000 0.000000 0.500000
O O8 0.862856 0.954656 0.672452
O O9 0.473188 0.344540 0.340960
O O10 0.376454 0.160395 0.777762
O O11 0.562701 0.309423 0.214289
O O12 0.717509 0.388836 0.701426
O O13 0.000000 0.500000 0.000000
#
# Coordination Sequence:
#
# PCOD9082002 Si02
#       6
#     2   2   2   2   2   2
#     4  10  19  32  59  93 125 153 194 251 308 353
#     4  10  23  41  63  86 121 166 206 247 305 363
#     4  11  20  39  63  87 125 161 201 249 307 362
#     4  10  20  31  61  96 122 154 201 251 307 362
#     4  10  19  38  60  87 124 156 198 251 297 354
#     4   9  22  39  58  90 126 155 206 250 302 358
#
# _framework density 23.790662999999999
#
# number of rings (size 3 to 8) (size 9 to 14) (size 15 to 20)
#    1.000    1.000    3.333    0.500    4.667    0.667 
#    0.000   15.000    0.000   10.000    0.000    3.500 
#    0.000    0.000    0.000    0.000    0.000    0.000 
#
# Total GULP energy -67028.402375 kJ/mol
# GULP energy per Si atom -5585.700198 kJ/mol
# Density = 2.373651 g / cm^3
# Si number density = 23.790663 Si / 1000 Ang^3
#
#
#
# Elastic Constant Matrix: (Units=GPa)
#
#
# Indices 1 2 3 4 5 6 
#
# 1 165.0298 77.8201 28.1267 2.2500 -20.3690 23.4422
# 2 77.8201 90.2946 28.0854 -4.5093 -3.0603 11.7991
# 3 28.1267 28.0854 89.7321 -4.8367 -6.7936 10.9963
# 4 2.2500 -4.5093 -4.8367 22.1208 9.9388 -3.4624
# 5 -20.3690 -3.0603 -6.7936 9.9388 25.3926 -0.2654
# 6 23.4422 11.7991 10.9963 -3.4624 -0.2654 47.8490
#
#
#
# Elastic Compliance Matrix: (Units=1/GPa)
#
#
# Indices 1 2 3 4 5 6 
#
# 1 0.014096 -0.011681 0.000315 -0.010874 0.014190 -0.004806
# 2 -0.011681 0.022223 -0.003846 0.010462 -0.011797 0.001818
# 3 0.000315 -0.003846 0.012754 0.000261 0.003077 -0.002101
# 4 -0.010874 0.010462 0.000261 0.064199 -0.032445 0.007153
# 5 0.014190 -0.011797 0.003077 -0.032445 0.062794 -0.006750
# 6 -0.004806 0.001818 -0.002101 0.007153 -0.006750 0.023768
#
#
# Mechanical properties :
#
#
# Convention : Reuss Voigt Hill
#
# Bulk Modulus (GPa) = 53.62317 68.12454 60.87386
# Shear Modulus (GPa) = 21.14372 33.14077 27.14225
#
# Velocity S-wave (km/s) = 2.98441 3.73636 3.38135
# Velocity P-wave (km/s) = 5.87061 6.87830 6.39434
#
# Compressibility (1/GPa) = 0.01864865
#
# Stress axis : x y z
#
# Youngs Moduli (GPa) = 70.94033 44.99763 78.40675
#
# Poissons Ratio (x) = 0.52561 -0.02467
# Poissons Ratio (y) = 0.82864 0.30158
# Poissons Ratio (z) = -0.02232 0.17308
#
# Static dielectric constant tensor:
#      x y z
#    x 1.838890 0.041690 0.036930 
#    y 0.041690 1.937210 0.004480 
#    z 0.036930 0.004480 1.899210 
# 
# From -- ./inp_files/92406.got.cif
#   From: 2010.05.17/outbox.cif.g08.bks.cpg/sg2_47_cif.got.tgz:92406.got - 2010.06.03 11:33:40.
