data_PCOD9082502
_publ_section_title
;
Structure prediction by ZEFSAII (Michael W. Deem and Ramdas Pophale) SiO2 
 PCOD9082502
Probable space group: P -1
;
_chemical_formula_sum "Si O2"
_cell_formula_units_Z 16
_cell_length_a 11.993591
_cell_length_b 11.336346
_cell_length_c 13.653413
_cell_angle_alpha 157.607260
_cell_angle_beta 121.698967
_cell_angle_gamma 67.964983
_cell_volume 565.536343
_symmetry_space_group_name_H-M "P -1"
_symmetry_group_IT_number 2
_symmetry_cell_setting 'triclinic'
loop_
_space_group_symop_operation_xyz
x,y,z
-x,-y,-z
loop_
_atom_site_type_symbol
_atom_site_label
_atom_site_fract_x
_atom_site_fract_y
_atom_site_fract_z
Si Si1 0.585563 0.293180 0.957492
Si Si2 0.077813 0.947492 0.250118
Si Si3 0.092027 0.123469 0.041367
Si Si4 0.615849 0.386173 0.386657
Si Si5 0.219958 0.637774 0.746542
Si Si6 0.699982 0.008991 0.468994
Si Si7 0.873503 0.968887 0.340187
Si Si8 0.577881 0.672274 0.899165
O O1 0.460607 0.006738 0.626305
O O2 0.512032 0.418503 0.110722
O O3 0.702858 0.183142 0.980945
O O4 0.662725 0.609696 0.168622
O O5 0.158823 0.265299 0.467732
O O6 0.189083 0.833724 0.272716
O O7 0.972802 0.039453 0.344477
O O8 0.982763 0.710767 0.942308
O O9 0.249412 0.349712 0.303391
O O10 0.115476 0.789166 0.764007
O O11 0.000000 0.000000 0.000000
O O12 0.671079 0.331103 0.263336
O O13 0.592295 0.054616 0.180032
O O14 0.481801 0.467551 0.345912
O O15 0.779871 0.097684 0.471556
O O16 0.734765 0.683756 0.006952
O O17 0.000000 0.000000 0.500000
#
# Coordination Sequence:
#
# PCOD9082502 Si02
#       8
#     2   2   2   2   2   2   2   2
#     4   8  15  31  56  83 105 142 190 232 278 336
#     4  10  19  33  55  85 115 148 188 230 277 340
#     4  12  24  35  56  87 116 152 189 231 280 336
#     4  10  21  38  56  83 115 152 189 230 278 330
#     4  10  20  36  56  83 114 150 190 229 280 337
#     4   8  15  30  56  87 105 141 194 231 278 332
#     4   9  17  30  55  87 110 143 189 231 279 333
#     4   9  18  34  57  82 114 150 184 230 280 334
#
# _framework density 28.291725
#
# number of rings (size 3 to 8) (size 9 to 14) (size 15 to 20)
#    0.000    2.500    1.250    1.125    1.750    0.000 
#    0.000   10.000    0.000    9.000    0.000    0.000 
#    0.000    0.000    0.000    0.000    0.000    0.000 
#
# Total GULP energy -89180.567702 kJ/mol
# GULP energy per Si atom -5573.785481 kJ/mol
# Density = 2.822733 g / cm^3
# Si number density = 28.291725 Si / 1000 Ang^3
#
#
#
# Elastic Constant Matrix: (Units=GPa)
#
#
# Indices 1 2 3 4 5 6 
#
# 1 96.9438 33.2850 9.9998 17.7582 22.9354 13.4924
# 2 33.2850 180.9353 43.2501 -41.9904 18.7715 -5.9450
# 3 9.9998 43.2501 122.0383 -41.8213 38.4984 -14.8037
# 4 17.7582 -41.9904 -41.8213 69.0622 0.4451 22.5583
# 5 22.9354 18.7715 38.4984 0.4451 37.2990 -0.8017
# 6 13.4924 -5.9450 -14.8037 22.5583 -0.8017 44.9550
#
#
#
# Elastic Compliance Matrix: (Units=1/GPa)
#
#
# Indices 1 2 3 4 5 6 
#
# 1 0.014293 -0.003033 0.000639 -0.004272 -0.007924 -0.002478
# 2 -0.003033 0.007597 0.000103 0.005803 -0.002156 -0.001001
# 3 0.000639 0.000103 0.017763 0.010805 -0.018910 -0.000088
# 4 -0.004272 0.005803 0.010805 0.028663 -0.011982 -0.008989
# 5 -0.007924 -0.002156 -0.018910 -0.011982 0.052489 0.002815
# 6 -0.002478 -0.001001 -0.000088 -0.008989 0.002815 0.027388
#
#
# Mechanical properties :
#
#
# Convention : Reuss Voigt Hill
#
# Bulk Modulus (GPa) = 28.51295 63.66523 46.08909
# Shear Modulus (GPa) = 30.40179 51.15542 40.77860
#
# Velocity S-wave (km/s) = 3.28164 4.25684 3.80065
# Velocity P-wave (km/s) = 4.94560 6.83468 5.96539
#
# Compressibility (1/GPa) = 0.03507178
#
# Stress axis : x y z
#
# Youngs Moduli (GPa) = 69.96567 131.62269 56.29783
#
# Poissons Ratio (x) = 0.39917 -0.03598
# Poissons Ratio (y) = 0.21218 -0.00580
# Poissons Ratio (z) = -0.04471 -0.01357
#
# Static dielectric constant tensor:
#      x y z
#    x 2.177820 -0.044750 0.215340 
#    y -0.044750 2.137010 -0.170270 
#    z 0.215340 -0.170270 2.751710 
# 
# From -- ./inp_files/97550.got.cif
#   From: 2010.05.17/outbox.cif.g08.bks.cpg/sg2_49_cif.got.tgz:97550.got - 2010.06.03 11:33:40.
