data_PCOD9082696
_publ_section_title
;
Structure prediction by ZEFSAII (Michael W. Deem and Ramdas Pophale) SiO2 
 PCOD9082696
Probable space group: P -1
;
_chemical_formula_sum "Si O2"
_cell_formula_units_Z 14
_cell_length_a 10.533237
_cell_length_b 11.760705
_cell_length_c 17.095808
_cell_angle_alpha 26.199910
_cell_angle_beta 132.467988
_cell_angle_gamma 139.840940
_cell_volume 602.589310
_symmetry_space_group_name_H-M "P -1"
_symmetry_group_IT_number 2
_symmetry_cell_setting 'triclinic'
loop_
_space_group_symop_operation_xyz
x,y,z
-x,-y,-z
loop_
_atom_site_type_symbol
_atom_site_label
_atom_site_fract_x
_atom_site_fract_y
_atom_site_fract_z
Si Si1 0.797670 0.690456 0.320438
Si Si2 0.365187 0.027199 0.736411
Si Si3 0.406998 0.654338 0.694384
Si Si4 0.835537 0.276506 0.010897
Si Si5 0.193781 0.700068 0.716604
Si Si6 0.200427 0.480942 0.408805
Si Si7 0.352159 0.366025 0.317346
O O1 0.775384 0.537921 0.321751
O O2 0.884226 0.612796 0.479942
O O3 0.564064 0.527759 0.346485
O O4 0.880024 0.039363 0.134174
O O5 0.256901 0.229143 0.561137
O O6 0.593944 0.218259 0.692868
O O7 0.340659 0.920774 0.880710
O O8 0.255030 0.758517 0.795943
O O9 0.329242 0.607583 0.778624
O O10 0.579871 0.594103 0.770752
O O11 0.500000 0.000000 0.500000
O O12 0.769021 0.471278 0.813442
O O13 0.000000 0.500000 0.000000
O O14 0.966500 0.505841 0.720277
O O15 0.244076 0.026338 0.504574
#
# Coordination Sequence:
#
# PCOD9082696 Si02
#       7
#     2   2   2   2   2   2   2
#     4   9  18  35  56  85 110 144 186 227 277 326
#     4  10  21  37  51  83 116 138 187 234 278 327
#     4   8  17  32  56  83 113 143 184 228 278 318
#     4  11  22  37  56  83 110 148 188 227 282 335
#     4  11  19  36  60  84 112 147 186 225 277 335
#     4  10  19  33  57  82 111 147 185 229 279 324
#     4   9  18  35  57  81 113 145 179 234 272 318
#
# _framework density 23.233070999999999
#
# number of rings (size 3 to 8) (size 9 to 14) (size 15 to 20)
#    0.857    1.429    1.429    2.571    0.000    0.571 
#    2.571    2.143    0.000    1.714    0.000    0.000 
#    0.000    0.000    0.000    0.000    0.000    0.000 
#
# Total GULP energy -78091.036398 kJ/mol
# GULP energy per Si atom -5577.931171 kJ/mol
# Density = 2.318019 g / cm^3
# Si number density = 23.233071 Si / 1000 Ang^3
#
#
#
# Elastic Constant Matrix: (Units=GPa)
#
#
# Indices 1 2 3 4 5 6 
#
# 1 49.4016 2.2948 7.8145 1.3453 3.0485 -19.2038
# 2 2.2948 88.0402 -0.3432 -18.6217 13.6487 -16.1422
# 3 7.8145 -0.3432 35.5063 -9.0472 4.5042 -1.0228
# 4 1.3453 -18.6217 -9.0472 22.8489 -7.2180 -0.3356
# 5 3.0485 13.6487 4.5042 -7.2180 16.0174 4.0980
# 6 -19.2038 -16.1422 -1.0228 -0.3356 4.0980 45.1271
#
#
#
# Elastic Compliance Matrix: (Units=1/GPa)
#
#
# Indices 1 2 3 4 5 6 
#
# 1 0.026952 0.002347 -0.005419 -0.005203 -0.011321 0.013175
# 2 0.002347 0.017509 0.004633 0.011807 -0.013572 0.008687
# 3 -0.005419 0.004633 0.034175 0.015881 -0.005562 0.000749
# 4 -0.005203 0.011807 0.015881 0.064840 0.015309 0.001461
# 5 -0.011321 -0.013572 -0.005562 0.015309 0.089163 -0.017781
# 6 0.013175 0.008687 0.000749 0.001461 -0.017781 0.032516
#
#
# Mechanical properties :
#
#
# Convention : Reuss Voigt Hill
#
# Bulk Modulus (GPa) = 12.23126 21.38671 16.80899
# Shear Modulus (GPa) = 17.28377 27.67749 22.48063
#
# Velocity S-wave (km/s) = 2.73047 3.45526 3.11402
# Velocity P-wave (km/s) = 3.90085 5.01435 4.49223
#
# Compressibility (1/GPa) = 0.08175770
#
# Stress axis : x y z
#
# Youngs Moduli (GPa) = 37.10239 57.11239 29.26093
#
# Poissons Ratio (x) = -0.13402 0.15857
# Poissons Ratio (y) = -0.08706 -0.13557
# Poissons Ratio (z) = 0.20107 -0.26460
#
# Static dielectric constant tensor:
#      x y z
#    x 1.968300 -0.095440 -0.079600 
#    y -0.095440 1.956690 0.056190 
#    z -0.079600 0.056190 1.922000 
# 
# From -- ./inp_files/388174.got.cif
#   From: 2010.05.17/outbox.cif.g08.bks.cpg/sg2_195_cif.got.tgz:388174.got - 2010.06.03 11:33:40.
