data_PCOD9082510
_publ_section_title
;
Structure prediction by ZEFSAII (Michael W. Deem and Ramdas Pophale) SiO2 
 PCOD9082510
Probable space group: P -1
;
_chemical_formula_sum "Si O2"
_cell_formula_units_Z 16
_cell_length_a 18.049709
_cell_length_b 11.535321
_cell_length_c 7.431428
_cell_angle_alpha 92.488787
_cell_angle_beta 57.875765
_cell_angle_gamma 139.331391
_cell_volume 647.404701
_symmetry_space_group_name_H-M "P -1"
_symmetry_group_IT_number 2
_symmetry_cell_setting 'triclinic'
loop_
_space_group_symop_operation_xyz
x,y,z
-x,-y,-z
loop_
_atom_site_type_symbol
_atom_site_label
_atom_site_fract_x
_atom_site_fract_y
_atom_site_fract_z
Si Si1 0.156609 0.908032 0.560015
Si Si2 0.004173 0.504074 0.711643
Si Si3 0.168181 0.918601 0.112126
Si Si4 0.299084 0.295277 0.804914
Si Si5 0.790656 0.568416 0.164616
Si Si6 0.524639 0.206233 0.777076
Si Si7 0.371576 0.817805 0.814035
Si Si8 0.472452 0.587313 0.929173
O O1 0.138841 0.904548 0.364427
O O2 0.156516 0.768597 0.588336
O O3 0.340564 0.175608 0.395595
O O4 0.988472 0.768714 0.863402
O O5 0.977879 0.340911 0.785756
O O6 0.000000 0.500000 0.500000
O O7 0.823031 0.357894 0.990653
O O8 0.184202 0.050678 0.981247
O O9 0.362414 0.081450 0.869173
O O10 0.500000 0.500000 0.500000
O O11 0.226676 0.314032 0.777201
O O12 0.316896 0.378985 0.981338
O O13 0.702438 0.412055 0.445417
O O14 0.664237 0.360959 0.159138
O O15 0.448774 0.987989 0.885208
O O16 0.552014 0.325624 0.914309
O O17 0.500000 0.000000 0.500000
O O18 0.500000 0.500000 0.000000
#
# Coordination Sequence:
#
# PCOD9082510 Si02
#       8
#     2   2   2   2   2   2   2   2
#     4   9  18  33  56  83 106 133 184 228 266 307
#     4   8  14  26  50  80  99 131 178 227 251 304
#     4   9  16  31  53  77 108 141 180 216 262 321
#     4  12  22  36  56  81 110 146 184 219 270 331
#     4  10  19  33  55  87 110 135 181 229 270 311
#     4   9  16  33  56  78 105 146 186 219 257 323
#     4   8  15  27  50  80 105 135 176 222 258 307
#     4  11  20  37  57  77 109 149 185 214 266 332
#
# _framework density 24.714061000000001
#
# number of rings (size 3 to 8) (size 9 to 14) (size 15 to 20)
#    0.000    2.500    3.750    0.750    0.000    0.500 
#    0.000    3.125    0.000    0.750    0.000    0.000 
#    0.000    0.000    0.000    0.000    0.000    0.000 
#
# Total GULP energy -89300.408701 kJ/mol
# GULP energy per Si atom -5581.275544 kJ/mol
# Density = 2.465781 g / cm^3
# Si number density = 24.714061 Si / 1000 Ang^3
#
#
#
# Elastic Constant Matrix: (Units=GPa)
#
#
# Indices 1 2 3 4 5 6 
#
# 1 49.2242 41.8536 14.4064 -8.5244 4.4730 -15.0449
# 2 41.8536 141.8756 43.7009 -22.6310 18.7995 -43.5415
# 3 14.4064 43.7009 132.5613 -9.6803 -17.7879 -4.1558
# 4 -8.5244 -22.6310 -9.6803 44.0963 -8.3179 8.9639
# 5 4.4730 18.7995 -17.7879 -8.3179 18.7473 -0.1315
# 6 -15.0449 -43.5415 -4.1558 8.9639 -0.1315 32.3449
#
#
#
# Elastic Compliance Matrix: (Units=1/GPa)
#
#
# Indices 1 2 3 4 5 6 
#
# 1 0.027394 -0.006802 -0.000513 0.001096 0.000307 0.003217
# 2 -0.006802 0.028834 -0.013638 -0.004546 -0.042003 0.034989
# 3 -0.000513 -0.013638 0.016246 0.006145 0.031812 -0.018083
# 4 0.001096 -0.004546 0.006145 0.028792 0.022813 -0.012707
# 5 0.000307 -0.042003 0.031812 0.022813 0.135285 -0.058085
# 6 0.003217 0.034989 -0.018083 -0.012707 -0.058085 0.080476
#
#
# Mechanical properties :
#
#
# Convention : Reuss Voigt Hill
#
# Bulk Modulus (GPa) = 32.71236 58.17587 45.44411
# Shear Modulus (GPa) = 13.54570 33.95105 23.74837
#
# Velocity S-wave (km/s) = 2.34369 3.71044 3.10324
# Velocity P-wave (km/s) = 4.53750 6.47666 5.59178
#
# Compressibility (1/GPa) = 0.03056949
#
# Stress axis : x y z
#
# Youngs Moduli (GPa) = 36.50460 34.68089 61.55435
#
# Poissons Ratio (x) = 0.23590 0.03155
# Poissons Ratio (y) = 0.24830 0.83946
# Poissons Ratio (z) = 0.01871 0.47297
#
# Static dielectric constant tensor:
#      x y z
#    x 1.969360 -0.002420 0.017580 
#    y -0.002420 2.080230 0.082770 
#    z 0.017580 0.082770 1.937890 
# 
# From -- ./inp_files/202993.got.cif
#   From: 2010.05.17/outbox.cif.g08.bks.cpg/sg2_102_cif.got.tgz:202993.got - 2010.06.03 11:33:40.
