data_PCOD9082322
_publ_section_title
;
Structure prediction by ZEFSAII (Michael W. Deem and Ramdas Pophale) SiO2 
 PCOD9082322
Probable space group: P -1
;
_chemical_formula_sum "Si O2"
_cell_formula_units_Z 10
_cell_length_a 10.700215
_cell_length_b 13.509822
_cell_length_c 6.627243
_cell_angle_alpha 76.293354
_cell_angle_beta 88.825503
_cell_angle_gamma 29.508412
_cell_volume 422.502134
_symmetry_space_group_name_H-M "P -1"
_symmetry_group_IT_number 2
_symmetry_cell_setting 'triclinic'
loop_
_space_group_symop_operation_xyz
x,y,z
-x,-y,-z
loop_
_atom_site_type_symbol
_atom_site_label
_atom_site_fract_x
_atom_site_fract_y
_atom_site_fract_z
Si Si1 0.167503 0.680193 0.327176
Si Si2 0.793435 0.925458 0.600181
Si Si3 0.792383 0.702697 0.677980
Si Si4 0.192927 0.237355 0.822942
Si Si5 0.223356 0.845642 0.387471
O O1 0.154227 0.811863 0.234344
O O2 0.475611 0.412927 0.429002
O O3 0.052277 0.752101 0.525935
O O4 0.977232 0.743771 0.175443
O O5 0.818039 0.792598 0.744256
O O6 0.508884 0.130365 0.378485
O O7 0.762415 0.042824 0.696680
O O8 0.802921 0.730914 0.428939
O O9 0.032079 0.448445 0.824401
O O10 0.500000 0.000000 0.000000
O O11 0.000000 0.000000 0.500000
#
# Coordination Sequence:
#
# PCOD9082322 Si02
#       5
#     2   2   2   2   2
#     4   9  17  29  49  81 101 135 179 205 255 312
#     4   9  16  30  51  76 104 132 171 215 253 304
#     4   9  18  32  51  79 106 135 173 207 260 309
#     4  10  19  33  54  78 108 137 169 213 257 309
#     4   9  16  28  51  77 103 135 175 215 250 303
#
# _framework density 23.668517999999999
#
# number of rings (size 3 to 8) (size 9 to 14) (size 15 to 20)
#    0.000    2.800    2.000    0.000    0.000    0.000 
#    0.000    9.000    0.000    2.400    0.000    0.000 
#    0.000    0.000    0.000    0.000    0.000    0.000 
#
# Total GULP energy -55799.453730 kJ/mol
# GULP energy per Si atom -5579.945373 kJ/mol
# Density = 2.361465 g / cm^3
# Si number density = 23.668518 Si / 1000 Ang^3
#
#
#
# Elastic Constant Matrix: (Units=GPa)
#
#
# Indices 1 2 3 4 5 6 
#
# 1 199.4664 86.5528 67.2321 -34.4779 14.4881 54.4045
# 2 86.5528 174.5442 56.8332 -43.8030 3.1351 29.6110
# 3 67.2321 56.8332 98.1536 -39.1798 -5.6882 19.5408
# 4 -34.4779 -43.8030 -39.1798 49.2910 5.9579 -1.3416
# 5 14.4881 3.1351 -5.6882 5.9579 36.0857 -7.0359
# 6 54.4045 29.6110 19.5408 -1.3416 -7.0359 65.9315
#
#
#
# Elastic Compliance Matrix: (Units=1/GPa)
#
#
# Indices 1 2 3 4 5 6 
#
# 1 0.009774 -0.001637 -0.003457 0.003196 -0.006200 -0.006902
# 2 -0.001637 0.008853 -0.001327 0.005814 -0.001729 -0.002298
# 3 -0.003457 -0.001327 0.017826 0.010251 0.002352 -0.001376
# 4 0.003196 0.005814 0.010251 0.036558 -0.007842 -0.008380
# 5 -0.006200 -0.001729 0.002352 -0.007842 0.033700 0.008633
# 6 -0.006902 -0.002298 -0.001376 -0.008380 0.008633 0.023053
#
#
# Mechanical properties :
#
#
# Convention : Reuss Voigt Hill
#
# Bulk Modulus (GPa) = 42.34974 99.26671 70.80823
# Shear Modulus (GPa) = 33.22796 47.69807 40.46301
#
# Velocity S-wave (km/s) = 3.75091 4.49403 4.13918
# Velocity P-wave (km/s) = 6.05730 8.30421 7.26810
#
# Compressibility (1/GPa) = 0.02361289
#
# Stress axis : x y z
#
# Youngs Moduli (GPa) = 102.31047 112.95661 56.09842
#
# Poissons Ratio (x) = 0.18489 0.19391
# Poissons Ratio (y) = 0.16747 0.07442
# Poissons Ratio (z) = 0.35364 0.14985
#
# Static dielectric constant tensor:
#      x y z
#    x 1.990050 0.018400 -0.000970 
#    y 0.018400 1.932530 0.094460 
#    z -0.000970 0.094460 1.906890 
# 
# From -- ./inp_files/92294.got.cif
#   From: 2010.05.17/outbox.cif.g08.bks.cpg/sg2_47_cif.got.tgz:92294.got - 2010.06.03 11:33:40.
