data_PCOD9082093
_publ_section_title
;
Structure prediction by ZEFSAII (Michael W. Deem and Ramdas Pophale) SiO2 
 PCOD9082093
Probable space group: P -1
;
_chemical_formula_sum "Si O2"
_cell_formula_units_Z 16
_cell_length_a 9.348175
_cell_length_b 9.920704
_cell_length_c 13.381157
_cell_angle_alpha 111.546661
_cell_angle_beta 86.564659
_cell_angle_gamma 144.907387
_cell_volume 592.626523
_symmetry_space_group_name_H-M "P -1"
_symmetry_group_IT_number 2
_symmetry_cell_setting 'triclinic'
loop_
_space_group_symop_operation_xyz
x,y,z
-x,-y,-z
loop_
_atom_site_type_symbol
_atom_site_label
_atom_site_fract_x
_atom_site_fract_y
_atom_site_fract_z
Si Si1 0.731460 0.449532 0.455757
Si Si2 0.133146 0.156274 0.869320
Si Si3 0.266405 0.858534 0.237343
Si Si4 0.715289 0.120601 0.391205
Si Si5 0.399255 0.453864 0.346657
Si Si6 0.305191 0.485472 0.786064
Si Si7 0.034552 0.756372 0.799798
Si Si8 0.811923 0.137696 0.969422
O O1 0.525267 0.200096 0.316044
O O2 0.742974 0.309434 0.482777
O O3 0.582657 0.441928 0.524464
O O4 0.062110 0.772552 0.520246
O O5 0.351866 0.407482 0.851078
O O6 0.182040 0.044159 0.886563
O O7 0.864672 0.883648 0.736652
O O8 0.041814 0.211861 0.956010
O O9 0.386948 0.841490 0.302161
O O10 0.211004 0.776627 0.101654
O O11 0.997091 0.705205 0.248862
O O12 0.833754 0.191090 0.293244
O O13 0.651370 0.575102 0.331242
O O14 0.282384 0.468866 0.274100
O O15 0.525215 0.800360 0.888019
O O16 0.113554 0.738607 0.891215
#
# Coordination Sequence:
#
# PCOD9082093 Si02
#       8
#     2   2   2   2   2   2   2   2
#     4   8  15  34  59  73  97 138 170 212 254 295
#     4   8  18  32  50  78 103 132 170 209 251 296
#     4   9  19  34  53  76 107 135 165 206 261 307
#     4   8  16  33  62  73  94 140 173 208 255 300
#     4   8  17  32  54  78  98 129 178 209 246 302
#     4  10  19  33  50  77 111 134 165 210 259 300
#     4   9  17  33  55  77 101 134 177 212 240 305
#     4  10  19  33  50  79 107 136 167 207 258 301
#
# _framework density 26.998453999999999
#
# number of rings (size 3 to 8) (size 9 to 14) (size 15 to 20)
#    1.500    1.750    0.000    0.375    0.000    1.500 
#    2.250    7.500    5.500    2.250    0.000    0.000 
#    0.000    0.000    0.000    0.000    0.000    0.000 
#
# Total GULP energy -89101.358609 kJ/mol
# GULP energy per Si atom -5568.834913 kJ/mol
# Density = 2.693700 g / cm^3
# Si number density = 26.998454 Si / 1000 Ang^3
#
#
#
# Elastic Constant Matrix: (Units=GPa)
#
#
# Indices 1 2 3 4 5 6 
#
# 1 107.5073 35.9509 10.1149 14.9536 5.2870 15.9689
# 2 35.9509 39.9942 23.0017 7.9506 13.2754 20.9581
# 3 10.1149 23.0017 126.5846 24.2507 13.6501 9.9775
# 4 14.9536 7.9506 24.2507 22.4401 12.1458 5.6478
# 5 5.2870 13.2754 13.6501 12.1458 33.3186 -3.1830
# 6 15.9689 20.9581 9.9775 5.6478 -3.1830 45.9519
#
#
#
# Elastic Compliance Matrix: (Units=1/GPa)
#
#
# Indices 1 2 3 4 5 6 
#
# 1 0.016258 -0.019489 0.003542 -0.014009 0.009303 0.004836
# 2 -0.019489 0.068060 -0.009735 0.023010 -0.031017 -0.027132
# 3 0.003542 -0.009735 0.011446 -0.014166 0.004054 0.002746
# 4 -0.014009 0.023010 -0.014166 0.082482 -0.032638 -0.014949
# 5 0.009303 -0.031017 0.004054 -0.032638 0.052823 0.017704
# 6 0.004836 -0.027132 0.002746 -0.014949 0.017704 0.034923
#
#
# Mechanical properties :
#
#
# Convention : Reuss Voigt Hill
#
# Bulk Modulus (GPa) = 22.52234 45.80233 34.16234
# Shear Modulus (GPa) = 15.05308 34.01005 24.53156
#
# Velocity S-wave (km/s) = 2.36382 3.55308 3.01762
# Velocity P-wave (km/s) = 3.97623 5.81671 4.98219
#
# Compressibility (1/GPa) = 0.04440036
#
# Stress axis : x y z
#
# Youngs Moduli (GPa) = 61.50673 14.69288 87.36613
#
# Poissons Ratio (x) = 0.28635 -0.30942
# Poissons Ratio (y) = 1.19869 0.85051
# Poissons Ratio (z) = -0.21784 0.14303
#
# Static dielectric constant tensor:
#      x y z
#    x 2.213060 -0.087960 0.167800 
#    y -0.087960 2.278410 -0.025270 
#    z 0.167800 -0.025270 2.176620 
# 
# From -- ./inp_files/520953.got.cif
#   From: 2010.05.17/outbox.cif.g08.bks.cpg/sg2_261_cif.got.tgz:520953.got - 2010.06.03 11:33:40.
