data_PCOD9082782
_publ_section_title
;
Structure prediction by ZEFSAII (Michael W. Deem and Ramdas Pophale) SiO2 
 PCOD9082782
Probable space group: P -1
;
_chemical_formula_sum "Si O2"
_cell_formula_units_Z 14
_cell_length_a 6.818386
_cell_length_b 8.801847
_cell_length_c 14.484231
_cell_angle_alpha 51.048273
_cell_angle_beta 56.552286
_cell_angle_gamma 58.119251
_cell_volume 541.498724
_symmetry_space_group_name_H-M "P -1"
_symmetry_group_IT_number 2
_symmetry_cell_setting 'triclinic'
loop_
_space_group_symop_operation_xyz
x,y,z
-x,-y,-z
loop_
_atom_site_type_symbol
_atom_site_label
_atom_site_fract_x
_atom_site_fract_y
_atom_site_fract_z
Si Si1 0.571396 0.144781 0.230364
Si Si2 0.945651 0.031433 0.741061
Si Si3 0.313964 0.291282 0.075444
Si Si4 0.911639 0.750298 0.228632
Si Si5 0.247412 0.046218 0.489340
Si Si6 0.291975 0.592371 0.592709
Si Si7 0.202225 0.390574 0.863313
O O1 0.525502 0.280047 0.099220
O O2 0.811952 0.154413 0.220930
O O3 0.664992 0.903947 0.275362
O O4 0.321826 0.176136 0.338888
O O5 0.896502 0.176901 0.787270
O O6 0.035118 0.124209 0.591086
O O7 0.734394 0.929465 0.816442
O O8 0.061974 0.452632 0.108563
O O9 0.339146 0.321969 0.949043
O O10 0.914584 0.520336 0.335940
O O11 0.876475 0.775102 0.118210
O O12 0.220436 0.833082 0.536304
O O13 0.500000 0.000000 0.500000
O O14 0.500000 0.500000 0.500000
O O15 0.358657 0.490759 0.715621
#
# Coordination Sequence:
#
# PCOD9082782 Si02
#       7
#     2   2   2   2   2   2   2
#     4   9  20  33  57  88 103 145 194 225 263 337
#     4   9  18  35  55  81 110 148 181 227 274 325
#     4  11  20  37  60  77 117 144 190 221 276 336
#     4   8  18  34  54  79 110 141 188 217 281 318
#     4  10  16  31  57  81 108 143 186 221 273 324
#     4  10  15  33  57  78 110 151 177 228 281 324
#     4   9  21  35  55  83 108 155 175 229 288 320
#
# _framework density 25.854171999999998
#
# number of rings (size 3 to 8) (size 9 to 14) (size 15 to 20)
#    1.714    0.857    2.857    0.000    0.000    1.714 
#    0.000    2.857    9.429    1.714    0.000    0.000 
#    0.000    0.000    0.000    0.000    0.000    0.000 
#
# Total GULP energy -78064.613246 kJ/mol
# GULP energy per Si atom -5576.043803 kJ/mol
# Density = 2.579533 g / cm^3
# Si number density = 25.854172 Si / 1000 Ang^3
#
#
#
# Elastic Constant Matrix: (Units=GPa)
#
#
# Indices 1 2 3 4 5 6 
#
# 1 65.2932 18.4554 33.4307 -0.3654 13.0702 -9.6171
# 2 18.4554 89.9650 24.1401 13.6906 5.0473 -4.9402
# 3 33.4307 24.1401 120.8104 33.2948 13.7644 0.5926
# 4 -0.3654 13.6906 33.2948 40.4489 7.6558 -0.3877
# 5 13.0702 5.0473 13.7644 7.6558 30.8410 8.3133
# 6 -9.6171 -4.9402 0.5926 -0.3877 8.3133 23.9477
#
#
#
# Elastic Compliance Matrix: (Units=1/GPa)
#
#
# Indices 1 2 3 4 5 6 
#
# 1 0.024845 -0.003083 -0.007651 0.010154 -0.012956 0.014193
# 2 -0.003083 0.012554 -0.000639 -0.003763 0.000132 0.001261
# 3 -0.007651 -0.000639 0.013500 -0.011237 0.001230 -0.004147
# 4 0.010154 -0.003763 -0.011237 0.037303 -0.009995 0.007653
# 5 -0.012956 0.000132 0.001230 -0.009995 0.045534 -0.021175
# 6 0.014193 0.001261 -0.004147 0.007653 -0.021175 0.055295
#
#
# Mechanical properties :
#
#
# Convention : Reuss Voigt Hill
#
# Bulk Modulus (GPa) = 35.52104 47.56901 41.54503
# Shear Modulus (GPa) = 22.60803 32.38369 27.49586
#
# Velocity S-wave (km/s) = 2.96031 3.54298 3.26467
# Velocity P-wave (km/s) = 5.04514 5.93092 5.50587
#
# Compressibility (1/GPa) = 0.02815233
#
# Stress axis : x y z
#
# Youngs Moduli (GPa) = 40.24932 79.65605 74.07669
#
# Poissons Ratio (x) = 0.24555 0.56676
# Poissons Ratio (y) = 0.12408 0.04737
# Poissons Ratio (z) = 0.30795 0.05094
#
# Static dielectric constant tensor:
#      x y z
#    x 2.095810 0.014830 0.056270 
#    y 0.014830 2.067770 0.006590 
#    z 0.056270 0.006590 2.088320 
# 
# From -- ./inp_files/375585.got.cif
#   From: 2010.05.17/outbox.cif.g08.bks.cpg/sg2_188_cif.got.tgz:375585.got - 2010.06.03 11:33:40.
