data_PCOD9082207
_publ_section_title
;
Structure prediction by ZEFSAII (Michael W. Deem and Ramdas Pophale) SiO2 
 PCOD9082207
Probable space group: P -1
;
_chemical_formula_sum "Si O2"
_cell_formula_units_Z 16
_cell_length_a 14.133920
_cell_length_b 25.566491
_cell_length_c 25.574165
_cell_angle_alpha 11.383683
_cell_angle_beta 149.616799
_cell_angle_gamma 149.058686
_cell_volume 915.871550
_symmetry_space_group_name_H-M "P -1"
_symmetry_group_IT_number 2
_symmetry_cell_setting 'triclinic'
loop_
_space_group_symop_operation_xyz
x,y,z
-x,-y,-z
loop_
_atom_site_type_symbol
_atom_site_label
_atom_site_fract_x
_atom_site_fract_y
_atom_site_fract_z
Si Si1 0.331729 0.771433 0.807714
Si Si2 0.970899 0.986900 0.370204
Si Si3 0.843420 0.480372 0.233655
Si Si4 0.262564 0.696769 0.209650
Si Si5 0.762993 0.918296 0.687873
Si Si6 0.883206 0.222684 0.202515
Si Si7 0.486236 0.741386 0.641445
Si Si8 0.660168 0.824936 0.303991
O O1 0.301811 0.782210 0.845270
O O2 0.133252 0.828628 0.629186
O O3 0.481923 0.016440 0.621083
O O4 0.394749 0.493451 0.090810
O O5 0.790830 0.818753 0.422945
O O6 0.888588 0.170453 0.194676
O O7 0.081734 0.138988 0.225568
O O8 0.722640 0.387693 0.317764
O O9 0.053275 0.623724 0.203597
O O10 0.831888 0.213607 0.453348
O O11 0.748542 0.701729 0.938858
O O12 0.434618 0.799747 0.229388
O O13 0.304777 0.421822 0.473506
O O14 0.276716 0.913785 0.957089
O O15 0.572385 0.874076 0.606608
O O16 0.000000 0.000000 0.500000
O O17 0.000000 0.500000 0.000000
#
# Coordination Sequence:
#
# PCOD9082207 Si02
#       8
#     2   2   2   2   2   2   2   2
#     4  10  21  35  48  73 100 128 169 207 238 290
#     4  10  19  33  53  73  99 135 157 199 255 298
#     4  12  20  33  48  69  99 135 167 198 238 281
#     4  10  20  34  48  72  98 131 164 208 234 290
#     4  11  20  30  46  72 100 128 164 200 232 296
#     4  10  20  33  51  73  99 128 163 204 248 297
#     4  11  22  33  48  68  99 138 167 200 237 285
#     4  10  20  33  51  70 100 128 164 199 253 287
#
# _framework density 17.469698000000001
#
# number of rings (size 3 to 8) (size 9 to 14) (size 15 to 20)
#    0.000    1.500    2.500    5.250    0.000    3.000 
#    0.000    0.000    0.000    0.000    0.000    1.750 
#    0.000    0.000    0.000    0.375    0.000    0.000 
#
# Total GULP energy -89199.887238 kJ/mol
# GULP energy per Si atom -5574.992952 kJ/mol
# Density = 1.742994 g / cm^3
# Si number density = 17.469698 Si / 1000 Ang^3
#
#
#
# Elastic Constant Matrix: (Units=GPa)
#
#
# Indices 1 2 3 4 5 6 
#
# 1 85.2064 27.3493 13.4999 -14.1730 3.3926 11.0479
# 2 27.3493 81.2603 -0.3821 -12.2694 1.2971 17.2397
# 3 13.4999 -0.3821 93.6134 -27.1917 -0.0969 -2.5234
# 4 -14.1730 -12.2694 -27.1917 21.6146 3.2060 -0.8337
# 5 3.3926 1.2971 -0.0969 3.2060 23.8264 -8.8753
# 6 11.0479 17.2397 -2.5234 -0.8337 -8.8753 28.0756
#
#
#
# Elastic Compliance Matrix: (Units=1/GPa)
#
#
# Indices 1 2 3 4 5 6 
#
# 1 0.014990 -0.002207 0.000515 0.009818 -0.005554 -0.005961
# 2 -0.002207 0.017826 0.004354 0.014729 -0.006875 -0.011422
# 3 0.000515 0.004354 0.018214 0.026314 -0.004474 -0.001872
# 4 0.009818 0.014729 0.026314 0.096642 -0.020351 -0.014106
# 5 -0.005554 -0.006875 -0.004474 -0.020351 0.054256 0.022552
# 6 -0.005961 -0.011422 -0.001872 -0.014106 0.022552 0.051520
#
#
# Mechanical properties :
#
#
# Convention : Reuss Voigt Hill
#
# Bulk Modulus (GPa) = 17.74484 37.89048 27.81766
# Shear Modulus (GPa) = 18.73289 29.34418 24.03853
#
# Velocity S-wave (km/s) = 3.27816 4.10288 3.71349
# Velocity P-wave (km/s) = 4.95056 6.64689 5.86043
#
# Compressibility (1/GPa) = 0.05635441
#
# Stress axis : x y z
#
# Youngs Moduli (GPa) = 66.71021 56.09665 54.90214
#
# Poissons Ratio (x) = 0.12381 -0.02825
# Poissons Ratio (y) = 0.14723 -0.23906
# Poissons Ratio (z) = -0.03432 -0.24426
#
# Static dielectric constant tensor:
#      x y z
#    x 1.651240 0.033100 0.010240 
#    y 0.033100 1.632860 0.017080 
#    z 0.010240 0.017080 1.607780 
# 
# From -- ./inp_files/101434.got.cif
#   From: 2010.05.17/outbox.cif.g08.bks.cpg/sg2_51_cif.got.tgz:101434.got - 2010.06.03 11:33:40.
