data_PCOD9082057
_publ_section_title
;
Structure prediction by ZEFSAII (Michael W. Deem and Ramdas Pophale) SiO2 
 PCOD9082057
Probable space group: P -1
;
_chemical_formula_sum "Si O2"
_cell_formula_units_Z 16
_cell_length_a 10.325077
_cell_length_b 14.712265
_cell_length_c 25.205153
_cell_angle_alpha 160.991091
_cell_angle_beta 136.871192
_cell_angle_gamma 42.049510
_cell_volume 828.487975
_symmetry_space_group_name_H-M "P -1"
_symmetry_group_IT_number 2
_symmetry_cell_setting 'triclinic'
loop_
_space_group_symop_operation_xyz
x,y,z
-x,-y,-z
loop_
_atom_site_type_symbol
_atom_site_label
_atom_site_fract_x
_atom_site_fract_y
_atom_site_fract_z
Si Si1 0.933344 0.276860 0.894867
Si Si2 0.926379 0.675290 0.520271
Si Si3 0.647409 0.317933 0.196831
Si Si4 0.634847 0.928267 0.072203
Si Si5 0.398012 0.331023 0.301538
Si Si6 0.057378 0.149421 0.045746
Si Si7 0.283274 0.682869 0.045602
Si Si8 0.688004 0.679488 0.606184
O O1 0.791154 0.416137 0.975850
O O2 0.138286 0.131091 0.902634
O O3 0.873923 0.013900 0.702311
O O4 0.000000 0.500000 0.000000
O O5 0.746719 0.568174 0.382390
O O6 0.000000 0.500000 0.500000
O O7 0.117351 0.569151 0.482298
O O8 0.567909 0.190747 0.155780
O O9 0.458620 0.340543 0.115579
O O10 0.813728 0.089863 0.087569
O O11 0.558065 0.055410 0.175872
O O12 0.204086 0.341752 0.215310
O O13 0.505903 0.590604 0.474804
O O14 0.351635 0.291886 0.327308
O O15 0.868291 0.311698 0.045392
O O16 0.000000 0.000000 0.000000
O O17 0.281901 0.018514 0.238313
O O18 0.500000 0.500000 0.000000
#
# Coordination Sequence:
#
# PCOD9082057 Si02
#       8
#     2   2   2   2   2   2   2   2
#     4  12  26  41  62  93 132 172 209 262 331 386
#     4  12  18  38  64  90 119 158 218 261 309 370
#     4  10  19  32  64  92 117 152 210 266 303 364
#     4  10  19  36  57  94 123 155 203 260 318 363
#     4  10  21  31  64  95 124 152 213 274 311 366
#     4  11  19  38  61  94 123 162 217 266 316 375
#     4  12  26  42  61  91 135 174 209 261 332 392
#     4  11  20  37  60  98 122 160 216 266 313 377
#
# _framework density 19.312290999999998
#
# number of rings (size 3 to 8) (size 9 to 14) (size 15 to 20)
#    0.000    1.000    7.500    0.000    1.750    0.000 
#    0.000    1.250    0.000    0.000    0.000    0.000 
#    0.000    0.000    0.000    0.000    0.000    0.000 
#
# Total GULP energy -89172.331293 kJ/mol
# GULP energy per Si atom -5573.270706 kJ/mol
# Density = 1.926834 g / cm^3
# Si number density = 19.312291 Si / 1000 Ang^3
#
#
#
# Elastic Constant Matrix: (Units=GPa)
#
#
# Indices 1 2 3 4 5 6 
#
# 1 132.2869 19.4414 34.9744 -10.1815 -15.2658 -0.6831
# 2 19.4414 35.9645 43.5259 -17.0528 2.9991 -10.5789
# 3 34.9744 43.5259 127.3902 -41.8840 17.8483 -2.8366
# 4 -10.1815 -17.0528 -41.8840 29.7594 -10.4803 10.0390
# 5 -15.2658 2.9991 17.8483 -10.4803 39.3580 -1.9052
# 6 -0.6831 -10.5789 -2.8366 10.0390 -1.9052 35.1550
#
#
#
# Elastic Compliance Matrix: (Units=1/GPa)
#
#
# Indices 1 2 3 4 5 6 
#
# 1 0.009103 -0.002788 -0.002046 0.000568 0.004787 -0.000730
# 2 -0.002788 0.056122 -0.017813 0.002565 0.004123 0.014888
# 3 -0.002046 -0.017813 0.022176 0.022323 -0.004043 -0.010204
# 4 0.000568 0.002565 0.022323 0.076268 0.009306 -0.018691
# 5 0.004787 0.004123 -0.004043 0.009306 0.031264 0.000045
# 6 -0.000730 0.014888 -0.010204 -0.018691 0.000045 0.037428
#
#
# Mechanical properties :
#
#
# Convention : Reuss Voigt Hill
#
# Bulk Modulus (GPa) = 23.74953 54.61388 39.18170
# Shear Modulus (GPa) = 17.14150 34.03446 25.58798
#
# Velocity S-wave (km/s) = 2.98249 4.20256 3.64395
# Velocity P-wave (km/s) = 4.91779 7.20343 6.16741
#
# Compressibility (1/GPa) = 0.04210610
#
# Stress axis : x y z
#
# Youngs Moduli (GPa) = 109.85900 17.81843 45.09281
#
# Poissons Ratio (x) = 0.04968 0.09228
# Poissons Ratio (y) = 0.30633 0.80322
# Poissons Ratio (z) = 0.22482 0.31739
#
# Static dielectric constant tensor:
#      x y z
#    x 1.918380 0.832200 -0.006260 
#    y 0.832200 4.934900 -0.084420 
#    z -0.006260 -0.084420 1.702070 
# 
# From -- ./inp_files/452178.got.cif
#   From: 2010.05.17/outbox.cif.g08.bks.cpg/sg2_227_cif.got.tgz:452178.got - 2010.06.03 11:33:40.
