data_PCOD9082969
_publ_section_title
;
Structure prediction by ZEFSAII (Michael W. Deem and Ramdas Pophale) SiO2 
 PCOD9082969
Probable space group: P -1
;
_chemical_formula_sum "Si O2"
_cell_formula_units_Z 16
_cell_length_a 10.781645
_cell_length_b 27.166247
_cell_length_c 9.322865
_cell_angle_alpha 150.346138
_cell_angle_beta 136.836149
_cell_angle_gamma 32.488401
_cell_volume 725.597607
_symmetry_space_group_name_H-M "P -1"
_symmetry_group_IT_number 2
_symmetry_cell_setting 'triclinic'
loop_
_space_group_symop_operation_xyz
x,y,z
-x,-y,-z
loop_
_atom_site_type_symbol
_atom_site_label
_atom_site_fract_x
_atom_site_fract_y
_atom_site_fract_z
Si Si1 0.925990 0.735044 0.329044
Si Si2 0.329231 0.095398 0.721574
Si Si3 0.207317 0.849022 0.282190
Si Si4 0.692929 0.116374 0.132001
Si Si5 0.509280 0.916442 0.665559
Si Si6 0.847123 0.476565 0.212388
Si Si7 0.149915 0.835980 0.873942
Si Si8 0.317290 0.680068 0.197308
O O1 0.862391 0.804010 0.294497
O O2 0.735127 0.818367 0.505339
O O3 0.146187 0.724164 0.535899
O O4 0.999954 0.601971 0.999346
O O5 0.500000 0.000000 0.500000
O O6 0.320468 0.017492 0.642477
O O7 0.450291 0.147387 0.034619
O O8 0.431792 0.840060 0.477556
O O9 0.218632 0.747556 0.131378
O O10 0.207495 0.817939 0.040232
O O11 0.000000 0.000000 0.500000
O O12 0.688668 0.147379 0.039900
O O13 0.760581 0.195288 0.463450
O O14 0.894157 0.969112 0.964657
O O15 0.500000 0.000000 0.000000
O O16 0.594283 0.594259 0.238627
O O17 0.000000 0.500000 0.500000
O O18 0.770653 0.400674 0.041832
#
# Coordination Sequence:
#
# PCOD9082969 Si02
#       8
#     2   2   2   2   2   2   2   2
#     4  11  22  43  66 100 134 183 243 288 345 419
#     4  10  19  33  59  97 136 176 222 274 342 421
#     4  12  25  41  64 104 148 183 213 290 378 433
#     4  11  19  36  63  97 138 179 221 287 349 425
#     4  11  23  39  62 101 147 176 218 282 362 440
#     4  11  26  50  79  99 134 194 262 303 335 408
#     4  11  21  34  63 100 140 174 216 279 363 433
#     4  11  25  48  72 105 139 185 249 294 354 427
#
# _framework density 22.050789999999999
#
# number of rings (size 3 to 8) (size 9 to 14) (size 15 to 20)
#    0.000    1.000    5.000    3.750    3.500    0.000 
#    2.250    1.250    0.000    0.000    0.000    0.000 
#    0.000    0.000    0.000    0.000    0.000    0.000 
#
# Total GULP energy -89083.692436 kJ/mol
# GULP energy per Si atom -5567.730777 kJ/mol
# Density = 2.200060 g / cm^3
# Si number density = 22.050790 Si / 1000 Ang^3
#
#
#
# Elastic Constant Matrix: (Units=GPa)
#
#
# Indices 1 2 3 4 5 6 
#
# 1 79.3593 27.5005 29.2065 1.7378 6.0433 6.4900
# 2 27.5005 58.2867 4.4196 0.7034 -3.4986 10.2214
# 3 29.2065 4.4196 109.6339 -18.4207 5.3030 -5.7796
# 4 1.7378 0.7034 -18.4207 32.4313 1.4573 -5.7003
# 5 6.0433 -3.4986 5.3030 1.4573 38.8471 -5.0869
# 6 6.4900 10.2214 -5.7796 -5.7003 -5.0869 41.3460
#
#
#
# Elastic Compliance Matrix: (Units=1/GPa)
#
#
# Indices 1 2 3 4 5 6 
#
# 1 0.017605 -0.007616 -0.005036 -0.003945 -0.002915 -0.002487
# 2 -0.007616 0.021507 0.000775 -0.000392 0.002539 -0.003755
# 3 -0.005036 0.000775 0.011913 0.007617 -0.000635 0.003236
# 4 -0.003945 -0.000392 0.007617 0.036603 -0.000956 0.006710
# 5 -0.002915 0.002539 -0.000635 -0.000956 0.026929 0.002922
# 6 -0.002487 -0.003755 0.003236 0.006710 0.002922 0.027242
#
#
# Mechanical properties :
#
#
# Convention : Reuss Voigt Hill
#
# Bulk Modulus (GPa) = 36.66828 41.05924 38.86376
# Shear Modulus (GPa) = 28.63012 34.93510 31.78261
#
# Velocity S-wave (km/s) = 3.60720 3.98465 3.80061
# Velocity P-wave (km/s) = 5.83218 6.31115 6.07639
#
# Compressibility (1/GPa) = 0.02727153
#
# Stress axis : x y z
#
# Youngs Moduli (GPa) = 56.80175 46.49750 83.94451
#
# Poissons Ratio (x) = 0.35411 0.42274
# Poissons Ratio (y) = 0.43258 -0.06508
# Poissons Ratio (z) = 0.28605 -0.03605
#
# Static dielectric constant tensor:
#      x y z
#    x 1.956500 -0.058180 -0.039510 
#    y -0.058180 1.875740 0.019510 
#    z -0.039510 0.019510 1.883720 
# 
# From -- ./inp_files/285889.got.cif
#   From: 2010.05.17/outbox.cif.g08.bks.cpg/sg2_143_cif.got.tgz:285889.got - 2010.06.03 11:33:40.
