data_PCOD9082692
_publ_section_title
;
Structure prediction by ZEFSAII (Michael W. Deem and Ramdas Pophale) SiO2 
 PCOD9082692
Probable space group: P -1
;
_chemical_formula_sum "Si O2"
_cell_formula_units_Z 15
_cell_length_a 27.237716
_cell_length_b 17.591498
_cell_length_c 14.998897
_cell_angle_alpha 26.326688
_cell_angle_beta 15.224964
_cell_angle_gamma 18.873303
_cell_volume 598.521803
_symmetry_space_group_name_H-M "P -1"
_symmetry_group_IT_number 2
_symmetry_cell_setting 'triclinic'
loop_
_space_group_symop_operation_xyz
x,y,z
-x,-y,-z
loop_
_atom_site_type_symbol
_atom_site_label
_atom_site_fract_x
_atom_site_fract_y
_atom_site_fract_z
Si Si1 0.251173 0.038276 0.880189
Si Si2 0.628244 0.269837 0.171617
Si Si3 0.942502 0.578139 0.313688
Si Si4 0.524339 0.358347 0.739767
Si Si5 0.000000 0.500000 0.500000
Si Si6 0.696287 0.133617 0.382992
Si Si7 0.359421 0.784208 0.123800
Si Si8 0.186473 0.085206 0.423263
O O1 0.045697 0.280784 0.928724
O O2 0.500000 0.000000 0.500000
O O3 0.342369 0.837493 0.861100
O O4 0.184646 0.998404 0.134033
O O5 0.603898 0.160648 0.415203
O O6 0.408962 0.555125 0.251677
O O7 0.896898 0.193350 0.806879
O O8 0.001246 0.590075 0.300127
O O9 0.646223 0.692705 0.707903
O O10 0.149082 0.295485 0.226209
O O11 0.476230 0.592596 0.570456
O O12 0.635854 0.175135 0.656701
O O13 0.698215 0.189125 0.698216
O O14 0.238820 0.467839 0.145446
O O15 0.715164 0.957951 0.600859
O O16 0.000000 0.000000 0.000000
#
# Coordination Sequence:
#
# PCOD9082692 Si02
#       8
#     2   2   2   2   1   2   2   2
#     4  10  19  33  57  82 107 144 194 230 271 327
#     4   9  18  32  59  82 108 145 190 232 274 321
#     4   9  20  32  52  80 112 143 185 225 277 327
#     4  10  20  35  57  81 114 147 182 232 280 331
#     4  10  20  34  56  78 114 146 184 224 282 328
#     4   9  18  33  56  83 109 141 189 226 266 333
#     4   8  17  36  53  80 104 143 195 230 261 326
#     4  10  20  35  53  83 119 147 182 226 279 333
#
# _framework density 25.061743
#
# number of rings (size 3 to 8) (size 9 to 14) (size 15 to 20)
#    0.000    2.667    0.000    3.200    5.600    0.533 
#    0.000    1.333    0.000    0.000    0.000    0.000 
#    0.000    0.000    0.000    0.000    0.000    0.000 
#
# Total GULP energy -83578.466873 kJ/mol
# GULP energy per Si atom -5571.897792 kJ/mol
# Density = 2.500470 g / cm^3
# Si number density = 25.061743 Si / 1000 Ang^3
#
#
#
# Elastic Constant Matrix: (Units=GPa)
#
#
# Indices 1 2 3 4 5 6 
#
# 1 142.1742 48.7942 14.3575 -17.3740 11.5873 -48.5564
# 2 48.7942 118.5380 21.3222 -7.9054 24.8749 -41.8797
# 3 14.3575 21.3222 42.4143 5.9997 -3.3637 -18.0977
# 4 -17.3740 -7.9054 5.9997 34.8009 -14.4797 13.5830
# 5 11.5873 24.8749 -3.3637 -14.4797 38.6565 -10.6207
# 6 -48.5564 -41.8797 -18.0977 13.5830 -10.6207 46.2790
#
#
#
# Elastic Compliance Matrix: (Units=1/GPa)
#
#
# Indices 1 2 3 4 5 6 
#
# 1 0.011120 -0.000990 0.001447 0.001075 0.000919 0.011232
# 2 -0.000990 0.014318 -0.002482 -0.004114 -0.007828 0.010358
# 3 0.001447 -0.002482 0.033008 -0.009851 0.004788 0.016171
# 4 0.001075 -0.004114 -0.009851 0.041437 0.012676 -0.015700
# 5 0.000919 -0.007828 0.004788 0.012676 0.035868 0.000264
# 6 0.011232 0.010358 0.016171 -0.015700 0.000264 0.053759
#
#
# Mechanical properties :
#
#
# Convention : Reuss Voigt Hill
#
# Bulk Modulus (GPa) = 18.38375 52.45268 35.41822
# Shear Modulus (GPa) = 23.61926 38.52410 31.07168
#
# Velocity S-wave (km/s) = 3.07325 3.92493 3.52491
# Velocity P-wave (km/s) = 4.46593 6.44320 5.54344
#
# Compressibility (1/GPa) = 0.05439587
#
# Stress axis : x y z
#
# Youngs Moduli (GPa) = 89.92794 69.84169 30.29596
#
# Poissons Ratio (x) = 0.06917 -0.04384
# Poissons Ratio (y) = 0.08907 0.07518
# Poissons Ratio (z) = -0.13013 0.17332
#
# Static dielectric constant tensor:
#      x y z
#    x 1.982830 0.023790 0.081940 
#    y 0.023790 2.037670 0.013880 
#    z 0.081940 0.013880 2.025780 
# 
# From -- ./inp_files/164763.got.cif
#   From: 2010.05.17/outbox.cif.g08.bks.cpg/sg2_83_cif.got.tgz:164763.got - 2010.06.03 11:33:40.
