data_PCOD9082546
_publ_section_title
;
Structure prediction by ZEFSAII (Michael W. Deem and Ramdas Pophale) SiO2 
 PCOD9082546
Probable space group: P -1
;
_chemical_formula_sum "Si O2"
_cell_formula_units_Z 14
_cell_length_a 11.473621
_cell_length_b 12.047612
_cell_length_c 13.270177
_cell_angle_alpha 131.342285
_cell_angle_beta 44.148221
_cell_angle_gamma 95.986479
_cell_volume 678.430258
_symmetry_space_group_name_H-M "P -1"
_symmetry_group_IT_number 2
_symmetry_cell_setting 'triclinic'
loop_
_space_group_symop_operation_xyz
x,y,z
-x,-y,-z
loop_
_atom_site_type_symbol
_atom_site_label
_atom_site_fract_x
_atom_site_fract_y
_atom_site_fract_z
Si Si1 0.011301 0.853644 0.773046
Si Si2 0.873487 0.855254 0.442824
Si Si3 0.430420 0.216676 0.171800
Si Si4 0.312365 0.228298 0.040791
Si Si5 0.768619 0.314491 0.257304
Si Si6 0.047017 0.025821 0.328199
Si Si7 0.036015 0.503677 0.756205
O O1 0.087354 0.817056 0.588059
O O2 0.207955 0.701413 0.644567
O O3 0.818823 0.844792 0.901190
O O4 0.885669 0.088082 0.015284
O O5 0.964649 0.865781 0.499553
O O6 0.959447 0.633020 0.250366
O O7 0.589277 0.034928 0.732071
O O8 0.958708 0.918055 0.344788
O O9 0.265411 0.342879 0.444989
O O10 0.297269 0.327295 0.214752
O O11 0.500000 0.000000 0.000000
O O12 0.675921 0.149951 0.978865
O O13 0.183415 0.373919 0.110626
O O14 0.500000 0.500000 0.500000
O O15 0.929194 0.351101 0.140242
#
# Coordination Sequence:
#
# PCOD9082546 Si02
#       7
#     2   2   2   2   2   2   2
#     4  10  19  36  55  80 107 136 186 228 263 314
#     4  10  20  36  53  80 118 144 174 214 268 330
#     4  11  17  32  57  80 108 137 176 224 270 316
#     4  10  19  33  56  80 106 143 179 221 269 320
#     4  10  21  33  56  81 103 137 183 234 271 302
#     4  10  19  34  58  79 111 151 171 215 277 316
#     4  11  20  34  56  79 106 142 181 224 269 322
#
# _framework density 20.635873
#
# number of rings (size 3 to 8) (size 9 to 14) (size 15 to 20)
#    0.000    1.714    4.286    2.143    0.000    1.143 
#    0.000   11.429    0.000   12.000    0.000    0.000 
#    0.000    0.000    0.000    0.000    0.000    0.000 
#
# Total GULP energy -78207.627394 kJ/mol
# GULP energy per Si atom -5586.259100 kJ/mol
# Density = 2.058890 g / cm^3
# Si number density = 20.635873 Si / 1000 Ang^3
#
#
#
# Elastic Constant Matrix: (Units=GPa)
#
#
# Indices 1 2 3 4 5 6 
#
# 1 81.2672 36.0698 13.9514 -4.3555 -25.7071 -9.0598
# 2 36.0698 150.2763 32.4200 -3.6094 -22.6276 5.3736
# 3 13.9514 32.4200 28.5117 3.8205 -11.0352 -4.2035
# 4 -4.3555 -3.6094 3.8205 23.8789 2.7408 -1.1565
# 5 -25.7071 -22.6276 -11.0352 2.7408 23.6879 11.5200
# 6 -9.0598 5.3736 -4.2035 -1.1565 11.5200 26.0564
#
#
#
# Elastic Compliance Matrix: (Units=1/GPa)
#
#
# Indices 1 2 3 4 5 6 
#
# 1 0.019205 -0.001385 -0.000436 0.000952 0.020170 -0.001983
# 2 -0.001385 0.010506 -0.009715 0.001678 0.007423 -0.007423
# 3 -0.000436 -0.009715 0.054337 -0.011838 0.015314 0.003321
# 4 0.000952 0.001678 -0.011838 0.045628 -0.010455 0.004723
# 5 0.020170 0.007423 0.015314 -0.010455 0.096686 -0.035258
# 6 -0.001983 -0.007423 0.003321 0.004723 -0.035258 0.055553
#
#
# Mechanical properties :
#
#
# Convention : Reuss Voigt Hill
#
# Bulk Modulus (GPa) = 16.39991 47.21530 31.80760
# Shear Modulus (GPa) = 15.36984 26.56556 20.96770
#
# Velocity S-wave (km/s) = 2.73208 3.59186 3.19106
# Velocity P-wave (km/s) = 4.23284 6.33497 5.38743
#
# Compressibility (1/GPa) = 0.06097596
#
# Stress axis : x y z
#
# Youngs Moduli (GPa) = 52.07001 95.18333 18.40383
#
# Poissons Ratio (x) = 0.13180 0.00803
# Poissons Ratio (y) = 0.07210 0.17879
# Poissons Ratio (z) = 0.02271 0.92469
#
# Static dielectric constant tensor:
#      x y z
#    x 1.810360 -0.012490 0.022740 
#    y -0.012490 1.758250 0.032340 
#    z 0.022740 0.032340 1.720980 
# 
# From -- ./inp_files/250987.got.cif
#   From: 2010.05.17/outbox.cif.g08.bks.cpg/sg2_126_cif.got.tgz:250987.got - 2010.06.03 11:33:40.
