data_PCOD9082456
_publ_section_title
;
Structure prediction by ZEFSAII (Michael W. Deem and Ramdas Pophale) SiO2 
 PCOD9082456
Probable space group: P -1
;
_chemical_formula_sum "Si O2"
_cell_formula_units_Z 14
_cell_length_a 10.628427
_cell_length_b 7.433688
_cell_length_c 8.649914
_cell_angle_alpha 103.618665
_cell_angle_beta 65.934230
_cell_angle_gamma 118.062483
_cell_volume 549.842505
_symmetry_space_group_name_H-M "P -1"
_symmetry_group_IT_number 2
_symmetry_cell_setting 'triclinic'
loop_
_space_group_symop_operation_xyz
x,y,z
-x,-y,-z
loop_
_atom_site_type_symbol
_atom_site_label
_atom_site_fract_x
_atom_site_fract_y
_atom_site_fract_z
Si Si1 0.729219 0.804115 0.604943
Si Si2 0.573378 0.145065 0.637557
Si Si3 0.463305 0.484345 0.835250
Si Si4 0.167544 0.544614 0.569167
Si Si5 0.709388 0.157321 0.160865
Si Si6 0.907205 0.214085 0.788600
Si Si7 0.808954 0.841771 0.222325
O O1 0.563213 0.692548 0.740603
O O2 0.807362 0.646784 0.549522
O O3 0.728971 0.830805 0.426663
O O4 0.824341 0.015570 0.683890
O O5 0.525415 0.330335 0.698828
O O6 0.754894 0.266503 0.550365
O O7 0.500000 0.000000 0.500000
O O8 0.467396 0.003122 0.796722
O O9 0.285561 0.362992 0.869095
O O10 0.500000 0.500000 0.000000
O O11 0.261417 0.654957 0.699456
O O12 0.997242 0.427656 0.695468
O O13 0.795124 0.027539 0.173710
O O14 0.787549 0.228753 0.972153
O O15 0.031827 0.161254 0.810956
#
# Coordination Sequence:
#
# PCOD9082456 Si02
#       7
#     2   2   2   2   2   2   2
#     4  10  20  36  56  80 111 146 181 221 271 326
#     4   8  16  31  51  75 104 139 175 213 264 319
#     4  10  19  33  56  83 107 140 185 227 265 316
#     4   9  18  33  54  78 107 146 181 217 270 326
#     4  10  19  33  55  81 107 142 183 225 268 317
#     4  11  21  36  56  83 112 142 179 227 273 318
#     4  10  20  34  54  82 111 143 178 224 273 324
#
# _framework density 25.461834
#
# number of rings (size 3 to 8) (size 9 to 14) (size 15 to 20)
#    0.000    2.286    0.000    4.714    0.000    1.143 
#    0.000    2.857    0.000   20.571    0.000   60.000 
#    0.000    0.000    0.000    0.000    0.000    0.000 
#
# Total GULP energy -78162.328895 kJ/mol
# GULP energy per Si atom -5583.023493 kJ/mol
# Density = 2.540388 g / cm^3
# Si number density = 25.461834 Si / 1000 Ang^3
#
#
#
# Elastic Constant Matrix: (Units=GPa)
#
#
# Indices 1 2 3 4 5 6 
#
# 1 57.9493 57.5174 36.4741 -2.0321 22.9458 -17.3390
# 2 57.5174 184.2110 61.6403 -5.6862 -8.2532 38.8056
# 3 36.4741 61.6403 110.3486 0.1887 -13.8103 34.9678
# 4 -2.0321 -5.6862 0.1887 40.1792 20.9687 0.2936
# 5 22.9458 -8.2532 -13.8103 20.9687 17.5867 17.0585
# 6 -17.3390 38.8056 34.9678 0.2936 17.0585 24.5597
#
#
#
# Elastic Compliance Matrix: (Units=1/GPa)
#
#
# Indices 1 2 3 4 5 6 
#
# 1 0.005709 -0.000227 0.003629 -0.007477 0.014941 -0.011065
# 2 -0.000227 0.006739 -0.004959 0.004686 -0.007146 0.001159
# 3 0.003629 -0.004959 0.008612 0.003375 -0.007584 0.003363
# 4 -0.007477 0.004686 0.003375 0.028401 -0.006024 -0.013644
# 5 0.014941 -0.007146 -0.007584 -0.006024 0.010767 0.025231
# 6 -0.011065 0.001159 0.003363 -0.013644 0.025231 0.008926
#
#
# Mechanical properties :
#
#
# Convention : Reuss Voigt Hill
#
# Bulk Modulus (GPa) = 55.72311 73.75249 64.73780
# Shear Modulus (GPa) = 63.89625 29.59026 46.74326
#
# Velocity S-wave (km/s) = 5.01492 3.41272 4.28929
# Velocity P-wave (km/s) = 7.44748 6.67515 7.07187
#
# Compressibility (1/GPa) = 0.01794588
#
# Stress axis : x y z
#
# Youngs Moduli (GPa) = 175.15180 148.38242 116.11430
#
# Poissons Ratio (x) = 0.03375 -0.42136
# Poissons Ratio (y) = 0.03984 0.57579
# Poissons Ratio (z) = -0.63559 0.73580
#
# Static dielectric constant tensor:
#      x y z
#    x 2.073880 0.010400 -0.056850 
#    y 0.010400 2.009750 -0.081100 
#    z -0.056850 -0.081100 1.998180 
# 
# From -- ./inp_files/209174.got.cif
#   From: 2010.05.17/outbox.cif.g08.bks.cpg/sg2_105_cif.got.tgz:209174.got - 2010.06.03 11:33:40.
