data_PCOD9082463
_publ_section_title
;
Structure prediction by ZEFSAII (Michael W. Deem and Ramdas Pophale) SiO2 
 PCOD9082463
Probable space group: P -1
;
_chemical_formula_sum "Si O2"
_cell_formula_units_Z 16
_cell_length_a 10.138211
_cell_length_b 14.346549
_cell_length_c 17.002059
_cell_angle_alpha 29.755328
_cell_angle_beta 47.840217
_cell_angle_gamma 43.102526
_cell_volume 833.526602
_symmetry_space_group_name_H-M "P -1"
_symmetry_group_IT_number 2
_symmetry_cell_setting 'triclinic'
loop_
_space_group_symop_operation_xyz
x,y,z
-x,-y,-z
loop_
_atom_site_type_symbol
_atom_site_label
_atom_site_fract_x
_atom_site_fract_y
_atom_site_fract_z
Si Si1 0.476074 0.790562 0.141634
Si Si2 0.952837 0.343282 0.876000
Si Si3 0.146453 0.604831 0.674372
Si Si4 0.321502 0.857898 0.313752
Si Si5 0.329643 0.031677 0.874964
Si Si6 0.587940 0.263638 0.077249
Si Si7 0.248741 0.675439 0.885797
Si Si8 0.998649 0.279987 0.183593
O O1 0.677983 0.597567 0.213198
O O2 0.330080 0.786623 0.271823
O O3 0.401286 0.836224 0.049175
O O4 0.500000 0.000000 0.000000
O O5 0.010808 0.534029 0.724820
O O6 0.740380 0.365615 0.917320
O O7 0.114037 0.175075 0.882579
O O8 0.944748 0.270699 0.022933
O O9 0.243961 0.727844 0.495539
O O10 0.027832 0.727294 0.707469
O O11 0.537519 0.840159 0.260406
O O12 0.187391 0.095000 0.211059
O O13 0.356319 0.941139 0.843749
O O14 0.374821 0.430790 0.021321
O O15 0.626970 0.232887 0.177910
O O16 0.182116 0.735106 0.780764
O O17 0.000000 0.500000 0.000000
#
# Coordination Sequence:
#
# PCOD9082463 Si02
#       8
#     2   2   2   2   2   2   2   2
#     4  10  19  35  56  81 109 147 185 225 270 324
#     4  10  19  33  55  82 109 145 181 230 269 324
#     4  12  22  36  55  84 122 147 175 230 291 339
#     4  11  24  35  54  86 121 146 175 229 296 334
#     4  11  20  34  58  84 111 143 194 226 268 333
#     4   9  19  34  55  87 104 142 190 243 265 310
#     4   9  19  34  55  84 106 137 188 238 273 307
#     4  12  20  36  59  84 110 146 193 232 272 331
#
# _framework density 19.195547999999999
#
# number of rings (size 3 to 8) (size 9 to 14) (size 15 to 20)
#    0.750    0.750    3.750    4.875    0.000    0.000 
#    0.000    0.000    0.000    5.250    0.000    0.000 
#    0.000    0.000    0.000    0.000    0.000    0.000 
#
# Total GULP energy -89112.646051 kJ/mol
# GULP energy per Si atom -5569.540378 kJ/mol
# Density = 1.915186 g / cm^3
# Si number density = 19.195548 Si / 1000 Ang^3
#
#
#
# Elastic Constant Matrix: (Units=GPa)
#
#
# Indices 1 2 3 4 5 6 
#
# 1 41.1288 0.4763 -6.2956 -0.6702 -2.7175 10.8769
# 2 0.4763 49.1949 -25.7243 -1.0568 -1.9433 2.3725
# 3 -6.2956 -25.7243 46.0418 10.0330 -4.3966 2.1267
# 4 -0.6702 -1.0568 10.0330 20.9762 -0.3341 -0.1137
# 5 -2.7175 -1.9433 -4.3966 -0.3341 11.3632 0.8279
# 6 10.8769 2.3725 2.1267 -0.1137 0.8279 31.6827
#
#
#
# Elastic Compliance Matrix: (Units=1/GPa)
#
#
# Indices 1 2 3 4 5 6 
#
# 1 0.029575 0.005784 0.009725 -0.003278 0.012572 -0.011580
# 2 0.005784 0.033099 0.023082 -0.008965 0.016182 -0.006468
# 3 0.009725 0.023082 0.042568 -0.018570 0.022823 -0.008588
# 4 -0.003278 -0.008965 -0.018570 0.055888 -0.008110 0.003456
# 5 0.012572 0.016182 0.022823 -0.008110 0.103082 -0.009783
# 6 -0.011580 -0.006468 -0.008588 0.003456 -0.009783 0.036867
#
#
# Mechanical properties :
#
#
# Convention : Reuss Voigt Hill
#
# Bulk Modulus (GPa) = 5.48177 8.14203 6.81190
# Shear Modulus (GPa) = 17.56190 23.99835 20.78013
#
# Velocity S-wave (km/s) = 3.02800 3.53966 3.29378
# Velocity P-wave (km/s) = 3.88420 4.57782 4.24520
#
# Compressibility (1/GPa) = 0.18242285
#
# Stress axis : x y z
#
# Youngs Moduli (GPa) = 33.81232 30.21200 23.49185
#
# Poissons Ratio (x) = -0.17473 -0.22846
# Poissons Ratio (y) = -0.19556 -0.54223
# Poissons Ratio (z) = -0.32882 -0.69734
#
# Static dielectric constant tensor:
#      x y z
#    x 1.717620 0.016860 0.003050 
#    y 0.016860 1.703710 0.015660 
#    z 0.003050 0.015660 1.670500 
# 
# From -- ./inp_files/467479.got.cif
#   From: 2010.05.17/outbox.cif.g08.bks.cpg/sg2_234_cif.got.tgz:467479.got - 2010.06.03 11:33:40.
