data_PCOD9082711
_publ_section_title
;
Structure prediction by ZEFSAII (Michael W. Deem and Ramdas Pophale) SiO2 
 PCOD9082711
Probable space group: P -1
;
_chemical_formula_sum "Si O2"
_cell_formula_units_Z 16
_cell_length_a 12.370836
_cell_length_b 11.053921
_cell_length_c 7.570288
_cell_angle_alpha 66.889405
_cell_angle_beta 61.527082
_cell_angle_gamma 41.250546
_cell_volume 598.968275
_symmetry_space_group_name_H-M "P -1"
_symmetry_group_IT_number 2
_symmetry_cell_setting 'triclinic'
loop_
_space_group_symop_operation_xyz
x,y,z
-x,-y,-z
loop_
_atom_site_type_symbol
_atom_site_label
_atom_site_fract_x
_atom_site_fract_y
_atom_site_fract_z
Si Si1 0.261228 0.789004 0.983943
Si Si2 0.734833 0.227162 0.435443
Si Si3 0.180720 0.107878 0.439494
Si Si4 0.561960 0.903277 0.194059
Si Si5 0.350336 0.434520 0.614996
Si Si6 0.857343 0.850530 0.142771
Si Si7 0.083410 0.451874 0.264231
Si Si8 0.646360 0.564501 0.804096
O O1 0.264336 0.782756 0.772060
O O2 0.454990 0.680401 0.954543
O O3 0.138090 0.001806 0.013681
O O4 0.242914 0.652220 0.135340
O O5 0.539094 0.341679 0.585359
O O6 0.771549 0.349867 0.383512
O O7 0.839826 0.023988 0.541032
O O8 0.119491 0.154463 0.661833
O O9 0.100465 0.287557 0.288712
O O10 0.384384 0.987483 0.371221
O O11 0.679703 0.684831 0.210561
O O12 0.669904 0.932391 0.195051
O O13 0.500000 0.000000 0.000000
O O14 0.358487 0.403720 0.417529
O O15 0.984609 0.635447 0.123206
O O16 0.267880 0.378049 0.199565
O O17 0.000000 0.500000 0.500000
#
# Coordination Sequence:
#
# PCOD9082711 Si02
#       8
#     2   2   2   2   2   2   2   2
#     4   9  19  33  56  84 108 139 187 235 275 316
#     4   8  16  30  50  77 108 139 173 222 273 321
#     4   9  18  35  57  80 108 144 186 229 272 326
#     4  11  22  34  56  84 110 142 185 234 279 326
#     4   9  17  31  50  77 110 138 172 220 276 326
#     4  10  20  36  56  79 109 146 186 229 275 329
#     4  10  20  34  57  81 110 149 190 227 270 329
#     4  10  19  33  57  84 109 142 183 232 277 325
#
# _framework density 26.712599000000001
#
# number of rings (size 3 to 8) (size 9 to 14) (size 15 to 20)
#    0.000    2.500    0.000    3.375    0.000    6.500 
#    0.000    0.625    0.000   15.000    0.000    0.000 
#    0.000    3.000    0.000    0.000    0.000    0.000 
#
# Total GULP energy -89515.274270 kJ/mol
# GULP energy per Si atom -5594.704642 kJ/mol
# Density = 2.665180 g / cm^3
# Si number density = 26.712599 Si / 1000 Ang^3
#
#
#
# Elastic Constant Matrix: (Units=GPa)
#
#
# Indices 1 2 3 4 5 6 
#
# 1 88.6885 35.6481 25.9585 -1.9882 -25.1052 9.4176
# 2 35.6481 163.4698 44.9775 -59.8183 -10.6238 31.1783
# 3 25.9585 44.9775 94.2414 -33.5865 3.3384 19.3448
# 4 -1.9882 -59.8183 -33.5865 55.0032 9.5597 -30.1794
# 5 -25.1052 -10.6238 3.3384 9.5597 26.4592 -8.8016
# 6 9.4176 31.1783 19.3448 -30.1794 -8.8016 44.2458
#
#
#
# Elastic Compliance Matrix: (Units=1/GPa)
#
#
# Indices 1 2 3 4 5 6 
#
# 1 0.026212 -0.007928 -0.011542 -0.022173 0.029776 -0.004147
# 2 -0.007928 0.012682 0.002220 0.017403 -0.008335 0.001993
# 3 -0.011542 0.002220 0.019494 0.017449 -0.018636 0.000564
# 4 -0.022173 0.017403 0.017449 0.065067 -0.032174 0.022808
# 5 0.029776 -0.008335 -0.018636 -0.032174 0.077028 0.001062
# 6 -0.004147 0.001993 0.000564 0.022808 0.001062 0.037601
#
#
# Mechanical properties :
#
#
# Convention : Reuss Voigt Hill
#
# Bulk Modulus (GPa) = 41.86353 62.17421 52.01887
# Shear Modulus (GPa) = 17.82226 41.12935 29.47580
#
# Velocity S-wave (km/s) = 2.58580 3.92816 3.32541
# Velocity P-wave (km/s) = 4.96195 6.62568 5.85323
#
# Compressibility (1/GPa) = 0.02388714
#
# Stress axis : x y z
#
# Youngs Moduli (GPa) = 38.15007 78.85156 51.29824
#
# Poissons Ratio (x) = 0.62515 0.59209
# Poissons Ratio (y) = 0.30246 -0.11386
# Poissons Ratio (z) = 0.44033 -0.17502
#
# Static dielectric constant tensor:
#      x y z
#    x 2.054920 -0.001390 -0.004050 
#    y -0.001390 2.221920 0.015130 
#    z -0.004050 0.015130 2.068470 
# 
# From -- ./inp_files/262017.got.cif
#   From: 2010.05.17/outbox.cif.g08.bks.cpg/sg2_132_cif.got.tgz:262017.got - 2010.06.03 11:33:40.
