data_PCOD9082776
_publ_section_title
;
Structure prediction by ZEFSAII (Michael W. Deem and Ramdas Pophale) SiO2 
 PCOD9082776
Probable space group: P -1
;
_chemical_formula_sum "Si O2"
_cell_formula_units_Z 16
_cell_length_a 23.492355
_cell_length_b 24.362692
_cell_length_c 8.887342
_cell_angle_alpha 30.855573
_cell_angle_beta 38.631878
_cell_angle_gamma 17.838170
_cell_volume 777.857704
_symmetry_space_group_name_H-M "P -1"
_symmetry_group_IT_number 2
_symmetry_cell_setting 'triclinic'
loop_
_space_group_symop_operation_xyz
x,y,z
-x,-y,-z
loop_
_atom_site_type_symbol
_atom_site_label
_atom_site_fract_x
_atom_site_fract_y
_atom_site_fract_z
Si Si1 0.912412 0.186903 0.646987
Si Si2 0.492327 0.410246 0.607496
Si Si3 0.567802 0.098027 0.181916
Si Si4 0.008469 0.660484 0.252649
Si Si5 0.177319 0.326202 0.923533
Si Si6 0.595794 0.852171 0.847726
Si Si7 0.076054 0.025740 0.359708
Si Si8 0.017757 0.640818 0.917171
O O1 0.691059 0.389783 0.590991
O O2 0.940605 0.282299 0.411959
O O3 0.025000 0.071178 0.530787
O O4 0.000000 0.000000 0.000000
O O5 0.500000 0.500000 0.500000
O O6 0.697897 0.196639 0.605784
O O7 0.478161 0.300600 0.950536
O O8 0.524215 0.120980 0.040909
O O9 0.794556 0.865555 0.274251
O O10 0.503486 0.058355 0.496121
O O11 0.139198 0.450747 0.577047
O O12 0.007774 0.644752 0.110232
O O13 0.038096 0.756112 0.986006
O O14 0.352688 0.183515 0.000877
O O15 0.000000 0.500000 0.000000
O O16 0.165163 0.224659 0.101835
O O17 0.798826 0.619216 0.894937
O O18 0.000000 0.000000 0.500000
#
# Coordination Sequence:
#
# PCOD9082776 Si02
#       8
#     2   2   2   2   2   2   2   2
#     4  11  24  41  64  94 125 167 207 263 317 364
#     4  11  22  40  66  91 125 166 214 253 313 378
#     4  10  20  36  57  88 118 161 193 250 307 370
#     4  10  20  35  61  84 118 158 198 252 305 366
#     4  10  19  33  57  90 113 157 198 245 298 366
#     4  10  20  35  60  86 122 152 202 243 304 366
#     4  10  22  40  63  93 121 161 217 255 305 378
#     4  10  20  37  61  84 122 156 204 242 311 374
#
# _framework density 20.569313999999999
#
# number of rings (size 3 to 8) (size 9 to 14) (size 15 to 20)
#    0.000    1.750    5.000    0.375    0.000    3.500 
#    0.000    0.625    0.000    0.000    0.000    0.000 
#    0.000    0.000    0.000    0.000    0.000    0.000 
#
# Total GULP energy -89170.098514 kJ/mol
# GULP energy per Si atom -5573.131157 kJ/mol
# Density = 2.052250 g / cm^3
# Si number density = 20.569314 Si / 1000 Ang^3
#
#
#
# Elastic Constant Matrix: (Units=GPa)
#
#
# Indices 1 2 3 4 5 6 
#
# 1 137.7865 -1.3439 72.5175 -9.2691 -18.8528 -12.0714
# 2 -1.3439 50.8036 14.2920 -6.4061 0.2702 0.9259
# 3 72.5175 14.2920 156.7708 -5.4209 -16.0624 -8.0393
# 4 -9.2691 -6.4061 -5.4209 22.1393 0.1190 3.9306
# 5 -18.8528 0.2702 -16.0624 0.1190 38.3467 -5.3678
# 6 -12.0714 0.9259 -8.0393 3.9306 -5.3678 25.3199
#
#
#
# Elastic Compliance Matrix: (Units=1/GPa)
#
#
# Indices 1 2 3 4 5 6 
#
# 1 0.010692 0.001829 -0.004393 0.003203 0.003950 0.003976
# 2 0.001829 0.021378 -0.002737 0.006632 -0.000692 -0.001955
# 3 -0.004393 -0.002737 0.008884 -0.000698 0.001766 0.001309
# 4 0.003203 0.006632 -0.000698 0.049424 0.000162 -0.006575
# 5 0.003950 -0.000692 0.001766 0.000162 0.029996 0.008803
# 6 0.003976 -0.001955 0.001309 -0.006575 0.008803 0.044764
#
#
# Mechanical properties :
#
#
# Convention : Reuss Voigt Hill
#
# Bulk Modulus (GPa) = 32.94667 57.36578 45.15622
# Shear Modulus (GPa) = 26.90228 34.48753 30.69491
#
# Velocity S-wave (km/s) = 3.62039 4.09913 3.86718
# Velocity P-wave (km/s) = 5.79038 7.09601 6.47618
#
# Compressibility (1/GPa) = 0.03035208
#
# Stress axis : x y z
#
# Youngs Moduli (GPa) = 93.52956 46.77807 112.55748
#
# Poissons Ratio (x) = -0.08556 0.49448
# Poissons Ratio (y) = -0.17107 0.30805
# Poissons Ratio (z) = 0.41089 0.12802
#
# Static dielectric constant tensor:
#      x y z
#    x 1.762260 -0.026740 -0.044070 
#    y -0.026740 1.785190 0.014930 
#    z -0.044070 0.014930 1.799360 
# 
# From -- ./inp_files/355553.got.cif
#   From: 2010.05.17/outbox.cif.g08.bks.cpg/sg2_178_cif.got.tgz:355553.got - 2010.06.03 11:33:40.
