data_PCOD9082633
_publ_section_title
;
Structure prediction by ZEFSAII (Michael W. Deem and Ramdas Pophale) SiO2 
 PCOD9082633
Probable space group: P -1
;
_chemical_formula_sum "Si O2"
_cell_formula_units_Z 16
_cell_length_a 9.022430
_cell_length_b 13.424227
_cell_length_c 7.702619
_cell_angle_alpha 130.986206
_cell_angle_beta 69.661221
_cell_angle_gamma 89.521471
_cell_volume 622.444486
_symmetry_space_group_name_H-M "P -1"
_symmetry_group_IT_number 2
_symmetry_cell_setting 'triclinic'
loop_
_space_group_symop_operation_xyz
x,y,z
-x,-y,-z
loop_
_atom_site_type_symbol
_atom_site_label
_atom_site_fract_x
_atom_site_fract_y
_atom_site_fract_z
Si Si1 0.090551 0.688699 0.315305
Si Si2 0.860256 0.588773 0.881018
Si Si3 0.254077 0.482115 0.499678
Si Si4 0.729953 0.807142 0.725131
Si Si5 0.698052 0.234099 0.136221
Si Si6 0.323848 0.843486 0.334910
Si Si7 0.464137 0.917161 0.693719
Si Si8 0.933966 0.847495 0.208333
O O1 0.932606 0.753631 0.582989
O O2 0.018909 0.766203 0.254917
O O3 0.138082 0.520854 0.092687
O O4 0.250788 0.733897 0.335114
O O5 0.744566 0.552915 0.743656
O O6 0.055569 0.543439 0.694102
O O7 0.821966 0.753066 0.094277
O O8 0.315040 0.334646 0.403713
O O9 0.330928 0.601534 0.645554
O O10 0.648662 0.881553 0.662640
O O11 0.644051 0.921832 0.036203
O O12 0.638304 0.205848 0.935590
O O13 0.901367 0.163575 0.983867
O O14 0.621922 0.167045 0.241828
O O15 0.452562 0.872740 0.450773
O O16 0.174983 0.992072 0.550212
#
# Coordination Sequence:
#
# PCOD9082633 Si02
#       8
#     2   2   2   2   2   2   2   2
#     4  10  19  35  57  85 118 146 186 239 285 334
#     4   9  17  30  54  85 112 147 187 230 287 338
#     4   9  18  34  55  80 114 149 188 234 280 336
#     4  10  22  39  57  83 116 153 190 233 286 333
#     4  10  21  38  57  84 116 148 189 238 284 333
#     4  11  22  37  61  88 113 150 193 232 283 339
#     4  11  23  40  60  82 117 155 190 233 281 339
#     4  10  19  33  56  87 117 145 187 240 285 332
#
# _framework density 25.705103999999999
#
# number of rings (size 3 to 8) (size 9 to 14) (size 15 to 20)
#    0.000    2.000    0.000    4.875    0.000    5.500 
#    0.000    7.500    0.000    0.000    0.000    0.000 
#    0.000    0.000    0.000    0.000    0.000    0.000 
#
# Total GULP energy -89518.777494 kJ/mol
# GULP energy per Si atom -5594.923593 kJ/mol
# Density = 2.564660 g / cm^3
# Si number density = 25.705104 Si / 1000 Ang^3
#
#
#
# Elastic Constant Matrix: (Units=GPa)
#
#
# Indices 1 2 3 4 5 6 
#
# 1 77.9238 27.5362 40.4726 -11.2342 11.4600 3.9245
# 2 27.5362 99.3197 25.0148 21.1188 13.4038 18.9104
# 3 40.4726 25.0148 104.5864 2.2072 37.4951 8.0996
# 4 -11.2342 21.1188 2.2072 29.3978 1.5773 10.4771
# 5 11.4600 13.4038 37.4951 1.5773 45.3291 -5.3595
# 6 3.9245 18.9104 8.0996 10.4771 -5.3595 46.9285
#
#
#
# Elastic Compliance Matrix: (Units=1/GPa)
#
#
# Indices 1 2 3 4 5 6 
#
# 1 0.020846 -0.007043 -0.007557 0.013578 0.002550 -0.000341
# 2 -0.007043 0.015617 0.000747 -0.012564 -0.003422 -0.003419
# 3 -0.007557 0.000747 0.017265 -0.002780 -0.012909 -0.003503
# 4 0.013578 -0.012564 -0.002780 0.050922 -0.000013 -0.006963
# 5 0.002550 -0.003422 -0.012909 -0.000013 0.033967 0.007276
# 6 -0.000341 -0.003419 -0.003503 -0.006963 0.007276 0.025705
#
#
# Mechanical properties :
#
#
# Convention : Reuss Voigt Hill
#
# Bulk Modulus (GPa) = 38.42713 51.98634 45.20674
# Shear Modulus (GPa) = 24.91248 36.91817 30.91533
#
# Velocity S-wave (km/s) = 3.11652 3.79386 3.47175
# Velocity P-wave (km/s) = 5.28507 6.28166 5.80479
#
# Compressibility (1/GPa) = 0.02602328
#
# Stress axis : x y z
#
# Youngs Moduli (GPa) = 47.97009 64.03106 57.92008
#
# Poissons Ratio (x) = 0.45094 0.43771
# Poissons Ratio (y) = 0.33783 -0.04326
# Poissons Ratio (z) = 0.36251 -0.04782
#
# Static dielectric constant tensor:
#      x y z
#    x 2.110340 0.005910 0.023600 
#    y 0.005910 2.017370 -0.027740 
#    z 0.023600 -0.027740 2.066140 
# 
# From -- ./inp_files/209277.got.cif
#   From: 2010.05.17/outbox.cif.g08.bks.cpg/sg2_105_cif.got.tgz:209277.got - 2010.06.03 11:33:40.
