data_PCOD9082047
_publ_section_title
;
Structure prediction by ZEFSAII (Michael W. Deem and Ramdas Pophale) SiO2 
 PCOD9082047
Probable space group: P -1
;
_chemical_formula_sum "Si O2"
_cell_formula_units_Z 16
_cell_length_a 19.932074
_cell_length_b 10.128117
_cell_length_c 9.537951
_cell_angle_alpha 67.721177
_cell_angle_beta 143.692309
_cell_angle_gamma 139.255496
_cell_volume 595.975768
_symmetry_space_group_name_H-M "P -1"
_symmetry_group_IT_number 2
_symmetry_cell_setting 'triclinic'
loop_
_space_group_symop_operation_xyz
x,y,z
-x,-y,-z
loop_
_atom_site_type_symbol
_atom_site_label
_atom_site_fract_x
_atom_site_fract_y
_atom_site_fract_z
Si Si1 0.246130 0.226317 0.086898
Si Si2 0.030712 0.463778 0.878043
Si Si3 0.854869 0.546145 0.220911
Si Si4 0.005055 0.174477 0.395325
Si Si5 0.617495 0.970036 0.700780
Si Si6 0.589199 0.941347 0.342507
Si Si7 0.312657 0.250397 0.488960
Si Si8 0.265387 0.481690 0.465224
O O1 0.188823 0.125774 0.187878
O O2 0.474373 0.473459 0.321149
O O3 0.182369 0.325113 0.927661
O O4 0.161235 0.014015 0.929496
O O5 0.065790 0.449875 0.783512
O O6 0.158613 0.736456 0.018623
O O7 0.124155 0.436677 0.148102
O O8 0.792345 0.242611 0.579632
O O9 0.002987 0.725431 0.528978
O O10 0.635361 0.248295 0.002872
O O11 0.207960 0.424703 0.553818
O O12 0.000000 0.000000 0.500000
O O13 0.500000 0.000000 0.500000
O O14 0.565306 0.863663 0.496743
O O15 0.493200 0.757857 0.697364
O O16 0.652991 0.879133 0.370586
O O17 0.238137 0.285537 0.460375
#
# Coordination Sequence:
#
# PCOD9082047 Si02
#       8
#     2   2   2   2   2   2   2   2
#     4   9  17  34  54  83 124 154 189 248 301 361
#     4  11  22  38  70  88 119 165 208 254 299 359
#     4  10  20  40  54  88 126 159 204 248 299 360
#     4  10  23  37  56  84 132 166 199 241 309 379
#     4  10  20  39  62  91 122 152 207 266 299 346
#     4  11  21  36  64  94 120 157 203 257 311 358
#     4  10  19  32  62  95 117 147 202 259 303 357
#     4  11  21  38  61  93 124 162 199 256 310 352
#
# _framework density 26.846727000000001
#
# number of rings (size 3 to 8) (size 9 to 14) (size 15 to 20)
#    0.000    1.750    3.750    2.625    3.500    1.000 
#    2.250    2.500    0.000    0.750    0.000    0.000 
#    0.000    0.000    0.000    0.000    0.000    0.000 
#
# Total GULP energy -89414.966733 kJ/mol
# GULP energy per Si atom -5588.435421 kJ/mol
# Density = 2.678562 g / cm^3
# Si number density = 26.846727 Si / 1000 Ang^3
#
#
#
# Elastic Constant Matrix: (Units=GPa)
#
#
# Indices 1 2 3 4 5 6 
#
# 1 120.7847 38.8627 12.1336 9.2959 -28.4806 -6.1902
# 2 38.8627 106.9669 19.6194 39.7209 1.6200 -5.7691
# 3 12.1336 19.6194 90.1482 31.0553 -19.2696 4.0173
# 4 9.2959 39.7209 31.0553 51.7298 1.2734 0.4947
# 5 -28.4806 1.6200 -19.2696 1.2734 43.4027 10.5615
# 6 -6.1902 -5.7691 4.0173 0.4947 10.5615 37.5777
#
#
#
# Elastic Compliance Matrix: (Units=1/GPa)
#
#
# Indices 1 2 3 4 5 6 
#
# 1 0.011670 -0.004965 0.001139 0.000832 0.008667 -0.001408
# 2 -0.004965 0.015405 0.000042 -0.010886 -0.004192 0.002864
# 3 0.001139 0.000042 0.016760 -0.010493 0.009499 -0.004129
# 4 0.000832 -0.010886 -0.010493 0.033954 -0.004823 0.000496
# 5 0.008667 -0.004192 0.009499 -0.004823 0.035727 -0.010209
# 6 -0.001408 0.002864 -0.004129 0.000496 -0.010209 0.030124
#
#
# Mechanical properties :
#
#
# Convention : Reuss Voigt Hill
#
# Bulk Modulus (GPa) = 27.57368 51.01458 39.29413
# Shear Modulus (GPa) = 30.61948 43.02764 36.82356
#
# Velocity S-wave (km/s) = 3.38084 4.00773 3.70756
# Velocity P-wave (km/s) = 5.05303 6.36076 5.74424
#
# Compressibility (1/GPa) = 0.03626647
#
# Stress axis : x y z
#
# Youngs Moduli (GPa) = 85.69303 64.91365 59.66746
#
# Poissons Ratio (x) = 0.32227 -0.06794
# Poissons Ratio (y) = 0.42543 -0.00251
# Poissons Ratio (z) = -0.09757 -0.00274
#
# Static dielectric constant tensor:
#      x y z
#    x 2.513790 -0.089050 0.490800 
#    y -0.089050 2.167390 -0.142350 
#    z 0.490800 -0.142350 2.680930 
# 
# From -- ./inp_files/346152.got.cif
#   From: 2010.05.17/outbox.cif.g08.bks.cpg/sg2_174_cif.got.tgz:346152.got - 2010.06.03 11:33:40.
