data_PCOD9082663
_publ_section_title
;
Structure prediction by ZEFSAII (Michael W. Deem and Ramdas Pophale) SiO2 
 PCOD9082663
Probable space group: P -1
;
_chemical_formula_sum "Si O2"
_cell_formula_units_Z 16
_cell_length_a 12.116494
_cell_length_b 16.606902
_cell_length_c 11.560066
_cell_angle_alpha 34.467946
_cell_angle_beta 51.124344
_cell_angle_gamma 38.080539
_cell_volume 810.420757
_symmetry_space_group_name_H-M "P -1"
_symmetry_group_IT_number 2
_symmetry_cell_setting 'triclinic'
loop_
_space_group_symop_operation_xyz
x,y,z
-x,-y,-z
loop_
_atom_site_type_symbol
_atom_site_label
_atom_site_fract_x
_atom_site_fract_y
_atom_site_fract_z
Si Si1 0.799252 0.913672 0.240817
Si Si2 0.301821 0.303410 0.330840
Si Si3 0.010224 0.394870 0.227453
Si Si4 0.340071 0.443577 0.582984
Si Si5 0.312774 0.798103 0.221189
Si Si6 0.179245 0.579060 0.292169
Si Si7 0.620342 0.305300 0.095381
Si Si8 0.930610 0.951669 0.359660
O O1 0.671218 0.863953 0.424545
O O2 0.878099 0.938448 0.276731
O O3 0.973552 0.734171 0.277948
O O4 0.708845 0.080438 0.015367
O O5 0.211733 0.466026 0.290432
O O6 0.482657 0.262791 0.210576
O O7 0.161335 0.359775 0.255702
O O8 0.821964 0.502778 0.290834
O O9 0.056142 0.202580 0.397184
O O10 0.000000 0.500000 0.000000
O O11 0.345414 0.613620 0.380360
O O12 0.524458 0.270055 0.718000
O O13 0.282499 0.441567 0.493307
O O14 0.120368 0.912402 0.275585
O O15 0.269667 0.677770 0.094149
O O16 0.769543 0.151685 0.265538
O O17 0.500000 0.500000 0.000000
#
# Coordination Sequence:
#
# PCOD9082663 Si02
#       8
#     2   2   2   2   2   2   2   2
#     4  11  19  34  63  90 110 156 203 252 290 342
#     4  10  23  37  59  89 118 159 195 245 301 352
#     4  10  22  38  57  89 124 160 194 246 306 356
#     4  10  21  35  58  91 119 156 201 242 296 361
#     4  10  19  33  56  91 117 150 195 251 299 333
#     4  11  19  39  64  82 121 156 206 240 291 361
#     4  10  22  36  59  88 118 157 202 245 298 354
#     4  10  19  36  59  87 118 153 210 247 286 362
#
# _framework density 19.742832
#
# number of rings (size 3 to 8) (size 9 to 14) (size 15 to 20)
#    0.000    1.750    5.000    1.500    0.000    7.000 
#    0.000    0.625    5.500    4.500    0.000    0.000 
#    0.000    0.000    0.000    0.000    0.000    0.000 
#
# Total GULP energy -89299.380022 kJ/mol
# GULP energy per Si atom -5581.211251 kJ/mol
# Density = 1.969790 g / cm^3
# Si number density = 19.742832 Si / 1000 Ang^3
#
#
#
# Elastic Constant Matrix: (Units=GPa)
#
#
# Indices 1 2 3 4 5 6 
#
# 1 55.7211 15.5272 51.3768 1.5629 0.8398 -29.2960
# 2 15.5272 43.7827 32.5676 -15.8980 -6.3769 -17.5792
# 3 51.3768 32.5676 184.9884 9.6354 7.4345 -23.3029
# 4 1.5629 -15.8980 9.6354 27.7448 -9.3997 4.1173
# 5 0.8398 -6.3769 7.4345 -9.3997 30.1465 1.6437
# 6 -29.2960 -17.5792 -23.3029 4.1173 1.6437 31.8425
#
#
#
# Elastic Compliance Matrix: (Units=1/GPa)
#
#
# Indices 1 2 3 4 5 6 
#
# 1 0.043876 0.003593 -0.007870 -0.003780 -0.001727 0.037169
# 2 0.003593 0.058842 -0.012341 0.044446 0.028182 0.019558
# 3 -0.007870 -0.012341 0.010174 -0.012366 -0.008507 -0.004570
# 4 -0.003780 0.044446 -0.012366 0.078584 0.037063 -0.000064
# 5 -0.001727 0.028182 -0.008507 0.037063 0.052823 0.000226
# 6 0.037169 0.019558 -0.004570 -0.000064 0.000226 0.073051
#
#
# Mechanical properties :
#
#
# Convention : Reuss Voigt Hill
#
# Bulk Modulus (GPa) = 12.55386 53.71508 33.13447
# Shear Modulus (GPa) = 13.25778 30.28147 21.76963
#
# Velocity S-wave (km/s) = 2.59419 3.92062 3.32423
# Velocity P-wave (km/s) = 3.91734 6.91097 5.61725
#
# Compressibility (1/GPa) = 0.07965681
#
# Stress axis : x y z
#
# Youngs Moduli (GPa) = 22.79171 16.99471 98.28547
#
# Poissons Ratio (x) = -0.06107 0.77348
# Poissons Ratio (y) = -0.08190 1.21297
# Poissons Ratio (z) = 0.17936 0.20974
#
# Static dielectric constant tensor:
#      x y z
#    x 1.695720 0.001980 -0.026630 
#    y 0.001980 1.728670 -0.019620 
#    z -0.026630 -0.019620 1.714160 
# 
# From -- ./inp_files/333035.got.cif
#   From: 2010.05.17/outbox.cif.g08.bks.cpg/sg2_167_cif.got.tgz:333035.got - 2010.06.03 11:33:40.
