data_PCOD9082359
_publ_section_title
;
Structure prediction by ZEFSAII (Michael W. Deem and Ramdas Pophale) SiO2 
 PCOD9082359
Probable space group: P -1
;
_chemical_formula_sum "Si O2"
_cell_formula_units_Z 16
_cell_length_a 14.375904
_cell_length_b 11.911816
_cell_length_c 6.842921
_cell_angle_alpha 112.008802
_cell_angle_beta 80.180608
_cell_angle_gamma 47.192234
_cell_volume 622.096825
_symmetry_space_group_name_H-M "P -1"
_symmetry_group_IT_number 2
_symmetry_cell_setting 'triclinic'
loop_
_space_group_symop_operation_xyz
x,y,z
-x,-y,-z
loop_
_atom_site_type_symbol
_atom_site_label
_atom_site_fract_x
_atom_site_fract_y
_atom_site_fract_z
Si Si1 0.186357 0.338774 0.352868
Si Si2 0.298270 0.433763 0.901715
Si Si3 0.645530 0.075018 0.051885
Si Si4 0.740277 0.483570 0.469538
Si Si5 0.191844 0.290995 0.771346
Si Si6 0.694382 0.279151 0.254902
Si Si7 0.806931 0.209762 0.721324
Si Si8 0.669943 0.103146 0.599446
O O1 0.188622 0.480021 0.410303
O O2 0.238789 0.267475 0.513645
O O3 0.000000 0.500000 0.500000
O O4 0.292026 0.126071 0.066865
O O5 0.214277 0.540815 0.790866
O O6 0.273281 0.317644 0.876549
O O7 0.486931 0.269485 0.707664
O O8 0.238438 0.602624 0.176031
O O9 0.676996 0.070330 0.808877
O O10 0.453237 0.290080 0.292674
O O11 0.728429 0.101101 0.152960
O O12 0.776586 0.302882 0.361409
O O13 0.232776 0.108178 0.670564
O O14 0.000000 0.500000 0.000000
O O15 0.500000 0.500000 0.500000
O O16 0.741885 0.255530 0.996576
O O17 0.723968 0.186312 0.616072
O O18 0.000000 0.000000 0.500000
#
# Coordination Sequence:
#
# PCOD9082359 Si02
#       8
#     2   2   2   2   2   2   2   2
#     4  10  21  34  50  74 102 134 173 212 260 317
#     4  10  20  34  54  80 106 139 182 222 265 324
#     4   9  18  34  54  74 100 134 172 216 260 308
#     4   9  18  34  54  74 100 134 172 216 260 308
#     4  10  21  36  52  74 108 142 173 224 279 317
#     4   8  16  33  55  75 102 139 174 212 264 320
#     4  10  19  33  54  81 112 143 177 224 273 318
#     4  10  20  34  54  80 106 139 182 222 265 324
#
# _framework density 25.719470999999999
#
# number of rings (size 3 to 8) (size 9 to 14) (size 15 to 20)
#    0.000    2.500    0.000    1.875    0.000    2.000 
#    0.000    0.625    0.000    0.000    0.000    0.000 
#    0.000    0.000    0.000    0.000    0.000    0.000 
#
# Total GULP energy -89427.880067 kJ/mol
# GULP energy per Si atom -5589.242504 kJ/mol
# Density = 2.566093 g / cm^3
# Si number density = 25.719471 Si / 1000 Ang^3
#
#
#
# Elastic Constant Matrix: (Units=GPa)
#
#
# Indices 1 2 3 4 5 6 
#
# 1 269.5515 54.3832 73.9469 16.2393 61.5880 25.5594
# 2 54.3832 60.6766 18.0767 -5.2937 14.6685 28.9700
# 3 73.9469 18.0767 121.0249 3.3413 29.4539 -4.0407
# 4 16.2393 -5.2937 3.3413 49.9228 -7.7179 3.7973
# 5 61.5880 14.6685 29.4539 -7.7179 51.1969 -3.6385
# 6 25.5594 28.9700 -4.0407 3.7973 -3.6385 48.6401
#
#
#
# Elastic Compliance Matrix: (Units=1/GPa)
#
#
# Indices 1 2 3 4 5 6 
#
# 1 0.006878 -0.003164 -0.002043 -0.003331 -0.006847 -0.002152
# 2 -0.003164 0.029238 -0.002219 0.004965 -0.003726 -0.016602
# 3 -0.002043 -0.002219 0.010702 -0.000988 -0.002989 0.003138
# 4 -0.003331 0.004965 -0.000988 0.022897 0.006420 -0.002596
# 5 -0.006847 -0.003726 -0.002989 0.006420 0.032054 0.007465
# 6 -0.002152 -0.016602 0.003138 -0.002596 0.007465 0.032600
#
#
# Mechanical properties :
#
#
# Convention : Reuss Voigt Hill
#
# Bulk Modulus (GPa) = 31.28259 82.67405 56.97832
# Shear Modulus (GPa) = 31.27420 50.27505 40.77463
#
# Velocity S-wave (km/s) = 3.49086 4.42605 3.98598
# Velocity P-wave (km/s) = 5.33269 7.63768 6.58680
#
# Compressibility (1/GPa) = 0.03196666
#
# Stress axis : x y z
#
# Youngs Moduli (GPa) = 145.39541 34.20199 93.43902
#
# Poissons Ratio (x) = 0.10821 0.19093
# Poissons Ratio (y) = 0.45999 0.20730
# Poissons Ratio (z) = 0.29710 0.07588
#
# Static dielectric constant tensor:
#      x y z
#    x 2.011220 0.060830 0.083320 
#    y 0.060830 2.289160 0.014320 
#    z 0.083320 0.014320 1.926400 
# 
# From -- ./inp_files/222869.got.cif
#   From: 2010.05.17/outbox.cif.g08.bks.cpg/sg2_112_cif.got.tgz:222869.got - 2010.06.03 11:33:40.
