data_PCOD9082161
_publ_section_title
;
Structure prediction by ZEFSAII (Michael W. Deem and Ramdas Pophale) SiO2 
 PCOD9082161
Probable space group: P -1
;
_chemical_formula_sum "Si O2"
_cell_formula_units_Z 16
_cell_length_a 17.092390
_cell_length_b 5.436570
_cell_length_c 8.214160
_cell_angle_alpha 97.140458
_cell_angle_beta 99.321536
_cell_angle_gamma 110.487124
_cell_volume 691.915948
_symmetry_space_group_name_H-M "P -1"
_symmetry_group_IT_number 2
_symmetry_cell_setting 'triclinic'
loop_
_space_group_symop_operation_xyz
x,y,z
-x,-y,-z
loop_
_atom_site_type_symbol
_atom_site_label
_atom_site_fract_x
_atom_site_fract_y
_atom_site_fract_z
Si Si1 0.590855 0.930582 0.642612
Si Si2 0.556596 0.332223 0.858053
Si Si3 0.290257 0.097271 0.056113
Si Si4 0.835713 0.679431 0.043147
Si Si5 0.014173 0.002236 0.311329
Si Si6 0.928949 0.446692 0.829039
Si Si7 0.324287 0.705762 0.842478
Si Si8 0.421987 0.442420 0.672308
O O1 0.675340 0.023230 0.792037
O O2 0.508596 0.678203 0.658401
O O3 0.612676 0.815202 0.475518
O O4 0.559099 0.173045 0.679215
O O5 0.635608 0.610601 0.894377
O O6 0.463688 0.347110 0.832933
O O7 0.588241 0.208481 0.011457
O O8 0.199542 0.120617 0.044656
O O9 0.295631 0.954379 0.876123
O O10 0.922995 0.841243 0.179424
O O11 0.758955 0.524504 0.127389
O O12 0.850562 0.473167 0.905748
O O13 0.072038 0.825686 0.277057
O O14 0.000000 0.000000 0.500000
O O15 0.046566 0.301199 0.268510
O O16 0.000000 0.500000 0.000000
O O17 0.353530 0.577437 0.689722
#
# Coordination Sequence:
#
# PCOD9082161 Si02
#       8
#     2   2   2   2   2   2   2   2
#     4   9  19  34  53  76 112 155 209 256 313 384
#     4   9  18  34  53  76 106 155 207 257 305 378
#     4   9  20  36  54  82 115 155 206 256 308 384
#     4  10  22  39  62  88 121 167 205 257 316 396
#     4  11  24  44  70 106 135 166 220 275 328 388
#     4  10  22  42  73  99 129 178 221 258 319 407
#     4  10  21  34  54  83 117 154 205 262 315 378
#     4  10  19  33  52  79 111 156 201 262 319 370
#
# _framework density 23.124195
#
# number of rings (size 3 to 8) (size 9 to 14) (size 15 to 20)
#    0.000    2.250    0.000    2.625    5.250    6.500 
#    2.250    0.000    0.000    0.000    0.000    0.000 
#    0.000    0.000    0.000    0.000    0.000    0.000 
#
# Total GULP energy -89180.510322 kJ/mol
# GULP energy per Si atom -5573.781895 kJ/mol
# Density = 2.307156 g / cm^3
# Si number density = 23.124195 Si / 1000 Ang^3
#
#
#
# Elastic Constant Matrix: (Units=GPa)
#
#
# Indices 1 2 3 4 5 6 
#
# 1 129.8389 26.0809 30.1537 10.0575 -16.6955 -24.3250
# 2 26.0809 94.4822 22.3336 13.0337 -4.5580 -18.7393
# 3 30.1537 22.3336 87.4060 17.2586 -25.4440 -14.7486
# 4 10.0575 13.0337 17.2586 36.0882 -12.1337 -9.7505
# 5 -16.6955 -4.5580 -25.4440 -12.1337 31.0716 12.3909
# 6 -24.3250 -18.7393 -14.7486 -9.7505 12.3909 46.8606
#
#
#
# Elastic Compliance Matrix: (Units=1/GPa)
#
#
# Indices 1 2 3 4 5 6 
#
# 1 0.009243 -0.001466 -0.001702 0.000376 0.002244 0.003161
# 2 -0.001466 0.012602 -0.002546 -0.003165 -0.003783 0.003819
# 3 -0.001702 -0.002546 0.016441 -0.002776 0.011198 -0.000265
# 4 0.000376 -0.003165 -0.002776 0.034042 0.009735 0.002565
# 5 0.002244 -0.003783 0.011198 0.009735 0.048886 -0.007724
# 6 0.003161 0.003819 -0.000265 0.002565 -0.007724 0.027001
#
#
# Mechanical properties :
#
#
# Convention : Reuss Voigt Hill
#
# Bulk Modulus (GPa) = 37.23120 52.09593 44.66356
# Shear Modulus (GPa) = 29.65662 38.34799 34.00230
#
# Velocity S-wave (km/s) = 3.58508 4.07670 3.83877
# Velocity P-wave (km/s) = 5.76823 6.68857 6.24538
#
# Compressibility (1/GPa) = 0.02685919
#
# Stress axis : x y z
#
# Youngs Moduli (GPa) = 108.18772 79.35187 60.82177
#
# Poissons Ratio (x) = 0.11632 0.10350
# Poissons Ratio (y) = 0.15859 0.15486
# Poissons Ratio (z) = 0.18411 0.20204
#
# Static dielectric constant tensor:
#      x y z
#    x 1.877360 -0.075750 -0.027550 
#    y -0.075750 2.014260 -0.072520 
#    z -0.027550 -0.072520 1.964250 
# 
# From -- ./inp_files/323994.got.cif
#   From: 2010.05.17/outbox.cif.g08.bks.cpg/sg2_162_cif.got.tgz:323994.got - 2010.06.03 11:33:40.
