data_PCOD9082719
_publ_section_title
;
Structure prediction by ZEFSAII (Michael W. Deem and Ramdas Pophale) SiO2 
 PCOD9082719
Probable space group: P -1
;
_chemical_formula_sum "Si O2"
_cell_formula_units_Z 16
_cell_length_a 11.520662
_cell_length_b 9.541293
_cell_length_c 9.420345
_cell_angle_alpha 57.348378
_cell_angle_beta 48.278239
_cell_angle_gamma 57.744575
_cell_volume 625.113581
_symmetry_space_group_name_H-M "P -1"
_symmetry_group_IT_number 2
_symmetry_cell_setting 'triclinic'
loop_
_space_group_symop_operation_xyz
x,y,z
-x,-y,-z
loop_
_atom_site_type_symbol
_atom_site_label
_atom_site_fract_x
_atom_site_fract_y
_atom_site_fract_z
Si Si1 0.264114 0.226070 0.552863
Si Si2 0.366390 0.869974 0.793046
Si Si3 0.837256 0.425545 0.390829
Si Si4 0.191682 0.297442 0.120056
Si Si5 0.050699 0.132509 0.542186
Si Si6 0.502485 0.354022 0.960637
Si Si7 0.510778 0.830603 0.185991
Si Si8 0.733680 0.215786 0.367656
O O1 0.441574 0.165968 0.370842
O O2 0.123514 0.230636 0.551358
O O3 0.294650 0.247639 0.920921
O O4 0.268907 0.066640 0.740135
O O5 0.365958 0.806177 0.986318
O O6 0.306472 0.763328 0.776467
O O7 0.750119 0.380752 0.347841
O O8 0.016901 0.432161 0.190362
O O9 0.885178 0.259622 0.550734
O O10 0.753781 0.594585 0.453574
O O11 0.157451 0.129370 0.313713
O O12 0.315708 0.350059 0.099023
O O13 0.098347 0.935690 0.663683
O O14 0.500000 0.500000 0.000000
O O15 0.540712 0.319256 0.781600
O O16 0.409131 0.849132 0.402552
O O17 0.500000 0.000000 0.000000
#
# Coordination Sequence:
#
# PCOD9082719 Si02
#       8
#     2   2   2   2   2   2   2   2
#     4  10  19  33  57  84 121 158 194 248 301 351
#     4  10  22  38  57  88 127 151 196 253 308 350
#     4  10  20  34  57  92 117 158 209 244 288 361
#     4   8  19  34  60  81 121 151 204 236 298 341
#     4   9  17  34  56  87 121 154 198 245 290 347
#     4  10  21  40  64  86 118 156 200 250 302 350
#     4  10  19  36  58  92 118 155 203 238 304 350
#     4  11  21  34  61  98 118 155 200 259 296 343
#
# _framework density 25.595347
#
# number of rings (size 3 to 8) (size 9 to 14) (size 15 to 20)
#    1.500    0.750    2.500    0.750    5.250    0.500 
#    0.000    0.000    0.000    3.750    0.000    0.000 
#    0.000    0.000    0.000    0.000    0.000    0.000 
#
# Total GULP energy -89189.933338 kJ/mol
# GULP energy per Si atom -5574.370834 kJ/mol
# Density = 2.553709 g / cm^3
# Si number density = 25.595347 Si / 1000 Ang^3
#
#
#
# Elastic Constant Matrix: (Units=GPa)
#
#
# Indices 1 2 3 4 5 6 
#
# 1 104.2291 24.1855 23.7193 16.9052 14.6196 18.3868
# 2 24.1855 117.4476 10.8189 13.3718 11.2285 21.2781
# 3 23.7193 10.8189 50.9822 4.6004 14.7631 -5.6287
# 4 16.9052 13.3718 4.6004 23.0499 4.1781 9.3376
# 5 14.6196 11.2285 14.7631 4.1781 33.1467 16.6514
# 6 18.3868 21.2781 -5.6287 9.3376 16.6514 45.2500
#
#
#
# Elastic Compliance Matrix: (Units=1/GPa)
#
#
# Indices 1 2 3 4 5 6 
#
# 1 0.012812 -0.000619 -0.005807 -0.006110 0.000140 -0.004428
# 2 -0.000619 0.009920 -0.002064 -0.003282 0.000308 -0.004106
# 3 -0.005807 -0.002064 0.029188 -0.002912 -0.016158 0.013508
# 4 -0.006110 -0.003282 -0.002912 0.053234 0.002541 -0.008257
# 5 0.000140 0.000308 -0.016158 0.002541 0.046929 -0.020005
# 6 -0.004428 -0.004106 0.013508 -0.008257 -0.020005 0.036575
#
#
# Mechanical properties :
#
#
# Convention : Reuss Voigt Hill
#
# Bulk Modulus (GPa) = 28.62087 43.34514 35.98300
# Shear Modulus (GPa) = 23.01132 34.55166 28.78149
#
# Velocity S-wave (km/s) = 3.00166 3.67811 3.35697
# Velocity P-wave (km/s) = 4.81867 5.91689 5.39579
#
# Compressibility (1/GPa) = 0.03493954
#
# Stress axis : x y z
#
# Youngs Moduli (GPa) = 78.05215 100.80583 34.26123
#
# Poissons Ratio (x) = 0.06238 0.19897
# Poissons Ratio (y) = 0.04830 0.07070
# Poissons Ratio (z) = 0.45329 0.20803
#
# Static dielectric constant tensor:
#      x y z
#    x 2.023360 0.013450 -0.042970 
#    y 0.013450 2.062250 -0.096740 
#    z -0.042970 -0.096740 2.173190 
# 
# From -- ./inp_files/252004.got.cif
#   From: 2010.05.17/outbox.cif.g08.bks.cpg/sg2_127_cif.got.tgz:252004.got - 2010.06.03 11:33:40.
