data_PCOD9082680
_publ_section_title
;
Structure prediction by ZEFSAII (Michael W. Deem and Ramdas Pophale) SiO2 
 PCOD9082680
Probable space group: P -1
;
_chemical_formula_sum "Si O2"
_cell_formula_units_Z 14
_cell_length_a 7.874513
_cell_length_b 13.270434
_cell_length_c 10.060037
_cell_angle_alpha 119.913139
_cell_angle_beta 97.902201
_cell_angle_gamma 127.556346
_cell_volume 553.572248
_symmetry_space_group_name_H-M "P -1"
_symmetry_group_IT_number 2
_symmetry_cell_setting 'triclinic'
loop_
_space_group_symop_operation_xyz
x,y,z
-x,-y,-z
loop_
_atom_site_type_symbol
_atom_site_label
_atom_site_fract_x
_atom_site_fract_y
_atom_site_fract_z
Si Si1 0.246756 0.978128 0.110187
Si Si2 0.333652 0.341333 0.235732
Si Si3 0.511904 0.882995 0.044946
Si Si4 0.507803 0.629914 0.256117
Si Si5 0.419870 0.840608 0.464223
Si Si6 0.888694 0.723751 0.539903
Si Si7 0.831059 0.486228 0.080377
O O1 0.275059 0.855824 0.995833
O O2 0.415482 0.082096 0.330299
O O3 0.928347 0.850616 0.999748
O O4 0.401152 0.114648 0.089657
O O5 0.342331 0.476470 0.257622
O O6 0.666814 0.496537 0.363953
O O7 0.231589 0.282541 0.338536
O O8 0.392537 0.714298 0.004818
O O9 0.782440 0.091138 0.276390
O O10 0.505750 0.767317 0.353400
O O11 0.813734 0.750269 0.412077
O O12 0.339743 0.513118 0.025963
O O13 0.500000 0.000000 0.500000
O O14 0.081901 0.661650 0.318057
O O15 0.000000 0.500000 0.000000
#
# Coordination Sequence:
#
# PCOD9082680 Si02
#       7
#     2   2   2   2   2   2   2
#     4  10  19  33  57  80 112 141 175 226 266 308
#     4   8  15  34  56  82 100 138 184 205 265 325
#     4  10  20  35  54  82 107 139 184 223 267 320
#     4   9  17  33  57  78 104 143 178 216 261 321
#     4  11  21  33  54  82 108 141 185 222 260 320
#     4   8  17  32  60  80 105 136 181 218 265 323
#     4  10  20  34  54  76 102 141 186 221 261 320
#
# _framework density 25.290285999999998
#
# number of rings (size 3 to 8) (size 9 to 14) (size 15 to 20)
#    0.857    1.714    0.000    4.286    0.000    1.143 
#    0.000    2.857    3.143    1.714    0.000    0.000 
#    0.000    0.000    0.000    0.000    0.000    0.000 
#
# Total GULP energy -78029.342895 kJ/mol
# GULP energy per Si atom -5573.524492 kJ/mol
# Density = 2.523272 g / cm^3
# Si number density = 25.290286 Si / 1000 Ang^3
#
#
#
# Elastic Constant Matrix: (Units=GPa)
#
#
# Indices 1 2 3 4 5 6 
#
# 1 66.0571 8.2632 16.9255 10.3673 15.4319 3.9006
# 2 8.2632 107.3058 71.2212 -4.9822 12.3170 6.2892
# 3 16.9255 71.2212 206.7122 -7.6172 30.5676 9.0101
# 4 10.3673 -4.9822 -7.6172 44.0509 -2.3177 13.6410
# 5 15.4319 12.3170 30.5676 -2.3177 32.6986 4.5007
# 6 3.9006 6.2892 9.0101 13.6410 4.5007 30.4014
#
#
#
# Elastic Compliance Matrix: (Units=1/GPa)
#
#
# Indices 1 2 3 4 5 6 
#
# 1 0.018032 -0.000553 -0.000271 -0.005281 -0.008634 0.001529
# 2 -0.000553 0.012215 -0.003994 0.001382 -0.000253 -0.001855
# 3 -0.000271 -0.003994 0.007006 0.000852 -0.004734 -0.000897
# 4 -0.005281 0.001382 0.000852 0.028689 0.005064 -0.013483
# 5 -0.008634 -0.000253 -0.004734 0.005064 0.040318 -0.005678
# 6 0.001529 -0.001855 -0.000897 -0.013483 -0.005678 0.040237
#
#
# Mechanical properties :
#
#
# Convention : Reuss Voigt Hill
#
# Bulk Modulus (GPa) = 36.20715 63.65499 49.93107
# Shear Modulus (GPa) = 30.24089 40.34119 35.29104
#
# Velocity S-wave (km/s) = 3.46172 3.99824 3.73961
# Velocity P-wave (km/s) = 5.50687 6.82194 6.19938
#
# Compressibility (1/GPa) = 0.02761885
#
# Stress axis : x y z
#
# Youngs Moduli (GPa) = 55.45561 81.86954 142.72665
#
# Poissons Ratio (x) = 0.04526 0.03861
# Poissons Ratio (y) = 0.03066 0.57004
# Poissons Ratio (z) = 0.01500 0.32698
#
# Static dielectric constant tensor:
#      x y z
#    x 2.436180 0.082470 -0.000060 
#    y 0.082470 1.990370 0.043490 
#    z -0.000060 0.043490 2.161570 
# 
# From -- ./inp_files/430103.got.cif
#   From: 2010.05.17/outbox.cif.g08.bks.cpg/sg2_216_cif.got.tgz:430103.got - 2010.06.03 11:33:40.
