data_PCOD9082775
_publ_section_title
;
Structure prediction by ZEFSAII (Michael W. Deem and Ramdas Pophale) SiO2 
 PCOD9082775
Probable space group: P -1
;
_chemical_formula_sum "Si O2"
_cell_formula_units_Z 16
_cell_length_a 17.553988
_cell_length_b 13.558410
_cell_length_c 5.390210
_cell_angle_alpha 66.905703
_cell_angle_beta 87.804788
_cell_angle_gamma 135.242419
_cell_volume 724.700711
_symmetry_space_group_name_H-M "P -1"
_symmetry_group_IT_number 2
_symmetry_cell_setting 'triclinic'
loop_
_space_group_symop_operation_xyz
x,y,z
-x,-y,-z
loop_
_atom_site_type_symbol
_atom_site_label
_atom_site_fract_x
_atom_site_fract_y
_atom_site_fract_z
Si Si1 0.385957 0.345569 0.354017
Si Si2 0.604914 0.004145 0.296060
Si Si3 0.805697 0.343972 0.655523
Si Si4 0.027898 0.627781 0.681934
Si Si5 0.595029 0.801615 0.122250
Si Si6 0.773127 0.016241 0.514267
Si Si7 0.343233 0.535032 0.256415
Si Si8 0.324833 0.644996 0.673208
O O1 0.447670 0.345425 0.565688
O O2 0.317843 0.380124 0.401821
O O3 0.282348 0.143221 0.479198
O O4 0.500000 0.500000 0.000000
O O5 0.694450 0.038289 0.440097
O O6 0.598755 0.913294 0.161995
O O7 0.457825 0.850647 0.515686
O O8 0.682806 0.188312 0.989965
O O9 0.869955 0.305166 0.593356
O O10 0.768394 0.367240 0.392902
O O11 0.907457 0.515557 0.642339
O O12 0.086514 0.789585 0.673065
O O13 0.000000 0.500000 0.000000
O O14 0.492234 0.703056 0.022127
O O15 0.729753 0.930428 0.874487
O O16 0.329580 0.574184 0.492166
O O17 0.288189 0.536935 0.027007
#
# Coordination Sequence:
#
# PCOD9082775 Si02
#       8
#     2   2   2   2   2   2   2   2
#     4  11  21  33  59  93 130 169 206 258 322 376
#     4  10  19  37  55  94 127 160 201 260 317 389
#     4  11  24  40  62  91 119 170 213 263 324 377
#     4  11  24  42  67  87 123 161 219 275 313 373
#     4  10  19  33  57  89 132 157 203 252 318 377
#     4  11  20  35  61  92 122 160 207 265 316 371
#     4  11  22  39  56  93 131 171 204 251 312 387
#     4  11  25  39  63  92 134 171 210 254 321 394
#
# _framework density 22.07808
#
# number of rings (size 3 to 8) (size 9 to 14) (size 15 to 20)
#    0.000    1.250    5.000    2.250    3.500    0.000 
#    0.000    2.500    0.000    1.500    0.000    0.000 
#    0.000    0.000    0.000    0.000    0.000    0.000 
#
# Total GULP energy -89215.425334 kJ/mol
# GULP energy per Si atom -5575.964083 kJ/mol
# Density = 2.202783 g / cm^3
# Si number density = 22.078080 Si / 1000 Ang^3
#
#
#
# Elastic Constant Matrix: (Units=GPa)
#
#
# Indices 1 2 3 4 5 6 
#
# 1 72.9612 36.9750 17.8747 2.5917 13.1644 4.4293
# 2 36.9750 145.3914 28.2241 -10.2714 19.0166 2.4270
# 3 17.8747 28.2241 76.2117 6.7308 17.4459 5.7515
# 4 2.5917 -10.2714 6.7308 30.8155 0.6786 5.5870
# 5 13.1644 19.0166 17.4459 0.6786 33.1753 10.7752
# 6 4.4293 2.4270 5.7515 5.5870 10.7752 34.9444
#
#
#
# Elastic Compliance Matrix: (Units=1/GPa)
#
#
# Indices 1 2 3 4 5 6 
#
# 1 0.016655 -0.003612 -0.001533 -0.002165 -0.003643 -0.000138
# 2 -0.003612 0.008824 -0.002161 0.003696 -0.002709 0.000445
# 3 -0.001533 -0.002161 0.016139 -0.004041 -0.006686 0.000396
# 4 -0.002165 0.003696 -0.004041 0.035726 0.001965 -0.005635
# 5 -0.003643 -0.002709 -0.006686 0.001965 0.040174 -0.010952
# 6 -0.000138 0.000445 0.000396 -0.005635 -0.010952 0.032816
#
#
# Mechanical properties :
#
#
# Convention : Reuss Voigt Hill
#
# Bulk Modulus (GPa) = 37.02909 51.19023 44.10966
# Shear Modulus (GPa) = 28.74447 33.88640 31.31544
#
# Velocity S-wave (km/s) = 3.61216 3.92196 3.77024
# Velocity P-wave (km/s) = 5.84853 6.61403 6.24302
#
# Compressibility (1/GPa) = 0.02700579
#
# Stress axis : x y z
#
# Youngs Moduli (GPa) = 60.04366 113.32779 61.96353
#
# Poissons Ratio (x) = 0.40934 0.09499
# Poissons Ratio (y) = 0.21688 0.13388
# Poissons Ratio (z) = 0.09204 0.24486
#
# Static dielectric constant tensor:
#      x y z
#    x 1.867630 -0.029250 -0.039360 
#    y -0.029250 1.875450 0.042790 
#    z -0.039360 0.042790 1.879090 
# 
# From -- ./inp_files/66362.got.cif
#   From: 2010.05.17/outbox.cif.g08.bks.cpg/sg2_34_cif.got.tgz:66362.got - 2010.06.03 11:33:40.
