data_PCOD9082641
_publ_section_title
;
Structure prediction by ZEFSAII (Michael W. Deem and Ramdas Pophale) SiO2 
 PCOD9082641
Probable space group: P -1
;
_chemical_formula_sum "Si O2"
_cell_formula_units_Z 16
_cell_length_a 9.923713
_cell_length_b 4.971391
_cell_length_c 28.847371
_cell_angle_alpha 65.284527
_cell_angle_beta 34.251651
_cell_angle_gamma 76.439696
_cell_volume 710.231004
_symmetry_space_group_name_H-M "P -1"
_symmetry_group_IT_number 2
_symmetry_cell_setting 'triclinic'
loop_
_space_group_symop_operation_xyz
x,y,z
-x,-y,-z
loop_
_atom_site_type_symbol
_atom_site_label
_atom_site_fract_x
_atom_site_fract_y
_atom_site_fract_z
Si Si1 0.090944 0.655400 0.798555
Si Si2 0.147477 0.526816 0.686273
Si Si3 0.173787 0.045660 0.832540
Si Si4 0.098280 0.963889 0.583703
Si Si5 0.330442 0.857764 0.016241
Si Si6 0.386508 0.593915 0.477651
Si Si7 0.346106 0.913147 0.177506
Si Si8 0.418133 0.275379 0.223906
O O1 0.114703 0.662066 0.736237
O O2 0.151304 0.948047 0.792095
O O3 0.249469 0.410211 0.787634
O O4 0.815108 0.477603 0.903626
O O5 0.164857 0.789864 0.623415
O O6 0.394616 0.400272 0.620671
O O7 0.912879 0.264796 0.757434
O O8 0.351504 0.861270 0.818635
O O9 0.897292 0.973530 0.936383
O O10 0.274236 0.882620 0.499549
O O11 0.810203 0.832769 0.668527
O O12 0.162120 0.319024 0.548791
O O13 0.486877 0.893997 0.922856
O O14 0.500000 0.000000 0.000000
O O15 0.500000 0.500000 0.500000
O O16 0.467676 0.636318 0.179348
O O17 0.323535 0.123748 0.212237
#
# Coordination Sequence:
#
# PCOD9082641 Si02
#       8
#     2   2   2   2   2   2   2   2
#     4  10  23  39  61  84 115 158 189 235 291 340
#     4  10  20  37  59  92 118 147 192 236 296 349
#     4  10  24  41  59  83 115 163 191 239 283 334
#     4  10  21  35  58  86 116 150 182 240 293 339
#     4  10  23  42  59  88 120 151 192 239 292 335
#     4  10  19  33  56  87 120 144 181 238 295 344
#     4  11  23  36  62  88 116 154 194 240 283 342
#     4  11  23  40  60  84 117 155 200 234 282 345
#
# _framework density 22.527884
#
# number of rings (size 3 to 8) (size 9 to 14) (size 15 to 20)
#    0.750    1.000    1.250    4.500    1.750    9.500 
#    0.000    0.000    0.000    4.500    0.000    0.000 
#    0.000    0.000    0.000    0.000    0.000    0.000 
#
# Total GULP energy -89440.394789 kJ/mol
# GULP energy per Si atom -5590.024674 kJ/mol
# Density = 2.247661 g / cm^3
# Si number density = 22.527884 Si / 1000 Ang^3
#
#
#
# Elastic Constant Matrix: (Units=GPa)
#
#
# Indices 1 2 3 4 5 6 
#
# 1 41.9059 2.4555 21.6513 10.4906 -7.6078 -7.9992
# 2 2.4555 82.8407 7.1713 12.0801 0.7218 2.7045
# 3 21.6513 7.1713 105.0400 3.0740 -0.3939 -0.9322
# 4 10.4906 12.0801 3.0740 19.2012 -4.5352 -1.6599
# 5 -7.6078 0.7218 -0.3939 -4.5352 23.2167 14.3394
# 6 -7.9992 2.7045 -0.9322 -1.6599 14.3394 38.8760
#
#
#
# Elastic Compliance Matrix: (Units=1/GPa)
#
#
# Indices 1 2 3 4 5 6 
#
# 1 0.032833 0.001820 -0.006354 -0.016563 0.004915 0.003957
# 2 0.001820 0.013555 -0.001025 -0.009742 -0.001453 -0.000473
# 3 -0.006354 -0.001025 0.010831 0.002064 -0.001185 -0.000451
# 4 -0.016563 -0.009742 0.002064 0.069134 0.010681 -0.003669
# 5 0.004915 -0.001453 -0.001185 0.010681 0.059368 -0.020358
# 6 0.003957 -0.000473 -0.000451 -0.003669 -0.020358 0.033911
#
#
# Mechanical properties :
#
#
# Convention : Reuss Voigt Hill
#
# Bulk Modulus (GPa) = 21.69123 32.48252 27.08688
# Shear Modulus (GPa) = 20.31554 29.49268 24.90411
#
# Velocity S-wave (km/s) = 3.00625 3.62216 3.32848
# Velocity P-wave (km/s) = 4.65828 5.65186 5.17895
#
# Compressibility (1/GPa) = 0.04610157
#
# Stress axis : x y z
#
# Youngs Moduli (GPa) = 30.45708 73.77396 92.32762
#
# Poissons Ratio (x) = -0.13428 0.58662
# Poissons Ratio (y) = -0.05544 0.09465
# Poissons Ratio (z) = 0.19352 0.07563
#
# Static dielectric constant tensor:
#      x y z
#    x 1.843870 -0.044930 -0.010160 
#    y -0.044930 1.863290 0.001430 
#    z -0.010160 0.001430 1.837560 
# 
# From -- ./inp_files/616321.got.cif
#   From: 2010.05.17/outbox.cif.g08.bks.cpg/sg2_309_cif.got.tgz:616321.got - 2010.06.03 11:33:40.
