data_PCOD9082070
_publ_section_title
;
Structure prediction by ZEFSAII (Michael W. Deem and Ramdas Pophale) SiO2 
 PCOD9082070
Probable space group: P -1
;
_chemical_formula_sum "Si O2"
_cell_formula_units_Z 12
_cell_length_a 5.290886
_cell_length_b 18.740760
_cell_length_c 8.516824
_cell_angle_alpha 46.417825
_cell_angle_beta 56.226379
_cell_angle_gamma 57.862358
_cell_volume 492.747129
_symmetry_space_group_name_H-M "P -1"
_symmetry_group_IT_number 2
_symmetry_cell_setting 'triclinic'
loop_
_space_group_symop_operation_xyz
x,y,z
-x,-y,-z
loop_
_atom_site_type_symbol
_atom_site_label
_atom_site_fract_x
_atom_site_fract_y
_atom_site_fract_z
Si Si1 0.656078 0.382771 0.796114
Si Si2 0.697106 0.726172 0.132367
Si Si3 0.830464 0.107222 0.470021
Si Si4 0.781344 0.098582 0.849968
Si Si5 0.807474 0.775066 0.629307
Si Si6 0.721008 0.402021 0.389027
O O1 0.433552 0.310934 0.926680
O O2 0.788123 0.412714 0.536356
O O3 0.454301 0.487155 0.778789
O O4 0.939453 0.320648 0.894720
O O5 0.534496 0.843545 0.042371
O O6 0.532755 0.666748 0.411212
O O7 0.066006 0.176264 0.335705
O O8 0.448149 0.826665 0.637799
O O9 0.000000 0.000000 0.500000
O O10 0.297537 0.918086 0.277916
O O11 0.008654 0.176076 0.645565
O O12 0.000000 0.000000 0.000000
O O13 0.973465 0.657305 0.719231
#
# Coordination Sequence:
#
# PCOD9082070 Si02
#       6
#     2   2   2   2   2   2
#     4   9  15  23  38  57  86 118 138 172 219 272
#     4   9  16  26  36  59  87 118 141 174 214 266
#     4  10  19  33  48  64  91 123 154 191 225 260
#     4   9  20  31  47  67  95 126 151 183 224 267
#     4   9  19  30  46  67  93 121 149 189 224 270
#     4   8  16  22  41  58  87 114 141 171 227 266
#
# _framework density 24.353261
#
# number of rings (size 3 to 8) (size 9 to 14) (size 15 to 20)
#    2.000    1.000    0.000    2.000    0.000    0.667 
#    0.000    0.000    0.000    0.000    0.000    0.000 
#    0.000    8.000    0.000    0.000    0.000    0.000 
#
# Total GULP energy -66984.267480 kJ/mol
# GULP energy per Si atom -5582.022290 kJ/mol
# Density = 2.429783 g / cm^3
# Si number density = 24.353261 Si / 1000 Ang^3
#
#
#
# Elastic Constant Matrix: (Units=GPa)
#
#
# Indices 1 2 3 4 5 6 
#
# 1 206.3432 108.1174 37.0022 -24.9136 43.1984 -40.9172
# 2 108.1174 265.8036 47.5131 -14.0406 30.2390 -49.1852
# 3 37.0022 47.5131 57.6164 -0.9405 15.3267 -17.1120
# 4 -24.9136 -14.0406 -0.9405 35.4770 -1.9051 7.4213
# 5 43.1984 30.2390 15.3267 -1.9051 35.6326 -15.3918
# 6 -40.9172 -49.1852 -17.1120 7.4213 -15.3918 35.5158
#
#
#
# Elastic Compliance Matrix: (Units=1/GPa)
#
#
# Indices 1 2 3 4 5 6 
#
# 1 0.008485 -0.001663 -0.001310 0.004272 -0.006784 0.003009
# 2 -0.001663 0.005747 -0.002238 -0.000003 0.000303 0.005097
# 3 -0.001310 -0.002238 0.022601 -0.002473 -0.004220 0.004968
# 4 0.004272 -0.000003 -0.002473 0.031903 -0.004525 -0.004900
# 5 -0.006784 0.000303 -0.004220 -0.004525 0.041757 0.009613
# 6 0.003009 0.005097 0.004968 -0.004900 0.009613 0.046265
#
#
# Mechanical properties :
#
#
# Convention : Reuss Voigt Hill
#
# Bulk Modulus (GPa) = 37.86330 101.66985 69.76658
# Shear Modulus (GPa) = 28.41154 43.80043 36.10599
#
# Velocity S-wave (km/s) = 3.41932 4.24553 3.85462
# Velocity P-wave (km/s) = 5.58303 8.11611 6.96568
#
# Compressibility (1/GPa) = 0.02641080
#
# Stress axis : x y z
#
# Youngs Moduli (GPa) = 117.85060 173.99615 44.24569
#
# Poissons Ratio (x) = 0.28937 0.05796
# Poissons Ratio (y) = 0.19600 0.09904
# Poissons Ratio (z) = 0.15438 0.38946
#
# Static dielectric constant tensor:
#      x y z
#    x 1.897470 0.023700 -0.101860 
#    y 0.023700 1.900990 0.028020 
#    z -0.101860 0.028020 2.177210 
# 
# From -- ./inp_files/137317.got.cif
#   From: 2010.05.17/outbox.cif.g08.bks.cpg/sg2_69_cif.got.tgz:137317.got - 2010.06.03 11:33:40.
