data_PCOD9082443
_publ_section_title
;
Structure prediction by ZEFSAII (Michael W. Deem and Ramdas Pophale) SiO2 
 PCOD9082443
Probable space group: P -1
;
_chemical_formula_sum "Si O2"
_cell_formula_units_Z 16
_cell_length_a 11.185448
_cell_length_b 18.385542
_cell_length_c 7.686606
_cell_angle_alpha 74.887146
_cell_angle_beta 108.609853
_cell_angle_gamma 45.303050
_cell_volume 738.794889
_symmetry_space_group_name_H-M "P -1"
_symmetry_group_IT_number 2
_symmetry_cell_setting 'triclinic'
loop_
_space_group_symop_operation_xyz
x,y,z
-x,-y,-z
loop_
_atom_site_type_symbol
_atom_site_label
_atom_site_fract_x
_atom_site_fract_y
_atom_site_fract_z
Si Si1 0.913491 0.391626 0.463850
Si Si2 0.669746 0.825067 0.438790
Si Si3 0.086013 0.214736 0.153408
Si Si4 0.403031 0.611046 0.242529
Si Si5 0.026567 0.413108 0.844424
Si Si6 0.841100 0.148331 0.750839
Si Si7 0.806726 0.901782 0.097719
Si Si8 0.597936 0.712687 0.676602
O O1 0.626185 0.520875 0.276925
O O2 0.052156 0.342611 0.382833
O O3 0.978026 0.421636 0.616650
O O4 0.058908 0.239191 0.671256
O O5 0.724118 0.872533 0.546094
O O6 0.556637 0.814719 0.502882
O O7 0.484287 0.933114 0.123573
O O8 0.178113 0.120637 0.089645
O O9 0.050622 0.317618 0.000762
O O10 0.822484 0.312552 0.012101
O O11 0.500000 0.500000 0.500000
O O12 0.302573 0.731867 0.237823
O O13 0.797717 0.568848 0.737090
O O14 0.270402 0.335535 0.050782
O O15 0.644565 0.213100 0.487644
O O16 0.027760 0.111451 0.773636
O O17 0.000000 0.000000 0.000000
#
# Coordination Sequence:
#
# PCOD9082443 Si02
#       8
#     2   2   2   2   2   2   2   2
#     4  11  21  35  57  78 109 146 177 230 278 324
#     4  11  22  34  51  85 115 136 177 228 282 323
#     4   9  19  34  58  79 103 140 189 228 261 313
#     4  11  18  36  59  80 105 146 189 224 266 324
#     4   9  18  34  54  79 101 141 181 222 265 321
#     4  11  19  33  58  84 106 136 189 232 261 316
#     4  10  20  36  57  78 105 150 182 222 269 324
#     4  10  19  33  55  79 107 136 181 224 265 325
#
# _framework density 21.656891000000002
#
# number of rings (size 3 to 8) (size 9 to 14) (size 15 to 20)
#    0.000    1.750    6.250    0.750    0.000    1.000 
#    0.000    0.000    0.000    0.750    0.000    0.000 
#    0.000    0.000    0.000    0.000    0.000    0.000 
#
# Total GULP energy -89286.161920 kJ/mol
# GULP energy per Si atom -5580.385120 kJ/mol
# Density = 2.160760 g / cm^3
# Si number density = 21.656891 Si / 1000 Ang^3
#
#
#
# Elastic Constant Matrix: (Units=GPa)
#
#
# Indices 1 2 3 4 5 6 
#
# 1 83.5076 24.0482 41.0469 2.6488 42.3845 15.4995
# 2 24.0482 56.1420 6.4361 -7.6134 10.5651 13.6062
# 3 41.0469 6.4361 76.2613 -1.5234 44.3349 18.3439
# 4 2.6488 -7.6134 -1.5234 39.9420 13.3297 2.6303
# 5 42.3845 10.5651 44.3349 13.3297 52.7835 0.2912
# 6 15.4995 13.6062 18.3439 2.6303 0.2912 35.5316
#
#
#
# Elastic Compliance Matrix: (Units=1/GPa)
#
#
# Indices 1 2 3 4 5 6 
#
# 1 0.025735 -0.002477 0.004789 0.007552 -0.026027 -0.013096
# 2 -0.002477 0.026754 0.014401 0.013201 -0.018700 -0.017424
# 3 0.004789 0.014401 0.050206 0.025004 -0.055020 -0.034924
# 4 0.007552 0.013201 0.025004 0.043096 -0.040458 -0.024117
# 5 -0.026027 -0.018700 -0.055020 -0.040458 0.099747 0.049097
# 6 -0.013096 -0.017424 -0.034924 -0.024117 0.049097 0.059942
#
#
# Mechanical properties :
#
#
# Convention : Reuss Voigt Hill
#
# Bulk Modulus (GPa) = 7.34631 39.88592 23.61611
# Shear Modulus (GPa) = 15.75170 35.27673 25.51422
#
# Velocity S-wave (km/s) = 2.69983 4.04033 3.43609
# Velocity P-wave (km/s) = 3.62192 6.34215 5.16436
#
# Compressibility (1/GPa) = 0.13612275
#
# Stress axis : x y z
#
# Youngs Moduli (GPa) = 38.85686 37.37777 19.91812
#
# Poissons Ratio (x) = 0.09258 -0.09539
# Poissons Ratio (y) = 0.09624 -0.28685
# Poissons Ratio (z) = -0.18609 -0.53829
#
# Static dielectric constant tensor:
#      x y z
#    x 1.818990 -0.028600 0.003540 
#    y -0.028600 1.817380 -0.020350 
#    z 0.003540 -0.020350 1.848560 
# 
# From -- ./inp_files/252667.got.cif
#   From: 2010.05.17/outbox.cif.g08.bks.cpg/sg2_127_cif.got.tgz:252667.got - 2010.06.03 11:33:40.
