data_PCOD9082324
_publ_section_title
;
Structure prediction by ZEFSAII (Michael W. Deem and Ramdas Pophale) SiO2 
 PCOD9082324
Probable space group: P -1
;
_chemical_formula_sum "Si O2"
_cell_formula_units_Z 14
_cell_length_a 18.036299
_cell_length_b 7.437771
_cell_length_c 6.803238
_cell_angle_alpha 60.756458
_cell_angle_beta 106.300371
_cell_angle_gamma 139.650722
_cell_volume 508.756513
_symmetry_space_group_name_H-M "P -1"
_symmetry_group_IT_number 2
_symmetry_cell_setting 'triclinic'
loop_
_space_group_symop_operation_xyz
x,y,z
-x,-y,-z
loop_
_atom_site_type_symbol
_atom_site_label
_atom_site_fract_x
_atom_site_fract_y
_atom_site_fract_z
Si Si1 0.144209 0.134599 0.139888
Si Si2 0.258496 0.022795 0.691848
Si Si3 0.609813 0.514924 0.772099
Si Si4 0.524387 0.089422 0.242238
Si Si5 0.962313 0.162985 0.418342
Si Si6 0.220607 0.560867 0.680573
Si Si7 0.806455 0.366394 0.817818
O O1 0.132765 0.206533 0.877089
O O2 0.258029 0.220853 0.192681
O O3 0.175159 0.400068 0.151919
O O4 0.043902 0.829127 0.353287
O O5 0.373273 0.296488 0.502111
O O6 0.167298 0.028609 0.637199
O O7 0.192214 0.717338 0.681351
O O8 0.272909 0.952129 0.954085
O O9 0.568499 0.228395 0.777665
O O10 0.534342 0.332940 0.012702
O O11 0.500000 0.000000 0.500000
O O12 0.655070 0.259874 0.233424
O O13 0.068122 0.486698 0.216613
O O14 0.000000 0.000000 0.500000
O O15 0.235947 0.636882 0.422296
#
# Coordination Sequence:
#
# PCOD9082324 Si02
#       7
#     2   2   2   2   2   2   2
#     4   8  17  35  54  76 106 138 177 218 253 302
#     4  10  21  37  53  77 111 138 169 213 262 315
#     4   9  19  36  56  76 104 139 172 217 265 300
#     4  10  20  36  58  79 100 134 182 220 254 309
#     4   9  18  35  58  78 101 140 181 213 252 305
#     4  10  21  34  52  80 109 139 172 213 265 310
#     4  10  19  33  54  78 109 141 170 211 260 306
#
# _framework density 27.518077999999999
#
# number of rings (size 3 to 8) (size 9 to 14) (size 15 to 20)
#    0.000    2.571    0.000    1.286    0.000    4.000 
#    0.000    8.571    0.000    0.000    0.000    0.000 
#    0.000    0.000    0.000    0.000    0.000    0.000 
#
# Total GULP energy -78111.036443 kJ/mol
# GULP energy per Si atom -5579.359746 kJ/mol
# Density = 2.745545 g / cm^3
# Si number density = 27.518078 Si / 1000 Ang^3
#
#
#
# Elastic Constant Matrix: (Units=GPa)
#
#
# Indices 1 2 3 4 5 6 
#
# 1 87.7462 16.5372 28.0697 6.5360 -1.7320 11.0538
# 2 16.5372 57.3386 36.1316 -2.2339 1.8269 10.6017
# 3 28.0697 36.1316 279.1042 -33.8575 -14.6973 -1.3836
# 4 6.5360 -2.2339 -33.8575 56.6873 3.5272 0.3280
# 5 -1.7320 1.8269 -14.6973 3.5272 35.8039 6.5847
# 6 11.0538 10.6017 -1.3836 0.3280 6.5847 38.4943
#
#
#
# Elastic Compliance Matrix: (Units=1/GPa)
#
#
# Indices 1 2 3 4 5 6 
#
# 1 0.012854 -0.002471 -0.001218 -0.002355 0.001072 -0.003218
# 2 -0.002471 0.020694 -0.002562 -0.000321 -0.001302 -0.004857
# 3 -0.001218 -0.002562 0.004433 0.002591 0.001463 0.000942
# 4 -0.002355 -0.000321 0.002591 0.019511 -0.001119 0.000883
# 5 0.001072 -0.001302 0.001463 -0.001119 0.029672 -0.004962
# 6 -0.003218 -0.004857 0.000942 0.000883 -0.004962 0.029115
#
#
# Mechanical properties :
#
#
# Convention : Reuss Voigt Hill
#
# Bulk Modulus (GPa) = 39.24724 65.07400 52.16062
# Shear Modulus (GPa) = 36.42372 49.09380 42.75876
#
# Velocity S-wave (km/s) = 3.64212 4.22839 3.94616
# Velocity P-wave (km/s) = 5.65509 6.89479 6.30548
#
# Compressibility (1/GPa) = 0.02547950
#
# Stress axis : x y z
#
# Youngs Moduli (GPa) = 77.79875 48.32261 225.57798
#
# Poissons Ratio (x) = 0.11939 0.27477
# Poissons Ratio (y) = 0.19221 0.57795
# Poissons Ratio (z) = 0.09476 0.12381
#
# Static dielectric constant tensor:
#      x y z
#    x 2.154290 0.027090 0.008260 
#    y 0.027090 2.187730 -0.084670 
#    z 0.008260 -0.084670 2.312090 
# 
# From -- ./inp_files/52139.got.cif
#   From: 2010.05.17/outbox.cif.g08.bks.cpg/sg2_27_cif.got.tgz:52139.got - 2010.06.03 11:33:40.
