data_PCOD9082565
_publ_section_title
;
Structure prediction by ZEFSAII (Michael W. Deem and Ramdas Pophale) SiO2 
 PCOD9082565
Probable space group: P -1
;
_chemical_formula_sum "Si O2"
_cell_formula_units_Z 15
_cell_length_a 8.055699
_cell_length_b 21.833242
_cell_length_c 5.488473
_cell_angle_alpha 65.809765
_cell_angle_beta 117.873158
_cell_angle_gamma 141.670010
_cell_volume 527.595236
_symmetry_space_group_name_H-M "P -1"
_symmetry_group_IT_number 2
_symmetry_cell_setting 'triclinic'
loop_
_space_group_symop_operation_xyz
x,y,z
-x,-y,-z
loop_
_atom_site_type_symbol
_atom_site_label
_atom_site_fract_x
_atom_site_fract_y
_atom_site_fract_z
Si Si1 0.850510 0.123189 0.642730
Si Si2 0.461530 0.082496 0.105362
Si Si3 0.867736 0.905520 0.417157
Si Si4 0.661611 0.302198 0.400745
Si Si5 0.000000 0.500000 0.500000
Si Si6 0.006186 0.711230 0.051196
Si Si7 0.424002 0.336881 0.844798
Si Si8 0.280228 0.470501 0.097248
O O1 0.612980 0.112608 0.420101
O O2 0.909392 0.090807 0.504609
O O3 0.151128 0.236375 0.689725
O O4 0.718704 0.032155 0.879718
O O5 0.268237 0.096489 0.914639
O O6 0.728522 0.171167 0.980309
O O7 0.619922 0.808255 0.554211
O O8 0.000000 0.000000 0.500000
O O9 0.720847 0.378772 0.501580
O O10 0.915051 0.319974 0.624191
O O11 0.624579 0.328558 0.072503
O O12 0.876854 0.510812 0.173775
O O13 0.741289 0.683806 0.989538
O O14 0.931565 0.648302 0.861289
O O15 0.584381 0.450695 0.711033
O O16 0.500000 0.500000 0.000000
#
# Coordination Sequence:
#
# PCOD9082565 Si02
#       8
#     2   2   2   2   1   2   2   2
#     4  11  24  38  53  79 111 141 175 219 269 313
#     4  10  23  38  56  79 111 141 174 220 265 315
#     4  11  23  39  59  78 101 140 183 221 264 315
#     4   9  18  32  57  81 104 138 178 218 258 311
#     4   8  14  28  50  80 104 128 172 218 256 300
#     4   9  18  34  56  81 107 141 180 213 257 312
#     4  10  19  33  56  82 109 140 174 216 262 312
#     4   8  15  29  51  78 106 137 174 212 252 307
#
# _framework density 28.430883000000001
#
# number of rings (size 3 to 8) (size 9 to 14) (size 15 to 20)
#    0.000    2.400    0.000    2.000    0.000    6.400 
#    0.000    0.667    0.000   14.400    0.000    0.000 
#    0.000    0.000    0.000    0.000    0.000    0.000 
#
# Total GULP energy -83515.703040 kJ/mol
# GULP energy per Si atom -5567.713536 kJ/mol
# Density = 2.836617 g / cm^3
# Si number density = 28.430883 Si / 1000 Ang^3
#
#
#
# Elastic Constant Matrix: (Units=GPa)
#
#
# Indices 1 2 3 4 5 6 
#
# 1 64.5464 22.7348 23.4901 3.8259 7.8668 4.3781
# 2 22.7348 228.1359 41.9249 19.5129 -11.1393 -13.8281
# 3 23.4901 41.9249 93.9987 -1.3352 19.1789 -0.5326
# 4 3.8259 19.5129 -1.3352 54.5465 -3.2334 -1.4291
# 5 7.8668 -11.1393 19.1789 -3.2334 31.0175 10.6194
# 6 4.3781 -13.8281 -0.5326 -1.4291 10.6194 38.4238
#
#
#
# Elastic Compliance Matrix: (Units=1/GPa)
#
#
# Indices 1 2 3 4 5 6 
#
# 1 0.017650 -0.001271 -0.003405 -0.001052 -0.002278 -0.001925
# 2 -0.001271 0.005404 -0.002821 -0.001680 0.003481 0.001026
# 3 -0.003405 -0.002821 0.014820 0.001079 -0.010018 0.002387
# 4 -0.001052 -0.001680 0.001079 0.019092 0.000999 -0.000036
# 5 -0.002278 0.003481 -0.010018 0.000999 0.044052 -0.010764
# 6 -0.001925 0.001026 0.002387 -0.000036 -0.010764 0.029621
#
#
# Mechanical properties :
#
#
# Convention : Reuss Voigt Hill
#
# Bulk Modulus (GPa) = 43.70462 62.55340 53.12901
# Shear Modulus (GPa) = 32.62407 44.69964 38.66185
#
# Velocity S-wave (km/s) = 3.39113 3.96943 3.69162
# Velocity P-wave (km/s) = 5.54424 6.56187 6.07441
#
# Compressibility (1/GPa) = 0.02288088
#
# Stress axis : x y z
#
# Youngs Moduli (GPa) = 56.65663 185.03704 67.47435
#
# Poissons Ratio (x) = 0.23521 0.22974
# Poissons Ratio (y) = 0.07202 0.19035
# Poissons Ratio (z) = 0.19290 0.52200
#
# Static dielectric constant tensor:
#      x y z
#    x 2.268760 -0.096660 -0.018590 
#    y -0.096660 2.391290 -0.080650 
#    z -0.018590 -0.080650 2.306200 
# 
# From -- ./inp_files/52837.got.cif
#   From: 2010.05.17/outbox.cif.g08.bks.cpg/sg2_27_cif.got.tgz:52837.got - 2010.06.03 11:33:40.
