data_PCOD9082830
_publ_section_title
;
Structure prediction by ZEFSAII (Michael W. Deem and Ramdas Pophale) SiO2 
 PCOD9082830
Probable space group: P -1
;
_chemical_formula_sum "Si O2"
_cell_formula_units_Z 16
_cell_length_a 14.165294
_cell_length_b 8.401587
_cell_length_c 8.119037
_cell_angle_alpha 95.554711
_cell_angle_beta 56.225964
_cell_angle_gamma 116.020972
_cell_volume 707.638923
_symmetry_space_group_name_H-M "P -1"
_symmetry_group_IT_number 2
_symmetry_cell_setting 'triclinic'
loop_
_space_group_symop_operation_xyz
x,y,z
-x,-y,-z
loop_
_atom_site_type_symbol
_atom_site_label
_atom_site_fract_x
_atom_site_fract_y
_atom_site_fract_z
Si Si1 0.461562 0.120041 0.288478
Si Si2 0.017363 0.625307 0.649902
Si Si3 0.215076 0.926941 0.684369
Si Si4 0.321657 0.842641 0.107329
Si Si5 0.596854 0.464766 0.017154
Si Si6 0.155212 0.187748 0.237146
Si Si7 0.912207 0.860989 0.333305
Si Si8 0.918695 0.290422 0.885237
O O1 0.366846 0.037740 0.523398
O O2 0.380547 0.007342 0.194752
O O3 0.588556 0.096686 0.138655
O O4 0.512825 0.334347 0.233886
O O5 0.941103 0.729159 0.680687
O O6 0.948065 0.498442 0.860083
O O7 0.000000 0.500000 0.500000
O O8 0.157597 0.772826 0.582368
O O9 0.152190 0.061176 0.724713
O O10 0.158635 0.816811 0.892542
O O11 0.341593 0.666236 0.122931
O O12 0.180448 0.794198 0.181336
O O13 0.712356 0.665444 0.953447
O O14 0.500000 0.500000 0.000000
O O15 0.065305 0.998497 0.219443
O O16 0.160632 0.160136 0.425069
O O17 0.937235 0.691826 0.257081
#
# Coordination Sequence:
#
# PCOD9082830 Si02
#       8
#     2   2   2   2   2   2   2   2
#     4   9  20  39  57  85 114 146 204 240 279 344
#     4  11  20  37  59  87 112 146 195 242 284 337
#     4  11  24  37  58  87 122 157 189 232 299 357
#     4   9  21  36  59  84 111 149 199 238 290 330
#     4  10  19  33  58  84 115 138 194 251 284 324
#     4  10  20  35  58  89 109 147 198 244 288 334
#     4  10  23  35  58  86 120 154 193 236 294 344
#     4  12  22  39  58  85 124 155 188 239 296 355
#
# _framework density 22.610399999999998
#
# number of rings (size 3 to 8) (size 9 to 14) (size 15 to 20)
#    0.750    1.000    2.500    2.250    5.250    0.500 
#    0.000    0.000    0.000    0.750    0.000    0.000 
#    0.000    0.000    0.000    0.000    0.000    0.000 
#
# Total GULP energy -89079.657155 kJ/mol
# GULP energy per Si atom -5567.478572 kJ/mol
# Density = 2.255894 g / cm^3
# Si number density = 22.610400 Si / 1000 Ang^3
#
#
#
# Elastic Constant Matrix: (Units=GPa)
#
#
# Indices 1 2 3 4 5 6 
#
# 1 48.1732 16.3195 12.1455 -2.9842 -5.4620 -12.4441
# 2 16.3195 35.6102 12.5377 -11.7433 1.2625 -9.9681
# 3 12.1455 12.5377 105.5764 -30.3099 0.7329 -0.3968
# 4 -2.9842 -11.7433 -30.3099 40.6889 -0.1124 -7.2186
# 5 -5.4620 1.2625 0.7329 -0.1124 34.5008 -8.8948
# 6 -12.4441 -9.9681 -0.3968 -7.2186 -8.8948 31.4504
#
#
#
# Elastic Compliance Matrix: (Units=1/GPa)
#
#
# Indices 1 2 3 4 5 6 
#
# 1 0.027980 -0.009740 -0.002270 -0.000676 0.007381 0.009888
# 2 -0.009740 0.040139 0.000159 0.013101 0.000098 0.011905
# 3 -0.002270 0.000159 0.012411 0.009371 -0.000239 0.001392
# 4 -0.000676 0.013101 0.009371 0.037682 0.002804 0.013445
# 5 0.007381 0.000098 -0.000239 0.002804 0.033535 0.013076
# 6 0.009888 0.011905 0.001392 0.013445 0.013076 0.046283
#
#
# Mechanical properties :
#
#
# Convention : Reuss Voigt Hill
#
# Bulk Modulus (GPa) = 17.59710 30.15167 23.87439
# Shear Modulus (GPa) = 20.77494 31.21850 25.99672
#
# Velocity S-wave (km/s) = 3.03450 3.71983 3.39450
# Velocity P-wave (km/s) = 4.48076 5.64037 5.09367
#
# Compressibility (1/GPa) = 0.05682754
#
# Stress axis : x y z
#
# Youngs Moduli (GPa) = 35.74042 24.91363 80.57163
#
# Poissons Ratio (x) = 0.24266 0.18291
# Poissons Ratio (y) = 0.34811 -0.01281
# Poissons Ratio (z) = 0.08114 -0.00396
#
# Static dielectric constant tensor:
#      x y z
#    x 1.847300 0.008360 -0.001760 
#    y 0.008360 -1.299240 -0.795340 
#    z -0.001760 -0.795340 1.706310 
# 
# From -- ./inp_files/285175.got.cif
#   From: 2010.05.17/outbox.cif.g08.bks.cpg/sg2_143_cif.got.tgz:285175.got - 2010.06.03 11:33:40.
