data_PCOD9082219
_publ_section_title
;
Structure prediction by ZEFSAII (Michael W. Deem and Ramdas Pophale) SiO2 
 PCOD9082219
Probable space group: P -1
;
_chemical_formula_sum "Si O2"
_cell_formula_units_Z 16
_cell_length_a 18.920012
_cell_length_b 5.113900
_cell_length_c 16.867130
_cell_angle_alpha 84.894390
_cell_angle_beta 150.155315
_cell_angle_gamma 88.911407
_cell_volume 793.556317
_symmetry_space_group_name_H-M "P -1"
_symmetry_group_IT_number 2
_symmetry_cell_setting 'triclinic'
loop_
_space_group_symop_operation_xyz
x,y,z
-x,-y,-z
loop_
_atom_site_type_symbol
_atom_site_label
_atom_site_fract_x
_atom_site_fract_y
_atom_site_fract_z
Si Si1 0.337833 0.633212 0.313906
Si Si2 0.227779 0.104171 0.934286
Si Si3 0.229630 0.226782 0.628214
Si Si4 0.053878 0.694727 0.720893
Si Si5 0.788884 0.309130 0.282932
Si Si6 0.250500 0.195731 0.127217
Si Si7 0.456329 0.834483 0.036305
Si Si8 0.044246 0.718670 0.095174
O O1 0.500000 0.500000 0.500000
O O2 0.293566 0.448784 0.205441
O O3 0.313925 0.935086 0.248859
O O4 0.218539 0.646015 0.268607
O O5 0.129527 0.387821 0.810160
O O6 0.127950 0.878670 0.845575
O O7 0.301151 0.138206 0.088636
O O8 0.345280 0.013044 0.982845
O O9 0.180019 0.443662 0.643521
O O10 0.392761 0.266046 0.769904
O O11 0.118056 0.273770 0.446058
O O12 0.226785 0.933042 0.667736
O O13 0.092911 0.781050 0.667528
O O14 0.635998 0.373148 0.084320
O O15 0.073106 0.252840 0.949471
O O16 0.500000 0.000000 0.000000
O O17 0.000000 0.500000 0.000000
O O18 0.000000 0.000000 0.000000
#
# Coordination Sequence:
#
# PCOD9082219 Si02
#       8
#     2   2   2   2   2   2   2   2
#     4  10  19  35  60  90 112 136 175 220 262 314
#     4  11  23  38  54  75 110 150 183 219 272 328
#     4  11  20  33  53  76  99 127 177 241 280 311
#     4  11  21  35  52  75 101 137 180 223 270 323
#     4  10  19  33  53  76  98 131 175 230 284 330
#     4  10  20  37  56  80 113 149 178 212 264 326
#     4   9  20  36  54  76 104 144 188 228 273 327
#     4   8  16  31  54  78 105 138 172 203 247 311
#
# _framework density 20.162403000000001
#
# number of rings (size 3 to 8) (size 9 to 14) (size 15 to 20)
#    0.000    2.000    0.000    5.250    0.000    3.000 
#    0.000    2.500    0.000    0.000    0.000    0.000 
#    0.000    0.000    0.000    0.000    0.000    0.000 
#
# Total GULP energy -89226.544390 kJ/mol
# GULP energy per Si atom -5576.659024 kJ/mol
# Density = 2.011651 g / cm^3
# Si number density = 20.162403 Si / 1000 Ang^3
#
#
#
# Elastic Constant Matrix: (Units=GPa)
#
#
# Indices 1 2 3 4 5 6 
#
# 1 46.1865 -3.4040 14.8019 3.8210 6.4185 -12.6209
# 2 -3.4040 84.8202 -4.9978 5.6751 1.5523 -11.2030
# 3 14.8019 -4.9978 96.0425 -0.1240 32.5523 -7.0134
# 4 3.8210 5.6751 -0.1240 28.1605 -1.3282 0.2026
# 5 6.4185 1.5523 32.5523 -1.3282 25.6988 2.8818
# 6 -12.6209 -11.2030 -7.0134 0.2026 2.8818 18.4563
#
#
#
# Elastic Compliance Matrix: (Units=1/GPa)
#
#
# Indices 1 2 3 4 5 6 
#
# 1 0.031744 0.005940 0.002672 -0.006418 -0.015231 0.028777
# 2 0.005940 0.014952 0.004510 -0.004398 -0.010176 0.016489
# 3 0.002672 0.004510 0.022036 -0.002764 -0.030993 0.017808
# 4 -0.006418 -0.004398 -0.002764 0.037724 0.008423 -0.009838
# 5 -0.015231 -0.010176 -0.030993 0.008423 0.087753 -0.042164
# 6 0.028777 0.016489 0.017808 -0.009838 -0.042164 0.097329
#
#
# Mechanical properties :
#
#
# Convention : Reuss Voigt Hill
#
# Bulk Modulus (GPa) = 10.52874 26.64992 18.58933
# Shear Modulus (GPa) = 16.83773 29.17306 23.00539
#
# Velocity S-wave (km/s) = 2.89295 3.80795 3.38154
# Velocity P-wave (km/s) = 4.04873 5.70791 4.94836
#
# Compressibility (1/GPa) = 0.09497816
#
# Stress axis : x y z
#
# Youngs Moduli (GPa) = 31.50195 66.87991 45.37940
#
# Poissons Ratio (x) = -0.39730 -0.12127
# Poissons Ratio (y) = -0.18714 -0.20466
# Poissons Ratio (z) = -0.08418 -0.30163
#
# Static dielectric constant tensor:
#      x y z
#    x 1.763870 -0.004320 0.033930 
#    y -0.004320 1.696520 -0.002590 
#    z 0.033930 -0.002590 1.779180 
# 
# From -- ./inp_files/119853.got.cif
#   From: 2010.05.17/outbox.cif.g08.bks.cpg/sg2_60_cif.got.tgz:119853.got - 2010.06.03 11:33:40.
