data_PCOD9082171
_publ_section_title
;
Structure prediction by ZEFSAII (Michael W. Deem and Ramdas Pophale) SiO2 
 PCOD9082171
Probable space group: P -1
;
_chemical_formula_sum "Si O2"
_cell_formula_units_Z 16
_cell_length_a 8.762626
_cell_length_b 21.755674
_cell_length_c 27.809429
_cell_angle_alpha 18.592151
_cell_angle_beta 153.858396
_cell_angle_gamma 143.281228
_cell_volume 697.392466
_symmetry_space_group_name_H-M "P -1"
_symmetry_group_IT_number 2
_symmetry_cell_setting 'triclinic'
loop_
_space_group_symop_operation_xyz
x,y,z
-x,-y,-z
loop_
_atom_site_type_symbol
_atom_site_label
_atom_site_fract_x
_atom_site_fract_y
_atom_site_fract_z
Si Si1 0.898362 0.998275 0.028094
Si Si2 0.164001 0.630431 0.037999
Si Si3 0.282384 0.361653 0.737083
Si Si4 0.993078 0.196509 0.999745
Si Si5 0.309283 0.889562 0.581393
Si Si6 0.479492 0.751789 0.624918
Si Si7 0.120942 0.556171 0.822714
Si Si8 0.016092 0.171488 0.665608
O O1 0.058689 0.124540 0.016782
O O2 0.457254 0.092123 0.842765
O O3 0.996085 0.762840 0.247982
O O4 0.000000 0.000000 0.000000
O O5 0.455989 0.712706 0.085365
O O6 0.319753 0.493952 0.136665
O O7 0.155154 0.463563 0.199994
O O8 0.745502 0.781216 0.800532
O O9 0.560821 0.296771 0.819026
O O10 0.098351 0.604645 0.508719
O O11 0.150062 0.373306 0.928988
O O12 0.107572 0.991033 0.217774
O O13 0.301062 0.839781 0.559935
O O14 0.060654 0.778551 0.619141
O O15 0.233764 0.128139 0.392350
O O16 0.173092 0.803309 0.458726
O O17 0.500000 0.500000 0.000000
#
# Coordination Sequence:
#
# PCOD9082171 Si02
#       8
#     2   2   2   2   2   2   2   2
#     4  11  24  39  57  85 117 146 183 235 290 339
#     4   9  18  34  56  79 107 146 188 226 272 329
#     4   9  19  37  62  83 107 150 189 230 279 329
#     4  10  21  38  60  83 110 149 191 231 280 337
#     4  10  19  33  52  80 117 146 183 227 274 328
#     4  10  20  33  55  82 108 149 187 227 275 328
#     4   9  18  35  57  80 111 145 180 230 276 321
#     4  10  20  39  61  81 111 147 194 233 276 342
#
# _framework density 22.942606999999999
#
# number of rings (size 3 to 8) (size 9 to 14) (size 15 to 20)
#    0.000    2.250    0.000    4.875    0.000    5.000 
#    0.000   12.500    0.000    0.000    0.000    0.000 
#    0.000    0.000    0.000    0.000    0.000    0.000 
#
# Total GULP energy -89315.654702 kJ/mol
# GULP energy per Si atom -5582.228419 kJ/mol
# Density = 2.289039 g / cm^3
# Si number density = 22.942607 Si / 1000 Ang^3
#
#
#
# Elastic Constant Matrix: (Units=GPa)
#
#
# Indices 1 2 3 4 5 6 
#
# 1 61.1616 22.4128 4.3028 -6.5812 -7.6484 -20.0588
# 2 22.4128 114.9296 6.3607 -13.4815 1.7108 -25.3664
# 3 4.3028 6.3607 52.9206 -8.1766 5.5225 -4.9771
# 4 -6.5812 -13.4815 -8.1766 37.8767 -5.5811 -1.5849
# 5 -7.6484 1.7108 5.5225 -5.5811 24.2269 -5.7698
# 6 -20.0588 -25.3664 -4.9771 -1.5849 -5.7698 42.2912
#
#
#
# Elastic Compliance Matrix: (Units=1/GPa)
#
#
# Indices 1 2 3 4 5 6 
#
# 1 0.022762 -0.001345 -0.000953 0.005457 0.011531 0.011654
# 2 -0.001345 0.010775 -0.000117 0.004013 0.001225 0.006129
# 3 -0.000953 -0.000117 0.020074 0.003646 -0.003677 0.001475
# 4 0.005457 0.004013 0.003646 0.031328 0.009712 0.007923
# 5 0.011531 0.001225 -0.003677 0.009712 0.051025 0.013096
# 6 0.011654 0.006129 0.001475 0.007923 0.013096 0.035106
#
#
# Mechanical properties :
#
#
# Convention : Reuss Voigt Hill
#
# Bulk Modulus (GPa) = 20.50056 32.79604 26.64830
# Shear Modulus (GPa) = 26.02006 33.94133 29.98069
#
# Velocity S-wave (km/s) = 3.37135 3.85047 3.61885
# Velocity P-wave (km/s) = 4.91016 5.83901 5.39461
#
# Compressibility (1/GPa) = 0.04877917
#
# Stress axis : x y z
#
# Youngs Moduli (GPa) = 43.93381 92.80776 49.81675
#
# Poissons Ratio (x) = 0.12485 0.04748
# Poissons Ratio (y) = 0.05910 0.00584
# Poissons Ratio (z) = 0.04187 0.01087
#
# Static dielectric constant tensor:
#      x y z
#    x 1.858420 -0.000450 -0.017200 
#    y -0.000450 1.958540 0.014230 
#    z -0.017200 0.014230 1.931180 
# 
# From -- ./inp_files/357748.got.cif
#   From: 2010.05.17/outbox.cif.g08.bks.cpg/sg2_179_cif.got.tgz:357748.got - 2010.06.03 11:33:40.
