data_PCOD9082165
_publ_section_title
;
Structure prediction by ZEFSAII (Michael W. Deem and Ramdas Pophale) SiO2 
 PCOD9082165
Probable space group: P -1
;
_chemical_formula_sum "Si O2"
_cell_formula_units_Z 14
_cell_length_a 11.893127
_cell_length_b 12.298966
_cell_length_c 11.987834
_cell_angle_alpha 115.100414
_cell_angle_beta 130.907143
_cell_angle_gamma 34.485744
_cell_volume 722.479827
_symmetry_space_group_name_H-M "P -1"
_symmetry_group_IT_number 2
_symmetry_cell_setting 'triclinic'
loop_
_space_group_symop_operation_xyz
x,y,z
-x,-y,-z
loop_
_atom_site_type_symbol
_atom_site_label
_atom_site_fract_x
_atom_site_fract_y
_atom_site_fract_z
Si Si1 0.912031 0.749265 0.171790
Si Si2 0.370174 0.756162 0.959557
Si Si3 0.104533 0.727391 0.501272
Si Si4 0.165970 0.781418 0.212273
Si Si5 0.339629 0.796459 0.552200
Si Si6 0.591676 0.530854 0.208870
Si Si7 0.565585 0.769103 0.885111
O O1 0.047248 0.668156 0.342617
O O2 0.087239 0.704357 0.178597
O O3 0.673539 0.989506 0.145789
O O4 0.803207 0.695419 0.034644
O O5 0.323211 0.644957 0.873292
O O6 0.515101 0.703908 0.920206
O O7 0.534948 0.667969 0.139188
O O8 0.100708 0.988529 0.885754
O O9 0.278893 0.718409 0.555582
O O10 0.212181 0.587918 0.615712
O O11 0.872905 0.963252 0.482218
O O12 0.319094 0.755375 0.396586
O O13 0.333209 0.672860 0.165315
O O14 0.551263 0.726181 0.731633
#
# Coordination Sequence:
#
# PCOD9082165 Si02
#       7
#     2   2   2   2   2   2   2
#     4   8  17  28  53  76  99 129 164 203 254 296
#     4  10  20  34  50  74 103 132 168 203 237 297
#     4   9  15  30  47  75  98 128 166 200 247 291
#     4  10  19  33  52  79  99 126 166 208 248 291
#     4   9  15  28  52  72 101 125 160 212 248 284
#     4  11  20  31  53  75 101 134 165 203 244 288
#     4   9  15  32  51  75  99 134 161 201 255 290
#
# _framework density 19.377703
#
# number of rings (size 3 to 8) (size 9 to 14) (size 15 to 20)
#    0.000    2.571    2.857    2.143    0.000    2.286 
#    0.000    1.429    0.000    0.000    0.000    5.000 
#    0.000    0.000    0.000    0.000    0.000    0.000 
#
# Total GULP energy -77956.453397 kJ/mol
# GULP energy per Si atom -5568.318100 kJ/mol
# Density = 1.933360 g / cm^3
# Si number density = 19.377703 Si / 1000 Ang^3
#
#
#
# Elastic Constant Matrix: (Units=GPa)
#
#
# Indices 1 2 3 4 5 6 
#
# 1 23.2631 10.8463 30.2897 -8.9909 -9.1576 -2.0088
# 2 10.8463 70.6639 24.2113 -13.2719 -6.4638 -1.9720
# 3 30.2897 24.2113 143.7311 -17.4963 -9.5156 18.5800
# 4 -8.9909 -13.2719 -17.4963 19.7160 11.2732 -8.3906
# 5 -9.1576 -6.4638 -9.5156 11.2732 34.1141 -2.4228
# 6 -2.0088 -1.9720 18.5800 -8.3906 -2.4228 17.4547
#
#
#
# Elastic Compliance Matrix: (Units=1/GPa)
#
#
# Indices 1 2 3 4 5 6 
#
# 1 0.097704 0.004207 -0.022653 0.047500 0.009267 0.059953
# 2 0.004207 0.018561 -0.003854 0.018290 -0.001388 0.015284
# 3 -0.022653 -0.003854 0.014092 -0.009257 -0.001433 -0.022692
# 4 0.047500 0.018290 -0.009257 0.118661 -0.020494 0.071583
# 5 0.009267 -0.001388 -0.001433 -0.020494 0.037756 -0.002175
# 6 0.059953 0.015284 -0.022692 0.071583 -0.002175 0.124181
#
#
# Mechanical properties :
#
#
# Convention : Reuss Voigt Hill
#
# Bulk Modulus (GPa) = 11.66090 40.92807 26.29448
# Shear Modulus (GPa) = 10.32754 25.74435 18.03595
#
# Velocity S-wave (km/s) = 2.31110 3.64889 3.05414
# Velocity P-wave (km/s) = 3.62661 6.23856 5.10254
#
# Compressibility (1/GPa) = 0.08575667
#
# Stress axis : x y z
#
# Youngs Moduli (GPa) = 10.23497 53.87607 70.96104
#
# Poissons Ratio (x) = -0.22665 1.60749
# Poissons Ratio (y) = -0.04306 0.27350
# Poissons Ratio (z) = 0.23185 0.20765
#
# Static dielectric constant tensor:
#      x y z
#    x 1.656730 -0.023170 -0.028540 
#    y -0.023170 1.724520 -0.030050 
#    z -0.028540 -0.030050 1.761770 
# 
# From -- ./inp_files/220533.got.cif
#   From: 2010.05.17/outbox.cif.g08.bks.cpg/sg2_111_cif.got.tgz:220533.got - 2010.06.03 11:33:40.
