data_PCOD9082487
_publ_section_title
;
Structure prediction by ZEFSAII (Michael W. Deem and Ramdas Pophale) SiO2 
 PCOD9082487
Probable space group: P -1
;
_chemical_formula_sum "Si O2"
_cell_formula_units_Z 14
_cell_length_a 11.241204
_cell_length_b 20.336907
_cell_length_c 19.088331
_cell_angle_alpha 20.046512
_cell_angle_beta 31.478110
_cell_angle_gamma 21.065955
_cell_volume 527.549044
_symmetry_space_group_name_H-M "P -1"
_symmetry_group_IT_number 2
_symmetry_cell_setting 'triclinic'
loop_
_space_group_symop_operation_xyz
x,y,z
-x,-y,-z
loop_
_atom_site_type_symbol
_atom_site_label
_atom_site_fract_x
_atom_site_fract_y
_atom_site_fract_z
Si Si1 0.857109 0.884218 0.278478
Si Si2 0.803386 0.757377 0.999528
Si Si3 0.129226 0.196222 0.363721
Si Si4 0.832231 0.327007 0.804748
Si Si5 0.044258 0.273027 0.897397
Si Si6 0.916389 0.322907 0.203275
Si Si7 0.114199 0.785236 0.390231
O O1 0.937825 0.738767 0.308520
O O2 0.036861 0.711751 0.432504
O O3 0.465280 0.112659 0.267060
O O4 0.963313 0.036990 0.054776
O O5 0.803089 0.539064 0.191082
O O6 0.436604 0.067041 0.889051
O O7 0.019239 0.603188 0.117183
O O8 0.951042 0.786040 0.832904
O O9 0.087956 0.114648 0.392259
O O10 0.119542 0.099529 0.539525
O O11 0.469850 0.500160 0.782124
O O12 0.832782 0.441013 0.764404
O O13 0.044556 0.047212 0.142490
O O14 0.000000 0.500000 0.000000
O O15 0.500000 0.500000 0.500000
#
# Coordination Sequence:
#
# PCOD9082487 Si02
#       7
#     2   2   2   2   2   2   2
#     4  10  20  32  55  83 109 141 184 233 269 317
#     4  10  20  37  56  83 113 144 185 229 277 321
#     4  11  20  36  57  85 112 144 183 230 275 327
#     4  10  19  33  55  84 111 138 190 232 271 322
#     4  10  22  36  56  84 112 150 179 227 280 327
#     4  10  19  33  57  85 109 142 184 234 273 318
#     4  11  21  35  55  83 113 147 185 221 276 334
#
# _framework density 26.537818000000001
#
# number of rings (size 3 to 8) (size 9 to 14) (size 15 to 20)
#    0.000    1.714    4.286    2.143    8.000    0.571 
#    0.000    0.714    0.000    0.857    0.000    0.000 
#    0.000    0.000    0.000    0.000    0.000    0.000 
#
# Total GULP energy -78211.163870 kJ/mol
# GULP energy per Si atom -5586.511705 kJ/mol
# Density = 2.647742 g / cm^3
# Si number density = 26.537818 Si / 1000 Ang^3
#
#
#
# Elastic Constant Matrix: (Units=GPa)
#
#
# Indices 1 2 3 4 5 6 
#
# 1 162.0002 52.8672 43.0989 15.0996 54.0748 20.3037
# 2 52.8672 140.3611 40.9555 41.8574 30.8225 24.4208
# 3 43.0989 40.9555 77.7129 24.2314 31.7927 15.5606
# 4 15.0996 41.8574 24.2314 40.5033 19.8549 23.0638
# 5 54.0748 30.8225 31.7927 19.8549 61.6039 3.3029
# 6 20.3037 24.4208 15.5606 23.0638 3.3029 41.3141
#
#
#
# Elastic Compliance Matrix: (Units=1/GPa)
#
#
# Indices 1 2 3 4 5 6 
#
# 1 0.010867 -0.002794 -0.001943 0.008702 -0.009565 -0.007050
# 2 -0.002794 0.011537 -0.001788 -0.011127 0.001117 0.001350
# 3 -0.001943 -0.001788 0.019112 -0.005056 -0.005531 -0.001922
# 4 0.008702 -0.011127 -0.005056 0.060621 -0.017486 -0.028239
# 5 -0.009565 0.001117 -0.005531 -0.017486 0.031844 0.013339
# 6 -0.007050 0.001350 -0.001922 -0.028239 0.013339 0.042294
#
#
# Mechanical properties :
#
#
# Convention : Reuss Voigt Hill
#
# Bulk Modulus (GPa) = 35.13092 72.65749 53.89420
# Shear Modulus (GPa) = 25.14929 44.89444 35.02187
#
# Velocity S-wave (km/s) = 3.08178 4.11751 3.63670
# Velocity P-wave (km/s) = 5.09214 7.07414 6.16333
#
# Compressibility (1/GPa) = 0.02846496
#
# Stress axis : x y z
#
# Youngs Moduli (GPa) = 92.02440 86.67937 52.32431
#
# Poissons Ratio (x) = 0.24219 0.10165
# Poissons Ratio (y) = 0.25713 0.09356
# Poissons Ratio (z) = 0.17878 0.15500
#
# Static dielectric constant tensor:
#      x y z
#    x 2.275400 0.062920 -0.050480 
#    y 0.062920 2.000540 0.005810 
#    z -0.050480 0.005810 2.192590 
# 
# From -- ./inp_files/182288.got.cif
#   From: 2010.05.17/outbox.cif.g08.bks.cpg/sg2_92_cif.got.tgz:182288.got - 2010.06.03 11:33:40.
