data_PCOD9082408
_publ_section_title
;
Structure prediction by ZEFSAII (Michael W. Deem and Ramdas Pophale) SiO2 
 PCOD9082408
Probable space group: P -1
;
_chemical_formula_sum "Si O2"
_cell_formula_units_Z 16
_cell_length_a 11.236122
_cell_length_b 16.041342
_cell_length_c 20.913895
_cell_angle_alpha 18.035841
_cell_angle_beta 28.711276
_cell_angle_gamma 34.487851
_cell_volume 559.476384
_symmetry_space_group_name_H-M "P -1"
_symmetry_group_IT_number 2
_symmetry_cell_setting 'triclinic'
loop_
_space_group_symop_operation_xyz
x,y,z
-x,-y,-z
loop_
_atom_site_type_symbol
_atom_site_label
_atom_site_fract_x
_atom_site_fract_y
_atom_site_fract_z
Si Si1 0.428495 0.104245 0.165801
Si Si2 0.926085 0.421161 0.862725
Si Si3 0.841703 0.810158 0.972313
Si Si4 0.369884 0.139946 0.568916
Si Si5 0.329372 0.710734 0.219354
Si Si6 0.175895 0.266276 0.739524
Si Si7 0.053265 0.820850 0.729922
Si Si8 0.742273 0.612236 0.689914
O O1 0.138886 0.076993 0.305803
O O2 0.557279 0.179950 0.981147
O O3 0.526617 0.364753 0.970273
O O4 0.553996 0.836772 0.325313
O O5 0.162161 0.355945 0.754867
O O6 0.203782 0.359927 0.279163
O O7 0.019385 0.429634 0.884869
O O8 0.747183 0.148957 0.145374
O O9 0.976845 0.920501 0.764059
O O10 0.833372 0.056581 0.846589
O O11 0.561682 0.717421 0.153833
O O12 0.253722 0.396035 0.470694
O O13 0.658834 0.155823 0.437477
O O14 0.347382 0.190824 0.466014
O O15 0.002533 0.495778 0.627588
O O16 0.000000 0.000000 0.000000
O O17 0.000000 0.500000 0.000000
#
# Coordination Sequence:
#
# PCOD9082408 Si02
#       8
#     2   2   2   2   2   2   2   2
#     4   9  14  31  58  78 110 154 195 226 288 344
#     4  10  21  33  59  93 118 150 195 253 294 340
#     4  10  19  33  54  86 120 152 192 248 296 340
#     4  11  21  38  61  92 116 158 204 233 288 366
#     4   9  17  32  56  85 114 152 202 239 284 350
#     4   8  15  31  54  84 116 150 188 239 296 335
#     4  11  20  35  60  81 118 164 199 232 293 366
#     4   8  17  33  57  85 120 155 187 246 294 342
#
# _framework density 28.598167
#
# number of rings (size 3 to 8) (size 9 to 14) (size 15 to 20)
#    0.750    1.750    5.000    0.000    0.000    1.000 
#    0.000    1.250    0.000    4.500    0.000   17.500 
#    0.000    0.000    0.000    0.000    0.000    0.000 
#
# Total GULP energy -89523.455533 kJ/mol
# GULP energy per Si atom -5595.215971 kJ/mol
# Density = 2.853308 g / cm^3
# Si number density = 28.598167 Si / 1000 Ang^3
#
#
#
# Elastic Constant Matrix: (Units=GPa)
#
#
# Indices 1 2 3 4 5 6 
#
# 1 161.9767 42.5535 26.8343 1.4088 17.6627 -33.7523
# 2 42.5535 153.8185 12.9668 -9.6616 4.2803 -21.9381
# 3 26.8343 12.9668 78.1935 -9.1032 22.8172 -4.0574
# 4 1.4088 -9.6616 -9.1032 31.7328 -4.4835 -18.7211
# 5 17.6627 4.2803 22.8172 -4.4835 43.5387 1.7081
# 6 -33.7523 -21.9381 -4.0574 -18.7211 1.7081 48.8553
#
#
#
# Elastic Compliance Matrix: (Units=1/GPa)
#
#
# Indices 1 2 3 4 5 6 
#
# 1 0.008176 -0.001107 -0.001340 0.002047 -0.002527 0.005913
# 2 -0.001107 0.007814 -0.000087 0.005203 0.000077 0.004728
# 3 -0.001340 -0.000087 0.016190 0.005163 -0.007503 0.002621
# 4 0.002047 0.005203 0.005163 0.047746 -0.000013 0.022476
# 5 -0.002527 0.000077 -0.007503 -0.000013 0.028047 -0.003320
# 6 0.005913 0.004728 0.002621 0.022476 -0.003320 0.035624
#
#
# Mechanical properties :
#
#
# Convention : Reuss Voigt Hill
#
# Bulk Modulus (GPa) = 36.88377 62.07755 49.48066
# Shear Modulus (GPa) = 31.70549 45.60097 38.65323
#
# Velocity S-wave (km/s) = 3.33326 3.99750 3.68040
# Velocity P-wave (km/s) = 5.26682 6.56206 5.94979
#
# Compressibility (1/GPa) = 0.02711220
#
# Stress axis : x y z
#
# Youngs Moduli (GPa) = 122.30252 127.97998 61.76788
#
# Poissons Ratio (x) = 0.14164 0.08276
# Poissons Ratio (y) = 0.13536 0.00539
# Poissons Ratio (z) = 0.16386 0.01117
#
# Static dielectric constant tensor:
#      x y z
#    x 2.325220 0.086400 -0.041310 
#    y 0.086400 2.188550 -0.014200 
#    z -0.041310 -0.014200 2.279340 
# 
# From -- ./inp_files/610741.got.cif
#   From: 2010.05.17/outbox.cif.g08.bks.cpg/sg2_306_cif.got.tgz:610741.got - 2010.06.03 11:33:40.
