data_PCOD9082673
_publ_section_title
;
Structure prediction by ZEFSAII (Michael W. Deem and Ramdas Pophale) SiO2 
 PCOD9082673
Probable space group: P -1
;
_chemical_formula_sum "Si O2"
_cell_formula_units_Z 16
_cell_length_a 6.817628
_cell_length_b 9.014513
_cell_length_c 15.285363
_cell_angle_alpha 91.296838
_cell_angle_beta 114.647560
_cell_angle_gamma 88.780403
_cell_volume 853.521780
_symmetry_space_group_name_H-M "P -1"
_symmetry_group_IT_number 2
_symmetry_cell_setting 'triclinic'
loop_
_space_group_symop_operation_xyz
x,y,z
-x,-y,-z
loop_
_atom_site_type_symbol
_atom_site_label
_atom_site_fract_x
_atom_site_fract_y
_atom_site_fract_z
Si Si1 0.364089 0.726823 0.753734
Si Si2 0.200145 0.802208 0.102734
Si Si3 0.680166 0.282048 0.055926
Si Si4 0.200591 0.383678 0.914379
Si Si5 0.038073 0.107017 0.381891
Si Si6 0.265737 0.140449 0.603130
Si Si7 0.314476 0.045847 0.262187
Si Si8 0.371134 0.377296 0.759884
O O1 0.308456 0.773579 0.843795
O O2 0.568906 0.814762 0.758128
O O3 0.404024 0.551620 0.758087
O O4 0.155259 0.772865 0.659169
O O5 0.405955 0.702540 0.170966
O O6 0.989874 0.705992 0.079154
O O7 0.204038 0.948141 0.164971
O O8 0.237636 0.825930 0.006679
O O9 0.806140 0.438277 0.071978
O O10 0.429920 0.326148 0.993445
O O11 0.209794 0.356333 0.811368
O O12 0.203210 0.146413 0.490234
O O13 0.155662 0.090402 0.311119
O O14 0.919980 0.954654 0.384840
O O15 0.286202 0.297517 0.656789
O O16 0.490412 0.053193 0.661041
#
# Coordination Sequence:
#
# PCOD9082673 Si02
#       8
#     2   2   2   2   2   2   2   2
#     4  10  22  36  50  76 113 139 164 213 266 306
#     4  10  19  33  57  78  99 139 182 212 246 303
#     4   9  19  33  50  76 108 137 170 214 254 299
#     4   9  17  32  54  78 103 135 175 213 253 301
#     4  10  20  36  57  77 103 139 171 210 264 311
#     4   9  19  37  59  78  99 133 178 217 252 306
#     4  10  21  36  53  78 107 135 172 214 256 307
#     4   9  19  35  54  80 107 132 171 219 257 300
#
# _framework density 18.745861999999999
#
# number of rings (size 3 to 8) (size 9 to 14) (size 15 to 20)
#    0.000    2.500    0.000    2.250    0.000    5.000 
#    0.000    1.875    0.000    0.000    0.000    0.000 
#    0.000    0.000    0.000    0.000    0.000    0.000 
#
# Total GULP energy -89317.501375 kJ/mol
# GULP energy per Si atom -5582.343836 kJ/mol
# Density = 1.870320 g / cm^3
# Si number density = 18.745862 Si / 1000 Ang^3
#
#
#
# Elastic Constant Matrix: (Units=GPa)
#
#
# Indices 1 2 3 4 5 6 
#
# 1 70.9317 20.2979 16.4884 12.0440 -15.4047 10.1309
# 2 20.2979 44.9693 28.0126 6.2420 -14.9875 -1.9118
# 3 16.4884 28.0126 65.8776 15.2509 -10.7721 -1.7092
# 4 12.0440 6.2420 15.2509 25.5390 1.5628 -4.5948
# 5 -15.4047 -14.9875 -10.7721 1.5628 21.8487 1.9909
# 6 10.1309 -1.9118 -1.7092 -4.5948 1.9909 12.6827
#
#
#
# Elastic Compliance Matrix: (Units=1/GPa)
#
#
# Indices 1 2 3 4 5 6 
#
# 1 0.028408 -0.005820 0.003040 -0.021333 0.022194 -0.034373
# 2 -0.005820 0.037553 -0.012146 0.001113 0.014976 0.006725
# 3 0.003040 -0.012146 0.023964 -0.014568 0.007349 -0.007461
# 4 -0.021333 0.001113 -0.014568 0.067499 -0.030339 0.044462
# 5 0.022194 0.014976 0.007349 -0.030339 0.080963 -0.038182
# 6 -0.034373 0.006725 -0.007461 0.044462 -0.038182 0.128415
#
#
# Mechanical properties :
#
#
# Convention : Reuss Voigt Hill
#
# Bulk Modulus (GPa) = 16.64604 34.59738 25.62171
# Shear Modulus (GPa) = 11.99963 19.81272 15.90618
#
# Velocity S-wave (km/s) = 2.53281 3.25454 2.91609
# Velocity P-wave (km/s) = 4.17763 5.71129 5.00357
#
# Compressibility (1/GPa) = 0.06007434
#
# Stress axis : x y z
#
# Youngs Moduli (GPa) = 35.20075 26.62887 41.72922
#
# Poissons Ratio (x) = 0.15498 -0.12688
# Poissons Ratio (y) = 0.20487 0.50685
# Poissons Ratio (z) = -0.10703 0.32344
#
# Static dielectric constant tensor:
#      x y z
#    x 1.627850 -0.012710 0.000000 
#    y -0.012710 1.624520 0.005120 
#    z 0.000000 0.005120 1.654550 
# 
# From -- ./inp_files/37297.got.cif
#   From: 2010.05.17/outbox.cif.g08.bks.cpg/sg2_19_cif.got.tgz:37297.got - 2010.06.03 11:33:40.
