data_PCOD9082254
_publ_section_title
;
Structure prediction by ZEFSAII (Michael W. Deem and Ramdas Pophale) SiO2 
 PCOD9082254
Probable space group: P -1
;
_chemical_formula_sum "Si O2"
_cell_formula_units_Z 16
_cell_length_a 12.769781
_cell_length_b 12.147566
_cell_length_c 13.288666
_cell_angle_alpha 71.438541
_cell_angle_beta 158.091927
_cell_angle_gamma 104.450063
_cell_volume 722.986367
_symmetry_space_group_name_H-M "P -1"
_symmetry_group_IT_number 2
_symmetry_cell_setting 'triclinic'
loop_
_space_group_symop_operation_xyz
x,y,z
-x,-y,-z
loop_
_atom_site_type_symbol
_atom_site_label
_atom_site_fract_x
_atom_site_fract_y
_atom_site_fract_z
Si Si1 0.146748 0.229754 0.159091
Si Si2 0.553169 0.000181 0.413714
Si Si3 0.793354 0.777992 0.412791
Si Si4 0.220849 0.697554 0.989775
Si Si5 0.271676 0.175623 0.875773
Si Si6 0.161590 0.978919 0.539614
Si Si7 0.004714 0.845742 0.164042
Si Si8 0.682750 0.529141 0.748627
O O1 0.337999 0.334318 0.286387
O O2 0.341793 0.108268 0.390941
O O3 0.981094 0.221228 0.909298
O O4 0.940559 0.256375 0.064494
O O5 0.677029 0.966039 0.424876
O O6 0.711091 0.110967 0.554185
O O7 0.220959 0.038389 0.093976
O O8 0.476225 0.769439 0.169434
O O9 0.801695 0.745223 0.311296
O O10 0.872327 0.911461 0.447290
O O11 0.004257 0.707825 0.700422
O O12 0.348759 0.562861 0.164530
O O13 0.145057 0.216746 0.859445
O O14 0.113090 0.061630 0.745258
O O15 0.605748 0.130532 0.190206
O O16 0.500000 0.500000 0.500000
O O17 0.000000 0.500000 0.000000
#
# Coordination Sequence:
#
# PCOD9082254 Si02
#       8
#     2   2   2   2   2   2   2   2
#     4  11  22  40  61  81 119 151 188 235 291 340
#     4  10  21  34  55  85 118 148 189 227 274 345
#     4  12  21  36  58  81 115 149 189 239 285 332
#     4  11  24  36  59  87 110 145 194 240 295 327
#     4  10  21  36  54  81 115 152 192 225 272 338
#     4  10  19  33  53  80 115 149 189 229 273 337
#     4  10  23  37  56  85 117 155 189 224 271 349
#     4  10  23  40  58  85 114 146 191 244 288 341
#
# _framework density 22.130431000000002
#
# number of rings (size 3 to 8) (size 9 to 14) (size 15 to 20)
#    0.000    1.500    1.250    4.500    3.500    4.000 
#    0.000    0.000    0.000    1.500    0.000    0.000 
#    0.000    0.000    0.000    0.000    0.000    0.000 
#
# Total GULP energy -89403.923039 kJ/mol
# GULP energy per Si atom -5587.745190 kJ/mol
# Density = 2.208006 g / cm^3
# Si number density = 22.130431 Si / 1000 Ang^3
#
#
#
# Elastic Constant Matrix: (Units=GPa)
#
#
# Indices 1 2 3 4 5 6 
#
# 1 99.4898 11.4936 31.3495 -7.1565 -36.8867 1.2171
# 2 11.4936 53.4940 10.3472 6.6672 -10.2818 7.6262
# 3 31.3495 10.3472 124.7327 6.2804 -16.6909 2.5952
# 4 -7.1565 6.6672 6.2804 23.5569 8.3856 -4.5863
# 5 -36.8867 -10.2818 -16.6909 8.3856 48.0319 0.4411
# 6 1.2171 7.6262 2.5952 -4.5863 0.4411 15.0420
#
#
#
# Elastic Compliance Matrix: (Units=1/GPa)
#
#
# Indices 1 2 3 4 5 6 
#
# 1 0.014744 -0.001030 -0.002384 0.001869 0.009947 0.000019
# 2 -0.001030 0.024099 0.000150 -0.012756 0.006795 -0.016249
# 3 -0.002384 0.000150 0.009193 -0.004579 0.002222 -0.002930
# 4 0.001869 -0.012756 -0.004579 0.057390 -0.013135 0.024989
# 5 0.009947 0.006795 0.002222 -0.013135 0.033067 -0.009608
# 6 0.000019 -0.016249 -0.002930 0.024989 -0.009608 0.083124
#
#
# Mechanical properties :
#
#
# Convention : Reuss Voigt Hill
#
# Bulk Modulus (GPa) = 24.09291 42.67745 33.38518
# Shear Modulus (GPa) = 20.66290 32.29457 26.47873
#
# Velocity S-wave (km/s) = 3.05894 3.82420 3.46278
# Velocity P-wave (km/s) = 4.83597 6.23103 5.57729
#
# Compressibility (1/GPa) = 0.04150599
#
# Stress axis : x y z
#
# Youngs Moduli (GPa) = 67.82599 41.49636 108.78224
#
# Poissons Ratio (x) = 0.04276 0.25928
# Poissons Ratio (y) = 0.06989 -0.01627
# Poissons Ratio (z) = 0.16166 -0.00621
#
# Static dielectric constant tensor:
#      x y z
#    x 1.951460 0.022150 0.015360 
#    y 0.022150 1.843900 -0.017070 
#    z 0.015360 -0.017070 1.794660 
# 
# From -- ./inp_files/531828.got.cif
#   From: 2010.05.17/outbox.cif.g08.bks.cpg/sg2_266_cif.got.tgz:531828.got - 2010.06.03 11:33:40.
