data_PCOD9082442
_publ_section_title
;
Structure prediction by ZEFSAII (Michael W. Deem and Ramdas Pophale) SiO2 
 PCOD9082442
Probable space group: P -1
;
_chemical_formula_sum "Si O2"
_cell_formula_units_Z 14
_cell_length_a 10.062057
_cell_length_b 12.319187
_cell_length_c 7.691981
_cell_angle_alpha 74.289407
_cell_angle_beta 117.773840
_cell_angle_gamma 140.400492
_cell_volume 531.113749
_symmetry_space_group_name_H-M "P -1"
_symmetry_group_IT_number 2
_symmetry_cell_setting 'triclinic'
loop_
_space_group_symop_operation_xyz
x,y,z
-x,-y,-z
loop_
_atom_site_type_symbol
_atom_site_label
_atom_site_fract_x
_atom_site_fract_y
_atom_site_fract_z
Si Si1 0.423773 0.956926 0.776849
Si Si2 0.819582 0.864960 0.299868
Si Si3 0.125677 0.720200 0.227601
Si Si4 0.525119 0.636638 0.734235
Si Si5 0.262256 0.047080 0.130732
Si Si6 0.939428 0.675952 0.479042
Si Si7 0.344508 0.538606 0.074615
O O1 0.604388 0.141929 0.707624
O O2 0.155317 0.824957 0.665822
O O3 0.500000 0.000000 0.000000
O O4 0.489828 0.869964 0.788255
O O5 0.837219 0.946911 0.099462
O O6 0.542639 0.715385 0.226016
O O7 0.854436 0.751685 0.336114
O O8 0.000000 0.000000 0.500000
O O9 0.051066 0.660948 0.405018
O O10 0.915501 0.562131 0.046345
O O11 0.116488 0.852760 0.156524
O O12 0.648890 0.587730 0.803406
O O13 0.298817 0.516217 0.529198
O O14 0.691922 0.837667 0.740402
O O15 0.431734 0.585418 0.902842
#
# Coordination Sequence:
#
# PCOD9082442 Si02
#       7
#     2   2   2   2   2   2   2
#     4  10  21  35  53  74 108 144 169 208 265 315
#     4  10  19  33  55  79 106 141 170 205 263 319
#     4   9  19  33  56  78 101 136 178 217 254 297
#     4   8  15  29  51  80 100 130 170 217 257 297
#     4   9  19  31  53  79 102 133 175 213 258 294
#     4  10  19  34  58  76 104 136 177 212 255 310
#     4   8  15  30  51  76 105 134 167 211 261 304
#
# _framework density 26.359701999999999
#
# number of rings (size 3 to 8) (size 9 to 14) (size 15 to 20)
#    0.857    2.000    0.000    3.857    0.000    2.857 
#    0.000    0.714    3.143    8.571    0.000    0.000 
#    0.000    0.000    0.000    0.000    0.000    0.000 
#
# Total GULP energy -78096.916368 kJ/mol
# GULP energy per Si atom -5578.351169 kJ/mol
# Density = 2.629971 g / cm^3
# Si number density = 26.359702 Si / 1000 Ang^3
#
#
#
# Elastic Constant Matrix: (Units=GPa)
#
#
# Indices 1 2 3 4 5 6 
#
# 1 56.2461 22.7951 18.4648 6.9642 5.9909 -4.0331
# 2 22.7951 80.9437 37.9765 30.6582 6.4584 4.4907
# 3 18.4648 37.9765 125.0955 51.7969 27.8758 23.9604
# 4 6.9642 30.6582 51.7969 51.3021 9.5122 6.4497
# 5 5.9909 6.4584 27.8758 9.5122 29.7785 4.0268
# 6 -4.0331 4.4907 23.9604 6.4497 4.0268 18.5870
#
#
#
# Elastic Compliance Matrix: (Units=1/GPa)
#
#
# Indices 1 2 3 4 5 6 
#
# 1 0.022475 -0.006177 -0.005511 0.004918 -0.001221 0.012032
# 2 -0.006177 0.017876 -0.000559 -0.009237 0.001106 -0.001973
# 3 -0.005511 -0.000559 0.022910 -0.017087 -0.011768 -0.022116
# 4 0.004918 -0.009237 -0.017087 0.039693 0.002851 0.010934
# 5 -0.001221 0.001106 -0.011768 0.002851 0.043110 0.004309
# 6 0.012032 -0.001973 -0.022116 0.010934 0.004309 0.080670
#
#
# Mechanical properties :
#
#
# Convention : Reuss Voigt Hill
#
# Bulk Modulus (GPa) = 25.79509 46.75089 36.27299
# Shear Modulus (GPa) = 18.92861 32.13678 25.53269
#
# Velocity S-wave (km/s) = 2.68262 3.49544 3.11565
# Velocity P-wave (km/s) = 4.40481 5.83653 5.17046
#
# Compressibility (1/GPa) = 0.03876707
#
# Stress axis : x y z
#
# Youngs Moduli (GPa) = 44.49332 55.94196 43.64840
#
# Poissons Ratio (x) = 0.34553 0.24056
# Poissons Ratio (y) = 0.27482 0.02441
# Poissons Ratio (z) = 0.24522 0.03128
#
# Static dielectric constant tensor:
#      x y z
#    x 2.171990 0.079460 -0.021190 
#    y 0.079460 2.172380 0.006170 
#    z -0.021190 0.006170 2.076040 
# 
# From -- ./inp_files/267702.got.cif
#   From: 2010.05.17/outbox.cif.g08.bks.cpg/sg2_134_cif.got.tgz:267702.got - 2010.06.03 11:33:40.
