data_PCOD9082519
_publ_section_title
;
Structure prediction by ZEFSAII (Michael W. Deem and Ramdas Pophale) SiO2 
 PCOD9082519
Probable space group: P -1
;
_chemical_formula_sum "Si O2"
_cell_formula_units_Z 16
_cell_length_a 11.209273
_cell_length_b 12.572103
_cell_length_c 17.024210
_cell_angle_alpha 25.644717
_cell_angle_beta 39.660312
_cell_angle_gamma 53.699229
_cell_volume 615.866043
_symmetry_space_group_name_H-M "P -1"
_symmetry_group_IT_number 2
_symmetry_cell_setting 'triclinic'
loop_
_space_group_symop_operation_xyz
x,y,z
-x,-y,-z
loop_
_atom_site_type_symbol
_atom_site_label
_atom_site_fract_x
_atom_site_fract_y
_atom_site_fract_z
Si Si1 0.273825 0.260413 0.838685
Si Si2 0.520706 0.864357 0.323047
Si Si3 0.181148 0.824508 0.621511
Si Si4 0.725432 0.546317 0.049057
Si Si5 0.134037 0.997516 0.825217
Si Si6 0.986955 0.455706 0.630595
Si Si7 0.695955 0.730710 0.609525
Si Si8 0.699756 0.010557 0.847987
O O1 0.439280 0.542756 0.586727
O O2 0.380454 0.108952 0.830323
O O3 0.192243 0.092122 0.069712
O O4 0.066300 0.264716 0.905900
O O5 0.323661 0.917008 0.412270
O O6 0.689576 0.008197 0.205002
O O7 0.254634 0.631739 0.768179
O O8 0.207710 0.068904 0.502303
O O9 0.950033 0.669323 0.820091
O O10 0.545495 0.372116 0.200680
O O11 0.665833 0.789653 0.947092
O O12 0.233322 0.120560 0.609424
O O13 0.044083 0.199695 0.777042
O O14 0.779718 0.493502 0.730691
O O15 0.000000 0.500000 0.500000
O O16 0.158142 0.688989 0.435880
O O17 0.500000 0.000000 0.000000
#
# Coordination Sequence:
#
# PCOD9082519 Si02
#       8
#     2   2   2   2   2   2   2   2
#     4  11  22  39  58  86 121 153 192 241 290 343
#     4  11  24  38  58  85 120 161 195 229 285 362
#     4  11  22  36  53  84 121 154 194 236 287 350
#     4  11  22  34  57  87 116 153 188 244 297 337
#     4  11  21  38  59  91 116 148 193 243 301 340
#     4  10  19  33  55  89 116 139 183 248 292 337
#     4  11  20  35  57  87 117 147 185 249 294 340
#     4  12  20  36  62  92 116 148 192 248 299 339
#
# _framework density 25.979676000000001
#
# number of rings (size 3 to 8) (size 9 to 14) (size 15 to 20)
#    0.000    1.000    6.250    3.000    1.750    0.000 
#    0.000    0.000    0.000    1.500    0.000    0.000 
#    0.000    0.000    0.000    0.000    0.000    0.000 
#
# Total GULP energy -89570.332677 kJ/mol
# GULP energy per Si atom -5598.145792 kJ/mol
# Density = 2.592054 g / cm^3
# Si number density = 25.979676 Si / 1000 Ang^3
#
#
#
# Elastic Constant Matrix: (Units=GPa)
#
#
# Indices 1 2 3 4 5 6 
#
# 1 59.2956 13.4843 45.9890 14.9091 -9.5482 -3.4757
# 2 13.4843 125.0928 21.1147 5.7225 1.2600 -1.3733
# 3 45.9890 21.1147 100.2156 15.7936 -23.9590 -6.2966
# 4 14.9091 5.7225 15.7936 39.4027 -16.0637 -1.6918
# 5 -9.5482 1.2600 -23.9590 -16.0637 43.0553 12.1394
# 6 -3.4757 -1.3733 -6.2966 -1.6918 12.1394 35.0647
#
#
#
# Elastic Compliance Matrix: (Units=1/GPa)
#
#
# Indices 1 2 3 4 5 6 
#
# 1 0.027790 -0.000543 -0.012335 -0.006931 -0.003682 0.001459
# 2 -0.000543 0.008427 -0.001781 -0.001060 -0.001914 0.000568
# 3 -0.012335 -0.001781 0.017660 0.000959 0.007712 -0.000745
# 4 -0.006931 -0.001060 0.000959 0.032554 0.012065 -0.003163
# 5 -0.003682 -0.001914 0.007712 0.012065 0.034162 -0.010300
# 6 0.001459 0.000568 -0.000745 -0.003163 -0.010300 0.031965
#
#
# Mechanical properties :
#
#
# Convention : Reuss Voigt Hill
#
# Bulk Modulus (GPa) = 40.71853 49.53111 45.12482
# Shear Modulus (GPa) = 26.30702 37.10562 31.70632
#
# Velocity S-wave (km/s) = 3.18559 3.78333 3.49725
# Velocity P-wave (km/s) = 5.40721 6.17992 5.80643
#
# Compressibility (1/GPa) = 0.02455884
#
# Stress axis : x y z
#
# Youngs Moduli (GPa) = 35.98389 118.66238 56.62539
#
# Poissons Ratio (x) = 0.06449 0.69847
# Poissons Ratio (y) = 0.01956 0.10085
# Poissons Ratio (z) = 0.44386 0.21133
#
# Static dielectric constant tensor:
#      x y z
#    x 2.103130 0.002180 0.016590 
#    y 0.002180 2.021740 -0.006800 
#    z 0.016590 -0.006800 2.084050 
# 
# From -- ./inp_files/433084.got.cif
#   From: 2010.05.17/outbox.cif.g08.bks.cpg/sg2_217_cif.got.tgz:433084.got - 2010.06.03 11:33:40.
