data_PCOD9082888
_publ_section_title
;
Structure prediction by ZEFSAII (Michael W. Deem and Ramdas Pophale) SiO2 
 PCOD9082888
Probable space group: P -1
;
_chemical_formula_sum "Si O2"
_cell_formula_units_Z 16
_cell_length_a 10.881800
_cell_length_b 8.143462
_cell_length_c 11.397715
_cell_angle_alpha 40.343963
_cell_angle_beta 115.205582
_cell_angle_gamma 121.850793
_cell_volume 554.888953
_symmetry_space_group_name_H-M "P -1"
_symmetry_group_IT_number 2
_symmetry_cell_setting 'triclinic'
loop_
_space_group_symop_operation_xyz
x,y,z
-x,-y,-z
loop_
_atom_site_type_symbol
_atom_site_label
_atom_site_fract_x
_atom_site_fract_y
_atom_site_fract_z
Si Si1 0.015967 0.556981 0.796013
Si Si2 0.304445 0.382459 0.603358
Si Si3 0.117466 0.189215 0.208836
Si Si4 0.652926 0.131293 0.053621
Si Si5 0.224709 0.558532 0.693294
Si Si6 0.182996 0.977890 0.123345
Si Si7 0.508197 0.206283 0.187722
Si Si8 0.651635 0.623444 0.645827
O O1 0.972952 0.782797 0.727523
O O2 0.115228 0.661890 0.665142
O O3 0.895143 0.284340 0.843534
O O4 0.106015 0.445720 0.987685
O O5 0.212416 0.511134 0.575301
O O6 0.478328 0.535674 0.613419
O O7 0.289527 0.350644 0.475745
O O8 0.266257 0.079434 0.803159
O O9 0.091369 0.980784 0.202509
O O10 0.265822 0.162771 0.338294
O O11 0.608300 0.152498 0.156962
O O12 0.702431 0.398507 0.853240
O O13 0.500000 0.000000 0.000000
O O14 0.391374 0.747994 0.683261
O O15 0.204767 0.263582 0.908515
O O16 0.346568 0.001145 0.213617
O O17 0.500000 0.500000 0.000000
#
# Coordination Sequence:
#
# PCOD9082888 Si02
#       8
#     2   2   2   2   2   2   2   2
#     4  10  22  35  60  95 124 170 221 257 322 397
#     4  10  22  36  62  93 128 166 209 271 320 388
#     4  10  20  36  60  88 122 172 212 262 320 387
#     4  10  19  33  59  93 120 164 205 259 318 390
#     4  10  19  37  53  87 129 166 204 268 326 372
#     4  10  19  35  59  92 126 163 216 272 315 384
#     4  10  19  33  58  91 126 160 210 267 325 376
#     4  10  20  37  62  93 127 166 212 264 331 376
#
# _framework density 28.834596999999999
#
# number of rings (size 3 to 8) (size 9 to 14) (size 15 to 20)
#    0.000    2.000    0.000    7.500    5.250    0.000 
#    2.250    0.625    2.750   11.250    0.000    0.000 
#    0.000    0.000    0.000    0.000    0.000    0.000 
#
# Total GULP energy -89469.622916 kJ/mol
# GULP energy per Si atom -5591.851432 kJ/mol
# Density = 2.876897 g / cm^3
# Si number density = 28.834597 Si / 1000 Ang^3
#
#
#
# Elastic Constant Matrix: (Units=GPa)
#
#
# Indices 1 2 3 4 5 6 
#
# 1 154.2709 62.2261 31.0776 11.4547 -15.5156 -32.1265
# 2 62.2261 121.4903 45.5196 41.0418 -5.6182 8.1156
# 3 31.0776 45.5196 116.8335 3.8903 -5.4308 -9.8302
# 4 11.4547 41.0418 3.8903 48.7457 -8.2663 -9.4342
# 5 -15.5156 -5.6182 -5.4308 -8.2663 50.0518 12.6700
# 6 -32.1265 8.1156 -9.8302 -9.4342 12.6700 80.3980
#
#
#
# Elastic Compliance Matrix: (Units=1/GPa)
#
#
# Indices 1 2 3 4 5 6 
#
# 1 0.010293 -0.007484 0.000536 0.005181 0.001939 0.005237
# 2 -0.007484 0.020409 -0.006110 -0.016652 -0.001541 -0.007509
# 3 0.000536 -0.006110 0.010893 0.004787 0.000795 0.002599
# 4 0.005181 -0.016652 0.004787 0.035140 0.004081 0.007817
# 5 0.001939 -0.001541 0.000795 0.004081 0.021650 -0.001905
# 6 0.005237 -0.007509 0.002599 0.007817 -0.001905 0.016824
#
#
# Mechanical properties :
#
#
# Convention : Reuss Voigt Hill
#
# Bulk Modulus (GPa) = 64.59675 74.47129 69.53402
# Shear Modulus (GPa) = 34.13312 52.75720 43.44516
#
# Velocity S-wave (km/s) = 3.44431 4.28208 3.88584
# Velocity P-wave (km/s) = 6.18618 7.09446 6.65583
#
# Compressibility (1/GPa) = 0.01548066
#
# Stress axis : x y z
#
# Youngs Moduli (GPa) = 97.14881 48.99807 91.79881
#
# Poissons Ratio (x) = 0.36668 -0.04919
# Poissons Ratio (y) = 0.72701 0.56088
# Poissons Ratio (z) = -0.05205 0.29937
#
# Static dielectric constant tensor:
#      x y z
#    x 2.162480 0.046650 -0.102970 
#    y 0.046650 2.554030 -0.322620 
#    z -0.102970 -0.322620 2.147940 
# 
# From -- ./inp_files/416348.got.cif
#   From: 2010.05.17/outbox.cif.g08.bks.cpg/sg2_209_cif.got.tgz:416348.got - 2010.06.03 11:33:40.
