data_PCOD9082953
_publ_section_title
;
Structure prediction by ZEFSAII (Michael W. Deem and Ramdas Pophale) SiO2 
 PCOD9082953
Probable space group: P -1
;
_chemical_formula_sum "Si O2"
_cell_formula_units_Z 16
_cell_length_a 10.058566
_cell_length_b 12.788539
_cell_length_c 11.741564
_cell_angle_alpha 125.108583
_cell_angle_beta 38.159330
_cell_angle_gamma 99.355895
_cell_volume 625.611873
_symmetry_space_group_name_H-M "P -1"
_symmetry_group_IT_number 2
_symmetry_cell_setting 'triclinic'
loop_
_space_group_symop_operation_xyz
x,y,z
-x,-y,-z
loop_
_atom_site_type_symbol
_atom_site_label
_atom_site_fract_x
_atom_site_fract_y
_atom_site_fract_z
Si Si1 0.621201 0.344953 0.093197
Si Si2 0.794653 0.154856 0.076637
Si Si3 0.783690 0.566057 0.034468
Si Si4 0.222908 0.574542 0.671616
Si Si5 0.639309 0.885699 0.724098
Si Si6 0.717603 0.108525 0.698803
Si Si7 0.819649 0.401860 0.708882
Si Si8 0.217468 0.806669 0.545637
O O1 0.750326 0.433566 0.020171
O O2 0.337382 0.466518 0.416081
O O3 0.811858 0.213564 0.975433
O O4 0.577308 0.261497 0.967783
O O5 0.857338 0.249809 0.179615
O O6 0.508000 0.187463 0.274011
O O7 0.991255 0.971893 0.849177
O O8 0.505345 0.720875 0.352330
O O9 0.828155 0.537892 0.848515
O O10 0.035471 0.567046 0.883858
O O11 0.500000 0.500000 0.500000
O O12 0.932509 0.749015 0.483587
O O13 0.612046 0.002757 0.719578
O O14 0.500000 0.000000 0.000000
O O15 0.738971 0.151263 0.584775
O O16 0.000000 0.000000 0.500000
O O17 0.853714 0.317104 0.512311
O O18 0.500000 0.500000 0.000000
#
# Coordination Sequence:
#
# PCOD9082953 Si02
#       8
#     2   2   2   2   2   2   2   2
#     4  11  21  41  70  96 126 171 219 265 323 400
#     4  11  23  42  66  93 130 168 230 267 308 394
#     4  11  24  42  67  92 139 172 208 274 345 374
#     4  10  25  44  64  95 129 173 228 267 310 393
#     4  12  20  36  66  94 126 170 212 276 328 380
#     4  12  20  36  66 100 127 163 219 264 332 401
#     4  10  19  33  59  92 128 160 198 261 338 384
#     4  11  22  41  62  99 131 167 209 274 335 393
#
# _framework density 25.574964999999999
#
# number of rings (size 3 to 8) (size 9 to 14) (size 15 to 20)
#    0.000    1.000    6.250    1.500    0.000    2.500 
#    4.500    1.250    0.000    0.000    0.000    0.000 
#    0.000    0.000    0.000    0.000    0.000    0.000 
#
# Total GULP energy -89141.095099 kJ/mol
# GULP energy per Si atom -5571.318444 kJ/mol
# Density = 2.551675 g / cm^3
# Si number density = 25.574965 Si / 1000 Ang^3
#
#
#
# Elastic Constant Matrix: (Units=GPa)
#
#
# Indices 1 2 3 4 5 6 
#
# 1 18.8113 5.4770 15.3554 -1.2824 -5.8834 -8.0566
# 2 5.4770 120.1297 22.2479 -9.5714 -18.0354 -1.6425
# 3 15.3554 22.2479 125.0650 17.1669 -20.1755 3.8075
# 4 -1.2824 -9.5714 17.1669 48.3807 9.4400 -6.0614
# 5 -5.8834 -18.0354 -20.1755 9.4400 41.8292 3.0784
# 6 -8.0566 -1.6425 3.8075 -6.0614 3.0784 36.9806
#
#
#
# Elastic Compliance Matrix: (Units=1/GPa)
#
#
# Indices 1 2 3 4 5 6 
#
# 1 0.069554 -0.000277 -0.009600 0.006901 0.002219 0.017076
# 2 -0.000277 0.009171 -0.001420 0.001840 0.002774 0.000564
# 3 -0.009600 -0.001420 0.011253 -0.006138 0.005200 -0.004752
# 4 0.006901 0.001840 -0.006138 0.025748 -0.007527 0.007064
# 5 0.002219 0.002774 0.005200 -0.007527 0.029891 -0.003651
# 6 0.017076 0.000564 -0.004752 0.007064 -0.003651 0.032737
#
#
# Mechanical properties :
#
#
# Convention : Reuss Voigt Hill
#
# Bulk Modulus (GPa) = 14.83999 38.90741 26.87370
# Shear Modulus (GPa) = 22.38057 40.16648 31.27352
#
# Velocity S-wave (km/s) = 2.96141 3.96730 3.50067
# Velocity P-wave (km/s) = 4.18431 6.01931 5.18365
#
# Compressibility (1/GPa) = 0.06738549
#
# Stress axis : x y z
#
# Youngs Moduli (GPa) = 14.37733 109.04396 88.86341
#
# Poissons Ratio (x) = 0.03018 0.85306
# Poissons Ratio (y) = 0.00398 0.12616
# Poissons Ratio (z) = 0.13802 0.15481
#
# Static dielectric constant tensor:
#      x y z
#    x 2.256560 0.029670 0.078360 
#    y 0.029670 2.191900 -0.003210 
#    z 0.078360 -0.003210 2.079840 
# 
# From -- ./inp_files/521642.got.cif
#   From: 2010.05.17/outbox.cif.g08.bks.cpg/sg2_261_cif.got.tgz:521642.got - 2010.06.03 11:33:40.
