data_PCOD9082354
_publ_section_title
;
Structure prediction by ZEFSAII (Michael W. Deem and Ramdas Pophale) SiO2 
 PCOD9082354
Probable space group: P -1
;
_chemical_formula_sum "Si O2"
_cell_formula_units_Z 16
_cell_length_a 21.541482
_cell_length_b 21.831775
_cell_length_c 9.147869
_cell_angle_alpha 131.015745
_cell_angle_beta 141.861661
_cell_angle_gamma 20.286188
_cell_volume 851.865371
_symmetry_space_group_name_H-M "P -1"
_symmetry_group_IT_number 2
_symmetry_cell_setting 'triclinic'
loop_
_space_group_symop_operation_xyz
x,y,z
-x,-y,-z
loop_
_atom_site_type_symbol
_atom_site_label
_atom_site_fract_x
_atom_site_fract_y
_atom_site_fract_z
Si Si1 0.744983 0.090751 0.896019
Si Si2 0.721744 0.301477 0.184586
Si Si3 0.162280 0.065213 0.475534
Si Si4 0.851624 0.741467 0.322747
Si Si5 0.354879 0.128023 0.166957
Si Si6 0.627273 0.062722 0.044570
Si Si7 0.314248 0.311053 0.590950
Si Si8 0.026008 0.883482 0.359422
O O1 0.513958 0.224702 0.758461
O O2 0.759414 0.038458 0.685029
O O3 0.725335 0.201764 0.020539
O O4 0.978983 0.898263 0.125285
O O5 0.952204 0.170205 0.328073
O O6 0.750447 0.299948 0.409765
O O7 0.500000 0.500000 0.000000
O O8 0.077117 0.217666 0.515278
O O9 0.375375 0.919385 0.758915
O O10 0.061069 0.537165 0.459526
O O11 0.624509 0.915093 0.279624
O O12 0.778757 0.758206 0.055699
O O13 0.330727 0.217120 0.378003
O O14 0.272644 0.102070 0.040938
O O15 0.809336 0.994824 0.209524
O O16 0.391621 0.239730 0.789798
O O17 0.000000 0.000000 0.500000
#
# Coordination Sequence:
#
# PCOD9082354 Si02
#       8
#     2   2   2   2   2   2   2   2
#     4  10  19  34  57  78 104 147 184 216 274 333
#     4  10  19  33  54  81 108 140 183 227 267 323
#     4  10  19  37  54  78 112 145 178 226 280 318
#     4  10  21  35  57  81 110 144 182 232 265 324
#     4  10  20  37  55  79 113 144 182 223 279 317
#     4   9  20  34  56  78 111 144 177 228 275 319
#     4  11  20  36  58  82 105 146 190 219 272 327
#     4   8  17  34  55  78 105 144 181 213 276 324
#
# _framework density 18.782309000000001
#
# number of rings (size 3 to 8) (size 9 to 14) (size 15 to 20)
#    0.000    2.250    1.250    1.875    0.000    0.500 
#    0.000    1.875    2.750    0.000    0.000    0.000 
#    0.000    0.000    0.000    0.000    0.000    0.000 
#
# Total GULP energy -89152.813112 kJ/mol
# GULP energy per Si atom -5572.050820 kJ/mol
# Density = 1.873956 g / cm^3
# Si number density = 18.782309 Si / 1000 Ang^3
#
#
#
# Elastic Constant Matrix: (Units=GPa)
#
#
# Indices 1 2 3 4 5 6 
#
# 1 66.0546 24.1861 33.0934 5.3616 -7.1497 22.2998
# 2 24.1861 65.8752 65.7455 -8.3731 -31.2115 15.1981
# 3 33.0934 65.7455 132.9845 1.1656 -38.8009 19.9355
# 4 5.3616 -8.3731 1.1656 31.2191 11.8401 -6.4299
# 5 -7.1497 -31.2115 -38.8009 11.8401 52.8783 -3.5042
# 6 22.2998 15.1981 19.9355 -6.4299 -3.5042 19.7805
#
#
#
# Elastic Compliance Matrix: (Units=1/GPa)
#
#
# Indices 1 2 3 4 5 6 
#
# 1 0.029700 -0.004011 0.001063 -0.014854 0.003388 -0.035700
# 2 -0.004011 0.037037 -0.013613 0.006179 0.009514 -0.006521
# 3 0.001063 -0.013613 0.017373 -0.008896 0.006183 -0.010044
# 4 -0.014854 0.006179 -0.008896 0.048795 -0.013533 0.034428
# 5 0.003388 0.009514 0.006183 -0.013533 0.031480 -0.016183
# 6 -0.035700 -0.006521 -0.010044 0.034428 -0.016183 0.114259
#
#
# Mechanical properties :
#
#
# Convention : Reuss Voigt Hill
#
# Bulk Modulus (GPa) = 19.61322 56.77381 38.19351
# Shear Modulus (GPa) = 15.20861 30.23486 22.72174
#
# Velocity S-wave (km/s) = 2.84866 4.01652 3.48191
# Velocity P-wave (km/s) = 4.61356 7.19742 6.04515
#
# Compressibility (1/GPa) = 0.05098602
#
# Stress axis : x y z
#
# Youngs Moduli (GPa) = 33.67029 27.00033 57.56133
#
# Poissons Ratio (x) = 0.10831 -0.06117
# Poissons Ratio (y) = 0.13507 0.78357
# Poissons Ratio (z) = -0.03578 0.36755
#
# Static dielectric constant tensor:
#      x y z
#    x 1.679970 0.012390 -0.012920 
#    y 0.012390 1.598840 -0.012970 
#    z -0.012920 -0.012970 1.697010 
# 
# From -- ./inp_files/111591.got.cif
#   From: 2010.05.17/outbox.cif.g08.bks.cpg/sg2_56_cif.got.tgz:111591.got - 2010.06.03 11:33:40.
