data_PCOD9082803
_publ_section_title
;
Structure prediction by ZEFSAII (Michael W. Deem and Ramdas Pophale) SiO2 
 PCOD9082803
Probable space group: P -1
;
_chemical_formula_sum "Si O2"
_cell_formula_units_Z 16
_cell_length_a 10.823975
_cell_length_b 12.294921
_cell_length_c 12.026105
_cell_angle_alpha 51.454683
_cell_angle_beta 102.934774
_cell_angle_gamma 141.292780
_cell_volume 660.540668
_symmetry_space_group_name_H-M "P -1"
_symmetry_group_IT_number 2
_symmetry_cell_setting 'triclinic'
loop_
_space_group_symop_operation_xyz
x,y,z
-x,-y,-z
loop_
_atom_site_type_symbol
_atom_site_label
_atom_site_fract_x
_atom_site_fract_y
_atom_site_fract_z
Si Si1 0.831232 0.291481 0.469107
Si Si2 0.461254 0.124245 0.141263
Si Si3 0.405534 0.496104 0.741506
Si Si4 0.789146 0.219618 0.074492
Si Si5 0.853692 0.757935 0.697756
Si Si6 0.752582 0.064558 0.389920
Si Si7 0.134822 0.321217 0.016228
Si Si8 0.961268 0.705246 0.329741
O O1 0.759010 0.199229 0.388333
O O2 0.903960 0.514911 0.365603
O O3 0.018978 0.346168 0.511021
O O4 0.631670 0.066659 0.660101
O O5 0.586348 0.146002 0.058130
O O6 0.654575 0.397647 0.063067
O O7 0.220978 0.986430 0.162010
O O8 0.581495 0.529321 0.763454
O O9 0.238315 0.353215 0.905453
O O10 0.233692 0.359836 0.689533
O O11 0.586146 0.794689 0.583310
O O12 0.681577 0.023953 0.274968
O O13 0.000000 0.500000 0.000000
O O14 0.920035 0.231322 0.013454
O O15 0.976556 0.730441 0.701383
O O16 0.910433 0.827613 0.796271
O O17 0.000000 0.000000 0.500000
#
# Coordination Sequence:
#
# PCOD9082803 Si02
#       8
#     2   2   2   2   2   2   2   2
#     4   9  18  33  52  80 112 140 174 211 263 317
#     4   9  17  34  49  77 114 139 166 215 265 312
#     4  11  19  34  58  81 102 140 182 219 264 312
#     4   9  19  30  50  77 108 134 174 217 254 316
#     4   9  21  37  55  81 105 132 177 236 261 298
#     4  10  19  33  58  77 103 141 183 216 266 308
#     4  10  19  34  57  80 104 137 180 218 266 313
#     4   9  20  31  50  83 114 139 170 215 261 318
#
# _framework density 24.222580000000001
#
# number of rings (size 3 to 8) (size 9 to 14) (size 15 to 20)
#    0.750    1.750    1.250    1.125    3.500    1.000 
#    0.000    1.875    0.000    0.000    0.000    0.000 
#    0.000    0.000    0.000    0.000    0.000    0.000 
#
# Total GULP energy -89162.750690 kJ/mol
# GULP energy per Si atom -5572.671918 kJ/mol
# Density = 2.416745 g / cm^3
# Si number density = 24.222580 Si / 1000 Ang^3
#
#
#
# Elastic Constant Matrix: (Units=GPa)
#
#
# Indices 1 2 3 4 5 6 
#
# 1 64.1317 16.6484 8.5540 -3.5502 -29.9019 36.7128
# 2 16.6484 47.3013 0.4313 -1.8567 -12.5786 20.0278
# 3 8.5540 0.4313 97.7242 18.7318 -1.1144 -8.5246
# 4 -3.5502 -1.8567 18.7318 16.3579 2.6759 -0.3309
# 5 -29.9019 -12.5786 -1.1144 2.6759 42.0945 -14.0079
# 6 36.7128 20.0278 -8.5246 -0.3309 -14.0079 38.2410
#
#
#
# Elastic Compliance Matrix: (Units=1/GPa)
#
#
# Indices 1 2 3 4 5 6 
#
# 1 0.062432 0.011374 -0.015681 0.027382 0.025714 -0.059733
# 2 0.011374 0.030246 -0.005107 0.009925 0.008081 -0.024852
# 3 -0.015681 -0.005107 0.017791 -0.023287 -0.004056 0.020008
# 4 0.027382 0.009925 -0.023287 0.093445 0.004469 -0.034232
# 5 0.025714 0.008081 -0.004056 0.004469 0.038872 -0.015545
# 6 -0.059733 -0.024852 0.020008 -0.034232 -0.015545 0.094981
#
#
# Mechanical properties :
#
#
# Convention : Reuss Voigt Hill
#
# Bulk Modulus (GPa) = 10.91239 28.93604 19.92422
# Shear Modulus (GPa) = 12.91513 31.57357 22.24435
#
# Velocity S-wave (km/s) = 2.31159 3.61429 3.03369
# Velocity P-wave (km/s) = 3.41166 5.42119 4.52927
#
# Compressibility (1/GPa) = 0.09163892
#
# Stress axis : x y z
#
# Youngs Moduli (GPa) = 16.01749 33.06258 56.20885
#
# Poissons Ratio (x) = -0.37604 0.88141
# Poissons Ratio (y) = -0.18218 0.28707
# Poissons Ratio (z) = 0.25117 0.16886
#
# Static dielectric constant tensor:
#      x y z
#    x 2.033820 0.121700 0.044870 
#    y 0.121700 1.955910 -0.003380 
#    z 0.044870 -0.003380 1.981240 
# 
# From -- ./inp_files/520816.got.cif
#   From: 2010.05.17/outbox.cif.g08.bks.cpg/sg2_261_cif.got.tgz:520816.got - 2010.06.03 11:33:40.
