data_PCOD9082072
_publ_section_title
;
Structure prediction by ZEFSAII (Michael W. Deem and Ramdas Pophale) SiO2 
 PCOD9082072
Probable space group: P -1
;
_chemical_formula_sum "Si O2"
_cell_formula_units_Z 16
_cell_length_a 13.618404
_cell_length_b 14.823638
_cell_length_c 11.815758
_cell_angle_alpha 137.081953
_cell_angle_beta 148.945067
_cell_angle_gamma 48.076792
_cell_volume 832.234514
_symmetry_space_group_name_H-M "P -1"
_symmetry_group_IT_number 2
_symmetry_cell_setting 'triclinic'
loop_
_space_group_symop_operation_xyz
x,y,z
-x,-y,-z
loop_
_atom_site_type_symbol
_atom_site_label
_atom_site_fract_x
_atom_site_fract_y
_atom_site_fract_z
Si Si1 0.157343 0.797138 0.159984
Si Si2 0.080770 0.367623 0.886330
Si Si3 0.553356 0.069555 0.000298
Si Si4 0.677317 0.353975 0.433355
Si Si5 0.930916 0.901898 0.246357
Si Si6 0.418182 0.021538 0.586684
Si Si7 0.638972 0.447579 0.742263
Si Si8 0.170862 0.085687 0.208437
O O1 0.262065 0.651550 0.158686
O O2 0.091967 0.859802 0.274690
O O3 0.316605 0.885618 0.350859
O O4 0.960101 0.807797 0.901645
O O5 0.900361 0.334499 0.606073
O O6 0.130849 0.235401 0.888731
O O7 0.000000 0.500000 0.000000
O O8 0.251704 0.421162 0.038490
O O9 0.590926 0.219718 0.196777
O O10 0.752226 0.983628 0.084928
O O11 0.412813 0.062042 0.749631
O O12 0.500000 0.000000 0.000000
O O13 0.654234 0.377688 0.568635
O O14 0.578811 0.488451 0.401478
O O15 0.000000 0.000000 0.500000
O O16 0.282948 0.123898 0.467706
O O17 0.641331 0.993594 0.741660
O O18 0.000000 0.000000 0.000000
#
# Coordination Sequence:
#
# PCOD9082072 Si02
#       8
#     2   2   2   2   2   2   2   2
#     4  11  20  35  56  86 112 148 199 247 289 342
#     4  10  19  33  48  72 114 158 193 225 277 338
#     4  12  22  34  55  86 123 156 186 234 302 358
#     4  10  20  34  47  75 114 157 189 231 275 345
#     4  12  20  33  52  83 125 155 191 238 287 351
#     4  10  21  36  59  87 116 150 190 246 302 346
#     4  10  20  34  53  75 116 158 200 229 277 353
#     4   9  20  39  59  83 113 148 199 250 296 334
#
# _framework density 19.225351
#
# number of rings (size 3 to 8) (size 9 to 14) (size 15 to 20)
#    0.000    1.500    5.000    2.250    0.000    3.000 
#    0.000    0.000    0.000    0.750    0.000    8.750 
#    0.000    0.000    0.000    0.000    0.000    0.000 
#
# Total GULP energy -89083.051554 kJ/mol
# GULP energy per Si atom -5567.690722 kJ/mol
# Density = 1.918159 g / cm^3
# Si number density = 19.225351 Si / 1000 Ang^3
#
#
#
# Elastic Constant Matrix: (Units=GPa)
#
#
# Indices 1 2 3 4 5 6 
#
# 1 48.4775 14.9939 22.0832 -5.4591 5.6594 6.9035
# 2 14.9939 143.6031 51.8086 -19.0663 -4.8124 6.1424
# 3 22.0832 51.8086 104.9115 -16.0636 -8.2945 12.8603
# 4 -5.4591 -19.0663 -16.0636 39.9644 6.9091 1.2065
# 5 5.6594 -4.8124 -8.2945 6.9091 28.7978 -10.9526
# 6 6.9035 6.1424 12.8603 1.2065 -10.9526 21.5205
#
#
#
# Elastic Compliance Matrix: (Units=1/GPa)
#
#
# Indices 1 2 3 4 5 6 
#
# 1 0.026275 -0.000616 -0.004054 0.004119 -0.012063 -0.012200
# 2 -0.000616 0.008740 -0.003765 0.002627 -0.000256 -0.000325
# 3 -0.004054 -0.003765 0.013435 0.002966 0.001379 -0.005118
# 4 0.004119 0.002627 0.002966 0.030272 -0.011019 -0.011149
# 5 -0.012063 -0.000256 0.001379 -0.011019 0.051479 0.029936
# 6 -0.012200 -0.000325 -0.005118 -0.011149 0.029936 0.069393
#
#
# Mechanical properties :
#
#
# Convention : Reuss Voigt Hill
#
# Bulk Modulus (GPa) = 31.66523 52.75151 42.20837
# Shear Modulus (GPa) = 22.02732 31.93028 26.97880
#
# Velocity S-wave (km/s) = 3.38856 4.07976 3.75012
# Velocity P-wave (km/s) = 5.64057 7.04916 6.38384
#
# Compressibility (1/GPa) = 0.03158038
#
# Stress axis : x y z
#
# Youngs Moduli (GPa) = 38.05908 114.41305 74.43309
#
# Poissons Ratio (x) = 0.07052 0.30173
# Poissons Ratio (y) = 0.02346 0.28022
# Poissons Ratio (z) = 0.15428 0.43074
#
# Static dielectric constant tensor:
#      x y z
#    x 1.784050 -0.006630 0.032860 
#    y -0.006630 1.704190 -0.057220 
#    z 0.032860 -0.057220 1.728740 
# 
# From -- ./inp_files/455980.got.cif
#   From: 2010.05.17/outbox.cif.g08.bks.cpg/sg2_228_cif.got.tgz:455980.got - 2010.06.03 11:33:40.
