data_PCOD9082587
_publ_section_title
;
Structure prediction by ZEFSAII (Michael W. Deem and Ramdas Pophale) SiO2 
 PCOD9082587
Probable space group: P -1
;
_chemical_formula_sum "Si O2"
_cell_formula_units_Z 13
_cell_length_a 15.394987
_cell_length_b 7.139096
_cell_length_c 9.675092
_cell_angle_alpha 103.271737
_cell_angle_beta 37.352475
_cell_angle_gamma 119.180070
_cell_volume 537.639932
_symmetry_space_group_name_H-M "P -1"
_symmetry_group_IT_number 2
_symmetry_cell_setting 'triclinic'
loop_
_space_group_symop_operation_xyz
x,y,z
-x,-y,-z
loop_
_atom_site_type_symbol
_atom_site_label
_atom_site_fract_x
_atom_site_fract_y
_atom_site_fract_z
Si Si1 0.377557 0.995234 0.338869
Si Si2 0.166767 0.020756 0.847701
Si Si3 0.000000 0.500000 0.000000
Si Si4 0.726687 0.112479 0.863828
Si Si5 0.667534 0.686837 0.048398
Si Si6 0.294413 0.516935 0.491631
Si Si7 0.918330 0.734949 0.536245
O O1 0.289923 0.072187 0.571899
O O2 0.302885 0.952531 0.271846
O O3 0.335174 0.750883 0.406393
O O4 0.577889 0.151181 0.103940
O O5 0.113677 0.773181 0.927609
O O6 0.249960 0.204723 0.892432
O O7 0.000000 0.000000 0.000000
O O8 0.175314 0.490708 0.764162
O O9 0.921706 0.295126 0.673027
O O10 0.687882 0.892638 0.962726
O O11 0.468801 0.527602 0.289326
O O12 0.779394 0.611140 0.809672
O O13 0.176811 0.331152 0.498426
O O14 0.000000 0.000000 0.500000
#
# Coordination Sequence:
#
# PCOD9082587 Si02
#       7
#     2   2   1   2   2   2   2
#     4   9  20  36  58  90 124 157 205 258 310 374
#     4  11  23  42  66  94 128 166 211 260 313 374
#     4  10  22  40  64  90 126 166 206 256 310 370
#     4   9  18  35  58  87 117 159 203 247 312 370
#     4  10  21  37  61  90 124 166 208 257 317 374
#     4  10  21  36  58  89 124 166 210 258 316 374
#     4  10  19  33  56  83 114 155 205 253 303 366
#
# _framework density 24.179749999999999
#
# number of rings (size 3 to 8) (size 9 to 14) (size 15 to 20)
#    0.000    2.154    0.000    3.231    0.000    8.615 
#    0.000    3.846    0.000    3.692    0.000    0.000 
#    0.000    0.000    0.000    0.000    0.000    0.000 
#
# Total GULP energy -72434.692104 kJ/mol
# GULP energy per Si atom -5571.899393 kJ/mol
# Density = 2.412472 g / cm^3
# Si number density = 24.179750 Si / 1000 Ang^3
#
#
#
# Elastic Constant Matrix: (Units=GPa)
#
#
# Indices 1 2 3 4 5 6 
#
# 1 85.7071 7.3637 41.2932 -5.4266 -20.4616 13.7554
# 2 7.3637 41.2798 3.4984 -15.2741 -8.1824 -4.9199
# 3 41.2932 3.4984 181.8057 4.3789 -42.6645 7.7593
# 4 -5.4266 -15.2741 4.3789 43.6033 1.8754 -0.2851
# 5 -20.4616 -8.1824 -42.6645 1.8754 53.4927 -12.8435
# 6 13.7554 -4.9199 7.7593 -0.2851 -12.8435 31.9908
#
#
#
# Elastic Compliance Matrix: (Units=1/GPa)
#
#
# Indices 1 2 3 4 5 6 
#
# 1 0.014458 -0.002172 -0.002622 0.001190 0.001823 -0.005172
# 2 -0.002172 0.030411 0.000721 0.010106 0.005942 0.007911
# 3 -0.002622 0.000721 0.007293 -0.001025 0.005345 0.001607
# 4 0.001190 0.010106 -0.001025 0.026708 0.000680 0.001802
# 5 0.001823 0.005942 0.005345 0.000680 0.026849 0.009619
# 6 -0.005172 0.007911 0.001607 0.001802 0.009619 0.038188
#
#
# Mechanical properties :
#
#
# Convention : Reuss Voigt Hill
#
# Bulk Modulus (GPa) = 22.71835 45.90033 34.30934
# Shear Modulus (GPa) = 29.98957 42.92651 36.45804
#
# Velocity S-wave (km/s) = 3.52558 4.21801 3.88724
# Velocity P-wave (km/s) = 5.09793 6.53807 5.86239
#
# Compressibility (1/GPa) = 0.04401729
#
# Stress axis : x y z
#
# Youngs Moduli (GPa) = 69.16450 32.88244 137.12530
#
# Poissons Ratio (x) = 0.07141 0.35956
# Poissons Ratio (y) = 0.15020 -0.09891
# Poissons Ratio (z) = 0.18136 -0.02372
#
# Static dielectric constant tensor:
#      x y z
#    x 1.915530 -0.080620 -0.008360 
#    y -0.080620 1.900620 -0.046190 
#    z -0.008360 -0.046190 1.930400 
# 
# From -- ./inp_files/167424.got.cif
#   From: 2010.05.17/outbox.cif.g08.bks.cpg/sg2_84_cif.got.tgz:167424.got - 2010.06.03 11:33:40.
