data_PCOD9082597
_publ_section_title
;
Structure prediction by ZEFSAII (Michael W. Deem and Ramdas Pophale) SiO2 
 PCOD9082597
Probable space group: P -1
;
_chemical_formula_sum "Si O2"
_cell_formula_units_Z 16
_cell_length_a 5.838318
_cell_length_b 11.860152
_cell_length_c 19.916221
_cell_angle_alpha 40.254673
_cell_angle_beta 63.512091
_cell_angle_gamma 53.269827
_cell_volume 714.064096
_symmetry_space_group_name_H-M "P -1"
_symmetry_group_IT_number 2
_symmetry_cell_setting 'triclinic'
loop_
_space_group_symop_operation_xyz
x,y,z
-x,-y,-z
loop_
_atom_site_type_symbol
_atom_site_label
_atom_site_fract_x
_atom_site_fract_y
_atom_site_fract_z
Si Si1 0.283844 0.347857 0.745387
Si Si2 0.241365 0.102896 0.356306
Si Si3 0.763172 0.019206 0.110643
Si Si4 0.420988 0.823421 0.075725
Si Si5 0.918784 0.398587 0.151388
Si Si6 0.651392 0.293368 0.432821
Si Si7 0.177634 0.663386 0.959594
Si Si8 0.381482 0.377554 0.289641
O O1 0.349141 0.144958 0.792234
O O2 0.433692 0.303655 0.818578
O O3 0.370808 0.504184 0.627874
O O4 0.943981 0.468301 0.748722
O O5 0.445071 0.176623 0.334609
O O6 0.141449 0.220225 0.247097
O O7 0.956484 0.190936 0.400357
O O8 0.356039 0.871963 0.443373
O O9 0.084305 0.895118 0.098762
O O10 0.809062 0.139741 0.110508
O O11 0.574536 0.176296 0.007474
O O12 0.500000 0.000000 0.000000
O O13 0.930175 0.335172 0.102111
O O14 0.602429 0.447786 0.196932
O O15 0.994653 0.580923 0.065568
O O16 0.429906 0.339313 0.379729
O O17 0.500000 0.500000 0.000000
#
# Coordination Sequence:
#
# PCOD9082597 Si02
#       8
#     2   2   2   2   2   2   2   2
#     4  10  20  33  54  84 117 146 177 221 275 335
#     4   9  18  33  54  80 113 147 180 225 274 325
#     4  10  22  37  54  77 109 145 184 227 277 328
#     4   9  20  34  52  79 108 143 179 221 274 330
#     4  10  23  38  55  79 111 147 188 233 271 320
#     4   9  18  31  52  85 115 142 179 222 275 331
#     4  11  25  41  57  79 106 147 193 231 272 323
#     4  10  19  33  56  84 115 148 179 220 277 332
#
# _framework density 22.406952
#
# number of rings (size 3 to 8) (size 9 to 14) (size 15 to 20)
#    0.000    2.250    0.000    1.875    0.000   22.000 
#    0.000    0.000    0.000    0.750    0.000    7.000 
#    0.000    0.000    0.000    0.000    0.000    0.000 
#
# Total GULP energy -89275.990328 kJ/mol
# GULP energy per Si atom -5579.749395 kJ/mol
# Density = 2.235595 g / cm^3
# Si number density = 22.406952 Si / 1000 Ang^3
#
#
#
# Elastic Constant Matrix: (Units=GPa)
#
#
# Indices 1 2 3 4 5 6 
#
# 1 105.0498 13.3707 47.0072 -15.6865 -2.4239 12.9988
# 2 13.3707 46.5130 28.8577 -21.8007 -10.5149 32.8531
# 3 47.0072 28.8577 131.7710 -39.8501 -5.1060 23.9742
# 4 -15.6865 -21.8007 -39.8501 35.0991 10.8977 -10.1243
# 5 -2.4239 -10.5149 -5.1060 10.8977 25.1061 -12.6085
# 6 12.9988 32.8531 23.9742 -10.1243 -12.6085 51.1719
#
#
#
# Elastic Compliance Matrix: (Units=1/GPa)
#
#
# Indices 1 2 3 4 5 6 
#
# 1 0.011397 0.000147 -0.003620 0.000896 -0.000598 -0.001263
# 2 0.000147 0.055297 0.002404 0.029514 -0.005283 -0.032127
# 3 -0.003620 0.002404 0.013990 0.016108 -0.006270 -0.005536
# 4 0.000896 0.029514 0.016108 0.067146 -0.023019 -0.019110
# 5 -0.000598 -0.005283 -0.006270 -0.023019 0.053917 0.015211
# 6 -0.001263 -0.032127 -0.005536 -0.019110 0.015211 0.043050
#
#
# Mechanical properties :
#
#
# Convention : Reuss Voigt Hill
#
# Bulk Modulus (GPa) = 12.73174 51.31168 32.02171
# Shear Modulus (GPa) = 18.30721 35.21529 26.76125
#
# Velocity S-wave (km/s) = 2.86148 3.96867 3.45965
# Velocity P-wave (km/s) = 4.07576 6.62949 5.50281
#
# Compressibility (1/GPa) = 0.07854386
#
# Stress axis : x y z
#
# Youngs Moduli (GPa) = 87.74356 18.08421 71.48176
#
# Poissons Ratio (x) = -0.00266 0.25879
# Poissons Ratio (y) = -0.01289 -0.17182
# Poissons Ratio (z) = 0.31766 -0.04347
#
# Static dielectric constant tensor:
#      x y z
#    x 1.894720 -0.018640 -0.036500 
#    y -0.018640 2.106100 -0.148180 
#    z -0.036500 -0.148180 1.924640 
# 
# From -- ./inp_files/583256.got.cif
#   From: 2010.05.17/outbox.cif.g08.bks.cpg/sg2_292_cif.got.tgz:583256.got - 2010.06.03 11:33:40.
