data_PCOD9082403
_publ_section_title
;
Structure prediction by ZEFSAII (Michael W. Deem and Ramdas Pophale) SiO2 
 PCOD9082403
Probable space group: P -1
;
_chemical_formula_sum "Si O2"
_cell_formula_units_Z 16
_cell_length_a 14.548140
_cell_length_b 11.632486
_cell_length_c 9.544607
_cell_angle_alpha 60.732858
_cell_angle_beta 39.170672
_cell_angle_gamma 82.640712
_cell_volume 792.364261
_symmetry_space_group_name_H-M "P -1"
_symmetry_group_IT_number 2
_symmetry_cell_setting 'triclinic'
loop_
_space_group_symop_operation_xyz
x,y,z
-x,-y,-z
loop_
_atom_site_type_symbol
_atom_site_label
_atom_site_fract_x
_atom_site_fract_y
_atom_site_fract_z
Si Si1 0.890743 0.558736 0.918962
Si Si2 0.318271 0.218371 0.608208
Si Si3 0.678296 0.536178 0.708293
Si Si4 0.286187 0.645162 0.993352
Si Si5 0.648268 0.666104 0.191898
Si Si6 0.657757 0.046360 0.189047
Si Si7 0.225414 0.611244 0.563201
Si Si8 0.509456 0.885709 0.167401
O O1 0.084299 0.630682 0.636153
O O2 0.810569 0.416546 0.998526
O O3 0.790090 0.649004 0.952495
O O4 0.852798 0.517236 0.152517
O O5 0.251449 0.296371 0.530090
O O6 0.517337 0.290074 0.307058
O O7 0.295652 0.266396 0.761010
O O8 0.251837 0.042364 0.797676
O O9 0.674698 0.434921 0.639678
O O10 0.500000 0.500000 0.000000
O O11 0.763083 0.489232 0.759289
O O12 0.256793 0.777245 0.013434
O O13 0.500000 0.500000 0.500000
O O14 0.600714 0.782028 0.100630
O O15 0.500000 0.000000 0.500000
O O16 0.586617 0.975898 0.163872
O O17 0.326370 0.754158 0.453742
O O18 0.500000 0.000000 0.000000
#
# Coordination Sequence:
#
# PCOD9082403 Si02
#       8
#     2   2   2   2   2   2   2   2
#     4  11  22  36  62  90 120 161 197 250 293 353
#     4   9  16  30  53  81 107 145 196 239 279 334
#     4  10  20  33  55  85 116 148 191 252 294 341
#     4  10  19  33  54  85 115 152 189 242 298 342
#     4  11  17  34  61  86 114 150 210 246 280 345
#     4   9  18  32  52  81 114 147 188 239 286 346
#     4  11  22  38  59  91 122 154 205 244 300 355
#     4  11  22  36  61  91 116 153 199 256 293 349
#
# _framework density 20.192734000000002
#
# number of rings (size 3 to 8) (size 9 to 14) (size 15 to 20)
#    0.000    1.750    3.750    2.250    1.750    0.500 
#    0.000    0.625    0.000    0.750   16.250    0.000 
#    0.000    0.000    0.000    0.000    0.000    0.000 
#
# Total GULP energy -89069.475379 kJ/mol
# GULP energy per Si atom -5566.842211 kJ/mol
# Density = 2.014677 g / cm^3
# Si number density = 20.192734 Si / 1000 Ang^3
#
#
#
# Elastic Constant Matrix: (Units=GPa)
#
#
# Indices 1 2 3 4 5 6 
#
# 1 84.3868 61.4390 24.1335 -5.9475 11.3709 -17.5763
# 2 61.4390 155.6220 32.3103 -1.5621 5.2125 -20.4179
# 3 24.1335 32.3103 28.1633 3.7115 15.3437 -10.2397
# 4 -5.9475 -1.5621 3.7115 21.4589 -4.1306 18.4275
# 5 11.3709 5.2125 15.3437 -4.1306 31.2581 -6.0001
# 6 -17.5763 -20.4179 -10.2397 18.4275 -6.0001 33.6954
#
#
#
# Elastic Compliance Matrix: (Units=1/GPa)
#
#
# Indices 1 2 3 4 5 6 
#
# 1 0.019492 -0.005113 -0.013217 0.008935 0.001117 -0.001635
# 2 -0.005113 0.010644 -0.011420 0.002458 0.006024 0.000041
# 3 -0.013217 -0.011420 0.126020 -0.093303 -0.054858 0.065739
# 4 0.008935 0.002458 -0.093303 0.162516 0.043789 -0.103284
# 5 0.001117 0.006024 -0.054858 0.043789 0.058304 -0.026004
# 6 -0.001635 0.000041 0.065739 -0.103284 -0.026004 0.100681
#
#
# Mechanical properties :
#
#
# Convention : Reuss Voigt Hill
#
# Bulk Modulus (GPa) = 10.34615 55.99307 33.16961
# Shear Modulus (GPa) = 8.78155 27.30178 18.04166
#
# Velocity S-wave (km/s) = 2.08766 3.68103 2.99234
# Velocity P-wave (km/s) = 3.30846 6.77171 5.32926
#
# Compressibility (1/GPa) = 0.09665432
#
# Stress axis : x y z
#
# Youngs Moduli (GPa) = 51.30436 93.95035 7.93525
#
# Poissons Ratio (x) = 0.48041 0.10488
# Poissons Ratio (y) = 0.26234 0.09062
# Poissons Ratio (z) = 0.67807 1.07295
#
# Static dielectric constant tensor:
#      x y z
#    x 1.736780 -0.057870 0.058050 
#    y -0.057870 1.769500 -0.006210 
#    z 0.058050 -0.006210 1.737490 
# 
# From -- ./inp_files/304714.got.cif
#   From: 2010.05.17/outbox.cif.g08.bks.cpg/sg2_153_cif.got.tgz:304714.got - 2010.06.03 11:33:40.
