data_PCOD9082041
_publ_section_title
;
Structure prediction by ZEFSAII (Michael W. Deem and Ramdas Pophale) SiO2 
 PCOD9082041
Probable space group: P -1
;
_chemical_formula_sum "Si O2"
_cell_formula_units_Z 16
_cell_length_a 20.176803
_cell_length_b 9.510119
_cell_length_c 11.792746
_cell_angle_alpha 67.766645
_cell_angle_beta 139.441837
_cell_angle_gamma 81.251664
_cell_volume 930.340981
_symmetry_space_group_name_H-M "P -1"
_symmetry_group_IT_number 2
_symmetry_cell_setting 'triclinic'
loop_
_space_group_symop_operation_xyz
x,y,z
-x,-y,-z
loop_
_atom_site_type_symbol
_atom_site_label
_atom_site_fract_x
_atom_site_fract_y
_atom_site_fract_z
Si Si1 0.174381 0.847161 0.271956
Si Si2 0.642728 0.907619 0.457797
Si Si3 0.672275 0.628160 0.397200
Si Si4 0.334653 0.075130 0.064232
Si Si5 0.351243 0.760655 0.739556
Si Si6 0.801201 0.853829 0.898487
Si Si7 0.668234 0.071428 0.117397
Si Si8 0.141919 0.409049 0.528946
O O1 0.269450 0.601608 0.424680
O O2 0.229263 0.822487 0.478589
O O3 0.203658 0.965488 0.200539
O O4 0.000000 0.000000 0.000000
O O5 0.707376 0.716286 0.510376
O O6 0.484399 0.009305 0.260067
O O7 0.625717 0.091339 0.320807
O O8 0.746274 0.819008 0.728849
O O9 0.756573 0.577386 0.406388
O O10 0.493775 0.820720 0.092710
O O11 0.302417 0.066735 0.152647
O O12 0.199249 0.321207 0.758333
O O13 0.341339 0.920948 0.034689
O O14 0.311148 0.813366 0.804772
O O15 0.500000 0.500000 0.000000
O O16 0.970311 0.629665 0.221024
O O17 0.803037 0.807258 0.392796
#
# Coordination Sequence:
#
# PCOD9082041 Si02
#       8
#     2   2   2   2   2   2   2   2
#     4  11  24  35  55  84 120 147 173 239 291 327
#     4  10  21  35  59  85 113 147 187 236 278 331
#     4  11  18  37  57  85 112 145 189 229 290 328
#     4   9  20  37  60  80 113 152 194 219 274 337
#     4  11  20  34  59  87 112 139 192 235 278 327
#     4  11  22  37  55  88 115 149 188 227 279 337
#     4   9  19  33  58  86 103 147 187 237 267 322
#     4  10  19  32  62  78 109 145 188 231 268 328
#
# _framework density 17.197994999999999
#
# number of rings (size 3 to 8) (size 9 to 14) (size 15 to 20)
#    0.750    1.000    3.750    1.875    0.000    1.500 
#    0.000    2.500    2.750    0.750    0.000    0.000 
#    0.000    0.000    0.000    0.000    0.000    0.000 
#
# Total GULP energy -89074.384801 kJ/mol
# GULP energy per Si atom -5567.149050 kJ/mol
# Density = 1.715885 g / cm^3
# Si number density = 17.197995 Si / 1000 Ang^3
#
#
#
# Elastic Constant Matrix: (Units=GPa)
#
#
# Indices 1 2 3 4 5 6 
#
# 1 56.8810 22.7395 8.6257 15.3448 -7.2325 -5.8122
# 2 22.7395 98.2042 19.8551 3.0980 -9.7671 4.4080
# 3 8.6257 19.8551 47.6500 14.1261 -5.3898 6.9598
# 4 15.3448 3.0980 14.1261 29.5105 -5.2833 -4.1347
# 5 -7.2325 -9.7671 -5.3898 -5.2833 19.4367 1.5001
# 6 -5.8122 4.4080 6.9598 -4.1347 1.5001 16.3505
#
#
#
# Elastic Compliance Matrix: (Units=1/GPa)
#
#
# Indices 1 2 3 4 5 6 
#
# 1 0.023447 -0.005184 0.000330 -0.010350 0.002880 0.006711
# 2 -0.005184 0.012769 -0.004672 0.004019 0.004492 -0.002692
# 3 0.000330 -0.004672 0.030206 -0.015797 0.003073 -0.015758
# 4 -0.010350 0.004019 -0.015797 0.049459 0.006158 0.013904
# 5 0.002880 0.004492 0.003073 0.006158 0.057708 -0.005233
# 6 0.006711 -0.002692 -0.015758 0.013904 -0.005233 0.074975
#
#
# Mechanical properties :
#
#
# Convention : Reuss Voigt Hill
#
# Bulk Modulus (GPa) = 21.11123 33.90841 27.50982
# Shear Modulus (GPa) = 17.64253 23.16053 20.40153
#
# Velocity S-wave (km/s) = 3.20636 3.67372 3.44797
# Velocity P-wave (km/s) = 5.09997 6.14445 5.64641
#
# Compressibility (1/GPa) = 0.04736815
#
# Stress axis : x y z
#
# Youngs Moduli (GPa) = 42.64941 78.31649 33.10613
#
# Poissons Ratio (x) = 0.40600 -0.01091
# Poissons Ratio (y) = 0.22110 0.15467
# Poissons Ratio (z) = -0.01405 0.36590
#
# Static dielectric constant tensor:
#      x y z
#    x 1.574610 -0.000030 -0.016300 
#    y -0.000030 1.609420 0.008500 
#    z -0.016300 0.008500 1.581060 
# 
# From -- ./inp_files/307818.got.cif
#   From: 2010.05.17/outbox.cif.g08.bks.cpg/sg2_154_cif.got.tgz:307818.got - 2010.06.03 11:33:40.
