data_PCOD9082343
_publ_section_title
;
Structure prediction by ZEFSAII (Michael W. Deem and Ramdas Pophale) SiO2 
 PCOD9082343
Probable space group: P -1
;
_chemical_formula_sum "Si O2"
_cell_formula_units_Z 16
_cell_length_a 14.964757
_cell_length_b 15.014108
_cell_length_c 9.672243
_cell_angle_alpha 57.852711
_cell_angle_beta 110.654975
_cell_angle_gamma 153.972629
_cell_volume 760.014356
_symmetry_space_group_name_H-M "P -1"
_symmetry_group_IT_number 2
_symmetry_cell_setting 'triclinic'
loop_
_space_group_symop_operation_xyz
x,y,z
-x,-y,-z
loop_
_atom_site_type_symbol
_atom_site_label
_atom_site_fract_x
_atom_site_fract_y
_atom_site_fract_z
Si Si1 0.637871 0.898012 0.811743
Si Si2 0.375294 0.788209 0.932182
Si Si3 0.029241 0.919309 0.504895
Si Si4 0.504410 0.715731 0.599423
Si Si5 0.945753 0.027996 0.824687
Si Si6 0.275824 0.387699 0.984213
Si Si7 0.456576 0.102955 0.773456
Si Si8 0.009516 0.267295 0.117826
O O1 0.580606 0.938609 0.842179
O O2 0.585961 0.869164 0.645840
O O3 0.862012 0.057889 0.804949
O O4 0.462996 0.632844 0.969280
O O5 0.380164 0.917968 0.815560
O O6 0.163450 0.521008 0.977691
O O7 0.397417 0.782294 0.111072
O O8 0.282948 0.138643 0.449246
O O9 0.932390 0.834294 0.367704
O O10 0.000000 0.000000 0.500000
O O11 0.935761 0.736467 0.704100
O O12 0.326173 0.468555 0.784982
O O13 0.434727 0.716378 0.431862
O O14 0.741552 0.752913 0.885051
O O15 0.000000 0.000000 0.000000
O O16 0.064609 0.236906 0.054613
O O17 0.239732 0.946139 0.838734
#
# Coordination Sequence:
#
# PCOD9082343 Si02
#       8
#     2   2   2   2   2   2   2   2
#     4   8  19  35  52  75 104 146 179 210 272 326
#     4  10  21  36  60  82 109 147 182 231 282 325
#     4  10  19  33  54  80 110 146 182 222 270 325
#     4   8  19  34  55  78 105 148 178 227 269 323
#     4  11  21  30  52  83 111 139 179 224 268 323
#     4   9  18  35  55  75 106 149 176 220 268 328
#     4  10  21  37  59  84 111 136 191 236 274 323
#     4  10  20  37  60  79 112 150 182 224 277 332
#
# _framework density 21.052233000000001
#
# number of rings (size 3 to 8) (size 9 to 14) (size 15 to 20)
#    0.750    1.750    1.250    0.750    1.750    1.500 
#    0.000    0.000    0.000    6.000    0.000    0.000 
#    0.000    0.000    0.000    0.000    0.000    0.000 
#
# Total GULP energy -89080.929473 kJ/mol
# GULP energy per Si atom -5567.558092 kJ/mol
# Density = 2.100432 g / cm^3
# Si number density = 21.052233 Si / 1000 Ang^3
#
#
#
# Elastic Constant Matrix: (Units=GPa)
#
#
# Indices 1 2 3 4 5 6 
#
# 1 87.8295 -16.0914 28.4297 -13.6225 -15.5896 -2.1729
# 2 -16.0914 6.0754 3.6643 0.5812 1.8900 -0.2059
# 3 28.4297 3.6643 117.4958 3.8245 -5.0441 2.6957
# 4 -13.6225 0.5812 3.8245 32.5638 -1.6338 3.5040
# 5 -15.5896 1.8900 -5.0441 -1.6338 28.7735 -0.1048
# 6 -2.1729 -0.2059 2.6957 3.5040 -0.1048 10.5450
#
#
#
# Elastic Compliance Matrix: (Units=1/GPa)
#
#
# Indices 1 2 3 4 5 6 
#
# 1 0.042224 0.114605 -0.013953 0.016986 0.013900 0.009000
# 2 0.114605 0.483709 -0.043815 0.042446 0.025161 0.030409
# 3 -0.013953 -0.043815 0.013458 -0.006219 -0.002695 -0.005132
# 4 0.016986 0.042446 -0.006219 0.038911 0.007509 -0.006936
# 5 0.013900 0.025161 -0.002695 0.007509 0.040594 0.001953
# 6 0.009000 0.030409 -0.005132 -0.006936 0.001953 0.100916
#
#
# Mechanical properties :
#
#
# Convention : Reuss Voigt Hill
#
# Bulk Modulus (GPa) = 1.53124 27.04512 14.28818
# Shear Modulus (GPa) = 6.06925 27.40300 16.73613
#
# Velocity S-wave (km/s) = 1.69977 3.61178 2.82260
# Velocity P-wave (km/s) = 2.14038 5.50162 4.17427
#
# Compressibility (1/GPa) = 0.65306494
#
# Stress axis : x y z
#
# Youngs Moduli (GPa) = 23.68336 2.06736 74.30484
#
# Poissons Ratio (x) = -0.23693 1.03681
# Poissons Ratio (y) = -2.71424 3.25565
# Poissons Ratio (z) = 0.33046 0.09058
#
# Static dielectric constant tensor:
#      x y z
#    x 1.743830 0.022080 -0.039520 
#    y 0.022080 1.977070 0.026170 
#    z -0.039520 0.026170 1.765370 
# 
# From -- ./inp_files/314818.got.cif
#   From: 2010.05.17/outbox.cif.g08.bks.cpg/sg2_158_cif.got.tgz:314818.got - 2010.06.03 11:33:40.
