data_PCOD9082300
_publ_section_title
;
Structure prediction by ZEFSAII (Michael W. Deem and Ramdas Pophale) SiO2 
 PCOD9082300
Probable space group: P -1
;
_chemical_formula_sum "Si O2"
_cell_formula_units_Z 12
_cell_length_a 7.476088
_cell_length_b 10.904356
_cell_length_c 7.237182
_cell_angle_alpha 60.693243
_cell_angle_beta 121.542644
_cell_angle_gamma 93.716337
_cell_volume 423.696546
_symmetry_space_group_name_H-M "P -1"
_symmetry_group_IT_number 2
_symmetry_cell_setting 'triclinic'
loop_
_space_group_symop_operation_xyz
x,y,z
-x,-y,-z
loop_
_atom_site_type_symbol
_atom_site_label
_atom_site_fract_x
_atom_site_fract_y
_atom_site_fract_z
Si Si1 0.343970 0.240551 0.003592
Si Si2 0.965598 0.880935 0.719863
Si Si3 0.296139 0.857315 0.442589
Si Si4 0.973752 0.465695 0.727379
Si Si5 0.724042 0.355145 0.118356
Si Si6 0.636362 0.744148 0.413259
O O1 0.103081 0.295381 0.917344
O O2 0.351647 0.192014 0.832581
O O3 0.513964 0.135860 0.307964
O O4 0.465953 0.375603 0.961506
O O5 0.795553 0.806491 0.583268
O O6 0.188029 0.754452 0.922420
O O7 0.872625 0.987459 0.760583
O O8 0.000000 0.000000 0.500000
O O9 0.205258 0.733955 0.586189
O O10 0.410781 0.795162 0.361835
O O11 0.141791 0.526687 0.898580
O O12 0.000000 0.500000 0.500000
O O13 0.738798 0.568347 0.579793
#
# Coordination Sequence:
#
# PCOD9082300 Si02
#       6
#     2   2   2   2   2   2
#     4   9  19  32  53  74  98 130 167 199 247 288
#     4   9  17  34  54  70 101 136 156 202 254 286
#     4   9  19  32  53  74  99 128 166 204 245 283
#     4   9  17  32  54  72  99 136 161 197 251 291
#     4   8  17  33  54  69 102 132 160 204 247 286
#     4  10  19  33  54  73  99 130 166 202 244 292
#
# _framework density 28.322161000000001
#
# number of rings (size 3 to 8) (size 9 to 14) (size 15 to 20)
#    1.000    2.000    0.000    1.000    0.000    1.333 
#    0.000    4.167   29.333    0.000    0.000    0.000 
#    0.000    0.000    0.000    0.000    0.000    0.000 
#
# Total GULP energy -66990.103243 kJ/mol
# GULP energy per Si atom -5582.508604 kJ/mol
# Density = 2.825770 g / cm^3
# Si number density = 28.322161 Si / 1000 Ang^3
#
#
#
# Elastic Constant Matrix: (Units=GPa)
#
#
# Indices 1 2 3 4 5 6 
#
# 1 137.8097 64.7235 7.0872 -4.3091 1.1376 -53.0217
# 2 64.7235 124.8888 60.9053 -15.1835 -8.0842 -60.9023
# 3 7.0872 60.9053 102.1300 15.9344 -15.5623 -10.9076
# 4 -4.3091 -15.1835 15.9344 50.8156 -9.9462 8.8468
# 5 1.1376 -8.0842 -15.5623 -9.9462 36.8238 -3.5788
# 6 -53.0217 -60.9023 -10.9076 8.8468 -3.5788 69.0069
#
#
#
# Elastic Compliance Matrix: (Units=1/GPa)
#
#
# Indices 1 2 3 4 5 6 
#
# 1 0.011475 -0.005760 0.003492 -0.002731 -0.000433 0.004613
# 2 -0.005760 0.028900 -0.016026 0.011013 0.004412 0.017363
# 3 0.003492 -0.016026 0.020051 -0.009230 0.001672 -0.007022
# 4 -0.002731 0.011013 -0.009230 0.026265 0.005997 0.003106
# 5 -0.000433 0.004412 0.001672 0.005997 0.030918 0.004660
# 6 0.004613 0.017363 -0.007022 0.003106 0.004660 0.032093
#
#
# Mechanical properties :
#
#
# Convention : Reuss Voigt Hill
#
# Bulk Modulus (GPa) = 41.95271 70.02892 55.99082
# Shear Modulus (GPa) = 25.74161 46.80344 36.27253
#
# Velocity S-wave (km/s) = 3.01804 4.06955 3.58259
# Velocity P-wave (km/s) = 5.19515 6.84552 6.07663
#
# Compressibility (1/GPa) = 0.02383636
#
# Stress axis : x y z
#
# Youngs Moduli (GPa) = 87.14507 34.60232 49.87190
#
# Poissons Ratio (x) = 0.19932 -0.17414
# Poissons Ratio (y) = 0.50199 0.79926
# Poissons Ratio (z) = -0.30428 0.55454
#
# Static dielectric constant tensor:
#      x y z
#    x 2.370270 0.072860 -0.139990 
#    y 0.072860 2.269010 -0.129540 
#    z -0.139990 -0.129540 2.344800 
# 
# From -- ./inp_files/60390.got.cif
#   From: 2010.05.17/outbox.cif.g08.bks.cpg/sg2_31_cif.got.tgz:60390.got - 2010.06.03 11:33:40.
