data_PCOD9082453
_publ_section_title
;
Structure prediction by ZEFSAII (Michael W. Deem and Ramdas Pophale) SiO2 
 PCOD9082453
Probable space group: P -1
;
_chemical_formula_sum "Si O2"
_cell_formula_units_Z 14
_cell_length_a 9.026246
_cell_length_b 24.854183
_cell_length_c 17.987579
_cell_angle_alpha 166.592072
_cell_angle_beta 38.369876
_cell_angle_gamma 136.526674
_cell_volume 561.366067
_symmetry_space_group_name_H-M "P -1"
_symmetry_group_IT_number 2
_symmetry_cell_setting 'triclinic'
loop_
_space_group_symop_operation_xyz
x,y,z
-x,-y,-z
loop_
_atom_site_type_symbol
_atom_site_label
_atom_site_fract_x
_atom_site_fract_y
_atom_site_fract_z
Si Si1 0.237711 0.095291 0.521595
Si Si2 0.125991 0.824544 0.782155
Si Si3 0.655290 0.794836 0.528282
Si Si4 0.435707 0.357154 0.404421
Si Si5 0.032274 0.251681 0.510203
Si Si6 0.694045 0.666850 0.788862
Si Si7 0.428998 0.923274 0.504868
O O1 0.208207 0.243446 0.656346
O O2 0.334668 0.185643 0.681070
O O3 0.475335 0.871670 0.111495
O O4 0.000000 0.000000 0.500000
O O5 0.952923 0.645422 0.619375
O O6 0.411122 0.699565 0.488570
O O7 0.105070 0.997300 0.094547
O O8 0.000000 0.000000 0.000000
O O9 0.826402 0.720795 0.432561
O O10 0.542149 0.078559 0.970958
O O11 0.500000 0.500000 0.500000
O O12 0.152290 0.406558 0.611630
O O13 0.594633 0.434270 0.511793
O O14 0.756257 0.245786 0.636000
O O15 0.700422 0.809447 0.053132
O O16 0.500000 0.000000 0.500000
#
# Coordination Sequence:
#
# PCOD9082453 Si02
#       7
#     2   2   2   2   2   2   2
#     4  10  19  33  58  81 103 141 195 225 262 327
#     4  10  15  32  50  76 107 139 183 218 260 333
#     4  11  20  34  56  85 110 145 184 226 275 331
#     4  11  18  34  54  84 118 141 172 233 283 329
#     4  10  21  33  54  86 109 145 187 221 274 335
#     4   9  19  31  54  84 101 142 184 220 282 307
#     4   9  18  37  57  78 107 151 190 223 265 330
#
# _framework density 24.939162
#
# number of rings (size 3 to 8) (size 9 to 14) (size 15 to 20)
#    0.857    1.143    2.857    3.429    0.000    0.000 
#    0.000    7.143    0.000    0.857    0.000    0.000 
#    0.000    0.000    0.000    0.000    0.000    0.000 
#
# Total GULP energy -78046.918612 kJ/mol
# GULP energy per Si atom -5574.779901 kJ/mol
# Density = 2.488240 g / cm^3
# Si number density = 24.939162 Si / 1000 Ang^3
#
#
#
# Elastic Constant Matrix: (Units=GPa)
#
#
# Indices 1 2 3 4 5 6 
#
# 1 162.9087 108.6675 25.7517 -9.9301 -4.3878 6.4584
# 2 108.6675 241.4867 32.0362 -4.1306 13.1005 26.4782
# 3 25.7517 32.0362 48.6764 10.8082 -8.1411 -0.7944
# 4 -9.9301 -4.1306 10.8082 19.4108 2.0871 7.9087
# 5 -4.3878 13.1005 -8.1411 2.0871 31.6105 1.1801
# 6 6.4584 26.4782 -0.7944 7.9087 1.1801 61.4293
#
#
#
# Elastic Compliance Matrix: (Units=1/GPa)
#
#
# Indices 1 2 3 4 5 6 
#
# 1 0.009708 -0.003829 -0.003722 0.006152 0.001578 -0.000241
# 2 -0.003829 0.007094 -0.004308 0.003719 -0.004711 -0.003099
# 3 -0.003722 -0.004308 0.032747 -0.024538 0.011113 0.005617
# 4 0.006152 0.003719 -0.024538 0.075263 -0.011527 -0.012036
# 5 0.001578 -0.004711 0.011113 -0.011527 0.037326 0.002775
# 6 -0.000241 -0.003099 0.005617 -0.012036 0.002775 0.019209
#
#
# Mechanical properties :
#
#
# Convention : Reuss Voigt Hill
#
# Bulk Modulus (GPa) = 38.71166 87.33142 63.02154
# Shear Modulus (GPa) = 23.40002 41.59789 32.49895
#
# Velocity S-wave (km/s) = 3.06647 4.08852 3.61380
# Velocity P-wave (km/s) = 5.30035 7.57507 6.53741
#
# Compressibility (1/GPa) = 0.02583201
#
# Stress axis : x y z
#
# Youngs Moduli (GPa) = 103.01097 140.95631 30.53711
#
# Poissons Ratio (x) = 0.53967 0.11366
# Poissons Ratio (y) = 0.39439 0.13155
# Poissons Ratio (z) = 0.38341 0.60723
#
# Static dielectric constant tensor:
#      x y z
#    x 1.962420 -0.003950 0.075290 
#    y -0.003950 1.989570 -0.030120 
#    z 0.075290 -0.030120 1.966100 
# 
# From -- ./inp_files/490980.got.cif
#   From: 2010.05.17/outbox.cif.g08.bks.cpg/sg2_246_cif.got.tgz:490980.got - 2010.06.03 11:33:40.
