data_PCOD9082045
_publ_section_title
;
Structure prediction by ZEFSAII (Michael W. Deem and Ramdas Pophale) SiO2 
 PCOD9082045
Probable space group: P -1
;
_chemical_formula_sum "Si O2"
_cell_formula_units_Z 12
_cell_length_a 22.627948
_cell_length_b 15.278775
_cell_length_c 9.648341
_cell_angle_alpha 134.500267
_cell_angle_beta 146.161473
_cell_angle_gamma 18.461748
_cell_volume 511.736874
_symmetry_space_group_name_H-M "P -1"
_symmetry_group_IT_number 2
_symmetry_cell_setting 'triclinic'
loop_
_space_group_symop_operation_xyz
x,y,z
-x,-y,-z
loop_
_atom_site_type_symbol
_atom_site_label
_atom_site_fract_x
_atom_site_fract_y
_atom_site_fract_z
Si Si1 0.459778 0.707679 0.016982
Si Si2 0.307887 0.626273 0.166240
Si Si3 0.656131 0.593324 0.790385
Si Si4 0.099310 0.462187 0.949016
Si Si5 0.087210 0.584372 0.361430
Si Si6 0.745357 0.051410 0.829497
O O1 0.657938 0.615144 0.301231
O O2 0.426628 0.709343 0.115072
O O3 0.598702 0.467014 0.913557
O O4 0.156695 0.062609 0.763717
O O5 0.348762 0.443755 0.102041
O O6 0.409645 0.799724 0.451115
O O7 0.000000 0.000000 0.000000
O O8 0.500000 0.500000 0.500000
O O9 0.695608 0.693428 0.934796
O O10 0.945778 0.227080 0.892233
O O11 0.042339 0.379734 0.750576
O O12 0.816228 0.836258 0.779964
O O13 0.175033 0.424137 0.210609
#
# Coordination Sequence:
#
# PCOD9082045 Si02
#       6
#     2   2   2   2   2   2
#     4  11  21  39  59  90 119 152 198 248 279 342
#     4  12  27  46  63  79 113 162 201 246 313 348
#     4  10  20  39  60  87 118 156 190 242 288 348
#     4   8  19  31  62  91 127 153 186 220 298 345
#     4  10  19  32  62  94 124 153 188 229 287 351
#     4   9  18  35  62  86 122 147 190 237 285 334
#
# _framework density 23.449549999999999
#
# number of rings (size 3 to 8) (size 9 to 14) (size 15 to 20)
#    1.000    1.000    1.667    2.000    2.333    2.000 
#    0.000    6.667    0.000    0.000    0.000    0.000 
#    0.000    0.000    0.000    0.000    0.000    0.000 
#
# Total GULP energy -66979.648474 kJ/mol
# GULP energy per Si atom -5581.637373 kJ/mol
# Density = 2.339618 g / cm^3
# Si number density = 23.449550 Si / 1000 Ang^3
#
#
#
# Elastic Constant Matrix: (Units=GPa)
#
#
# Indices 1 2 3 4 5 6 
#
# 1 117.8971 -3.0868 2.1796 5.1832 5.0855 4.2906
# 2 -3.0868 37.8583 3.7751 -8.9052 -14.1121 -12.7180
# 3 2.1796 3.7751 70.7632 -16.3958 -10.6677 0.8928
# 4 5.1832 -8.9052 -16.3958 24.0403 11.7155 0.2921
# 5 5.0855 -14.1121 -10.6677 11.7155 35.2698 4.2763
# 6 4.2906 -12.7180 0.8928 0.2921 4.2763 26.8607
#
#
#
# Elastic Compliance Matrix: (Units=1/GPa)
#
#
# Indices 1 2 3 4 5 6 
#
# 1 0.008670 -0.000519 -0.000861 -0.002243 -0.000797 -0.001451
# 2 -0.000519 0.037898 0.001685 0.010005 0.010461 0.016197
# 3 -0.000861 0.001685 0.017032 0.011360 0.002189 -0.000103
# 4 -0.002243 0.010005 0.011360 0.059702 -0.012809 0.006108
# 5 -0.000797 0.010461 0.002189 -0.012809 0.037673 -0.000851
# 6 -0.001451 0.016197 -0.000103 0.006108 -0.000851 0.045202
#
#
# Mechanical properties :
#
#
# Convention : Reuss Voigt Hill
#
# Bulk Modulus (GPa) = 15.57415 25.80603 20.69009
# Shear Modulus (GPa) = 22.02927 32.14422 27.08674
#
# Velocity S-wave (km/s) = 3.06834 3.70642 3.40237
# Velocity P-wave (km/s) = 4.38280 5.41716 4.92720
#
# Compressibility (1/GPa) = 0.06420896
#
# Stress axis : x y z
#
# Youngs Moduli (GPa) = 115.33917 26.38677 58.71419
#
# Poissons Ratio (x) = 0.01371 0.05054
# Poissons Ratio (y) = 0.05991 -0.09893
# Poissons Ratio (z) = 0.09929 -0.04446
#
# Static dielectric constant tensor:
#      x y z
#    x 1.938710 0.020110 0.091740 
#    y 0.020110 1.884100 0.039280 
#    z 0.091740 0.039280 1.858480 
# 
# From -- ./inp_files/471960.got.cif
#   From: 2010.05.17/outbox.cif.g08.bks.cpg/sg2_236_cif.got.tgz:471960.got - 2010.06.03 11:33:40.
