data_PCOD9082342
_publ_section_title
;
Structure prediction by ZEFSAII (Michael W. Deem and Ramdas Pophale) SiO2 
 PCOD9082342
Probable space group: P -1
;
_chemical_formula_sum "Si O2"
_cell_formula_units_Z 16
_cell_length_a 22.144352
_cell_length_b 7.490255
_cell_length_c 14.146705
_cell_angle_alpha 117.455774
_cell_angle_beta 146.120312
_cell_angle_gamma 39.836175
_cell_volume 728.503492
_symmetry_space_group_name_H-M "P -1"
_symmetry_group_IT_number 2
_symmetry_cell_setting 'triclinic'
loop_
_space_group_symop_operation_xyz
x,y,z
-x,-y,-z
loop_
_atom_site_type_symbol
_atom_site_label
_atom_site_fract_x
_atom_site_fract_y
_atom_site_fract_z
Si Si1 0.791162 0.777952 0.385595
Si Si2 0.016557 0.415171 0.221361
Si Si3 0.532108 0.585959 0.466190
Si Si4 0.232604 0.594051 0.131270
Si Si5 0.541221 0.675403 0.814055
Si Si6 0.904815 0.950141 0.449635
Si Si7 0.828466 0.853596 0.828877
Si Si8 0.863401 0.060787 0.203666
O O1 0.779833 0.975117 0.344466
O O2 0.909608 0.686495 0.602755
O O3 0.907970 0.432319 0.409806
O O4 0.606057 0.991713 0.240269
O O5 0.172305 0.192694 0.294945
O O6 0.899549 0.782589 0.148238
O O7 0.909121 0.371091 0.050791
O O8 0.500000 0.500000 0.500000
O O9 0.688543 0.495384 0.682778
O O10 0.545464 0.409796 0.355321
O O11 0.348554 0.960859 0.308014
O O12 0.379807 0.337642 0.180899
O O13 0.162000 0.918232 0.090613
O O14 0.703363 0.387184 0.020621
O O15 0.957623 0.072113 0.605811
O O16 0.839403 0.090370 0.293512
O O17 0.000000 0.500000 0.000000
#
# Coordination Sequence:
#
# PCOD9082342 Si02
#       8
#     2   2   2   2   2   2   2   2
#     4  10  20  36  61  83 106 137 187 224 275 334
#     4  11  20  35  57  81 108 152 189 215 259 328
#     4   8  17  34  51  75 113 144 175 216 261 310
#     4  10  20  35  55  80 116 148 183 219 261 318
#     4  10  19  35  57  83 108 143 177 225 273 324
#     4   9  21  40  57  80 106 140 176 235 281 324
#     4  10  19  33  54  80 110 145 184 225 267 307
#     4  10  21  38  56  77 113 140 178 228 281 322
#
# _framework density 21.962831999999999
#
# number of rings (size 3 to 8) (size 9 to 14) (size 15 to 20)
#    0.000    2.500    0.000    4.875    0.000    1.000 
#    0.000    8.750    0.000    0.000    0.000    0.000 
#    0.000    0.000    0.000    0.000    0.000    0.000 
#
# Total GULP energy -89308.573025 kJ/mol
# GULP energy per Si atom -5581.785814 kJ/mol
# Density = 2.191284 g / cm^3
# Si number density = 21.962832 Si / 1000 Ang^3
#
#
#
# Elastic Constant Matrix: (Units=GPa)
#
#
# Indices 1 2 3 4 5 6 
#
# 1 31.9262 -1.9535 -7.8149 3.5362 -3.0099 -7.3201
# 2 -1.9535 53.2045 19.3665 -1.6282 9.8357 -4.4393
# 3 -7.8149 19.3665 87.2198 1.7096 -7.7132 9.5602
# 4 3.5362 -1.6282 1.7096 29.0142 -4.0889 8.2436
# 5 -3.0099 9.8357 -7.7132 -4.0889 21.3039 -2.2213
# 6 -7.3201 -4.4393 9.5602 8.2436 -2.2213 27.5471
#
#
#
# Elastic Compliance Matrix: (Units=1/GPa)
#
#
# Indices 1 2 3 4 5 6 
#
# 1 0.035834 -0.000015 0.002648 -0.006858 0.005873 0.011126
# 2 -0.000015 0.024374 -0.007225 -0.001789 -0.013603 0.005870
# 3 0.002648 -0.007225 0.014618 0.001100 0.008675 -0.005164
# 4 -0.006858 -0.001789 0.001100 0.040012 0.006481 -0.013944
# 5 0.005873 -0.013603 0.008675 0.006481 0.058343 -0.000877
# 6 0.011126 0.005870 -0.005164 -0.013944 -0.000877 0.046098
#
#
# Mechanical properties :
#
#
# Convention : Reuss Voigt Hill
#
# Bulk Modulus (GPa) = 15.23396 21.28297 18.25846
# Shear Modulus (GPa) = 19.97250 26.42320 23.19785
#
# Velocity S-wave (km/s) = 3.01886 3.47232 3.25350
# Velocity P-wave (km/s) = 4.37066 5.07814 4.73762
#
# Compressibility (1/GPa) = 0.06564283
#
# Stress axis : x y z
#
# Youngs Moduli (GPa) = 27.90653 41.02666 68.40684
#
# Poissons Ratio (x) = 0.00064 -0.18117
# Poissons Ratio (y) = 0.00043 0.49423
# Poissons Ratio (z) = -0.07391 0.29641
#
# Static dielectric constant tensor:
#      x y z
#    x 1.844380 0.011950 -0.010260 
#    y 0.011950 1.846920 -0.009720 
#    z -0.010260 -0.009720 1.853210 
# 
# From -- ./inp_files/543787.got.cif
#   From: 2010.05.17/outbox.cif.g08.bks.cpg/sg2_272_cif.got.tgz:543787.got - 2010.06.03 11:33:40.
