data_PCOD9082683
_publ_section_title
;
Structure prediction by ZEFSAII (Michael W. Deem and Ramdas Pophale) SiO2 
 PCOD9082683
Probable space group: P -1
;
_chemical_formula_sum "Si O2"
_cell_formula_units_Z 16
_cell_length_a 18.710962
_cell_length_b 15.175474
_cell_length_c 7.456097
_cell_angle_alpha 49.878732
_cell_angle_beta 42.874714
_cell_angle_gamma 32.619400
_cell_volume 774.377790
_symmetry_space_group_name_H-M "P -1"
_symmetry_group_IT_number 2
_symmetry_cell_setting 'triclinic'
loop_
_space_group_symop_operation_xyz
x,y,z
-x,-y,-z
loop_
_atom_site_type_symbol
_atom_site_label
_atom_site_fract_x
_atom_site_fract_y
_atom_site_fract_z
Si Si1 0.859499 0.454877 0.775485
Si Si2 0.370981 0.552936 0.798089
Si Si3 0.815898 0.136448 0.016215
Si Si4 0.291238 0.055324 0.039887
Si Si5 0.517258 0.049997 0.599520
Si Si6 0.964815 0.848330 0.379236
Si Si7 0.555224 0.246287 0.106861
Si Si8 0.172803 0.260930 0.633947
O O1 0.798663 0.626336 0.602948
O O2 0.926179 0.339233 0.630816
O O3 0.004793 0.363400 0.750849
O O4 0.736672 0.461949 0.068637
O O5 0.500000 0.500000 0.500000
O O6 0.269510 0.733595 0.831442
O O7 0.448873 0.425910 0.987338
O O8 0.694748 0.192464 0.022762
O O9 0.907353 0.958304 0.162201
O O10 0.936101 0.133885 0.724499
O O11 0.176132 0.088947 0.341015
O O12 0.199039 0.197137 0.871205
O O13 0.406488 0.058241 0.906839
O O14 0.381820 0.881795 0.003242
O O15 0.693476 0.905381 0.504390
O O16 0.500000 0.000000 0.500000
O O17 0.478627 0.213276 0.425016
#
# Coordination Sequence:
#
# PCOD9082683 Si02
#       8
#     2   2   2   2   2   2   2   2
#     4  10  20  36  54  74 110 140 168 212 262 309
#     4  11  22  36  55  77 103 137 177 217 255 301
#     4  10  22  37  53  74 106 142 173 209 260 307
#     4  10  19  33  57  81 104 133 174 214 255 309
#     4   8  16  32  55  77 101 132 169 210 260 306
#     4  10  21  36  52  77 108 139 171 213 258 303
#     4  10  19  36  56  75 104 138 172 214 258 306
#     4   9  18  34  56  79 100 138 174 208 261 310
#
# _framework density 20.661750000000001
#
# number of rings (size 3 to 8) (size 9 to 14) (size 15 to 20)
#    0.000    2.500    0.000    4.875    0.000    2.000 
#    0.000    5.000    0.000    0.000    0.000    0.000 
#    0.000    0.000    0.000    0.000    0.000    0.000 
#
# Total GULP energy -89250.495424 kJ/mol
# GULP energy per Si atom -5578.155964 kJ/mol
# Density = 2.061472 g / cm^3
# Si number density = 20.661750 Si / 1000 Ang^3
#
#
#
# Elastic Constant Matrix: (Units=GPa)
#
#
# Indices 1 2 3 4 5 6 
#
# 1 48.2899 4.6678 18.9172 -2.0381 -25.3649 -17.5398
# 2 4.6678 59.6476 21.1046 -9.1157 -4.0411 -8.2591
# 3 18.9172 21.1046 129.0232 16.0399 -29.2450 6.8378
# 4 -2.0381 -9.1157 16.0399 29.9356 -3.4063 -5.5230
# 5 -25.3649 -4.0411 -29.2450 -3.4063 26.3829 6.4229
# 6 -17.5398 -8.2591 6.8378 -5.5230 6.4229 26.4084
#
#
#
# Elastic Compliance Matrix: (Units=1/GPa)
#
#
# Indices 1 2 3 4 5 6 
#
# 1 0.062537 0.008191 -0.003501 0.021283 0.051240 0.036993
# 2 0.008191 0.023788 -0.007875 0.015394 0.000384 0.018045
# 3 -0.003501 -0.007875 0.014963 -0.011737 0.014036 -0.014531
# 4 0.021283 0.015394 -0.011737 0.052542 0.009104 0.030764
# 5 0.051240 0.000384 0.014036 0.009104 0.102112 0.007587
# 6 0.036993 0.018045 -0.014531 0.030764 0.007587 0.076431
#
#
# Mechanical properties :
#
#
# Convention : Reuss Voigt Hill
#
# Bulk Modulus (GPa) = 10.53544 36.25997 23.39770
# Shear Modulus (GPa) = 13.49961 29.36345 21.43153
#
# Velocity S-wave (km/s) = 2.55887 3.77390 3.22414
# Velocity P-wave (km/s) = 3.72028 6.04791 5.02084
#
# Compressibility (1/GPa) = 0.09491777
#
# Stress axis : x y z
#
# Youngs Moduli (GPa) = 15.99049 42.03868 66.83313
#
# Poissons Ratio (x) = -0.34435 0.23398
# Poissons Ratio (y) = -0.13098 0.52631
# Poissons Ratio (z) = 0.05598 0.33105
#
# Static dielectric constant tensor:
#      x y z
#    x 1.774140 -0.010200 -0.030970 
#    y -0.010200 1.724710 0.016160 
#    z -0.030970 0.016160 1.784890 
# 
# From -- ./inp_files/348210.got.cif
#   From: 2010.05.17/outbox.cif.g08.bks.cpg/sg2_175_cif.got.tgz:348210.got - 2010.06.03 11:33:40.
