data_PCOD9082791
_publ_section_title
;
Structure prediction by ZEFSAII (Michael W. Deem and Ramdas Pophale) SiO2 
 PCOD9082791
Probable space group: P -1
;
_chemical_formula_sum "Si O2"
_cell_formula_units_Z 16
_cell_length_a 8.031441
_cell_length_b 25.361628
_cell_length_c 13.244015
_cell_angle_alpha 23.071704
_cell_angle_beta 114.610789
_cell_angle_gamma 128.082451
_cell_volume 725.591394
_symmetry_space_group_name_H-M "P -1"
_symmetry_group_IT_number 2
_symmetry_cell_setting 'triclinic'
loop_
_space_group_symop_operation_xyz
x,y,z
-x,-y,-z
loop_
_atom_site_type_symbol
_atom_site_label
_atom_site_fract_x
_atom_site_fract_y
_atom_site_fract_z
Si Si1 0.630001 0.450392 0.255431
Si Si2 0.382149 0.608309 0.219090
Si Si3 0.224330 0.783860 0.591206
Si Si4 0.831734 0.550895 0.347838
Si Si5 0.286857 0.872148 0.795903
Si Si6 0.811096 0.774267 0.596688
Si Si7 0.011614 0.439802 0.263079
Si Si8 0.133184 0.053198 0.333560
O O1 0.663519 0.459859 0.366650
O O2 0.377952 0.283479 0.436849
O O3 0.836632 0.455166 0.252625
O O4 0.677166 0.622220 0.918445
O O5 0.334497 0.517811 0.474417
O O6 0.187916 0.456620 0.358328
O O7 0.321086 0.738075 0.997760
O O8 0.643602 0.743616 0.994311
O O9 0.155151 0.730953 0.549966
O O10 0.017845 0.780294 0.590677
O O11 0.484119 0.967852 0.363002
O O12 0.185003 0.617446 0.924237
O O13 0.000000 0.500000 0.500000
O O14 0.045018 0.756365 0.008266
O O15 0.243184 0.953936 0.548733
O O16 0.941994 0.958709 0.361039
O O17 0.000000 0.000000 0.500000
#
# Coordination Sequence:
#
# PCOD9082791 Si02
#       8
#     2   2   2   2   2   2   2   2
#     4  10  19  35  59  86 122 157 198 245 300 362
#     4  11  21  39  66  87 120 159 207 249 302 360
#     4  10  20  33  59  87 121 153 198 254 303 349
#     4  10  20  37  66  90 116 165 207 243 294 372
#     4  11  19  39  64  87 117 160 207 247 290 363
#     4  10  21  36  57  86 122 160 195 248 311 351
#     4  10  19  33  57  93 117 151 200 257 298 344
#     4  12  24  36  61  94 119 153 208 260 298 351
#
# _framework density 22.050977
#
# number of rings (size 3 to 8) (size 9 to 14) (size 15 to 20)
#    0.000    1.500    6.250    1.125    1.750    2.000 
#    0.000    1.875    0.000    0.000    0.000    0.000 
#    0.000    0.000    0.000    0.000    0.000    0.000 
#
# Total GULP energy -89425.500762 kJ/mol
# GULP energy per Si atom -5589.093798 kJ/mol
# Density = 2.200079 g / cm^3
# Si number density = 22.050977 Si / 1000 Ang^3
#
#
#
# Elastic Constant Matrix: (Units=GPa)
#
#
# Indices 1 2 3 4 5 6 
#
# 1 61.6255 30.4622 28.0124 3.9946 -25.2601 -1.9249
# 2 30.4622 241.5887 52.2191 -10.5606 -27.5574 10.7829
# 3 28.0124 52.2191 80.5636 9.8597 -18.8841 9.8504
# 4 3.9946 -10.5606 9.8597 41.7080 0.6448 -8.1140
# 5 -25.2601 -27.5574 -18.8841 0.6448 40.6735 -1.2248
# 6 -1.9249 10.7829 9.8504 -8.1140 -1.2248 32.1529
#
#
#
# Elastic Compliance Matrix: (Units=1/GPa)
#
#
# Indices 1 2 3 4 5 6 
#
# 1 0.024189 -0.000669 -0.005497 -0.000664 0.012137 0.003651
# 2 -0.000669 0.005144 -0.002911 0.001968 0.001677 -0.000313
# 3 -0.005497 -0.002911 0.018423 -0.005850 0.003069 -0.006356
# 4 -0.000664 0.001968 -0.005850 0.027500 -0.001991 0.007956
# 5 0.012137 0.001677 0.003069 -0.001991 0.034718 0.000044
# 6 0.003651 -0.000313 -0.006356 0.007956 0.000044 0.035382
#
#
# Mechanical properties :
#
#
# Convention : Reuss Voigt Hill
#
# Bulk Modulus (GPa) = 33.78220 67.24058 50.51139
# Shear Modulus (GPa) = 28.83887 41.11248 34.97567
#
# Velocity S-wave (km/s) = 3.62031 4.32259 3.98694
# Velocity P-wave (km/s) = 5.72965 7.44798 6.64460
#
# Compressibility (1/GPa) = 0.02960139
#
# Stress axis : x y z
#
# Youngs Moduli (GPa) = 41.34169 194.39315 54.27955
#
# Poissons Ratio (x) = 0.13012 0.29837
# Poissons Ratio (y) = 0.02767 0.15801
# Poissons Ratio (z) = 0.22725 0.56588
#
# Static dielectric constant tensor:
#      x y z
#    x 1.976600 0.042180 0.078130 
#    y 0.042180 1.814770 0.019260 
#    z 0.078130 0.019260 1.840710 
# 
# From -- ./inp_files/278224.got.cif
#   From: 2010.05.17/outbox.cif.g08.bks.cpg/sg2_140_cif.got.tgz:278224.got - 2010.06.03 11:33:40.
