data_PCOD9082872
_publ_section_title
;
Structure prediction by ZEFSAII (Michael W. Deem and Ramdas Pophale) SiO2 
 PCOD9082872
Probable space group: P -1
;
_chemical_formula_sum "Si O2"
_cell_formula_units_Z 16
_cell_length_a 6.263751
_cell_length_b 19.358494
_cell_length_c 10.760892
_cell_angle_alpha 139.445488
_cell_angle_beta 57.474330
_cell_angle_gamma 124.894882
_cell_volume 682.721718
_symmetry_space_group_name_H-M "P -1"
_symmetry_group_IT_number 2
_symmetry_cell_setting 'triclinic'
loop_
_space_group_symop_operation_xyz
x,y,z
-x,-y,-z
loop_
_atom_site_type_symbol
_atom_site_label
_atom_site_fract_x
_atom_site_fract_y
_atom_site_fract_z
Si Si1 0.221842 0.261055 0.272030
Si Si2 0.239065 0.020690 0.689987
Si Si3 0.227302 0.899249 0.956590
Si Si4 0.855819 0.808079 0.531181
Si Si5 0.195157 0.428544 0.702000
Si Si6 0.754212 0.817338 0.316554
Si Si7 0.385474 0.577177 0.054950
Si Si8 0.679003 0.187345 0.925162
O O1 0.466129 0.257680 0.101967
O O2 0.926600 0.198455 0.225788
O O3 0.243375 0.192174 0.297027
O O4 0.242918 0.382646 0.489058
O O5 0.225240 0.082338 0.648256
O O6 0.156037 0.887723 0.536015
O O7 0.507275 0.079039 0.756771
O O8 0.003110 0.042655 0.873533
O O9 0.255304 0.837529 0.989673
O O10 0.500000 0.000000 0.000000
O O11 0.814748 0.677435 0.351741
O O12 0.712482 0.846519 0.512872
O O13 0.387866 0.534407 0.854192
O O14 0.907531 0.442528 0.825793
O O15 0.531718 0.707574 0.194448
O O16 0.027879 0.781601 0.182819
O O17 0.500000 0.500000 0.000000
#
# Coordination Sequence:
#
# PCOD9082872 Si02
#       8
#     2   2   2   2   2   2   2   2
#     4   9  20  39  61  90 126 159 208 254 296 364
#     4  10  22  37  57  90 136 167 197 244 308 369
#     4  10  19  33  58  88 122 174 208 240 295 364
#     4  10  20  40  60  95 125 161 206 253 296 362
#     4   9  23  38  65  92 114 155 207 259 305 351
#     4  11  24  38  63  94 123 171 200 251 309 370
#     4  11  21  43  64  89 119 156 210 260 310 358
#     4  10  22  39  57  87 133 168 198 242 310 369
#
# _framework density 23.435608999999999
#
# number of rings (size 3 to 8) (size 9 to 14) (size 15 to 20)
#    0.750    1.250    1.250    1.875    1.750    5.500 
#    2.250    0.625    0.000    7.500    0.000    0.000 
#    0.000    0.000    0.000    0.000    0.000    0.000 
#
# Total GULP energy -89181.637432 kJ/mol
# GULP energy per Si atom -5573.852339 kJ/mol
# Density = 2.338227 g / cm^3
# Si number density = 23.435609 Si / 1000 Ang^3
#
#
#
# Elastic Constant Matrix: (Units=GPa)
#
#
# Indices 1 2 3 4 5 6 
#
# 1 61.8691 18.5729 30.5174 -0.1528 18.5090 17.7192
# 2 18.5729 45.9934 12.7268 2.1366 7.8619 -5.1145
# 3 30.5174 12.7268 87.7284 -1.8026 16.5187 12.5735
# 4 -0.1528 2.1366 -1.8026 26.7816 6.7735 -0.7710
# 5 18.5090 7.8619 16.5187 6.7735 45.6301 -2.7422
# 6 17.7192 -5.1145 12.5735 -0.7710 -2.7422 37.4685
#
#
#
# Elastic Compliance Matrix: (Units=1/GPa)
#
#
# Indices 1 2 3 4 5 6 
#
# 1 0.028210 -0.010209 -0.004554 0.002611 -0.009254 -0.013829
# 2 -0.010209 0.027377 -0.001996 -0.002377 0.001056 0.009263
# 3 -0.004554 -0.001996 0.014427 0.001899 -0.003504 -0.003177
# 4 0.002611 -0.002377 0.001899 0.039465 -0.007311 -0.001920
# 5 -0.009254 0.001056 -0.003504 -0.007311 0.028299 0.007617
# 6 -0.013829 0.009263 -0.003177 -0.001920 0.007617 0.036078
#
#
# Mechanical properties :
#
#
# Convention : Reuss Voigt Hill
#
# Bulk Modulus (GPa) = 27.39967 35.46945 31.43456
# Shear Modulus (GPa) = 22.77519 30.89430 26.83474
#
# Velocity S-wave (km/s) = 3.12078 3.63473 3.38752
# Velocity P-wave (km/s) = 4.97017 5.72562 5.36122
#
# Compressibility (1/GPa) = 0.03649679
#
# Stress axis : x y z
#
# Youngs Moduli (GPa) = 35.44885 36.52720 69.31573
#
# Poissons Ratio (x) = 0.37290 0.31566
# Poissons Ratio (y) = 0.36189 0.13833
# Poissons Ratio (z) = 0.16143 0.07289
#
# Static dielectric constant tensor:
#      x y z
#    x 1.929590 0.019630 0.013880 
#    y 0.019630 1.871740 -0.028400 
#    z 0.013880 -0.028400 1.995140 
# 
# From -- ./inp_files/370436.got.cif
#   From: 2010.05.17/outbox.cif.g08.bks.cpg/sg2_186_cif.got.tgz:370436.got - 2010.06.03 11:33:40.
