data_PCOD9082864
_publ_section_title
;
Structure prediction by ZEFSAII (Michael W. Deem and Ramdas Pophale) SiO2 
 PCOD9082864
Probable space group: P -1
;
_chemical_formula_sum "Si O2"
_cell_formula_units_Z 16
_cell_length_a 14.168787
_cell_length_b 11.857665
_cell_length_c 13.473476
_cell_angle_alpha 142.755376
_cell_angle_beta 29.940384
_cell_angle_gamma 123.597836
_cell_volume 610.018703
_symmetry_space_group_name_H-M "P -1"
_symmetry_group_IT_number 2
_symmetry_cell_setting 'triclinic'
loop_
_space_group_symop_operation_xyz
x,y,z
-x,-y,-z
loop_
_atom_site_type_symbol
_atom_site_label
_atom_site_fract_x
_atom_site_fract_y
_atom_site_fract_z
Si Si1 0.517467 0.428041 0.095755
Si Si2 0.132061 0.522887 0.275283
Si Si3 0.090963 0.020600 0.539038
Si Si4 0.038254 0.047753 0.175772
Si Si5 0.260238 0.119897 0.763819
Si Si6 0.487447 0.269195 0.517546
Si Si7 0.617683 0.774236 0.619265
Si Si8 0.274926 0.255751 0.286308
O O1 0.499507 0.571105 0.305446
O O2 0.314983 0.382907 0.248299
O O3 0.624305 0.515359 0.979128
O O4 0.697984 0.194779 0.786416
O O5 0.033919 0.704271 0.574359
O O6 0.975126 0.665000 0.428662
O O7 0.144879 0.302584 0.077021
O O8 0.968837 0.044213 0.771286
O O9 0.176425 0.192022 0.567855
O O10 0.000000 0.000000 0.500000
O O11 0.872882 0.004434 0.228698
O O12 0.278265 0.925071 0.833996
O O13 0.306448 0.210966 0.683303
O O14 0.500000 0.000000 0.500000
O O15 0.424642 0.344040 0.515075
O O16 0.651250 0.686997 0.637975
O O17 0.416908 0.008261 0.970810
#
# Coordination Sequence:
#
# PCOD9082864 Si02
#       8
#     2   2   2   2   2   2   2   2
#     4   9  21  34  55  83 125 165 197 247 303 351
#     4  10  21  41  64  91 125 162 207 250 310 375
#     4  10  20  37  57  87 125 170 209 241 300 368
#     4  11  22  40  69  89 122 169 202 254 314 365
#     4  11  26  47  65  90 124 157 208 273 321 365
#     4  11  22  41  60  92 121 157 210 255 305 375
#     4  10  19  33  58  87 127 162 201 244 292 363
#     4  10  19  35  56  90 126 165 198 244 293 360
#
# _framework density 26.228702999999999
#
# number of rings (size 3 to 8) (size 9 to 14) (size 15 to 20)
#    0.000    1.750    2.500    2.250    3.500    1.500 
#    2.250    2.500    0.000    0.000    0.000    0.000 
#    0.000    0.000    0.000    0.000    0.000    0.000 
#
# Total GULP energy -89330.526909 kJ/mol
# GULP energy per Si atom -5583.157932 kJ/mol
# Density = 2.616901 g / cm^3
# Si number density = 26.228703 Si / 1000 Ang^3
#
#
#
# Elastic Constant Matrix: (Units=GPa)
#
#
# Indices 1 2 3 4 5 6 
#
# 1 102.2989 39.1391 12.4648 -13.6946 11.8202 23.4307
# 2 39.1391 -39.5336 40.4682 -7.8984 11.6574 38.4884
# 3 12.4648 40.4682 97.5003 -23.7325 32.9456 11.7974
# 4 -13.6946 -7.8984 -23.7325 27.6908 2.7663 11.2055
# 5 11.8202 11.6574 32.9456 2.7663 36.3577 0.8939
# 6 23.4307 38.4884 11.7974 11.2055 0.8939 51.2935
#
#
#
# Elastic Compliance Matrix: (Units=1/GPa)
#
#
# Indices 1 2 3 4 5 6 
#
# 1 0.018861 0.001460 0.014725 0.032582 -0.021934 -0.019833
# 2 0.001460 -0.011859 0.001949 -0.004714 0.001704 0.008783
# 3 0.014725 0.001949 0.042122 0.060971 -0.047473 -0.030369
# 4 0.032582 -0.004714 0.060971 0.131841 -0.073061 -0.052897
# 5 -0.021934 0.001704 -0.047473 -0.073061 0.081825 0.034194
# 6 -0.019833 0.008783 -0.030369 -0.052897 0.034194 0.039910
#
#
# Mechanical properties :
#
#
# Convention : Reuss Voigt Hill
#
# Bulk Modulus (GPa) = 11.71065 38.26774 24.98920
# Shear Modulus (GPa) = 16.95511 27.61464 22.28488
#
# Velocity S-wave (km/s) = 2.54526 3.24827 2.91802
# Velocity P-wave (km/s) = 3.62110 5.35631 4.57178
#
# Compressibility (1/GPa) = 0.08539234
#
# Stress axis : x y z
#
# Youngs Moduli (GPa) = 53.01871 -84.32578 23.74076
#
# Poissons Ratio (x) = 0.12310 -0.34958
# Poissons Ratio (y) = -0.07740 -0.04628
# Poissons Ratio (z) = -0.78070 0.16438
#
# Static dielectric constant tensor:
#      x y z
#    x 2.064290 -0.059070 0.008370 
#    y -0.059070 2.175710 -0.062140 
#    z 0.008370 -0.062140 2.046120 
# 
# From -- ./inp_files/299662.got.cif
#   From: 2010.05.17/outbox.cif.g08.bks.cpg/sg2_150_cif.got.tgz:299662.got - 2010.06.03 11:33:40.
