data_PCOD9082760
_publ_section_title
;
Structure prediction by ZEFSAII (Michael W. Deem and Ramdas Pophale) SiO2 
 PCOD9082760
Probable space group: P -1
;
_chemical_formula_sum "Si O2"
_cell_formula_units_Z 16
_cell_length_a 14.155681
_cell_length_b 9.089481
_cell_length_c 7.462919
_cell_angle_alpha 47.866040
_cell_angle_beta 94.666866
_cell_angle_gamma 74.332748
_cell_volume 637.608560
_symmetry_space_group_name_H-M "P -1"
_symmetry_group_IT_number 2
_symmetry_cell_setting 'triclinic'
loop_
_space_group_symop_operation_xyz
x,y,z
-x,-y,-z
loop_
_atom_site_type_symbol
_atom_site_label
_atom_site_fract_x
_atom_site_fract_y
_atom_site_fract_z
Si Si1 0.789232 0.272546 0.983983
Si Si2 0.593288 0.145031 0.542590
Si Si3 0.370363 0.278890 0.256247
Si Si4 0.720817 0.371345 0.465760
Si Si5 0.707235 0.953719 0.259175
Si Si6 0.502978 0.233367 0.832459
Si Si7 0.847748 0.608626 0.278285
Si Si8 0.014352 0.764094 0.111447
O O1 0.704458 0.468030 0.928524
O O2 0.755963 0.305828 0.735189
O O3 0.902530 0.275889 0.002077
O O4 0.794395 0.040609 0.238856
O O5 0.492793 0.233721 0.322102
O O6 0.694654 0.191727 0.506015
O O7 0.536112 0.270409 0.610724
O O8 0.632129 0.882243 0.769080
O O9 0.331404 0.170337 0.502374
O O10 0.607197 0.581187 0.277826
O O11 0.799571 0.452093 0.314875
O O12 0.753934 0.795117 0.226230
O O13 0.603666 0.177853 0.016092
O O14 0.500000 0.000000 0.000000
O O15 0.924840 0.432990 0.578132
O O16 0.908965 0.730560 0.087309
O O17 0.000000 0.000000 0.000000
#
# Coordination Sequence:
#
# PCOD9082760 Si02
#       8
#     2   2   2   2   2   2   2   2
#     4  11  20  36  61  83 115 152 197 240 292 339
#     4  11  22  37  56  79 123 162 190 232 287 340
#     4  11  23  40  51  84 125 156 190 240 284 339
#     4  11  20  36  57  83 117 156 192 242 281 339
#     4  12  20  34  60  88 113 154 193 234 287 344
#     4  12  19  33  58  85 112 155 197 230 278 338
#     4  10  20  33  54  91 117 137 194 250 286 336
#     4  10  19  33  57  88 115 145 186 251 297 332
#
# _framework density 25.093764
#
# number of rings (size 3 to 8) (size 9 to 14) (size 15 to 20)
#    0.000    1.000    8.750    1.125    0.000    0.000 
#    2.250    1.875    0.000    0.750    0.000    5.250 
#    0.000    0.000    0.000    0.000    0.000    0.000 
#
# Total GULP energy -89332.931244 kJ/mol
# GULP energy per Si atom -5583.308203 kJ/mol
# Density = 2.503665 g / cm^3
# Si number density = 25.093764 Si / 1000 Ang^3
#
#
#
# Elastic Constant Matrix: (Units=GPa)
#
#
# Indices 1 2 3 4 5 6 
#
# 1 172.7106 37.3122 17.3518 -0.8327 -30.7844 30.8097
# 2 37.3122 94.2101 12.8564 -9.8242 -9.2436 14.6147
# 3 17.3518 12.8564 29.3008 8.2205 -0.5161 -1.0557
# 4 -0.8327 -9.8242 8.2205 17.7806 -1.7647 -1.9096
# 5 -30.7844 -9.2436 -0.5161 -1.7647 28.1191 -22.1495
# 6 30.8097 14.6147 -1.0557 -1.9096 -22.1495 37.0263
#
#
#
# Elastic Compliance Matrix: (Units=1/GPa)
#
#
# Indices 1 2 3 4 5 6 
#
# 1 0.008194 -0.001314 -0.004899 0.002364 0.006848 -0.002221
# 2 -0.001314 0.014193 -0.008806 0.011563 0.000967 -0.003585
# 3 -0.004899 -0.008806 0.048728 -0.027805 -0.006042 0.003893
# 4 0.002364 0.011563 -0.027805 0.077759 0.015410 0.005905
# 5 0.006848 0.000967 -0.006042 0.015410 0.075522 0.039721
# 6 -0.002221 -0.003585 0.003893 0.005905 0.039721 0.054448
#
#
# Mechanical properties :
#
#
# Convention : Reuss Voigt Hill
#
# Bulk Modulus (GPa) = 24.34327 47.91804 36.13065
# Shear Modulus (GPa) = 15.50029 31.83193 23.66611
#
# Velocity S-wave (km/s) = 2.48804 3.56549 3.07434
# Velocity P-wave (km/s) = 4.23979 6.00728 5.19919
#
# Compressibility (1/GPa) = 0.04107912
#
# Stress axis : x y z
#
# Youngs Moduli (GPa) = 122.03671 70.45497 20.52210
#
# Poissons Ratio (x) = 0.09257 0.10053
# Poissons Ratio (y) = 0.16035 0.18071
# Poissons Ratio (z) = 0.59781 0.62041
#
# Static dielectric constant tensor:
#      x y z
#    x 2.122870 0.057490 -0.000700 
#    y 0.057490 2.030320 0.078350 
#    z -0.000700 0.078350 2.098180 
# 
# From -- ./inp_files/294165.got.cif
#   From: 2010.05.17/outbox.cif.g08.bks.cpg/sg2_148_cif.got.tgz:294165.got - 2010.06.03 11:33:40.
