data_PCOD9082244
_publ_section_title
;
Structure prediction by ZEFSAII (Michael W. Deem and Ramdas Pophale) SiO2 
 PCOD9082244
Probable space group: P -1
;
_chemical_formula_sum "Si O2"
_cell_formula_units_Z 14
_cell_length_a 11.596336
_cell_length_b 13.962900
_cell_length_c 15.989971
_cell_angle_alpha 149.232064
_cell_angle_beta 29.028233
_cell_angle_gamma 148.703935
_cell_volume 584.528987
_symmetry_space_group_name_H-M "P -1"
_symmetry_group_IT_number 2
_symmetry_cell_setting 'triclinic'
loop_
_space_group_symop_operation_xyz
x,y,z
-x,-y,-z
loop_
_atom_site_type_symbol
_atom_site_label
_atom_site_fract_x
_atom_site_fract_y
_atom_site_fract_z
Si Si1 0.216492 0.910015 0.796648
Si Si2 0.867137 0.903707 0.298298
Si Si3 0.680717 0.239479 0.842132
Si Si4 0.402250 0.517798 0.289940
Si Si5 0.176948 0.745763 0.511774
Si Si6 0.868795 0.335472 0.164658
Si Si7 0.646460 0.936628 0.784579
O O1 0.195158 0.811242 0.646169
O O2 0.154078 0.748864 0.790733
O O3 0.497614 0.091470 0.776124
O O4 0.000000 0.000000 0.000000
O O5 0.623940 0.705689 0.339507
O O6 0.765459 0.050506 0.423413
O O7 0.082368 0.040920 0.330893
O O8 0.004255 0.797692 0.068842
O O9 0.941935 0.426077 0.785523
O O10 0.719052 0.099400 0.784959
O O11 0.510186 0.349456 0.074601
O O12 0.351357 0.615300 0.307640
O O13 0.125243 0.402484 0.423305
O O14 0.578573 0.272871 0.264840
O O15 0.500000 0.000000 0.000000
#
# Coordination Sequence:
#
# PCOD9082244 Si02
#       7
#     2   2   2   2   2   2   2
#     4  11  19  34  54  76 111 143 173 218 262 312
#     4  10  19  33  53  80 108 138 175 218 267 311
#     4  10  20  35  55  83 106 136 180 220 263 312
#     4  10  21  33  52  79 109 141 173 213 267 316
#     4  11  21  35  51  79 115 139 170 215 264 321
#     4   9  19  32  52  80 104 136 175 221 266 304
#     4   9  18  32  54  81 109 133 173 229 267 300
#
# _framework density 23.950907999999998
#
# number of rings (size 3 to 8) (size 9 to 14) (size 15 to 20)
#    0.000    2.000    2.857    2.143    0.000    8.000 
#    0.000    0.000    0.000    3.429    0.000   57.000 
#    0.000    0.000    0.000    0.000    0.000    0.000 
#
# Total GULP energy -78342.399356 kJ/mol
# GULP energy per Si atom -5595.885668 kJ/mol
# Density = 2.389639 g / cm^3
# Si number density = 23.950908 Si / 1000 Ang^3
#
#
#
# Elastic Constant Matrix: (Units=GPa)
#
#
# Indices 1 2 3 4 5 6 
#
# 1 112.0854 53.4243 15.3784 -6.9040 7.2380 16.7084
# 2 53.4243 188.4026 11.1072 -3.3789 10.3030 15.5278
# 3 15.3784 11.1072 46.2727 3.3936 5.0513 2.3154
# 4 -6.9040 -3.3789 3.3936 27.5860 3.4001 -9.5382
# 5 7.2380 10.3030 5.0513 3.4001 20.3060 -2.8096
# 6 16.7084 15.5278 2.3154 -9.5382 -2.8096 26.5855
#
#
#
# Elastic Compliance Matrix: (Units=1/GPa)
#
#
# Indices 1 2 3 4 5 6 
#
# 1 0.011579 -0.002476 -0.002743 0.001455 -0.003180 -0.005406
# 2 -0.002476 0.006370 -0.000271 -0.000369 -0.002572 -0.002545
# 3 -0.002743 -0.000271 0.023436 -0.003744 -0.004360 -0.001963
# 4 0.001455 -0.000369 -0.003744 0.042576 -0.004533 0.014423
# 5 -0.003180 -0.002572 -0.004360 -0.004533 0.054640 0.008029
# 6 -0.005406 -0.002545 -0.001963 0.014423 0.008029 0.048693
#
#
# Mechanical properties :
#
#
# Convention : Reuss Voigt Hill
#
# Bulk Modulus (GPa) = 32.88881 56.28675 44.58778
# Shear Modulus (GPa) = 23.99136 32.68553 28.33845
#
# Velocity S-wave (km/s) = 3.16838 3.69818 3.44348
# Velocity P-wave (km/s) = 5.21022 6.46431 5.87085
#
# Compressibility (1/GPa) = 0.03040547
#
# Stress axis : x y z
#
# Youngs Moduli (GPa) = 86.36152 156.99365 42.66872
#
# Poissons Ratio (x) = 0.38874 0.11704
# Poissons Ratio (y) = 0.21385 0.01156
# Poissons Ratio (z) = 0.23688 0.04252
#
# Static dielectric constant tensor:
#      x y z
#    x 1.885950 0.011120 -0.018010 
#    y 0.011120 1.953470 0.004460 
#    z -0.018010 0.004460 1.982900 
# 
# From -- ./inp_files/216224.got.cif
#   From: 2010.05.17/outbox.cif.g08.bks.cpg/sg2_109_cif.got.tgz:216224.got - 2010.06.03 11:33:40.
