data_PCOD9082176
_publ_section_title
;
Structure prediction by ZEFSAII (Michael W. Deem and Ramdas Pophale) SiO2 
 PCOD9082176
Probable space group: P -1
;
_chemical_formula_sum "Si O2"
_cell_formula_units_Z 16
_cell_length_a 14.811159
_cell_length_b 11.525133
_cell_length_c 15.638621
_cell_angle_alpha 68.807053
_cell_angle_beta 47.733022
_cell_angle_gamma 31.378073
_cell_volume 857.668590
_symmetry_space_group_name_H-M "P -1"
_symmetry_group_IT_number 2
_symmetry_cell_setting 'triclinic'
loop_
_space_group_symop_operation_xyz
x,y,z
-x,-y,-z
loop_
_atom_site_type_symbol
_atom_site_label
_atom_site_fract_x
_atom_site_fract_y
_atom_site_fract_z
Si Si1 0.510467 0.587502 0.844007
Si Si2 0.923901 0.135662 0.844256
Si Si3 0.755466 0.518678 0.414663
Si Si4 0.056949 0.410652 0.362119
Si Si5 0.292143 0.687607 0.387820
Si Si6 0.676981 0.418656 0.342052
Si Si7 0.423810 0.190646 0.311600
Si Si8 0.247623 0.090663 0.662551
O O1 0.715415 0.378313 0.845278
O O2 0.617044 0.422096 0.736265
O O3 0.501441 0.742049 0.789795
O O4 0.234914 0.780548 0.998826
O O5 0.088884 0.880112 0.759269
O O6 0.111264 0.080189 0.765661
O O7 0.016902 0.350145 0.326557
O O8 0.703524 0.446834 0.528031
O O9 0.763691 0.460632 0.328687
O O10 0.504695 0.833059 0.508975
O O11 0.844338 0.555856 0.529181
O O12 0.331924 0.183477 0.295168
O O13 0.946728 0.640839 0.333972
O O14 0.488545 0.605581 0.331263
O O15 0.000000 0.000000 0.500000
O O16 0.500000 0.500000 0.500000
O O17 0.645093 0.955904 0.302484
#
# Coordination Sequence:
#
# PCOD9082176 Si02
#       8
#     2   2   2   2   2   2   2   2
#     4  11  21  36  55  86 116 147 193 234 292 343
#     4  11  22  35  58  83 116 154 183 241 293 341
#     4  10  19  35  52  81 113 144 191 225 292 334
#     4  10  20  34  55  81 115 149 185 243 280 327
#     4  11  21  33  53  83 115 147 185 240 281 339
#     4  10  19  36  53  77 115 148 188 230 292 337
#     4  10  19  33  52  81 111 142 191 228 286 334
#     4  11  19  35  55  85 114 148 186 240 284 336
#
# _framework density 18.655225000000002
#
# number of rings (size 3 to 8) (size 9 to 14) (size 15 to 20)
#    0.000    1.500    6.250    3.000    0.000    2.000 
#    2.250    0.000    0.000    0.750    0.000    4.375 
#    0.000    0.000    0.000    0.000    0.000    0.000 
#
# Total GULP energy -89244.273018 kJ/mol
# GULP energy per Si atom -5577.767064 kJ/mol
# Density = 1.861276 g / cm^3
# Si number density = 18.655225 Si / 1000 Ang^3
#
#
#
# Elastic Constant Matrix: (Units=GPa)
#
#
# Indices 1 2 3 4 5 6 
#
# 1 161.3393 14.9440 27.4081 -5.6832 -11.5676 -12.2745
# 2 14.9440 55.2693 18.8799 -6.1190 -3.6990 -4.8260
# 3 27.4081 18.8799 82.6997 -8.2164 -6.1640 8.2154
# 4 -5.6832 -6.1190 -8.2164 21.9261 2.6739 -0.9496
# 5 -11.5676 -3.6990 -6.1640 2.6739 20.6180 3.1515
# 6 -12.2745 -4.8260 8.2154 -0.9496 3.1515 19.2342
#
#
#
# Elastic Compliance Matrix: (Units=1/GPa)
#
#
# Indices 1 2 3 4 5 6 
#
# 1 0.007273 -0.000374 -0.002605 0.000751 0.002324 0.005317
# 2 -0.000374 0.021012 -0.004950 0.004176 0.000425 0.007285
# 3 -0.002605 -0.004950 0.015630 0.002944 0.003470 -0.010004
# 4 0.000751 0.004176 0.002944 0.048808 -0.004809 0.003467
# 5 0.002324 0.000425 0.003470 -0.004809 0.052887 -0.008795
# 6 0.005317 0.007285 -0.010004 0.003467 -0.008795 0.063096
#
#
# Mechanical properties :
#
#
# Convention : Reuss Voigt Hill
#
# Bulk Modulus (GPa) = 35.64145 46.86358 41.25252
# Shear Modulus (GPa) = 21.37508 28.22743 24.80126
#
# Velocity S-wave (km/s) = 3.38863 3.89409 3.65012
# Velocity P-wave (km/s) = 5.87003 6.73751 6.31867
#
# Compressibility (1/GPa) = 0.02805722
#
# Stress axis : x y z
#
# Youngs Moduli (GPa) = 137.49662 47.59181 63.97757
#
# Poissons Ratio (x) = 0.01778 0.16668
# Poissons Ratio (y) = 0.05136 0.31670
# Poissons Ratio (z) = 0.35823 0.23559
#
# Static dielectric constant tensor:
#      x y z
#    x 1.738660 -0.012180 0.002800 
#    y -0.012180 1.680270 0.009000 
#    z 0.002800 0.009000 1.637710 
# 
# From -- ./inp_files/282140.got.cif
#   From: 2010.05.17/outbox.cif.g08.bks.cpg/sg2_142_cif.got.tgz:282140.got - 2010.06.03 11:33:40.
