data_PCOD9082574
_publ_section_title
;
Structure prediction by ZEFSAII (Michael W. Deem and Ramdas Pophale) SiO2 
 PCOD9082574
Probable space group: P -1
;
_chemical_formula_sum "Si O2"
_cell_formula_units_Z 14
_cell_length_a 13.831365
_cell_length_b 11.523379
_cell_length_c 11.236478
_cell_angle_alpha 103.758572
_cell_angle_beta 145.341363
_cell_angle_gamma 49.332218
_cell_volume 558.167407
_symmetry_space_group_name_H-M "P -1"
_symmetry_group_IT_number 2
_symmetry_cell_setting 'triclinic'
loop_
_space_group_symop_operation_xyz
x,y,z
-x,-y,-z
loop_
_atom_site_type_symbol
_atom_site_label
_atom_site_fract_x
_atom_site_fract_y
_atom_site_fract_z
Si Si1 0.785321 0.637581 0.435458
Si Si2 0.582293 0.229204 0.520469
Si Si3 0.609853 0.356110 0.971261
Si Si4 0.328519 0.983511 0.879286
Si Si5 0.189727 0.865250 0.526324
Si Si6 0.787148 0.743903 0.725794
Si Si7 0.836445 0.274443 0.944464
O O1 0.857645 0.653128 0.641085
O O2 0.000000 0.500000 0.500000
O O3 0.648845 0.586923 0.310940
O O4 0.502966 0.873512 0.153441
O O5 0.626311 0.248098 0.436063
O O6 0.305339 0.305788 0.290217
O O7 0.604903 0.326066 0.655396
O O8 0.875303 0.976523 0.790411
O O9 0.705233 0.383824 0.965911
O O10 0.500000 0.500000 0.000000
O O11 0.899370 0.113985 0.251601
O O12 0.369122 0.845378 0.797332
O O13 0.974961 0.159724 0.597247
O O14 0.500000 0.000000 0.000000
O O15 0.052597 0.680361 0.009966
O O16 0.500000 0.000000 0.500000
#
# Coordination Sequence:
#
# PCOD9082574 Si02
#       7
#     2   2   2   2   2   2   2
#     4  11  23  38  58  93 122 152 201 247 295 355
#     4   9  17  31  52  78 112 140 188 244 283 336
#     4  10  19  33  56  82 122 153 187 242 297 339
#     4  10  23  37  58  84 119 158 197 238 294 353
#     4   9  21  38  55  85 117 151 200 240 286 354
#     4  10  20  31  55  88 118 146 193 246 295 342
#     4   9  17  28  47  78 110 144 181 232 290 333
#
# _framework density 25.082082
#
# number of rings (size 3 to 8) (size 9 to 14) (size 15 to 20)
#    0.000    2.286    1.429    0.857   14.000    0.000 
#    0.000    0.000    0.000    0.857    3.714    7.000 
#    0.000    0.000    0.000    0.000    0.000    0.000 
#
# Total GULP energy -78150.302038 kJ/mol
# GULP energy per Si atom -5582.164431 kJ/mol
# Density = 2.502499 g / cm^3
# Si number density = 25.082082 Si / 1000 Ang^3
#
#
#
# Elastic Constant Matrix: (Units=GPa)
#
#
# Indices 1 2 3 4 5 6 
#
# 1 176.2835 26.5844 40.3311 11.6394 48.2191 -1.5959
# 2 26.5844 88.9022 21.6270 -3.4077 14.8511 -18.9435
# 3 40.3311 21.6270 89.8601 -1.9580 32.9375 6.0243
# 4 11.6394 -3.4077 -1.9580 34.6282 8.3791 3.4400
# 5 48.2191 14.8511 32.9375 8.3791 53.2042 4.3951
# 6 -1.5959 -18.9435 6.0243 3.4400 4.3951 48.4366
#
#
#
# Elastic Compliance Matrix: (Units=1/GPa)
#
#
# Indices 1 2 3 4 5 6 
#
# 1 0.007803 -0.000975 -0.001180 -0.001424 -0.005900 0.000659
# 2 -0.000975 0.013777 -0.002438 0.001498 -0.002164 0.005749
# 3 -0.001180 -0.002438 0.015457 0.003237 -0.008129 -0.002407
# 4 -0.001424 0.001498 0.003237 0.031276 -0.005930 -0.001547
# 5 -0.005900 -0.002164 -0.008129 -0.005930 0.030912 -0.002413
# 6 0.000659 0.005749 -0.002407 -0.001547 -0.002413 0.023544
#
#
# Mechanical properties :
#
#
# Convention : Reuss Voigt Hill
#
# Bulk Modulus (GPa) = 35.90613 59.12564 47.51589
# Shear Modulus (GPa) = 35.40104 45.02069 40.21086
#
# Velocity S-wave (km/s) = 3.76095 4.24126 4.00831
# Velocity P-wave (km/s) = 5.76248 6.89989 6.35667
#
# Compressibility (1/GPa) = 0.02785039
#
# Stress axis : x y z
#
# Youngs Moduli (GPa) = 128.14825 72.58588 64.69698
#
# Poissons Ratio (x) = 0.07076 0.07637
# Poissons Ratio (y) = 0.12493 0.15772
# Poissons Ratio (z) = 0.15128 0.17696
#
# Static dielectric constant tensor:
#      x y z
#    x 1.965040 0.036540 -0.021440 
#    y 0.036540 2.038590 -0.091900 
#    z -0.021440 -0.091900 2.030430 
# 
# From -- ./inp_files/430790.got.cif
#   From: 2010.05.17/outbox.cif.g08.bks.cpg/sg2_216_cif.got.tgz:430790.got - 2010.06.03 11:33:40.
