data_PCOD9082602
_publ_section_title
;
Structure prediction by ZEFSAII (Michael W. Deem and Ramdas Pophale) SiO2 
 PCOD9082602
Probable space group: P -1
;
_chemical_formula_sum "Si O2"
_cell_formula_units_Z 14
_cell_length_a 17.669895
_cell_length_b 8.125385
_cell_length_c 14.675151
_cell_angle_alpha 47.191754
_cell_angle_beta 157.041597
_cell_angle_gamma 133.423710
_cell_volume 588.771506
_symmetry_space_group_name_H-M "P -1"
_symmetry_group_IT_number 2
_symmetry_cell_setting 'triclinic'
loop_
_space_group_symop_operation_xyz
x,y,z
-x,-y,-z
loop_
_atom_site_type_symbol
_atom_site_label
_atom_site_fract_x
_atom_site_fract_y
_atom_site_fract_z
Si Si1 0.144410 0.934614 0.969157
Si Si2 0.501096 0.757045 0.434330
Si Si3 0.555976 0.137443 0.873692
Si Si4 0.959600 0.402457 0.191623
Si Si5 0.492751 0.356490 0.139336
Si Si6 0.161362 0.868274 0.318691
Si Si7 0.300890 0.211604 0.716196
O O1 0.988674 0.025832 0.824853
O O2 0.049419 0.745134 0.857327
O O3 0.291942 0.166869 0.005944
O O4 0.299120 0.798777 0.239073
O O5 0.500000 0.500000 0.500000
O O6 0.506472 0.866571 0.297826
O O7 0.686598 0.907095 0.636643
O O8 0.360703 0.098814 0.733134
O O9 0.733285 0.362031 0.989378
O O10 0.668270 0.944033 0.106578
O O11 0.055217 0.673100 0.203502
O O12 0.091081 0.277960 0.450390
O O13 0.695205 0.263295 0.414389
O O14 0.527221 0.558117 0.176360
O O15 0.500000 0.500000 0.000000
#
# Coordination Sequence:
#
# PCOD9082602 Si02
#       7
#     2   2   2   2   2   2   2
#     4  10  21  38  59  83 116 154 192 237 286 339
#     4  10  22  41  61  82 113 151 195 244 288 338
#     4  10  20  35  56  84 115 151 190 231 286 341
#     4  10  20  34  56  86 117 145 185 233 280 344
#     4  10  20  34  53  84 122 156 190 230 281 345
#     4  10  21  37  58  83 112 150 193 235 288 344
#     4  10  19  33  56  84 118 151 183 230 284 344
#
# _framework density 23.778326
#
# number of rings (size 3 to 8) (size 9 to 14) (size 15 to 20)
#    0.000    2.000    0.000    4.714    0.000    3.429 
#    0.000    2.857    0.000   24.000    0.000    0.000 
#    0.000    0.000    0.000    0.000    0.000    0.000 
#
# Total GULP energy -77974.979536 kJ/mol
# GULP energy per Si atom -5569.641395 kJ/mol
# Density = 2.372421 g / cm^3
# Si number density = 23.778326 Si / 1000 Ang^3
#
#
#
# Elastic Constant Matrix: (Units=GPa)
#
#
# Indices 1 2 3 4 5 6 
#
# 1 63.9292 19.3946 26.0038 -1.9713 14.3410 -9.6308
# 2 19.3946 175.9555 38.3434 29.6639 0.2375 -23.6950
# 3 26.0038 38.3434 76.8522 5.7006 8.2894 -0.3180
# 4 -1.9713 29.6639 5.7006 30.7368 -1.0074 -3.6207
# 5 14.3410 0.2375 8.2894 -1.0074 21.3169 -2.4422
# 6 -9.6308 -23.6950 -0.3180 -3.6207 -2.4422 18.7337
#
#
#
# Elastic Compliance Matrix: (Units=1/GPa)
#
#
# Indices 1 2 3 4 5 6 
#
# 1 0.022601 -0.000295 -0.006520 0.003798 -0.011296 0.010397
# 2 -0.000295 0.009176 -0.004213 -0.006781 0.002607 0.010412
# 3 -0.006520 -0.004213 0.017724 -0.000815 -0.003528 -0.008998
# 4 0.003798 -0.006781 -0.000815 0.039584 -0.000179 0.000989
# 5 -0.011296 0.002607 -0.003528 -0.000179 0.056389 0.004747
# 6 0.010397 0.010412 -0.008998 0.000989 0.004747 0.072551
#
#
# Mechanical properties :
#
#
# Convention : Reuss Voigt Hill
#
# Bulk Modulus (GPa) = 36.43893 53.80229 45.12061
# Shear Modulus (GPa) = 20.06175 29.69048 24.87611
#
# Velocity S-wave (km/s) = 2.90780 3.53744 3.23796
# Velocity P-wave (km/s) = 5.16057 6.27378 5.74421
#
# Compressibility (1/GPa) = 0.02744317
#
# Stress axis : x y z
#
# Youngs Moduli (GPa) = 44.24495 108.98353 56.42051
#
# Poissons Ratio (x) = 0.03219 0.36789
# Poissons Ratio (y) = 0.01307 0.23771
# Poissons Ratio (z) = 0.28850 0.45917
#
# Static dielectric constant tensor:
#      x y z
#    x 1.924840 -0.057470 -0.004810 
#    y -0.057470 2.035200 0.005410 
#    z -0.004810 0.005410 1.966140 
# 
# From -- ./inp_files/327197.got.cif
#   From: 2010.05.17/outbox.cif.g08.bks.cpg/sg2_164_cif.got.tgz:327197.got - 2010.06.03 11:33:40.
