data_PCOD9082104
_publ_section_title
;
Structure prediction by ZEFSAII (Michael W. Deem and Ramdas Pophale) SiO2 
 PCOD9082104
Probable space group: P -1
;
_chemical_formula_sum "Si O2"
_cell_formula_units_Z 16
_cell_length_a 18.654589
_cell_length_b 12.435588
_cell_length_c 5.436565
_cell_angle_alpha 133.022627
_cell_angle_beta 108.782882
_cell_angle_gamma 63.145837
_cell_volume 822.412077
_symmetry_space_group_name_H-M "P -1"
_symmetry_group_IT_number 2
_symmetry_cell_setting 'triclinic'
loop_
_space_group_symop_operation_xyz
x,y,z
-x,-y,-z
loop_
_atom_site_type_symbol
_atom_site_label
_atom_site_fract_x
_atom_site_fract_y
_atom_site_fract_z
Si Si1 0.872816 0.144216 0.996760
Si Si2 0.528729 0.174357 0.352954
Si Si3 0.177032 0.073115 0.781847
Si Si4 0.676852 0.943808 0.349903
Si Si5 0.420398 0.566872 0.352342
Si Si6 0.280214 0.821229 0.886477
Si Si7 0.428594 0.230340 0.815882
Si Si8 0.024887 0.109670 0.893611
O O1 0.939339 0.214102 0.075874
O O2 0.844309 0.051493 0.609097
O O3 0.789179 0.242124 0.183940
O O4 0.923268 0.010035 0.031429
O O5 0.554986 0.327777 0.656873
O O6 0.481406 0.158133 0.521521
O O7 0.608650 0.023138 0.195069
O O8 0.480405 0.198466 0.079435
O O9 0.235643 0.141957 0.803492
O O10 0.089915 0.177684 0.952184
O O11 0.232668 0.965896 0.885057
O O12 0.642491 0.837979 0.317637
O O13 0.683642 0.093700 0.736646
O O14 0.500000 0.500000 0.500000
O O15 0.348758 0.688370 0.615434
O O16 0.398281 0.416074 0.019772
O O17 0.000000 0.000000 0.500000
#
# Coordination Sequence:
#
# PCOD9082104 Si02
#       8
#     2   2   2   2   2   2   2   2
#     4   8  15  26  45  74 102 138 171 213 263 318
#     4  11  22  39  56  76 101 143 186 234 278 328
#     4   9  17  28  47  73 105 138 172 217 271 318
#     4  11  21  33  54  77 105 139 181 230 276 329
#     4  10  21  39  55  75 104 145 185 233 276 323
#     4  10  19  33  51  74 106 142 182 221 273 321
#     4  11  25  37  56  78 105 140 187 233 281 323
#     4   8  13  25  44  71 108 134 165 211 267 316
#
# _framework density 19.454965999999999
#
# number of rings (size 3 to 8) (size 9 to 14) (size 15 to 20)
#    0.000    2.250    1.250    2.625    1.750    1.000 
#    0.000    0.000    0.000    0.000    0.000    0.875 
#    0.000   90.000    0.000   15.000    0.000    1.000 
#
# Total GULP energy -89083.496346 kJ/mol
# GULP energy per Si atom -5567.718522 kJ/mol
# Density = 1.941069 g / cm^3
# Si number density = 19.454966 Si / 1000 Ang^3
#
#
#
# Elastic Constant Matrix: (Units=GPa)
#
#
# Indices 1 2 3 4 5 6 
#
# 1 231.2855 27.5231 25.1832 14.6199 -11.9857 14.9336
# 2 27.5231 43.4381 15.1222 -11.0315 11.6010 8.0467
# 3 25.1832 15.1222 41.0931 -7.0823 2.1975 -1.8416
# 4 14.6199 -11.0315 -7.0823 36.1452 3.4168 4.9668
# 5 -11.9857 11.6010 2.1975 3.4168 19.9571 -2.4539
# 6 14.9336 8.0467 -1.8416 4.9668 -2.4539 24.4030
#
#
#
# Elastic Compliance Matrix: (Units=1/GPa)
#
#
# Indices 1 2 3 4 5 6 
#
# 1 0.006353 -0.007310 -0.002777 -0.006321 0.009521 0.000557
# 2 -0.007310 0.051824 -0.009329 0.023808 -0.040296 -0.022217
# 3 -0.002777 -0.009329 0.030286 0.003260 0.000657 0.006464
# 4 -0.006321 0.023808 0.003260 0.042783 -0.027186 -0.015177
# 5 0.009521 -0.040296 0.000657 -0.027186 0.086505 0.021742
# 6 0.000557 -0.022217 0.006464 -0.015177 0.021742 0.053727
#
#
# Mechanical properties :
#
#
# Convention : Reuss Voigt Hill
#
# Bulk Modulus (GPa) = 20.14842 50.16376 35.15609
# Shear Modulus (GPa) = 15.29731 32.63361 23.96546
#
# Velocity S-wave (km/s) = 2.80713 4.10004 3.51357
# Velocity P-wave (km/s) = 4.57008 6.94653 5.87962
#
# Compressibility (1/GPa) = 0.04963168
#
# Stress axis : x y z
#
# Youngs Moduli (GPa) = 157.40784 19.29590 33.01831
#
# Poissons Ratio (x) = 0.14105 0.09169
# Poissons Ratio (y) = 1.15065 0.30803
# Poissons Ratio (z) = 0.43710 0.18001
#
# Static dielectric constant tensor:
#      x y z
#    x 1.733180 0.205910 -0.078010 
#    y 0.205910 1.329530 0.106120 
#    z -0.078010 0.106120 1.677620 
# 
# From -- ./inp_files/108749.got.cif
#   From: 2010.05.17/outbox.cif.g08.bks.cpg/sg2_55_cif.got.tgz:108749.got - 2010.06.03 11:33:40.
