data_PCOD9082818
_publ_section_title
;
Structure prediction by ZEFSAII (Michael W. Deem and Ramdas Pophale) SiO2 
 PCOD9082818
Probable space group: P -1
;
_chemical_formula_sum "Si O2"
_cell_formula_units_Z 14
_cell_length_a 14.835597
_cell_length_b 10.421643
_cell_length_c 13.825601
_cell_angle_alpha 134.675920
_cell_angle_beta 152.375214
_cell_angle_gamma 34.033525
_cell_volume 550.720168
_symmetry_space_group_name_H-M "P -1"
_symmetry_group_IT_number 2
_symmetry_cell_setting 'triclinic'
loop_
_space_group_symop_operation_xyz
x,y,z
-x,-y,-z
loop_
_atom_site_type_symbol
_atom_site_label
_atom_site_fract_x
_atom_site_fract_y
_atom_site_fract_z
Si Si1 0.316661 0.821604 0.269657
Si Si2 0.142940 0.162090 0.139783
Si Si3 0.776241 0.671554 0.007650
Si Si4 0.512580 0.702695 0.590507
Si Si5 0.373154 0.502683 0.782522
Si Si6 0.370727 0.857324 0.877620
Si Si7 0.634951 0.835731 0.305401
O O1 0.522217 0.693898 0.479076
O O2 0.417337 0.667521 0.187654
O O3 0.241296 0.062813 0.288487
O O4 0.072212 0.862055 0.095896
O O5 0.365148 0.006938 0.193717
O O6 0.997319 0.430706 0.134195
O O7 0.724613 0.649716 0.836288
O O8 0.524550 0.758829 0.872246
O O9 0.807651 0.867070 0.150874
O O10 0.500000 0.500000 0.500000
O O11 0.301470 0.987556 0.550014
O O12 0.246246 0.746713 0.738992
O O13 0.240241 0.394056 0.631788
O O14 0.500000 0.500000 0.000000
O O15 0.578070 0.793312 0.121990
#
# Coordination Sequence:
#
# PCOD9082818 Si02
#       7
#     2   2   2   2   2   2   2
#     4  10  20  34  57  82 112 145 175 225 280 320
#     4  10  19  35  54  87 107 138 185 228 270 314
#     4  10  19  33  58  82 107 146 184 220 267 325
#     4  11  20  35  52  84 114 144 175 224 279 330
#     4   9  16  32  52  82 105 136 185 228 251 313
#     4   9  17  32  53  82 105 145 186 222 255 326
#     4   9  21  32  57  86 107 139 186 232 265 317
#
# _framework density 25.421258999999999
#
# number of rings (size 3 to 8) (size 9 to 14) (size 15 to 20)
#    0.000    2.286    2.857    0.000    0.000    4.571 
#    0.000    0.000    0.000    8.571   55.714    0.000 
#    0.000    0.000    0.000    0.000    0.000    0.000 
#
# Total GULP energy -78121.917882 kJ/mol
# GULP energy per Si atom -5580.136992 kJ/mol
# Density = 2.536340 g / cm^3
# Si number density = 25.421259 Si / 1000 Ang^3
#
#
#
# Elastic Constant Matrix: (Units=GPa)
#
#
# Indices 1 2 3 4 5 6 
#
# 1 123.1360 77.7797 52.3054 -9.2599 -9.6861 24.0325
# 2 77.7797 172.5947 42.3247 9.9342 4.8065 72.4517
# 3 52.3054 42.3247 67.2605 3.8725 -3.6828 -3.7221
# 4 -9.2599 9.9342 3.8725 27.4281 1.7481 -3.0920
# 5 -9.6861 4.8065 -3.6828 1.7481 42.4236 -1.4451
# 6 24.0325 72.4517 -3.7221 -3.0920 -1.4451 67.2017
#
#
#
# Elastic Compliance Matrix: (Units=1/GPa)
#
#
# Indices 1 2 3 4 5 6 
#
# 1 0.016908 -0.006048 -0.009660 0.009098 0.003347 0.000429
# 2 -0.006048 0.019825 -0.008571 -0.009998 -0.004649 -0.020245
# 3 -0.009660 -0.008571 0.028819 -0.002743 0.001864 0.014205
# 4 0.009098 -0.009998 -0.002743 0.044511 0.001460 0.009453
# 5 0.003347 -0.004649 0.001864 0.001460 0.025118 0.004525
# 6 0.000429 -0.020245 0.014205 0.009453 0.004525 0.037873
#
#
# Mechanical properties :
#
#
# Convention : Reuss Voigt Hill
#
# Bulk Modulus (GPa) = 58.84246 78.64564 68.74405
# Shear Modulus (GPa) = 21.99949 40.11610 31.05780
#
# Velocity S-wave (km/s) = 2.94496 3.97678 3.49911
# Velocity P-wave (km/s) = 5.89584 7.21738 6.58982
#
# Compressibility (1/GPa) = 0.01699453
#
# Stress axis : x y z
#
# Youngs Moduli (GPa) = 59.14292 50.44193 34.69899
#
# Poissons Ratio (x) = 0.30506 0.33519
# Poissons Ratio (y) = 0.35768 0.29741
# Poissons Ratio (z) = 0.57131 0.43235
#
# Static dielectric constant tensor:
#      x y z
#    x 2.036170 0.062390 0.050720 
#    y 0.062390 2.114020 0.039600 
#    z 0.050720 0.039600 2.033930 
# 
# From -- ./inp_files/266649.got.cif
#   From: 2010.05.17/outbox.cif.g08.bks.cpg/sg2_134_cif.got.tgz:266649.got - 2010.06.03 11:33:40.
