data_PCOD9082812
_publ_section_title
;
Structure prediction by ZEFSAII (Michael W. Deem and Ramdas Pophale) SiO2 
 PCOD9082812
Probable space group: P -1
;
_chemical_formula_sum "Si O2"
_cell_formula_units_Z 14
_cell_length_a 23.592388
_cell_length_b 13.203810
_cell_length_c 15.908616
_cell_angle_alpha 38.808776
_cell_angle_beta 21.262176
_cell_angle_gamma 26.525738
_cell_volume 755.623653
_symmetry_space_group_name_H-M "P -1"
_symmetry_group_IT_number 2
_symmetry_cell_setting 'triclinic'
loop_
_space_group_symop_operation_xyz
x,y,z
-x,-y,-z
loop_
_atom_site_type_symbol
_atom_site_label
_atom_site_fract_x
_atom_site_fract_y
_atom_site_fract_z
Si Si1 0.847667 0.948731 0.666038
Si Si2 0.641165 0.254934 0.164100
Si Si3 0.681665 0.597372 0.868446
Si Si4 0.220199 0.160222 0.687688
Si Si5 0.718792 0.910131 0.163098
Si Si6 0.893861 0.280986 0.371917
Si Si7 0.942148 0.569133 0.674389
O O1 0.910584 0.076426 0.459905
O O2 0.846497 0.807508 0.691741
O O3 0.592175 0.164960 0.919792
O O4 0.027614 0.767706 0.608217
O O5 0.652025 0.143488 0.134828
O O6 0.786896 0.028723 0.172058
O O7 0.374952 0.464707 0.427885
O O8 0.724581 0.372624 0.960982
O O9 0.760514 0.620321 0.831403
O O10 0.835590 0.555269 0.609476
O O11 0.481359 0.009973 0.395838
O O12 0.030690 0.385452 0.745215
O O13 0.208040 0.225174 0.760700
O O14 0.928844 0.757971 0.906518
#
# Coordination Sequence:
#
# PCOD9082812 Si02
#       7
#     2   2   2   2   2   2   2
#     4  10  21  34  55  84 106 136 178 224 251 325
#     4   9  19  36  53  81 108 137 172 223 249 327
#     4  10  22  37  58  74 105 144 185 211 266 297
#     4   9  20  35  54  80 113 132 176 214 269 307
#     4   9  18  35  52  80 112 135 165 217 264 324
#     4  10  19  33  58  81 107 141 170 208 285 304
#     4  11  21  38  55  78 105 145 175 225 255 309
#
# _framework density 18.527742
#
# number of rings (size 3 to 8) (size 9 to 14) (size 15 to 20)
#    0.857    1.429    0.000    3.000    0.000    1.143 
#    2.571    5.714    0.000    1.714    0.000    0.000 
#    0.000    0.000    0.000    0.000    0.000    0.000 
#
# Total GULP energy -78058.498269 kJ/mol
# GULP energy per Si atom -5575.607019 kJ/mol
# Density = 1.848557 g / cm^3
# Si number density = 18.527742 Si / 1000 Ang^3
#
#
#
# Elastic Constant Matrix: (Units=GPa)
#
#
# Indices 1 2 3 4 5 6 
#
# 1 26.0451 23.8297 -20.1774 -6.9904 -2.3692 9.0492
# 2 23.8297 62.3121 -12.8548 -7.7940 -0.6825 4.6571
# 3 -20.1774 -12.8548 38.0646 3.1122 4.5243 -14.2648
# 4 -6.9904 -7.7940 3.1122 15.8748 6.8152 -0.2920
# 5 -2.3692 -0.6825 4.5243 6.8152 19.3817 -3.5514
# 6 9.0492 4.6571 -14.2648 -0.2920 -3.5514 20.1634
#
#
#
# Elastic Compliance Matrix: (Units=1/GPa)
#
#
# Indices 1 2 3 4 5 6 
#
# 1 0.108202 -0.028155 0.041306 0.030001 -0.010570 -0.014262
# 2 -0.028155 0.025772 -0.005153 0.001965 -0.001509 0.002801
# 3 0.041306 -0.005153 0.053958 0.008494 -0.007106 0.019697
# 4 0.030001 0.001965 0.008494 0.088908 -0.031747 -0.012213
# 5 -0.010570 -0.001509 -0.007106 -0.031747 0.065101 0.011072
# 6 -0.014262 0.002801 0.019697 -0.012213 0.011072 0.071056
#
#
# Mechanical properties :
#
#
# Convention : Reuss Voigt Hill
#
# Bulk Modulus (GPa) = 4.90364 12.00185 8.45275
# Shear Modulus (GPa) = 10.75323 20.12558 15.43940
#
# Velocity S-wave (km/s) = 2.41173 3.29939 2.88985
# Velocity P-wave (km/s) = 3.22609 4.58328 3.96322
#
# Compressibility (1/GPa) = 0.20393003
#
# Stress axis : x y z
#
# Youngs Moduli (GPa) = 9.24200 38.80114 18.53279
#
# Poissons Ratio (x) = 1.09245 -0.76552
# Poissons Ratio (y) = 0.26021 0.09549
# Poissons Ratio (z) = -0.38175 0.19993
#
# Static dielectric constant tensor:
#      x y z
#    x 1.626040 0.018890 0.004500 
#    y 0.018890 1.660770 -0.018710 
#    z 0.004500 -0.018710 1.619340 
# 
# From -- ./inp_files/327546.got.cif
#   From: 2010.05.17/outbox.cif.g08.bks.cpg/sg2_164_cif.got.tgz:327546.got - 2010.06.03 11:33:40.
