data_PCOD9082695
_publ_section_title
;
Structure prediction by ZEFSAII (Michael W. Deem and Ramdas Pophale) SiO2 
 PCOD9082695
Probable space group: P -1
;
_chemical_formula_sum "Si O2"
_cell_formula_units_Z 16
_cell_length_a 11.759134
_cell_length_b 20.496312
_cell_length_c 14.835008
_cell_angle_alpha 28.851141
_cell_angle_beta 127.594513
_cell_angle_gamma 146.731944
_cell_volume 839.424423
_symmetry_space_group_name_H-M "P -1"
_symmetry_group_IT_number 2
_symmetry_cell_setting 'triclinic'
loop_
_space_group_symop_operation_xyz
x,y,z
-x,-y,-z
loop_
_atom_site_type_symbol
_atom_site_label
_atom_site_fract_x
_atom_site_fract_y
_atom_site_fract_z
Si Si1 0.734486 0.029058 0.629892
Si Si2 0.247071 0.745168 0.795015
Si Si3 0.671540 0.853381 0.386732
Si Si4 0.569403 0.064161 0.149538
Si Si5 0.604589 0.227207 0.798845
Si Si6 0.170260 0.143352 0.227161
Si Si7 0.595491 0.400504 0.255158
Si Si8 0.136446 0.674878 0.505647
O O1 0.778042 0.155269 0.410693
O O2 0.838551 0.188592 0.572240
O O3 0.454201 0.806869 0.779010
O O4 0.834247 0.957780 0.739090
O O5 0.351388 0.868319 0.791496
O O6 0.000000 0.500000 0.000000
O O7 0.551219 0.778806 0.320905
O O8 0.501301 0.671064 0.602644
O O9 0.704109 0.034713 0.211528
O O10 0.916241 0.959718 0.371652
O O11 0.292241 0.830399 0.306170
O O12 0.610683 0.224811 0.913304
O O13 0.869694 0.445530 0.632467
O O14 0.500000 0.000000 0.000000
O O15 0.370488 0.239055 0.276264
O O16 0.246859 0.351632 0.986349
O O17 0.741998 0.372905 0.342746
#
# Coordination Sequence:
#
# PCOD9082695 Si02
#       8
#     2   2   2   2   2   2   2   2
#     4  10  21  35  54  84 113 146 181 221 279 325
#     4  10  19  33  57  82 111 144 183 227 268 323
#     4  10  21  35  53  78 109 144 181 223 272 324
#     4   9  19  33  54  83 107 139 184 231 277 312
#     4  10  20  34  57  83 106 140 187 234 274 314
#     4  11  22  36  54  82 119 145 175 219 271 341
#     4  10  21  35  57  82 109 146 179 222 277 320
#     4  10  20  38  58  81 111 139 185 236 269 321
#
# _framework density 19.060680000000001
#
# number of rings (size 3 to 8) (size 9 to 14) (size 15 to 20)
#    0.000    2.000    0.000    5.625    0.000    8.500 
#    0.000    0.625    0.000    3.750    0.000    0.000 
#    0.000    0.000    0.000    0.000    0.000    0.000 
#
# Total GULP energy -89202.176732 kJ/mol
# GULP energy per Si atom -5575.136046 kJ/mol
# Density = 1.901730 g / cm^3
# Si number density = 19.060680 Si / 1000 Ang^3
#
#
#
# Elastic Constant Matrix: (Units=GPa)
#
#
# Indices 1 2 3 4 5 6 
#
# 1 85.5227 14.7270 12.6776 -11.9058 -1.7057 -1.6004
# 2 14.7270 43.2677 1.3251 -14.9144 -0.5713 5.4566
# 3 12.6776 1.3251 43.1979 -18.0570 -9.4510 6.5164
# 4 -11.9058 -14.9144 -18.0570 34.0859 7.0050 -9.2437
# 5 -1.7057 -0.5713 -9.4510 7.0050 17.8850 -6.1158
# 6 -1.6004 5.4566 6.5164 -9.2437 -6.1158 21.0293
#
#
#
# Elastic Compliance Matrix: (Units=1/GPa)
#
#
# Indices 1 2 3 4 5 6 
#
# 1 0.013308 -0.004232 -0.003572 0.002041 -0.000162 0.004068
# 2 -0.004232 0.029846 0.006293 0.014330 -0.003341 -0.004689
# 3 -0.003572 0.006293 0.033510 0.016586 0.010397 -0.001974
# 4 0.002041 0.014330 0.016586 0.049408 -0.006090 0.011244
# 5 -0.000162 -0.003341 0.010397 -0.006090 0.068785 0.014961
# 6 0.004068 -0.004689 -0.001974 0.011244 0.014961 0.058984
#
#
# Mechanical properties :
#
#
# Convention : Reuss Voigt Hill
#
# Bulk Modulus (GPa) = 13.57908 25.49418 19.53663
# Shear Modulus (GPa) = 17.76764 24.15062 20.95913
#
# Velocity S-wave (km/s) = 3.05644 3.56341 3.31962
# Velocity P-wave (km/s) = 4.42667 5.50771 4.99651
#
# Compressibility (1/GPa) = 0.07364269
#
# Stress axis : x y z
#
# Youngs Moduli (GPa) = 75.14281 33.50499 29.84197
#
# Poissons Ratio (x) = 0.14179 0.10658
# Poissons Ratio (y) = 0.31799 -0.18779
# Poissons Ratio (z) = 0.26838 -0.21084
#
# Static dielectric constant tensor:
#      x y z
#    x 1.676630 -0.030420 -0.016460 
#    y -0.030420 1.730250 -0.015280 
#    z -0.016460 -0.015280 1.693880 
# 
# From -- ./inp_files/523895.got.cif
#   From: 2010.05.17/outbox.cif.g08.bks.cpg/sg2_262_cif.got.tgz:523895.got - 2010.06.03 11:33:40.
