data_PCOD9082985
_publ_section_title
;
Structure prediction by ZEFSAII (Michael W. Deem and Ramdas Pophale) SiO2 
 PCOD9082985
Probable space group: P -1
;
_chemical_formula_sum "Si O2"
_cell_formula_units_Z 16
_cell_length_a 19.779992
_cell_length_b 20.949273
_cell_length_c 9.425788
_cell_angle_alpha 129.739127
_cell_angle_beta 137.990995
_cell_angle_gamma 15.170367
_cell_volume 612.745298
_symmetry_space_group_name_H-M "P -1"
_symmetry_group_IT_number 2
_symmetry_cell_setting 'triclinic'
loop_
_space_group_symop_operation_xyz
x,y,z
-x,-y,-z
loop_
_atom_site_type_symbol
_atom_site_label
_atom_site_fract_x
_atom_site_fract_y
_atom_site_fract_z
Si Si1 0.523386 0.085567 0.251197
Si Si2 0.968914 0.142711 0.753917
Si Si3 0.795901 0.447703 0.332994
Si Si4 0.809238 0.012943 0.715683
Si Si5 0.494118 0.074330 0.881700
Si Si6 0.179535 0.572502 0.141889
Si Si7 0.886991 0.030154 0.576470
Si Si8 0.283107 0.372480 0.780406
O O1 0.438973 0.075633 0.209140
O O2 0.927553 0.762337 0.411231
O O3 0.509492 0.184622 0.444950
O O4 0.352352 0.210642 0.009800
O O5 0.751947 0.394960 0.786461
O O6 0.891725 0.125838 0.709222
O O7 0.942618 0.134818 0.536735
O O8 0.344398 0.879317 0.993608
O O9 0.414854 0.744679 0.207918
O O10 0.846886 0.488507 0.371229
O O11 0.928482 0.258471 0.195231
O O12 0.989071 0.912105 0.717324
O O13 0.318306 0.250717 0.718875
O O14 0.851103 0.839590 0.099266
O O15 0.506787 0.297853 0.347793
O O16 0.100236 0.563747 0.892901
#
# Coordination Sequence:
#
# PCOD9082985 Si02
#       8
#     2   2   2   2   2   2   2   2
#     4   9  21  37  60  92 119 156 196 249 297 360
#     4   9  20  34  59  88 121 147 204 247 298 358
#     4  10  24  41  62  83 126 161 203 240 300 352
#     4  10  22  40  62  85 119 165 196 245 297 356
#     4  10  20  37  60  90 119 150 200 248 299 353
#     4  10  19  33  60  85 117 154 196 247 301 347
#     4  10  19  36  58  90 116 157 196 249 305 355
#     4  10  22  38  57  85 117 161 197 249 293 356
#
# _framework density 26.111992000000001
#
# number of rings (size 3 to 8) (size 9 to 14) (size 15 to 20)
#    0.750    1.500    0.000    3.375    5.250    1.500 
#    0.000    5.625    0.000    0.000    0.000    0.000 
#    0.000    0.000    0.000    0.000    0.000    0.000 
#
# Total GULP energy -89258.993349 kJ/mol
# GULP energy per Si atom -5578.687084 kJ/mol
# Density = 2.605256 g / cm^3
# Si number density = 26.111992 Si / 1000 Ang^3
#
#
#
# Elastic Constant Matrix: (Units=GPa)
#
#
# Indices 1 2 3 4 5 6 
#
# 1 150.5650 27.9570 14.0945 -7.7767 -2.5451 36.9964
# 2 27.9570 89.4511 1.7169 -6.9636 1.1981 13.4400
# 3 14.0945 1.7169 28.9752 -5.6577 -2.5196 4.0959
# 4 -7.7767 -6.9636 -5.6577 19.3994 19.3360 11.2742
# 5 -2.5451 1.1981 -2.5196 19.3360 38.0939 -1.1910
# 6 36.9964 13.4400 4.0959 11.2742 -1.1910 26.0340
#
#
#
# Elastic Compliance Matrix: (Units=1/GPa)
#
#
# Indices 1 2 3 4 5 6 
#
# 1 -0.001344 -0.009267 -0.012103 -0.056251 0.029025 0.034286
# 2 -0.009267 0.006732 -0.005674 -0.038309 0.019116 0.028051
# 3 -0.012103 -0.005674 0.029573 -0.042527 0.024006 0.034991
# 4 -0.056251 -0.038309 -0.042527 -0.265553 0.136542 0.227650
# 5 0.029025 0.019116 0.024006 0.136542 -0.043758 -0.116025
# 6 0.034286 0.028051 0.034991 0.227650 -0.116025 -0.134191
#
#
# Mechanical properties :
#
#
# Convention : Reuss Voigt Hill
#
# Bulk Modulus (GPa) = -52.27874 39.61423 -6.33226
# Shear Modulus (GPa) = -13.85703 31.72032 8.93165
#
# Velocity S-wave (km/s) = -2.30614 3.48915 1.85147
# Velocity P-wave (km/s) = 5.21109 5.60679 1.46297
#
# Compressibility (1/GPa) = -0.01912824
#
# Stress axis : x y z
#
# Youngs Moduli (GPa) = -744.03456 148.55498 33.81415
#
# Poissons Ratio (x) = 1.37664 0.40926
# Poissons Ratio (y) = -6.89486 0.19187
# Poissons Ratio (z) = -9.00532 0.84295
#
# Static dielectric constant tensor:
#      x y z
#    x 2.038150 0.032100 0.004110 
#    y 0.032100 2.092200 0.023130 
#    z 0.004110 0.023130 2.118240 
# 
# From -- ./inp_files/74861.got.cif
#   From: 2010.05.17/outbox.cif.g08.bks.cpg/sg2_38_cif.got.tgz:74861.got - 2010.06.03 11:33:40.
