data_PCOD9082717
_publ_section_title
;
Structure prediction by ZEFSAII (Michael W. Deem and Ramdas Pophale) SiO2 
 PCOD9082717
Probable space group: P -1
;
_chemical_formula_sum "Si O2"
_cell_formula_units_Z 14
_cell_length_a 9.312516
_cell_length_b 24.222990
_cell_length_c 16.561839
_cell_angle_alpha 21.962764
_cell_angle_beta 155.798753
_cell_angle_gamma 144.475887
_cell_volume 560.148584
_symmetry_space_group_name_H-M "P -1"
_symmetry_group_IT_number 2
_symmetry_cell_setting 'triclinic'
loop_
_space_group_symop_operation_xyz
x,y,z
-x,-y,-z
loop_
_atom_site_type_symbol
_atom_site_label
_atom_site_fract_x
_atom_site_fract_y
_atom_site_fract_z
Si Si1 0.944506 0.651287 0.714007
Si Si2 0.254610 0.037678 0.740796
Si Si3 0.670543 0.341553 0.263098
Si Si4 0.251641 0.437278 0.519435
Si Si5 0.687146 0.135195 0.685393
Si Si6 0.103443 0.740608 0.107666
Si Si7 0.101538 0.333224 0.737224
O O1 0.979446 0.799038 0.581137
O O2 0.527058 0.682591 0.427238
O O3 0.235103 0.643210 0.802573
O O4 0.000000 0.500000 0.000000
O O5 0.455925 0.061481 0.729778
O O6 0.500000 0.000000 0.000000
O O7 0.074878 0.894540 0.836666
O O8 0.530104 0.213301 0.415027
O O9 0.076787 0.322400 0.534495
O O10 0.500000 0.500000 0.000000
O O11 0.500000 0.500000 0.500000
O O12 0.004132 0.596728 0.207623
O O13 0.381489 0.353019 0.783996
O O14 0.808648 0.268300 0.621347
O O15 0.000000 0.000000 0.000000
O O16 0.869442 0.771643 0.027206
O O17 0.000000 0.500000 0.500000
#
# Coordination Sequence:
#
# PCOD9082717 Si02
#       7
#     2   2   2   2   2   2   2
#     4  11  21  35  58  83 119 157 195 237 296 359
#     4  10  19  33  57  84 118 152 199 241 291 351
#     4  11  24  38  59  89 122 153 196 250 303 355
#     4  10  20  36  59  86 118 153 198 242 295 350
#     4  11  20  33  57  89 119 152 200 252 296 346
#     4  10  19  37  59  87 115 152 199 244 288 351
#     4   9  19  32  53  80 118 149 191 238 290 341
#
# _framework density 24.993369999999999
#
# number of rings (size 3 to 8) (size 9 to 14) (size 15 to 20)
#    0.000    1.714    4.286    2.571    4.000    0.000 
#    0.000    0.000    0.000    9.429    0.000    0.000 
#    0.000    0.000    0.000    0.000    0.000    0.000 
#
# Total GULP energy -78034.186071 kJ/mol
# GULP energy per Si atom -5573.870434 kJ/mol
# Density = 2.493648 g / cm^3
# Si number density = 24.993370 Si / 1000 Ang^3
#
#
#
# Elastic Constant Matrix: (Units=GPa)
#
#
# Indices 1 2 3 4 5 6 
#
# 1 285.7212 25.2456 67.4857 -25.9007 -19.7037 47.3991
# 2 25.2456 126.4155 26.1837 -22.8843 -16.3930 2.0436
# 3 67.4857 26.1837 135.1206 -33.7730 -20.6405 2.4508
# 4 -25.9007 -22.8843 -33.7730 36.4885 8.6578 -7.6771
# 5 -19.7037 -16.3930 -20.6405 8.6578 43.8077 -21.7471
# 6 47.3991 2.0436 2.4508 -7.6771 -21.7471 35.9499
#
#
#
# Elastic Compliance Matrix: (Units=1/GPa)
#
#
# Indices 1 2 3 4 5 6 
#
# 1 0.005621 -0.000943 -0.003237 -0.000685 -0.004045 -0.009730
# 2 -0.000943 0.009542 0.000716 0.005864 0.004674 0.004732
# 3 -0.003237 0.000716 0.012345 0.009884 0.007723 0.010168
# 4 -0.000685 0.005864 0.009884 0.041144 0.003890 0.011036
# 5 -0.004045 0.004674 0.007723 0.003890 0.040436 0.029832
# 6 -0.009730 0.004732 0.010168 0.011036 0.029832 0.060086
#
#
# Mechanical properties :
#
#
# Convention : Reuss Voigt Hill
#
# Bulk Modulus (GPa) = 48.59600 87.23193 67.91396
# Shear Modulus (GPa) = 27.32808 51.80537 39.56673
#
# Velocity S-wave (km/s) = 3.31027 4.55770 3.98312
# Velocity P-wave (km/s) = 5.83920 7.91673 6.95597
#
# Compressibility (1/GPa) = 0.02057783
#
# Stress axis : x y z
#
# Youngs Moduli (GPa) = 177.90569 104.80433 81.00671
#
# Poissons Ratio (x) = 0.09886 0.26224
# Poissons Ratio (y) = 0.16782 -0.05800
# Poissons Ratio (z) = 0.57594 -0.07503
#
# Static dielectric constant tensor:
#      x y z
#    x 2.006170 0.017270 -0.021530 
#    y 0.017270 2.203010 0.217270 
#    z -0.021530 0.217270 2.192270 
# 
# From -- ./inp_files/205240.got.cif
#   From: 2010.05.17/outbox.cif.g08.bks.cpg/sg2_103_cif.got.tgz:205240.got - 2010.06.03 11:33:40.
