data_PCOD9082082
_publ_section_title
;
Structure prediction by ZEFSAII (Michael W. Deem and Ramdas Pophale) SiO2 
 PCOD9082082
Probable space group: P -1
;
_chemical_formula_sum "Si O2"
_cell_formula_units_Z 16
_cell_length_a 10.643496
_cell_length_b 9.666408
_cell_length_c 16.632581
_cell_angle_alpha 132.198513
_cell_angle_beta 144.633747
_cell_angle_gamma 47.577197
_cell_volume 700.916414
_symmetry_space_group_name_H-M "P -1"
_symmetry_group_IT_number 2
_symmetry_cell_setting 'triclinic'
loop_
_space_group_symop_operation_xyz
x,y,z
-x,-y,-z
loop_
_atom_site_type_symbol
_atom_site_label
_atom_site_fract_x
_atom_site_fract_y
_atom_site_fract_z
Si Si1 0.088135 0.069328 0.655731
Si Si2 0.374663 0.381304 0.333688
Si Si3 0.402800 0.267792 0.632172
Si Si4 0.366661 0.968560 0.196794
Si Si5 0.837732 0.045196 0.664831
Si Si6 0.954876 0.544866 0.281733
Si Si7 0.098531 0.858271 0.875289
Si Si8 0.298550 0.636973 0.630773
O O1 0.896169 0.144787 0.653851
O O2 0.182339 0.244807 0.744313
O O3 0.877684 0.415153 0.545398
O O4 0.000000 0.000000 0.500000
O O5 0.500000 0.500000 0.500000
O O6 0.468040 0.149545 0.310495
O O7 0.116124 0.446405 0.251945
O O8 0.450874 0.415311 0.298071
O O9 0.617583 0.178344 0.649566
O O10 0.307005 0.496240 0.654727
O O11 0.478925 0.207384 0.738729
O O12 0.226860 0.149266 0.471525
O O13 0.140722 0.054894 0.167540
O O14 0.285454 0.911556 0.047386
O O15 0.043662 0.969955 0.805796
O O16 0.232304 0.869224 0.694475
O O17 0.853754 0.375870 0.193379
#
# Coordination Sequence:
#
# PCOD9082082 Si02
#       8
#     2   2   2   2   2   2   2   2
#     4  10  22  34  51  83 113 149 183 228 274 328
#     4   9  18  30  56  81 110 139 179 231 273 321
#     4  10  20  32  57  88 108 138 184 236 280 310
#     4   9  19  32  56  87 110 143 179 230 276 327
#     4  10  20  34  57  83 112 142 182 234 276 325
#     4   9  17  33  53  79 105 149 179 226 278 324
#     4   9  17  36  55  80 115 141 184 224 279 331
#     4  10  19  33  49  83 112 140 183 231 274 318
#
# _framework density 22.827259000000002
#
# number of rings (size 3 to 8) (size 9 to 14) (size 15 to 20)
#    0.000    2.500    1.250    0.750   10.500    0.500 
#    0.000    1.250    0.000   10.500    0.000    0.000 
#    0.000    0.000    0.000    0.000    0.000    0.000 
#
# Total GULP energy -89336.567987 kJ/mol
# GULP energy per Si atom -5583.535499 kJ/mol
# Density = 2.277530 g / cm^3
# Si number density = 22.827259 Si / 1000 Ang^3
#
#
#
# Elastic Constant Matrix: (Units=GPa)
#
#
# Indices 1 2 3 4 5 6 
#
# 1 88.0456 15.6813 24.6608 -4.9200 -16.3817 17.2217
# 2 15.6813 178.2158 43.9663 -8.3887 -2.8968 20.6233
# 3 24.6608 43.9663 83.5994 -16.4087 -13.8861 10.8903
# 4 -4.9200 -8.3887 -16.4087 25.2266 5.8501 -7.7781
# 5 -16.3817 -2.8968 -13.8861 5.8501 18.2359 -3.9308
# 6 17.2217 20.6233 10.8903 -7.7781 -3.9308 31.5633
#
#
#
# Elastic Compliance Matrix: (Units=1/GPa)
#
#
# Indices 1 2 3 4 5 6 
#
# 1 0.015342 0.000080 -0.002403 -0.003376 0.011542 -0.006989
# 2 0.000080 0.006867 -0.003656 -0.000717 -0.002192 -0.003719
# 3 -0.002403 -0.003656 0.017418 0.007969 0.008111 0.000664
# 4 -0.003376 -0.000717 0.007969 0.049644 -0.010750 0.010456
# 5 0.011542 -0.002192 0.008111 -0.010750 0.074252 -0.001065
# 6 -0.006989 -0.003719 0.000664 0.010456 -0.001065 0.040141
#
#
# Mechanical properties :
#
#
# Convention : Reuss Voigt Hill
#
# Bulk Modulus (GPa) = 36.13904 57.60862 46.87383
# Shear Modulus (GPa) = 22.23764 32.70865 27.47314
#
# Velocity S-wave (km/s) = 3.12456 3.78944 3.47295
# Velocity P-wave (km/s) = 5.37429 6.66619 6.05480
#
# Compressibility (1/GPa) = 0.02767091
#
# Stress axis : x y z
#
# Youngs Moduli (GPa) = 65.17894 145.62561 57.41171
#
# Poissons Ratio (x) = -0.01170 0.13796
# Poissons Ratio (y) = -0.00524 0.20987
# Poissons Ratio (z) = 0.15663 0.53234
#
# Static dielectric constant tensor:
#      x y z
#    x 1.973740 -0.080470 0.005490 
#    y -0.080470 1.896820 -0.009230 
#    z 0.005490 -0.009230 1.781500 
# 
# From -- ./inp_files/516145.got.cif
#   From: 2010.05.17/outbox.cif.g08.bks.cpg/sg2_259_cif.got.tgz:516145.got - 2010.06.03 11:33:40.
