data_PCOD9082968
_publ_section_title
;
Structure prediction by ZEFSAII (Michael W. Deem and Ramdas Pophale) SiO2 
 PCOD9082968
Probable space group: P -1
;
_chemical_formula_sum "Si O2"
_cell_formula_units_Z 14
_cell_length_a 8.007934
_cell_length_b 11.769119
_cell_length_c 14.740320
_cell_angle_alpha 142.194862
_cell_angle_beta 138.149138
_cell_angle_gamma 48.883188
_cell_volume 559.997272
_symmetry_space_group_name_H-M "P -1"
_symmetry_group_IT_number 2
_symmetry_cell_setting 'triclinic'
loop_
_space_group_symop_operation_xyz
x,y,z
-x,-y,-z
loop_
_atom_site_type_symbol
_atom_site_label
_atom_site_fract_x
_atom_site_fract_y
_atom_site_fract_z
Si Si1 0.231889 0.387701 0.966438
Si Si2 0.792276 0.827628 0.863468
Si Si3 0.597595 0.155918 0.443957
Si Si4 0.114391 0.264742 0.662435
Si Si5 0.878508 0.772990 0.569594
Si Si6 0.214598 0.089903 0.905191
Si Si7 0.786484 0.284193 0.168954
O O1 0.229948 0.394788 0.862312
O O2 0.224474 0.174940 0.863962
O O3 0.512420 0.405381 0.123465
O O4 0.000000 0.500000 0.000000
O O5 0.551842 0.824732 0.700498
O O6 0.016976 0.701797 0.821415
O O7 0.825709 0.755853 0.934389
O O8 0.802564 0.053131 0.021300
O O9 0.384065 0.214357 0.472837
O O10 0.831863 0.263847 0.588109
O O11 0.722297 0.943989 0.387386
O O12 0.120300 0.295136 0.576022
O O13 0.101066 0.670271 0.660512
O O14 0.983224 0.973729 0.734628
O O15 0.500000 0.000000 0.000000
#
# Coordination Sequence:
#
# PCOD9082968 Si02
#       7
#     2   2   2   2   2   2   2
#     4  12  25  40  56  84 126 161 194 240 298 362
#     4   9  16  31  62  87 110 143 196 253 287 334
#     4  10  19  33  59  97 121 144 191 260 308 338
#     4  11  21  35  55  87 126 158 187 243 309 358
#     4  10  20  34  65  93 116 145 201 259 297 341
#     4  11  18  34  63  93 111 147 205 246 290 349
#     4   9  18  35  57  87 112 150 196 241 289 346
#
# _framework density 25.000122000000001
#
# number of rings (size 3 to 8) (size 9 to 14) (size 15 to 20)
#    0.000    1.714    4.286    3.857    0.000    0.000 
#    0.000    1.429    0.000    1.714    0.000    0.000 
#    0.000    0.000    0.000    0.000    0.000    0.000 
#
# Total GULP energy -78056.634287 kJ/mol
# GULP energy per Si atom -5575.473878 kJ/mol
# Density = 2.494322 g / cm^3
# Si number density = 25.000122 Si / 1000 Ang^3
#
#
#
# Elastic Constant Matrix: (Units=GPa)
#
#
# Indices 1 2 3 4 5 6 
#
# 1 123.9044 42.3999 71.8460 -27.8815 -20.3544 -24.8665
# 2 42.3999 90.0888 61.4756 -19.2091 -7.3619 -31.1505
# 3 71.8460 61.4756 128.4741 -36.6118 -37.0727 -4.9244
# 4 -27.8815 -19.2091 -36.6118 30.5573 13.8207 4.1921
# 5 -20.3544 -7.3619 -37.0727 13.8207 48.8473 -11.5267
# 6 -24.8665 -31.1505 -4.9244 4.1921 -11.5267 38.7903
#
#
#
# Elastic Compliance Matrix: (Units=1/GPa)
#
#
# Indices 1 2 3 4 5 6 
#
# 1 0.015015 0.003161 -0.007644 0.003771 0.002592 0.011556
# 2 0.003161 0.026193 -0.013355 0.000398 0.000051 0.021337
# 3 -0.007644 -0.013355 0.022894 0.010881 0.006260 -0.012034
# 4 0.003771 0.000398 0.010881 0.052492 -0.005731 -0.003257
# 5 0.002592 0.000051 0.006260 -0.005731 0.030829 0.012278
# 6 0.011556 0.021337 -0.012034 -0.003257 0.012278 0.052795
#
#
# Mechanical properties :
#
#
# Convention : Reuss Voigt Hill
#
# Bulk Modulus (GPa) = 35.17832 77.10115 56.13973
# Shear Modulus (GPa) = 20.37747 34.75536 27.56642
#
# Velocity S-wave (km/s) = 2.85808 3.73259 3.32422
# Velocity P-wave (km/s) = 4.99933 7.03446 6.10233
#
# Compressibility (1/GPa) = 0.02842660
#
# Stress axis : x y z
#
# Youngs Moduli (GPa) = 66.60108 38.17861 43.67887
#
# Poissons Ratio (x) = -0.12068 0.33387
# Poissons Ratio (y) = -0.21052 0.58333
# Poissons Ratio (z) = 0.50907 0.50987
#
# Static dielectric constant tensor:
#      x y z
#    x 2.255020 0.012150 -0.038130 
#    y 0.012150 2.097640 0.042700 
#    z -0.038130 0.042700 1.991200 
# 
# From -- ./inp_files/505636.got.cif
#   From: 2010.05.17/outbox.cif.g08.bks.cpg/sg2_253_cif.got.tgz:505636.got - 2010.06.03 11:33:40.
