data_PCOD9082610
_publ_section_title
;
Structure prediction by ZEFSAII (Michael W. Deem and Ramdas Pophale) SiO2 
 PCOD9082610
Probable space group: P -1
;
_chemical_formula_sum "Si O2"
_cell_formula_units_Z 16
_cell_length_a 27.893073
_cell_length_b 14.135224
_cell_length_c 8.419221
_cell_angle_alpha 125.397247
_cell_angle_beta 136.244432
_cell_angle_gamma 21.373511
_cell_volume 777.122609
_symmetry_space_group_name_H-M "P -1"
_symmetry_group_IT_number 2
_symmetry_cell_setting 'triclinic'
loop_
_space_group_symop_operation_xyz
x,y,z
-x,-y,-z
loop_
_atom_site_type_symbol
_atom_site_label
_atom_site_fract_x
_atom_site_fract_y
_atom_site_fract_z
Si Si1 0.045493 0.039412 0.513789
Si Si2 0.197203 0.450179 0.959865
Si Si3 0.305171 0.484511 0.020122
Si Si4 0.585961 0.441241 0.509279
Si Si5 0.144954 0.080408 0.565774
Si Si6 0.487882 0.176627 0.829798
Si Si7 0.420531 0.747211 0.091881
Si Si8 0.846022 0.381489 0.645759
O O1 0.989386 0.201239 0.689193
O O2 0.143181 0.965162 0.550004
O O3 0.875577 0.257059 0.237326
O O4 0.143752 0.771939 0.514808
O O5 0.302817 0.382101 0.040746
O O6 0.124387 0.628388 0.112730
O O7 0.329118 0.156406 0.051472
O O8 0.043155 0.625886 0.666159
O O9 0.320120 0.587214 0.233370
O O10 0.436320 0.280315 0.990312
O O11 0.500000 0.500000 0.500000
O O12 0.455699 0.691043 0.309509
O O13 0.719938 0.148207 0.469521
O O14 0.230108 0.038989 0.853537
O O15 0.493827 0.278585 0.825719
O O16 0.345615 0.302213 0.551889
O O17 0.500000 0.500000 0.000000
#
# Coordination Sequence:
#
# PCOD9082610 Si02
#       8
#     2   2   2   2   2   2   2   2
#     4   9  19  34  57  85 113 147 187 247 296 329
#     4  11  22  36  58  85 120 159 193 235 283 344
#     4  10  20  36  57  85 117 151 194 238 287 339
#     4  11  22  37  63  90 112 144 191 246 294 342
#     4  10  21  37  56  83 117 150 190 235 290 343
#     4  11  22  37  57  84 120 159 193 233 287 347
#     4  10  21  38  58  80 111 149 192 240 287 337
#     4  10  19  33  56  85 114 147 193 241 291 336
#
# _framework density 20.588773
#
# number of rings (size 3 to 8) (size 9 to 14) (size 15 to 20)
#    0.000    1.750    0.000    6.000    0.000    5.500 
#    0.000    0.000    0.000    2.250    0.000    0.000 
#    0.000    0.000    0.000    0.000    0.000    0.000 
#
# Total GULP energy -89129.793986 kJ/mol
# GULP energy per Si atom -5570.612124 kJ/mol
# Density = 2.054191 g / cm^3
# Si number density = 20.588773 Si / 1000 Ang^3
#
#
#
# Elastic Constant Matrix: (Units=GPa)
#
#
# Indices 1 2 3 4 5 6 
#
# 1 128.3195 33.2372 23.8824 -7.8801 -12.2203 -7.9844
# 2 33.2372 50.7788 9.3554 -17.2940 -2.8207 -2.5735
# 3 23.8824 9.3554 59.0676 1.2259 -6.1329 -8.2806
# 4 -7.8801 -17.2940 1.2259 18.9912 -6.3950 -2.7842
# 5 -12.2203 -2.8207 -6.1329 -6.3950 26.1151 -0.8164
# 6 -7.9844 -2.5735 -8.2806 -2.7842 -0.8164 27.2788
#
#
#
# Elastic Compliance Matrix: (Units=1/GPa)
#
#
# Indices 1 2 3 4 5 6 
#
# 1 0.010279 -0.005637 -0.002616 0.000877 0.003861 0.001888
# 2 -0.005637 0.036547 -0.002574 0.034996 0.009427 0.004870
# 3 -0.002616 -0.002574 0.019358 -0.003192 0.002407 0.004614
# 4 0.000877 0.034996 -0.003192 0.096271 0.027429 0.013236
# 5 0.003861 0.009427 0.002407 0.027429 0.048618 0.007004
# 6 0.001888 0.004870 0.004614 0.013236 0.007004 0.040632
#
#
# Mechanical properties :
#
#
# Convention : Reuss Voigt Hill
#
# Bulk Modulus (GPa) = 22.45699 41.23510 31.84604
# Shear Modulus (GPa) = 17.34893 25.92307 21.63600
#
# Velocity S-wave (km/s) = 2.90598 3.55221 3.24522
# Velocity P-wave (km/s) = 4.71070 6.07418 5.43536
#
# Compressibility (1/GPa) = 0.04452957
#
# Stress axis : x y z
#
# Youngs Moduli (GPa) = 97.28491 27.36228 51.65808
#
# Poissons Ratio (x) = 0.15425 0.13513
# Poissons Ratio (y) = 0.54842 0.13296
# Poissons Ratio (z) = 0.25449 0.07043
#
# Static dielectric constant tensor:
#      x y z
#    x 1.826620 -0.009440 -0.026470 
#    y -0.009440 1.796550 -0.007240 
#    z -0.026470 -0.007240 1.799890 
# 
# From -- ./inp_files/274659.got.cif
#   From: 2010.05.17/outbox.cif.g08.bks.cpg/sg2_138_cif.got.tgz:274659.got - 2010.06.03 11:33:40.
