data_PCOD9082815
_publ_section_title
;
Structure prediction by ZEFSAII (Michael W. Deem and Ramdas Pophale) SiO2 
 PCOD9082815
Probable space group: P -1
;
_chemical_formula_sum "Si O2"
_cell_formula_units_Z 10
_cell_length_a 11.582854
_cell_length_b 11.380225
_cell_length_c 10.871255
_cell_angle_alpha 117.140959
_cell_angle_beta 114.537461
_cell_angle_gamma 121.762209
_cell_volume 541.695074
_symmetry_space_group_name_H-M "P -1"
_symmetry_group_IT_number 2
_symmetry_cell_setting 'triclinic'
loop_
_space_group_symop_operation_xyz
x,y,z
-x,-y,-z
loop_
_atom_site_type_symbol
_atom_site_label
_atom_site_fract_x
_atom_site_fract_y
_atom_site_fract_z
Si Si1 0.232252 0.902430 0.760968
Si Si2 0.696816 0.326149 0.370567
Si Si3 0.235814 0.189338 0.791064
Si Si4 0.733521 0.665653 0.854824
Si Si5 0.307188 0.134576 0.266924
O O1 0.220911 0.751115 0.614764
O O2 0.968148 0.658890 0.617962
O O3 0.241830 0.037823 0.743791
O O4 0.503733 0.155145 0.083638
O O5 0.507929 0.208496 0.338414
O O6 0.500000 0.500000 0.000000
O O7 0.212669 0.230866 0.936573
O O8 0.000000 0.000000 0.500000
O O9 0.455508 0.332242 0.546483
O O10 0.709428 0.768397 0.800604
O O11 0.994157 0.817418 0.005123
#
# Coordination Sequence:
#
# PCOD9082815 Si02
#       5
#     2   2   2   2   2
#     4  10  21  35  55  85 111 145 190 219 287 325
#     4  10  19  35  59  83 114 138 176 250 279 324
#     4  12  24  38  57  78 119 155 186 224 260 342
#     4  10  21  33  53  85 109 143 185 219 290 324
#     4  10  19  33  58  81 114 134 174 249 280 325
#
# _framework density 18.460570000000001
#
# number of rings (size 3 to 8) (size 9 to 14) (size 15 to 20)
#    0.000    1.600    2.000    3.600    5.600    0.000 
#    0.000    0.000    0.000    7.200    0.000    0.000 
#    0.000    0.000    0.000    0.000    0.000    0.000 
#
# Total GULP energy -55785.237683 kJ/mol
# GULP energy per Si atom -5578.523768 kJ/mol
# Density = 1.841855 g / cm^3
# Si number density = 18.460570 Si / 1000 Ang^3
#
#
#
# Elastic Constant Matrix: (Units=GPa)
#
#
# Indices 1 2 3 4 5 6 
#
# 1 85.4181 37.3097 30.2879 -3.2730 13.4612 -2.7002
# 2 37.3097 88.2864 47.1657 4.7332 10.2209 -19.0808
# 3 30.2879 47.1657 122.3376 -4.4118 2.1162 4.0415
# 4 -3.2730 4.7332 -4.4118 31.7599 10.0947 3.8265
# 5 13.4612 10.2209 2.1162 10.0947 25.9005 1.4993
# 6 -2.7002 -19.0808 4.0415 3.8265 1.4993 26.4715
#
#
#
# Elastic Compliance Matrix: (Units=1/GPa)
#
#
# Indices 1 2 3 4 5 6 
#
# 1 0.016173 -0.006240 -0.001177 0.005247 -0.007719 -0.002989
# 2 -0.006240 0.023015 -0.008090 -0.006185 -0.003827 0.018299
# 3 -0.001177 -0.008090 0.011934 0.003075 0.002113 -0.008337
# 4 0.005247 -0.006185 0.003075 0.039363 -0.015346 -0.009213
# 5 -0.007719 -0.003827 0.002113 -0.015346 0.050200 -0.004493
# 6 -0.002989 0.018299 -0.008337 -0.009213 -0.004493 0.053520
#
#
# Mechanical properties :
#
#
# Convention : Reuss Voigt Hill
#
# Bulk Modulus (GPa) = 49.72805 58.39651 54.06228
# Shear Modulus (GPa) = 21.55910 28.91163 25.23536
#
# Velocity S-wave (km/s) = 3.42108 3.96173 3.70129
# Velocity P-wave (km/s) = 6.52694 7.25457 6.90036
#
# Compressibility (1/GPa) = 0.02010937
#
# Stress axis : x y z
#
# Youngs Moduli (GPa) = 61.83221 43.45042 83.79351
#
# Poissons Ratio (x) = 0.27111 0.09862
# Poissons Ratio (y) = 0.38581 0.67786
# Poissons Ratio (z) = 0.07277 0.35150
#
# Static dielectric constant tensor:
#      x y z
#    x 1.691450 0.011380 -0.006310 
#    y 0.011380 1.603560 0.015140 
#    z -0.006310 0.015140 1.619960 
# 
# From -- ./inp_files/16529.got.cif
#   From: 2010.05.17/outbox.cif.g08.bks.cpg/sg2_9_cif.got.tgz:16529.got - 2010.06.03 11:33:40.
