data_PCOD9082628
_publ_section_title
;
Structure prediction by ZEFSAII (Michael W. Deem and Ramdas Pophale) SiO2 
 PCOD9082628
Probable space group: P -1
;
_chemical_formula_sum "Si O2"
_cell_formula_units_Z 16
_cell_length_a 9.086245
_cell_length_b 13.513669
_cell_length_c 8.339941
_cell_angle_alpha 133.480019
_cell_angle_beta 116.828738
_cell_angle_gamma 75.226928
_cell_volume 660.634741
_symmetry_space_group_name_H-M "P -1"
_symmetry_group_IT_number 2
_symmetry_cell_setting 'triclinic'
loop_
_space_group_symop_operation_xyz
x,y,z
-x,-y,-z
loop_
_atom_site_type_symbol
_atom_site_label
_atom_site_fract_x
_atom_site_fract_y
_atom_site_fract_z
Si Si1 0.422141 0.112055 0.199039
Si Si2 0.987645 0.331537 0.488570
Si Si3 0.528966 0.627368 0.877781
Si Si4 0.151251 0.057943 0.249692
Si Si5 0.764151 0.869113 0.172178
Si Si6 0.197429 0.618876 0.879886
Si Si7 0.860798 0.135985 0.663600
Si Si8 0.336971 0.637019 0.453013
O O1 0.325735 0.051514 0.238067
O O2 0.550054 0.241411 0.439565
O O3 0.279151 0.165200 0.072199
O O4 0.500000 0.000000 0.000000
O O5 0.892438 0.322271 0.257827
O O6 0.845821 0.326024 0.549052
O O7 0.109231 0.212629 0.432834
O O8 0.092750 0.477098 0.706938
O O9 0.386463 0.600492 0.907809
O O10 0.427771 0.625382 0.657750
O O11 0.650591 0.506912 0.789488
O O12 0.630838 0.775150 0.103127
O O13 0.145297 0.965693 0.300007
O O14 0.000000 0.000000 0.000000
O O15 0.949049 0.836165 0.262826
O O16 0.765380 0.032413 0.377085
O O17 0.195496 0.723812 0.141952
#
# Coordination Sequence:
#
# PCOD9082628 Si02
#       8
#     2   2   2   2   2   2   2   2
#     4  11  22  36  59  87 119 151 192 240 292 342
#     4  10  19  33  58  85 116 148 196 243 286 341
#     4   9  18  33  55  82 114 145 192 237 285 343
#     4  12  21  36  59  88 117 150 197 245 286 336
#     4  10  22  39  58  83 120 156 193 232 293 347
#     4  10  19  33  56  87 112 153 194 239 290 341
#     4  11  23  38  60  85 120 158 194 238 285 350
#     4   9  18  32  55  84 111 147 187 241 289 333
#
# _framework density 24.219131999999998
#
# number of rings (size 3 to 8) (size 9 to 14) (size 15 to 20)
#    0.000    1.750    2.500    2.250    3.500    4.500 
#    0.000    0.000    2.750    3.750    0.000    0.000 
#    0.000    0.000    0.000    0.000    0.000    0.000 
#
# Total GULP energy -89594.495137 kJ/mol
# GULP energy per Si atom -5599.655946 kJ/mol
# Density = 2.416401 g / cm^3
# Si number density = 24.219132 Si / 1000 Ang^3
#
#
#
# Elastic Constant Matrix: (Units=GPa)
#
#
# Indices 1 2 3 4 5 6 
#
# 1 152.9367 13.5109 50.4848 17.0026 1.4935 14.9974
# 2 13.5109 48.0758 10.9205 4.2279 7.0490 -10.0827
# 3 50.4848 10.9205 120.9473 17.5384 9.9252 -8.4954
# 4 17.0026 4.2279 17.5384 39.6411 -1.2282 -4.6531
# 5 1.4935 7.0490 9.9252 -1.2282 35.2259 14.9392
# 6 14.9974 -10.0827 -8.4954 -4.6531 14.9392 31.5941
#
#
#
# Elastic Compliance Matrix: (Units=1/GPa)
#
#
# Indices 1 2 3 4 5 6 
#
# 1 0.009714 -0.004600 -0.004495 -0.002742 0.006181 -0.010614
# 2 -0.004600 0.027341 0.001791 -0.000074 -0.013271 0.017655
# 3 -0.004495 0.001791 0.011577 -0.002568 -0.007288 0.008886
# 4 -0.002742 -0.000074 -0.002568 0.028106 -0.000213 0.004827
# 5 0.006181 -0.013271 -0.007288 -0.000213 0.045921 -0.030874
# 6 -0.010614 0.017655 0.008886 0.004827 -0.030874 0.060023
#
#
# Mechanical properties :
#
#
# Convention : Reuss Voigt Hill
#
# Bulk Modulus (GPa) = 29.38950 52.42135 40.90543
# Shear Modulus (GPa) = 23.96559 37.76178 30.86368
#
# Velocity S-wave (km/s) = 3.14909 3.95292 3.57368
# Velocity P-wave (km/s) = 5.03821 6.52117 5.82706
#
# Compressibility (1/GPa) = 0.03402576
#
# Stress axis : x y z
#
# Youngs Moduli (GPa) = 102.94374 36.57446 86.37805
#
# Poissons Ratio (x) = 0.16825 0.38823
# Poissons Ratio (y) = 0.47356 -0.15474
# Poissons Ratio (z) = 0.46269 -0.06552
#
# Static dielectric constant tensor:
#      x y z
#    x 1.886140 -0.060960 -0.003520 
#    y -0.060960 2.024150 -0.051810 
#    z -0.003520 -0.051810 1.941200 
# 
# From -- ./inp_files/209565.got.cif
#   From: 2010.05.17/outbox.cif.g08.bks.cpg/sg2_105_cif.got.tgz:209565.got - 2010.06.03 11:33:40.
