data_PCOD9082547
_publ_section_title
;
Structure prediction by ZEFSAII (Michael W. Deem and Ramdas Pophale) SiO2 
 PCOD9082547
Probable space group: P -1
;
_chemical_formula_sum "Si O2"
_cell_formula_units_Z 16
_cell_length_a 20.570213
_cell_length_b 13.975604
_cell_length_c 10.462529
_cell_angle_alpha 43.445553
_cell_angle_beta 25.884206
_cell_angle_gamma 28.276955
_cell_volume 589.219653
_symmetry_space_group_name_H-M "P -1"
_symmetry_group_IT_number 2
_symmetry_cell_setting 'triclinic'
loop_
_space_group_symop_operation_xyz
x,y,z
-x,-y,-z
loop_
_atom_site_type_symbol
_atom_site_label
_atom_site_fract_x
_atom_site_fract_y
_atom_site_fract_z
Si Si1 0.504747 0.147218 0.410080
Si Si2 0.834321 0.387712 0.353430
Si Si3 0.151494 0.961678 0.924931
Si Si4 0.991198 0.820546 0.498388
Si Si5 0.493255 0.642534 0.017129
Si Si6 0.109949 0.210529 0.553630
Si Si7 0.629339 0.713350 0.942643
Si Si8 0.563921 0.575430 0.414072
O O1 0.273491 0.383096 0.646496
O O2 0.710800 0.013281 0.273171
O O3 0.570684 0.211584 0.124594
O O4 0.500000 0.000000 0.500000
O O5 0.031530 0.210972 0.281488
O O6 0.802667 0.403554 0.237759
O O7 0.667216 0.376002 0.689385
O O8 0.360345 0.719850 0.736169
O O9 0.058250 0.104956 0.824849
O O10 0.010540 0.967157 0.269627
O O11 0.245615 0.581899 0.250988
O O12 0.844688 0.849134 0.619308
O O13 0.476036 0.745992 0.075759
O O14 0.307454 0.171141 0.294991
O O15 0.873680 0.461852 0.740646
O O16 0.550659 0.725676 0.210796
O O17 0.500000 0.500000 0.500000
#
# Coordination Sequence:
#
# PCOD9082547 Si02
#       8
#     2   2   2   2   2   2   2   2
#     4  10  18  28  50  85 114 132 179 239 283 313
#     4  10  18  33  57  83 107 144 190 230 278 325
#     4  11  20  34  57  88 111 143 189 237 280 323
#     4  10  17  33  55  78 109 145 187 222 269 334
#     4  10  15  32  55  76 110 140 186 233 271 319
#     4  10  22  36  54  80 116 152 184 226 280 338
#     4  10  21  37  56  82 112 152 189 223 280 342
#     4  11  20  34  60  84 109 142 191 237 276 327
#
# _framework density 27.154561000000001
#
# number of rings (size 3 to 8) (size 9 to 14) (size 15 to 20)
#    0.000    1.750    5.000    2.625    0.000    1.500 
#    0.000    0.625    0.000    4.500    0.000    0.000 
#    0.000    0.000    0.000    0.000    0.000    0.000 
#
# Total GULP energy -89420.867617 kJ/mol
# GULP energy per Si atom -5588.804226 kJ/mol
# Density = 2.709276 g / cm^3
# Si number density = 27.154561 Si / 1000 Ang^3
#
#
#
# Elastic Constant Matrix: (Units=GPa)
#
#
# Indices 1 2 3 4 5 6 
#
# 1 173.7208 44.0813 33.4424 -16.6449 -9.0573 -13.7145
# 2 44.0813 99.6109 26.1291 -20.3044 -4.0547 6.2354
# 3 33.4424 26.1291 76.9778 -19.6530 -9.3573 -0.2484
# 4 -16.6449 -20.3044 -19.6530 49.2970 3.2889 8.3617
# 5 -9.0573 -4.0547 -9.3573 3.2889 44.0009 -18.5032
# 6 -13.7145 6.2354 -0.2484 8.3617 -18.5032 56.7824
#
#
#
# Elastic Compliance Matrix: (Units=1/GPa)
#
#
# Indices 1 2 3 4 5 6 
#
# 1 0.007130 -0.002750 -0.001942 -0.000078 0.001923 0.002654
# 2 -0.002750 0.012831 -0.002315 0.004073 -0.001517 -0.003177
# 3 -0.001942 -0.002315 0.016106 0.004653 0.002451 -0.000031
# 4 -0.000078 0.004073 0.004653 0.024802 -0.002582 -0.004939
# 5 0.001923 -0.001517 0.002451 -0.002582 0.027958 0.010132
# 6 0.002654 -0.003177 -0.000031 -0.004939 0.010132 0.022630
#
#
# Mechanical properties :
#
#
# Convention : Reuss Voigt Hill
#
# Bulk Modulus (GPa) = 45.34414 61.95723 53.65068
# Shear Modulus (GPa) = 37.64448 46.45985 42.05216
#
# Velocity S-wave (km/s) = 3.72735 4.14084 3.93952
# Velocity P-wave (km/s) = 5.93793 6.76226 6.36345
#
# Compressibility (1/GPa) = 0.02205357
#
# Stress axis : x y z
#
# Youngs Moduli (GPa) = 140.24809 77.93835 62.08797
#
# Poissons Ratio (x) = 0.21430 0.12056
# Poissons Ratio (y) = 0.38563 0.14375
# Poissons Ratio (z) = 0.27234 0.18045
#
# Static dielectric constant tensor:
#      x y z
#    x 2.214590 0.029190 0.060100 
#    y 0.029190 2.246970 0.139390 
#    z 0.060100 0.139390 2.096150 
# 
# From -- ./inp_files/471705.got.cif
#   From: 2010.05.17/outbox.cif.g08.bks.cpg/sg2_236_cif.got.tgz:471705.got - 2010.06.03 11:33:40.
