data_PCOD9082435
_publ_section_title
;
Structure prediction by ZEFSAII (Michael W. Deem and Ramdas Pophale) SiO2 
 PCOD9082435
Probable space group: P -1
;
_chemical_formula_sum "Si O2"
_cell_formula_units_Z 14
_cell_length_a 9.097423
_cell_length_b 13.690497
_cell_length_c 7.637550
_cell_angle_alpha 123.739272
_cell_angle_beta 109.261607
_cell_angle_gamma 50.204751
_cell_volume 607.288097
_symmetry_space_group_name_H-M "P -1"
_symmetry_group_IT_number 2
_symmetry_cell_setting 'triclinic'
loop_
_space_group_symop_operation_xyz
x,y,z
-x,-y,-z
loop_
_atom_site_type_symbol
_atom_site_label
_atom_site_fract_x
_atom_site_fract_y
_atom_site_fract_z
Si Si1 0.688336 0.440726 0.701734
Si Si2 0.040701 0.664517 0.982893
Si Si3 0.754945 0.611789 0.661365
Si Si4 0.309047 0.046210 0.745496
Si Si5 0.312177 0.715699 0.953801
Si Si6 0.432250 0.742278 0.401154
Si Si7 0.590560 0.100916 0.991612
O O1 0.778979 0.470829 0.606295
O O2 0.682369 0.302021 0.567703
O O3 0.796120 0.440653 0.918179
O O4 0.465561 0.575234 0.762477
O O5 0.941383 0.606651 0.771557
O O6 0.130762 0.719468 0.940521
O O7 0.883933 0.795312 0.178684
O O8 0.646557 0.660430 0.481124
O O9 0.591571 0.747295 0.851585
O O10 0.492021 0.047593 0.775832
O O11 0.328118 0.913232 0.528700
O O12 0.322172 0.006475 0.917895
O O13 0.420486 0.694527 0.157753
O O14 0.276293 0.858515 0.997388
#
# Coordination Sequence:
#
# PCOD9082435 Si02
#       7
#     2   2   2   2   2   2   2
#     4  10  20  36  53  74 104 141 171 202 255 307
#     4  10  19  33  55  78 104 132 169 215 251 301
#     4   9  18  34  57  77  97 134 179 211 244 295
#     4   9  18  33  54  78 100 132 174 208 250 300
#     4  10  21  35  53  75 105 139 167 206 262 301
#     4  10  19  33  55  78 104 132 169 215 251 301
#     4   8  17  35  54  73 103 138 168 204 255 314
#
# _framework density 23.053311000000001
#
# number of rings (size 3 to 8) (size 9 to 14) (size 15 to 20)
#    0.000    2.571    0.000    3.429    0.000    3.429 
#    0.000    2.857    0.000   34.286    0.000    0.000 
#    0.000    0.000    0.000    0.000    0.000    0.000 
#
# Total GULP energy -78158.647496 kJ/mol
# GULP energy per Si atom -5582.760535 kJ/mol
# Density = 2.300084 g / cm^3
# Si number density = 23.053311 Si / 1000 Ang^3
#
#
#
# Elastic Constant Matrix: (Units=GPa)
#
#
# Indices 1 2 3 4 5 6 
#
# 1 87.3638 8.9726 36.3058 -5.5696 29.3851 1.9501
# 2 8.9726 37.9778 6.0246 -0.7689 10.0730 1.4292
# 3 36.3058 6.0246 83.6091 -4.0267 33.1370 -0.7150
# 4 -5.5696 -0.7689 -4.0267 32.2879 -3.5847 4.0268
# 5 29.3851 10.0730 33.1370 -3.5847 31.7515 -0.8079
# 6 1.9501 1.4292 -0.7150 4.0268 -0.8079 30.9552
#
#
#
# Elastic Compliance Matrix: (Units=1/GPa)
#
#
# Indices 1 2 3 4 5 6 
#
# 1 0.016927 -0.000015 -0.001936 0.001381 -0.013526 -0.001643
# 2 -0.000015 0.029173 0.002676 -0.000119 -0.012088 -0.001584
# 3 -0.001936 0.002676 0.020865 0.000027 -0.020832 -0.000067
# 4 0.001381 -0.000119 0.000027 0.031980 0.002235 -0.004183
# 5 -0.013526 -0.012088 -0.020832 0.002235 0.069903 0.002463
# 6 -0.001643 -0.001584 -0.000067 -0.004183 0.002463 0.033088
#
#
# Mechanical properties :
#
#
# Convention : Reuss Voigt Hill
#
# Bulk Modulus (GPa) = 14.61646 34.61741 24.61693
# Shear Modulus (GPa) = 22.39229 29.50876 25.95053
#
# Velocity S-wave (km/s) = 3.11999 3.58162 3.35875
# Velocity P-wave (km/s) = 4.39695 5.67035 5.07376
#
# Compressibility (1/GPa) = 0.06841603
#
# Stress axis : x y z
#
# Youngs Moduli (GPa) = 59.07864 34.27775 47.92669
#
# Poissons Ratio (x) = 0.00050 0.09277
# Poissons Ratio (y) = 0.00086 -0.12824
# Poissons Ratio (z) = 0.11436 -0.09172
#
# Static dielectric constant tensor:
#      x y z
#    x 1.890330 0.035910 0.007770 
#    y 0.035910 1.883830 0.007540 
#    z 0.007770 0.007540 1.891600 
# 
# From -- ./inp_files/181316.got.cif
#   From: 2010.05.17/outbox.cif.g08.bks.cpg/sg2_91_cif.got.tgz:181316.got - 2010.06.03 11:33:40.
