data_PCOD9082823
_publ_section_title
;
Structure prediction by ZEFSAII (Michael W. Deem and Ramdas Pophale) SiO2 
 PCOD9082823
Probable space group: P -1
;
_chemical_formula_sum "Si O2"
_cell_formula_units_Z 16
_cell_length_a 18.058557
_cell_length_b 6.076042
_cell_length_c 24.433660
_cell_angle_alpha 61.088833
_cell_angle_beta 162.825980
_cell_angle_gamma 112.770325
_cell_volume 663.265163
_symmetry_space_group_name_H-M "P -1"
_symmetry_group_IT_number 2
_symmetry_cell_setting 'triclinic'
loop_
_space_group_symop_operation_xyz
x,y,z
-x,-y,-z
loop_
_atom_site_type_symbol
_atom_site_label
_atom_site_fract_x
_atom_site_fract_y
_atom_site_fract_z
Si Si1 0.353526 0.578595 0.546367
Si Si2 0.778413 0.001062 0.218838
Si Si3 0.363435 0.361246 0.101587
Si Si4 0.201513 0.243002 0.109353
Si Si5 0.156460 0.464984 0.531423
Si Si6 0.429932 0.916322 0.830565
Si Si7 0.063681 0.904651 0.795503
Si Si8 0.625205 0.339960 0.662069
O O1 0.628556 0.576940 0.768797
O O2 0.179632 0.482052 0.480087
O O3 0.412295 0.427356 0.549499
O O4 0.190035 0.883307 0.386432
O O5 0.935822 0.092540 0.270777
O O6 0.707639 0.170560 0.203692
O O7 0.919231 0.689808 0.362571
O O8 0.500000 0.000000 0.000000
O O9 0.298754 0.167747 0.123934
O O10 0.596179 0.452259 0.281165
O O11 0.461680 0.264162 0.122569
O O12 0.114463 0.614462 0.888859
O O13 0.273346 0.979522 0.228466
O O14 0.894921 0.391029 0.868104
O O15 0.208795 0.169504 0.622018
O O16 0.682170 0.002825 0.018940
O O17 0.500000 0.500000 0.500000
#
# Coordination Sequence:
#
# PCOD9082823 Si02
#       8
#     2   2   2   2   2   2   2   2
#     4  10  21  41  63  84 121 163 190 243 304 348
#     4   9  18  35  54  81 118 152 196 245 289 343
#     4  10  21  37  59  86 116 153 198 242 290 351
#     4  10  24  43  60  90 124 153 196 246 296 360
#     4   9  19  37  56  83 115 153 200 238 289 356
#     4  10  19  33  58  83 115 159 193 245 296 332
#     4   9  21  36  57  86 116 155 202 236 287 359
#     4  11  25  42  64  93 119 150 200 248 294 365
#
# _framework density 24.123085
#
# number of rings (size 3 to 8) (size 9 to 14) (size 15 to 20)
#    0.000    2.250    0.000    1.500    3.500    1.500 
#    4.500    7.500    0.000    0.000    0.000    0.000 
#    0.000    0.000    0.000    0.000    0.000    0.000 
#
# Total GULP energy -89377.100120 kJ/mol
# GULP energy per Si atom -5586.068757 kJ/mol
# Density = 2.406818 g / cm^3
# Si number density = 24.123085 Si / 1000 Ang^3
#
#
#
# Elastic Constant Matrix: (Units=GPa)
#
#
# Indices 1 2 3 4 5 6 
#
# 1 125.4943 26.9105 23.3433 -14.8424 -4.0575 -25.7155
# 2 26.9105 25.0169 15.8171 0.9805 -7.8989 0.6851
# 3 23.3433 15.8171 134.8756 -13.9532 -7.1529 3.3479
# 4 -14.8424 0.9805 -13.9532 34.0968 3.8558 -0.5975
# 5 -4.0575 -7.8989 -7.1529 3.8558 34.5544 -5.6226
# 6 -25.7155 0.6851 3.3479 -0.5975 -5.6226 31.7445
#
#
#
# Elastic Compliance Matrix: (Units=1/GPa)
#
#
# Indices 1 2 3 4 5 6 
#
# 1 0.015053 -0.016973 -0.000223 0.007274 -0.000927 0.012557
# 2 -0.016973 0.065974 -0.005215 -0.012930 0.011360 -0.012855
# 3 -0.000223 -0.005215 0.008448 0.003495 -0.000005 -0.000894
# 4 0.007274 -0.012930 0.003495 0.034888 -0.004345 0.005690
# 5 -0.000927 0.011360 -0.000005 -0.004345 0.032678 0.004710
# 6 0.012557 -0.012855 -0.000894 0.005690 0.004710 0.042987
#
#
# Mechanical properties :
#
#
# Convention : Reuss Voigt Hill
#
# Bulk Modulus (GPa) = 22.39558 46.39204 34.39381
# Shear Modulus (GPa) = 19.25048 34.70022 26.97535
#
# Velocity S-wave (km/s) = 2.82797 3.79682 3.34763
# Velocity P-wave (km/s) = 4.46848 6.20438 5.40655
#
# Compressibility (1/GPa) = 0.04465167
#
# Stress axis : x y z
#
# Youngs Moduli (GPa) = 66.43195 15.15756 118.37196
#
# Poissons Ratio (x) = 0.25727 0.02641
# Poissons Ratio (y) = 1.12755 0.61735
# Poissons Ratio (z) = 0.01482 0.07905
#
# Static dielectric constant tensor:
#      x y z
#    x 1.983390 0.013930 -0.027810 
#    y 0.013930 1.959380 0.003180 
#    z -0.027810 0.003180 1.929430 
# 
# From -- ./inp_files/122814.got.cif
#   From: 2010.05.17/outbox.cif.g08.bks.cpg/sg2_62_cif.got.tgz:122814.got - 2010.06.03 11:33:40.
