data_PCOD9082358
_publ_section_title
;
Structure prediction by ZEFSAII (Michael W. Deem and Ramdas Pophale) SiO2 
 PCOD9082358
Probable space group: P -1
;
_chemical_formula_sum "Si O2"
_cell_formula_units_Z 12
_cell_length_a 8.604864
_cell_length_b 6.867334
_cell_length_c 12.534078
_cell_angle_alpha 143.783843
_cell_angle_beta 74.929812
_cell_angle_gamma 94.160747
_cell_volume 410.158485
_symmetry_space_group_name_H-M "P -1"
_symmetry_group_IT_number 2
_symmetry_cell_setting 'triclinic'
loop_
_space_group_symop_operation_xyz
x,y,z
-x,-y,-z
loop_
_atom_site_type_symbol
_atom_site_label
_atom_site_fract_x
_atom_site_fract_y
_atom_site_fract_z
Si Si1 0.879175 0.947740 0.403999
Si Si2 0.686223 0.700692 0.046594
Si Si3 0.096264 0.771217 0.708162
Si Si4 0.413486 0.474487 0.244668
Si Si5 0.797121 0.283482 0.041279
Si Si6 0.611645 0.762206 0.626476
O O1 0.920472 0.140419 0.375479
O O2 0.686460 0.139708 0.545020
O O3 0.000000 0.000000 0.500000
O O4 0.885428 0.560820 0.200290
O O5 0.657402 0.622556 0.896237
O O6 0.492019 0.128739 0.790846
O O7 0.772685 0.389428 0.967609
O O8 0.921030 0.913316 0.858426
O O9 0.208063 0.018577 0.840200
O O10 0.212169 0.391935 0.527488
O O11 0.612421 0.372374 0.160614
O O12 0.369156 0.268973 0.263286
O O13 0.500000 0.500000 0.500000
#
# Coordination Sequence:
#
# PCOD9082358 Si02
#       6
#     2   2   2   2   2   2
#     4  10  19  33  54  81 110 147 185 220 268 333
#     4  10  19  36  59  81 109 150 186 219 270 338
#     4   9  19  36  56  79 109 146 183 223 270 330
#     4  11  21  34  57  87 111 141 184 234 276 316
#     4  11  21  35  57  88 114 136 181 241 277 308
#     4   9  20  38  57  76 110 154 187 215 268 339
#
# _framework density 29.256983000000002
#
# number of rings (size 3 to 8) (size 9 to 14) (size 15 to 20)
#    0.000    2.000    0.000    6.500    0.000    0.000 
#    0.000    4.167    0.000    6.000    0.000    3.500 
#    0.000    0.000    0.000    0.000    0.000    0.000 
#
# Total GULP energy -67429.913439 kJ/mol
# GULP energy per Si atom -5619.159453 kJ/mol
# Density = 2.919039 g / cm^3
# Si number density = 29.256983 Si / 1000 Ang^3
#
#
#
# Elastic Constant Matrix: (Units=GPa)
#
#
# Indices 1 2 3 4 5 6 
#
# 1 160.9716 32.5228 47.3909 -9.5269 -14.5624 -18.9609
# 2 32.5228 129.9720 60.9190 4.5940 -6.6024 -30.6047
# 3 47.3909 60.9190 192.8313 42.8686 -55.6169 -21.7842
# 4 -9.5269 4.5940 42.8686 68.8620 -29.0798 1.8829
# 5 -14.5624 -6.6024 -55.6169 -29.0798 65.5416 -6.9508
# 6 -18.9609 -30.6047 -21.7842 1.8829 -6.9508 43.6066
#
#
#
# Elastic Compliance Matrix: (Units=1/GPa)
#
#
# Indices 1 2 3 4 5 6 
#
# 1 0.007336 -0.000657 -0.001429 0.002627 0.001748 0.002180
# 2 -0.000657 0.010421 -0.002825 0.000538 -0.000672 0.005487
# 3 -0.001429 -0.002825 0.009294 -0.003278 0.006166 0.003163
# 4 0.002627 0.000538 -0.003278 0.019672 0.006594 0.000084
# 5 0.001748 -0.000672 0.006166 0.006594 0.024476 0.006985
# 6 0.002180 0.005487 0.003163 0.000084 0.006985 0.030421
#
#
# Mechanical properties :
#
#
# Convention : Reuss Voigt Hill
#
# Bulk Modulus (GPa) = 58.03646 85.04893 71.54269
# Shear Modulus (GPa) = 42.66789 58.46485 50.56637
#
# Velocity S-wave (km/s) = 3.82302 4.47511 4.16186
# Velocity P-wave (km/s) = 6.27433 7.47227 6.89935
#
# Compressibility (1/GPa) = 0.01723055
#
# Stress axis : x y z
#
# Youngs Moduli (GPa) = 136.31289 95.96039 107.59921
#
# Poissons Ratio (x) = 0.06300 0.15377
# Poissons Ratio (y) = 0.08949 0.30392
# Poissons Ratio (z) = 0.19480 0.27104
#
# Static dielectric constant tensor:
#      x y z
#    x 2.263210 0.022310 0.004710 
#    y 0.022310 2.219940 -0.013910 
#    z 0.004710 -0.013910 2.232570 
# 
# From -- ./inp_files/415590.got.cif
#   From: 2010.05.17/outbox.cif.g08.bks.cpg/sg2_208_cif.got.tgz:415590.got - 2010.06.03 11:33:40.
