data_PCOD9082098
_publ_section_title
;
Structure prediction by ZEFSAII (Michael W. Deem and Ramdas Pophale) SiO2 
 PCOD9082098
Probable space group: P -1
;
_chemical_formula_sum "Si O2"
_cell_formula_units_Z 16
_cell_length_a 30.004036
_cell_length_b 11.399875
_cell_length_c 14.895901
_cell_angle_alpha 151.362809
_cell_angle_beta 19.109445
_cell_angle_gamma 152.910965
_cell_volume 736.523929
_symmetry_space_group_name_H-M "P -1"
_symmetry_group_IT_number 2
_symmetry_cell_setting 'triclinic'
loop_
_space_group_symop_operation_xyz
x,y,z
-x,-y,-z
loop_
_atom_site_type_symbol
_atom_site_label
_atom_site_fract_x
_atom_site_fract_y
_atom_site_fract_z
Si Si1 0.186903 0.968509 0.046385
Si Si2 0.529502 0.011431 0.666682
Si Si3 0.481810 0.649760 0.356923
Si Si4 0.763857 0.247990 0.835239
Si Si5 0.668520 0.713722 0.312223
Si Si6 0.365847 0.096889 0.308293
Si Si7 0.912915 0.078605 0.594471
Si Si8 0.275506 0.534872 0.500989
O O1 0.133564 0.867935 0.181381
O O2 0.350315 0.196111 0.888862
O O3 0.079255 0.098972 0.298909
O O4 0.187243 0.721232 0.820136
O O5 0.457255 0.866093 0.614145
O O6 0.650957 0.893614 0.386144
O O7 0.615464 0.319181 0.690214
O O8 0.398703 0.926721 0.930049
O O9 0.443215 0.390540 0.317006
O O10 0.375061 0.563650 0.418239
O O11 0.758199 0.092040 0.649651
O O12 0.877371 0.241419 0.691146
O O13 0.765719 0.537672 0.003370
O O14 0.500000 0.500000 0.500000
O O15 0.701675 0.882015 0.453097
O O16 0.500000 0.000000 0.000000
O O17 0.818715 0.767583 0.544107
#
# Coordination Sequence:
#
# PCOD9082098 Si02
#       8
#     2   2   2   2   2   2   2   2
#     4  10  24  39  54  83 120 150 187 229 287 341
#     4  10  19  34  55  85 117 145 179 238 291 322
#     4  11  20  36  58  88 114 143 186 242 285 327
#     4  11  20  33  55  83 114 145 193 226 276 341
#     4  10  19  33  50  83 119 147 176 232 290 324
#     4  12  20  32  56  89 114 144 184 236 284 326
#     4  11  23  38  57  83 114 160 185 223 287 346
#     4  11  22  37  60  87 113 143 190 242 284 329
#
# _framework density 21.723666999999999
#
# number of rings (size 3 to 8) (size 9 to 14) (size 15 to 20)
#    0.000    1.250    6.250    3.375    1.750    1.000 
#    0.000    0.000    0.000    6.750    0.000    6.125 
#    0.000    0.000    0.000    0.000    0.000    0.000 
#
# Total GULP energy -89450.660281 kJ/mol
# GULP energy per Si atom -5590.666268 kJ/mol
# Density = 2.167422 g / cm^3
# Si number density = 21.723667 Si / 1000 Ang^3
#
#
#
# Elastic Constant Matrix: (Units=GPa)
#
#
# Indices 1 2 3 4 5 6 
#
# 1 98.4075 3.4072 12.2918 5.4218 -12.3637 1.2025
# 2 3.4072 27.0108 5.9252 13.3266 2.1153 -0.6274
# 3 12.2918 5.9252 44.9462 8.7329 -8.0470 2.2293
# 4 5.4218 13.3266 8.7329 20.9426 0.0401 -0.0590
# 5 -12.3637 2.1153 -8.0470 0.0401 39.0803 14.4023
# 6 1.2025 -0.6274 2.2293 -0.0590 14.4023 26.6730
#
#
#
# Elastic Compliance Matrix: (Units=1/GPa)
#
#
# Indices 1 2 3 4 5 6 
#
# 1 0.011046 -0.000488 -0.001732 -0.001843 0.004123 -0.002595
# 2 -0.000488 0.054670 -0.001536 -0.034001 -0.004864 0.003988
# 3 -0.001732 -0.001536 0.026386 -0.009608 0.007220 -0.006083
# 4 -0.001843 -0.034001 -0.009608 0.073874 -0.001110 0.000849
# 5 0.004123 -0.004864 0.007220 -0.001110 0.036177 -0.020440
# 6 -0.002595 0.003988 -0.006083 0.000849 -0.020440 0.049249
#
#
# Mechanical properties :
#
#
# Convention : Reuss Voigt Hill
#
# Bulk Modulus (GPa) = 11.82157 23.73475 17.77816
# Shear Modulus (GPa) = 17.41499 27.25519 22.33509
#
# Velocity S-wave (km/s) = 2.83443 3.54592 3.20995
# Velocity P-wave (km/s) = 4.02065 5.26443 4.68401
#
# Compressibility (1/GPa) = 0.08459114
#
# Stress axis : x y z
#
# Youngs Moduli (GPa) = 90.52878 18.29170 37.89872
#
# Poissons Ratio (x) = 0.00892 0.06563
# Poissons Ratio (y) = 0.04414 0.05821
# Poissons Ratio (z) = 0.15678 0.02810
#
# Static dielectric constant tensor:
#      x y z
#    x 1.823380 -0.009330 0.000220 
#    y -0.009330 1.769220 0.022340 
#    z 0.000220 0.022340 1.844180 
# 
# From -- ./inp_files/453504.got.cif
#   From: 2010.05.17/outbox.cif.g08.bks.cpg/sg2_227_cif.got.tgz:453504.got - 2010.06.03 11:33:40.
