data_PCOD9082797
_publ_section_title
;
Structure prediction by ZEFSAII (Michael W. Deem and Ramdas Pophale) SiO2 
 PCOD9082797
Probable space group: P -1
;
_chemical_formula_sum "Si O2"
_cell_formula_units_Z 16
_cell_length_a 9.692793
_cell_length_b 12.588293
_cell_length_c 8.884269
_cell_angle_alpha 52.579669
_cell_angle_beta 77.290419
_cell_angle_gamma 109.425344
_cell_volume 670.705326
_symmetry_space_group_name_H-M "P -1"
_symmetry_group_IT_number 2
_symmetry_cell_setting 'triclinic'
loop_
_space_group_symop_operation_xyz
x,y,z
-x,-y,-z
loop_
_atom_site_type_symbol
_atom_site_label
_atom_site_fract_x
_atom_site_fract_y
_atom_site_fract_z
Si Si1 0.068671 0.785385 0.073634
Si Si2 0.491994 0.652268 0.332140
Si Si3 0.266270 0.101769 0.368753
Si Si4 0.707302 0.154557 0.319268
Si Si5 0.762502 0.703633 0.000915
Si Si6 0.844241 0.587112 0.546714
Si Si7 0.755360 0.852047 0.317780
Si Si8 0.671223 0.419740 0.046553
O O1 0.023312 0.676522 0.328343
O O2 0.214112 0.813911 0.896608
O O3 0.894602 0.702638 0.080922
O O4 0.125907 0.968510 0.944926
O O5 0.500000 0.500000 0.500000
O O6 0.306398 0.578227 0.367826
O O7 0.561443 0.762813 0.368449
O O8 0.645690 0.739392 0.096672
O O9 0.154201 0.143871 0.265441
O O10 0.239359 0.107400 0.546105
O O11 0.476500 0.265872 0.162845
O O12 0.223074 0.919749 0.518714
O O13 0.738086 0.326686 0.199436
O O14 0.500000 0.000000 0.500000
O O15 0.661540 0.537875 0.063674
O O16 0.803367 0.723021 0.414903
O O17 0.801885 0.530392 0.780072
#
# Coordination Sequence:
#
# PCOD9082797 Si02
#       8
#     2   2   2   2   2   2   2   2
#     4  11  24  38  61  91 126 158 201 250 309 356
#     4  10  19  33  57  94 125 155 191 253 307 356
#     4  10  20  37  64  91 120 161 208 241 302 360
#     4   9  23  44  60  81 123 171 200 244 303 368
#     4  12  21  33  64  98 119 152 205 254 293 360
#     4  11  20  35  60  94 122 154 201 250 302 356
#     4  10  20  37  56  87 130 161 188 248 312 353
#     4  11  21  38  63  87 126 165 200 245 299 358
#
# _framework density 23.855481000000001
#
# number of rings (size 3 to 8) (size 9 to 14) (size 15 to 20)
#    0.000    1.500    5.000    2.250    0.000    3.000 
#    0.000    0.000    0.000    6.000    0.000    0.000 
#    0.000    0.000    0.000    0.000    0.000    0.000 
#
# Total GULP energy -89200.492215 kJ/mol
# GULP energy per Si atom -5575.030763 kJ/mol
# Density = 2.380118 g / cm^3
# Si number density = 23.855481 Si / 1000 Ang^3
#
#
#
# Elastic Constant Matrix: (Units=GPa)
#
#
# Indices 1 2 3 4 5 6 
#
# 1 43.3595 14.8238 18.5680 -4.1453 4.3816 -12.2458
# 2 14.8238 49.3973 28.5676 -5.8936 16.3636 0.6464
# 3 18.5680 28.5676 136.7002 -2.9395 -5.3966 -5.5434
# 4 -4.1453 -5.8936 -2.9395 26.5304 -10.7633 6.2498
# 5 4.3816 16.3636 -5.3966 -10.7633 42.1390 -2.8564
# 6 -12.2458 0.6464 -5.5434 6.2498 -2.8564 28.9409
#
#
#
# Elastic Compliance Matrix: (Units=1/GPa)
#
#
# Indices 1 2 3 4 5 6 
#
# 1 0.030236 -0.008461 -0.001794 -0.000041 0.000764 0.012723
# 2 -0.008461 0.030364 -0.005903 0.001642 -0.011716 -0.006900
# 3 -0.001794 -0.005903 0.009015 0.000672 0.003896 0.001339
# 4 -0.000041 0.001642 0.000672 0.044253 0.010182 -0.008477
# 5 0.000764 -0.011716 0.003896 0.010182 0.031452 0.002237
# 6 0.012723 -0.006900 0.001339 -0.008477 0.002237 0.042399
#
#
# Mechanical properties :
#
#
# Convention : Reuss Voigt Hill
#
# Bulk Modulus (GPa) = 26.80969 39.26399 33.03684
# Shear Modulus (GPa) = 21.50835 30.68858 26.09847
#
# Velocity S-wave (km/s) = 3.00594 3.59058 3.31119
# Velocity P-wave (km/s) = 4.82808 5.80384 5.33830
#
# Compressibility (1/GPa) = 0.03729994
#
# Stress axis : x y z
#
# Youngs Moduli (GPa) = 33.07325 32.93348 110.92458
#
# Poissons Ratio (x) = 0.27864 0.19895
# Poissons Ratio (y) = 0.27983 0.65482
# Poissons Ratio (z) = 0.05932 0.19442
#
# Static dielectric constant tensor:
#      x y z
#    x 2.034350 -0.060340 -0.062700 
#    y -0.060340 1.878040 -0.100980 
#    z -0.062700 -0.100980 1.729040 
# 
# From -- ./inp_files/256836.got.cif
#   From: 2010.05.17/outbox.cif.g08.bks.cpg/sg2_129_cif.got.tgz:256836.got - 2010.06.03 11:33:40.
