data_PCOD9082539
_publ_section_title
;
Structure prediction by ZEFSAII (Michael W. Deem and Ramdas Pophale) SiO2 
 PCOD9082539
Probable space group: P -1
;
_chemical_formula_sum "Si O2"
_cell_formula_units_Z 14
_cell_length_a 11.309229
_cell_length_b 15.994537
_cell_length_c 13.658255
_cell_angle_alpha 151.716532
_cell_angle_beta 105.904160
_cell_angle_gamma 55.310741
_cell_volume 782.044063
_symmetry_space_group_name_H-M "P -1"
_symmetry_group_IT_number 2
_symmetry_cell_setting 'triclinic'
loop_
_space_group_symop_operation_xyz
x,y,z
-x,-y,-z
loop_
_atom_site_type_symbol
_atom_site_label
_atom_site_fract_x
_atom_site_fract_y
_atom_site_fract_z
Si Si1 0.614117 0.878178 0.998790
Si Si2 0.189081 0.584545 0.857554
Si Si3 0.986084 0.071256 0.181416
Si Si4 0.312085 0.583423 0.389968
Si Si5 0.557004 0.240966 0.513068
Si Si6 0.071548 0.005653 0.621740
Si Si7 0.004626 0.466475 0.583793
O O1 0.615768 0.683663 0.847942
O O2 0.814212 0.713153 0.840437
O O3 0.500000 0.000000 0.000000
O O4 0.550595 0.085295 0.276536
O O5 0.399330 0.390815 0.708729
O O6 0.141772 0.450197 0.654233
O O7 0.079110 0.730799 0.082582
O O8 0.114158 0.814331 0.006681
O O9 0.029883 0.232757 0.367608
O O10 0.786434 0.250571 0.362588
O O11 0.000000 0.000000 0.000000
O O12 0.452628 0.574230 0.367539
O O13 0.150503 0.767768 0.464472
O O14 0.752686 0.055391 0.412727
O O15 0.000000 0.000000 0.500000
O O16 0.000000 0.500000 0.500000
#
# Coordination Sequence:
#
# PCOD9082539 Si02
#       7
#     2   2   2   2   2   2   2
#     4  11  21  35  56  86 123 159 190 231 287 351
#     4  11  21  38  57  87 117 148 195 242 285 354
#     4  10  19  33  56  78 115 162 193 230 286 339
#     4   8  21  39  53  85 119 146 204 234 284 348
#     4  10  22  38  59  86 117 152 195 241 290 351
#     4   9  20  44  66  81 114 153 196 256 295 328
#     4  11  20  33  54  82 117 162 195 227 286 348
#
# _framework density 17.901803999999998
#
# number of rings (size 3 to 8) (size 9 to 14) (size 15 to 20)
#    0.857    1.143    2.857    0.857    2.000    3.429 
#    0.000    0.714    0.000    0.857    0.000    0.000 
#    0.000    0.000    0.000    0.000    0.000    0.000 
#
# Total GULP energy -78002.281015 kJ/mol
# GULP energy per Si atom -5571.591501 kJ/mol
# Density = 1.786106 g / cm^3
# Si number density = 17.901804 Si / 1000 Ang^3
#
#
#
# Elastic Constant Matrix: (Units=GPa)
#
#
# Indices 1 2 3 4 5 6 
#
# 1 97.7894 16.4501 55.9692 -0.2640 -16.7739 -13.7137
# 2 16.4501 48.7594 29.4765 -14.1831 4.1909 -13.1334
# 3 55.9692 29.4765 74.1074 -15.2939 -4.9569 -12.1807
# 4 -0.2640 -14.1831 -15.2939 26.1307 3.1212 8.7081
# 5 -16.7739 4.1909 -4.9569 3.1212 29.5771 5.5239
# 6 -13.7137 -13.1334 -12.1807 8.7081 5.5239 21.8298
#
#
#
# Elastic Compliance Matrix: (Units=1/GPa)
#
#
# Indices 1 2 3 4 5 6 
#
# 1 0.024157 0.000596 -0.019530 -0.014733 0.010426 0.007875
# 2 0.000596 0.033709 -0.010432 0.008758 -0.009686 0.013791
# 3 -0.019530 -0.010432 0.034746 0.016561 -0.004667 -0.004583
# 4 -0.014733 0.008758 0.016561 0.059016 -0.010111 -0.015729
# 5 0.010426 -0.009686 -0.004667 -0.010111 0.043011 -0.008732
# 6 0.007875 0.013791 -0.004583 -0.015729 -0.008732 0.064980
#
#
# Mechanical properties :
#
#
# Convention : Reuss Voigt Hill
#
# Bulk Modulus (GPa) = 29.51597 47.16087 38.33842
# Shear Modulus (GPa) = 15.16791 23.42488 19.29640
#
# Velocity S-wave (km/s) = 2.91397 3.62127 3.28670
# Velocity P-wave (km/s) = 5.27685 6.62467 5.98880
#
# Compressibility (1/GPa) = 0.03387996
#
# Stress axis : x y z
#
# Youngs Moduli (GPa) = 41.39626 29.66590 28.78060
#
# Poissons Ratio (x) = -0.01769 0.56209
# Poissons Ratio (y) = -0.02468 0.30023
# Poissons Ratio (z) = 0.80847 0.30947
#
# Static dielectric constant tensor:
#      x y z
#    x 1.652790 -0.007840 -0.019690 
#    y -0.007840 1.534520 0.045800 
#    z -0.019690 0.045800 1.600120 
# 
# From -- ./inp_files/403874.got.cif
#   From: 2010.05.17/outbox.cif.g08.bks.cpg/sg2_202_cif.got.tgz:403874.got - 2010.06.03 11:33:40.
