data_PCOD9082829
_publ_section_title
;
Structure prediction by ZEFSAII (Michael W. Deem and Ramdas Pophale) SiO2 
 PCOD9082829
Probable space group: P -1
;
_chemical_formula_sum "Si O2"
_cell_formula_units_Z 16
_cell_length_a 15.691752
_cell_length_b 5.244565
_cell_length_c 15.221851
_cell_angle_alpha 74.923686
_cell_angle_beta 57.765483
_cell_angle_gamma 112.074000
_cell_volume 794.594146
_symmetry_space_group_name_H-M "P -1"
_symmetry_group_IT_number 2
_symmetry_cell_setting 'triclinic'
loop_
_space_group_symop_operation_xyz
x,y,z
-x,-y,-z
loop_
_atom_site_type_symbol
_atom_site_label
_atom_site_fract_x
_atom_site_fract_y
_atom_site_fract_z
Si Si1 0.745479 0.447783 0.104476
Si Si2 0.325356 0.255132 0.747314
Si Si3 0.197017 0.845806 0.426897
Si Si4 0.133683 0.709456 0.668516
Si Si5 0.525583 0.826967 0.711294
Si Si6 0.626872 0.279140 0.459823
Si Si7 0.972656 0.911639 0.801276
Si Si8 0.025074 0.911091 0.401410
O O1 0.762257 0.679225 0.155651
O O2 0.603798 0.295127 0.156756
O O3 0.727469 0.123725 0.179553
O O4 0.858836 0.658744 0.953657
O O5 0.462832 0.525204 0.699619
O O6 0.336934 0.379253 0.630940
O O7 0.163446 0.893100 0.539917
O O8 0.132783 0.875476 0.374805
O O9 0.115248 0.440431 0.513956
O O10 0.351442 0.083311 0.314012
O O11 0.262264 0.754309 0.615431
O O12 0.077941 0.848770 0.747931
O O13 0.028334 0.296488 0.756542
O O14 0.585588 0.172142 0.592510
O O15 0.500000 0.000000 0.500000
O O16 0.927119 0.848666 0.730075
O O17 0.000000 0.000000 0.500000
#
# Coordination Sequence:
#
# PCOD9082829 Si02
#       8
#     2   2   2   2   2   2   2   2
#     4  10  21  38  56  80 112 161 179 227 273 333
#     4   9  20  37  58  82 110 148 192 221 278 319
#     4   9  18  36  54  89 111 140 182 236 285 329
#     4  10  21  37  59  86 110 149 184 232 279 328
#     4   8  19  36  58  84 113 147 183 230 281 333
#     4   9  18  40  59  89 111 144 187 243 273 320
#     4  11  22  39  58  80 118 148 190 220 281 337
#     4  10  19  33  58  84 112 141 184 236 281 325
#
# _framework density 20.136064000000001
#
# number of rings (size 3 to 8) (size 9 to 14) (size 15 to 20)
#    0.750    1.750    1.250    0.750    0.000    2.500 
#   13.500    4.375    0.000    1.500    0.000    0.000 
#    0.000    0.000    0.000    0.000    0.000    0.000 
#
# Total GULP energy -89075.903546 kJ/mol
# GULP energy per Si atom -5567.243972 kJ/mol
# Density = 2.009023 g / cm^3
# Si number density = 20.136064 Si / 1000 Ang^3
#
#
#
# Elastic Constant Matrix: (Units=GPa)
#
#
# Indices 1 2 3 4 5 6 
#
# 1 70.5249 13.6651 26.3018 -16.2571 -18.2367 1.8210
# 2 13.6651 60.1431 11.3164 -4.8358 -5.0653 -15.8005
# 3 26.3018 11.3164 85.1850 -11.2338 -18.6736 -2.5640
# 4 -16.2571 -4.8358 -11.2338 19.7911 -7.1130 4.1889
# 5 -18.2367 -5.0653 -18.6736 -7.1130 23.3696 -1.3022
# 6 1.8210 -15.8005 -2.5640 4.1889 -1.3022 22.9049
#
#
#
# Elastic Compliance Matrix: (Units=1/GPa)
#
#
# Indices 1 2 3 4 5 6 
#
# 1 0.038944 -0.004730 0.006741 0.055717 0.050992 -0.012895
# 2 -0.004730 0.021904 -0.001281 -0.002560 0.000135 0.015819
# 3 0.006741 -0.001281 0.019686 0.027325 0.028887 -0.002571
# 4 0.055717 -0.002560 0.027325 0.156443 0.110957 -0.025439
# 5 0.050992 0.000135 0.028887 0.110957 0.138735 -0.013132
# 6 -0.012895 0.015819 -0.002571 -0.025439 -0.013132 0.059214
#
#
# Mechanical properties :
#
#
# Convention : Reuss Voigt Hill
#
# Bulk Modulus (GPa) = 12.19593 35.37995 23.78794
# Shear Modulus (GPa) = 10.85075 24.18442 17.51758
#
# Velocity S-wave (km/s) = 2.32388 3.46938 2.95271
# Velocity P-wave (km/s) = 3.64286 5.80150 4.84396
#
# Compressibility (1/GPa) = 0.08199455
#
# Stress axis : x y z
#
# Youngs Moduli (GPa) = 25.67790 45.65348 50.79634
#
# Poissons Ratio (x) = 0.21595 -0.34244
# Poissons Ratio (y) = 0.12146 0.06509
# Poissons Ratio (z) = -0.17311 0.05850
#
# Static dielectric constant tensor:
#      x y z
#    x 1.830330 -0.026420 0.026810 
#    y -0.026420 1.787140 0.020660 
#    z 0.026810 0.020660 1.720930 
# 
# From -- ./inp_files/473120.got.cif
#   From: 2010.05.17/outbox.cif.g08.bks.cpg/sg2_237_cif.got.tgz:473120.got - 2010.06.03 11:33:40.
