data_PCOD9082310
_publ_section_title
;
Structure prediction by ZEFSAII (Michael W. Deem and Ramdas Pophale) SiO2 
 PCOD9082310
Probable space group: P -1
;
_chemical_formula_sum "Si O2"
_cell_formula_units_Z 14
_cell_length_a 7.442830
_cell_length_b 16.390561
_cell_length_c 5.742327
_cell_angle_alpha 79.310563
_cell_angle_beta 88.811056
_cell_angle_gamma 52.580056
_cell_volume 542.891109
_symmetry_space_group_name_H-M "P -1"
_symmetry_group_IT_number 2
_symmetry_cell_setting 'triclinic'
loop_
_space_group_symop_operation_xyz
x,y,z
-x,-y,-z
loop_
_atom_site_type_symbol
_atom_site_label
_atom_site_fract_x
_atom_site_fract_y
_atom_site_fract_z
Si Si1 0.031079 0.351649 0.520042
Si Si2 0.351958 0.403554 0.589708
Si Si3 0.270573 0.176090 0.983151
Si Si4 0.478453 0.742830 0.955826
Si Si5 0.173644 0.742266 0.581718
Si Si6 0.642326 0.005736 0.688123
Si Si7 0.124345 0.910436 0.241559
O O1 0.817479 0.472147 0.503169
O O2 0.969101 0.300756 0.354315
O O3 0.242313 0.355320 0.481253
O O4 0.089878 0.278134 0.781931
O O5 0.606621 0.350299 0.527548
O O6 0.354982 0.373563 0.876185
O O7 0.463392 0.089157 0.841960
O O8 0.393266 0.208096 0.131888
O O9 0.199293 0.111196 0.143040
O O10 0.304206 0.751806 0.779257
O O11 0.334892 0.811302 0.149550
O O12 0.026550 0.855914 0.394684
O O13 0.781540 0.048682 0.599633
O O14 0.500000 0.000000 0.500000
O O15 0.000000 0.000000 0.000000
#
# Coordination Sequence:
#
# PCOD9082310 Si02
#       7
#     2   2   2   2   2   2   2
#     4  10  20  38  61  82 111 147 186 231 276 331
#     4   9  21  41  57  81 116 144 182 234 279 327
#     4   9  19  35  52  77 111 143 178 227 275 316
#     4   9  20  37  55  80 116 147 182 233 278 328
#     4  11  21  37  60  82 111 151 185 225 283 331
#     4  10  19  33  54  76 106 147 182 218 271 326
#     4  10  21  35  52  81 115 145 184 231 274 325
#
# _framework density 25.787859000000001
#
# number of rings (size 3 to 8) (size 9 to 14) (size 15 to 20)
#    0.000    2.286    0.000    3.000    0.000    2.286 
#    0.000   13.571    0.000    0.000    0.000    0.000 
#    0.000    0.000    0.000    0.000    0.000    0.000 
#
# Total GULP energy -78292.172473 kJ/mol
# GULP energy per Si atom -5592.298034 kJ/mol
# Density = 2.572916 g / cm^3
# Si number density = 25.787859 Si / 1000 Ang^3
#
#
#
# Elastic Constant Matrix: (Units=GPa)
#
#
# Indices 1 2 3 4 5 6 
#
# 1 140.1582 49.0834 27.8865 6.2199 9.3495 32.6840
# 2 49.0834 161.7138 62.4001 -30.9477 16.4774 28.6682
# 3 27.8865 62.4001 72.1820 -11.2769 32.6028 22.5996
# 4 6.2199 -30.9477 -11.2769 51.1229 5.3326 15.0967
# 5 9.3495 16.4774 32.6028 5.3326 42.1684 9.7031
# 6 32.6840 28.6682 22.5996 15.0967 9.7031 55.5440
#
#
#
# Elastic Compliance Matrix: (Units=1/GPa)
#
#
# Indices 1 2 3 4 5 6 
#
# 1 0.008898 -0.002021 -0.001239 -0.001664 0.000760 -0.003369
# 2 -0.002021 0.011520 -0.008101 0.006248 0.002237 -0.003549
# 3 -0.001239 -0.008101 0.035323 0.007667 -0.023112 -0.007508
# 4 -0.001664 0.006248 0.007667 0.029678 -0.009025 -0.011855
# 5 0.000760 0.002237 -0.023112 -0.009025 0.040970 0.003098
# 6 -0.003369 -0.003549 -0.007508 -0.011855 0.003098 0.027554
#
#
# Mechanical properties :
#
#
# Convention : Reuss Voigt Hill
#
# Bulk Modulus (GPa) = 30.28524 72.53267 51.40896
# Shear Modulus (GPa) = 26.64222 45.41265 36.02743
#
# Velocity S-wave (km/s) = 3.21772 4.20099 3.74179
# Velocity P-wave (km/s) = 5.05712 7.19158 6.21664
#
# Compressibility (1/GPa) = 0.03301938
#
# Stress axis : x y z
#
# Youngs Moduli (GPa) = 112.38606 86.80494 28.30986
#
# Poissons Ratio (x) = 0.17546 0.03507
# Poissons Ratio (y) = 0.22717 0.22934
# Poissons Ratio (z) = 0.13921 0.70320
#
# Static dielectric constant tensor:
#      x y z
#    x 2.038790 0.003830 -0.051350 
#    y 0.003830 2.024300 -0.024430 
#    z -0.051350 -0.024430 2.158380 
# 
# From -- ./inp_files/38945.got.cif
#   From: 2010.05.17/outbox.cif.g08.bks.cpg/sg2_20_cif.got.tgz:38945.got - 2010.06.03 11:33:40.
