data_PCOD9082394
_publ_section_title
;
Structure prediction by ZEFSAII (Michael W. Deem and Ramdas Pophale) SiO2 
 PCOD9082394
Probable space group: P -1
;
_chemical_formula_sum "Si O2"
_cell_formula_units_Z 14
_cell_length_a 8.099263
_cell_length_b 13.356140
_cell_length_c 9.272338
_cell_angle_alpha 103.207887
_cell_angle_beta 108.090281
_cell_angle_gamma 133.186837
_cell_volume 536.307968
_symmetry_space_group_name_H-M "P -1"
_symmetry_group_IT_number 2
_symmetry_cell_setting 'triclinic'
loop_
_space_group_symop_operation_xyz
x,y,z
-x,-y,-z
loop_
_atom_site_type_symbol
_atom_site_label
_atom_site_fract_x
_atom_site_fract_y
_atom_site_fract_z
Si Si1 0.586951 0.088556 0.282365
Si Si2 0.338626 0.783220 0.270790
Si Si3 0.273903 0.467217 0.306831
Si Si4 0.790660 0.864430 0.533018
Si Si5 0.825476 0.516612 0.404072
Si Si6 0.772375 0.398923 0.076385
Si Si7 0.884554 0.088878 0.115208
O O1 0.716656 0.075764 0.187995
O O2 0.891839 0.277181 0.497715
O O3 0.409722 0.931237 0.292159
O O4 0.364388 0.055614 0.121735
O O5 0.545746 0.837449 0.470928
O O6 0.989264 0.590457 0.132026
O O7 0.422618 0.748430 0.146405
O O8 0.578446 0.659782 0.382162
O O9 0.321130 0.501143 0.503798
O O10 0.005489 0.420479 0.190306
O O11 0.120236 0.283804 0.172574
O O12 0.958819 0.922623 0.748794
O O13 0.000000 0.000000 0.500000
O O14 0.000000 0.500000 0.500000
O O15 0.632945 0.385416 0.173518
#
# Coordination Sequence:
#
# PCOD9082394 Si02
#       7
#     2   2   2   2   2   2   2
#     4  10  19  33  58  83 108 143 190 230 260 331
#     4  10  19  34  57  85 112 140 184 231 272 323
#     4   9  18  34  54  77 112 148 185 222 269 330
#     4  11  21  32  53  87 114 143 179 233 281 315
#     4   9  19  33  55  83 110 144 183 228 277 319
#     4   9  18  34  57  84 111 144 182 227 277 326
#     4  10  19  33  54  84 109 144 188 227 265 324
#
# _framework density 26.104403999999999
#
# number of rings (size 3 to 8) (size 9 to 14) (size 15 to 20)
#    0.000    2.286    2.857    0.429    2.000    0.571 
#    0.000    0.000    0.000   17.143    3.714    0.000 
#    0.000    0.000    0.000    0.000    0.000    0.000 
#
# Total GULP energy -78202.039715 kJ/mol
# GULP energy per Si atom -5585.859980 kJ/mol
# Density = 2.604499 g / cm^3
# Si number density = 26.104404 Si / 1000 Ang^3
#
#
#
# Elastic Constant Matrix: (Units=GPa)
#
#
# Indices 1 2 3 4 5 6 
#
# 1 62.7574 11.0569 25.9520 -2.2978 -9.4413 9.0984
# 2 11.0569 183.6256 26.3498 21.0739 7.2715 -12.6666
# 3 25.9520 26.3498 130.6930 -17.2849 1.3465 -6.2310
# 4 -2.2978 21.0739 -17.2849 41.5727 1.4133 4.9521
# 5 -9.4413 7.2715 1.3465 1.4133 41.7609 -3.2090
# 6 9.0984 -12.6666 -6.2310 4.9521 -3.2090 25.9444
#
#
#
# Elastic Compliance Matrix: (Units=1/GPa)
#
#
# Indices 1 2 3 4 5 6 
#
# 1 0.019669 -0.001479 -0.003904 0.001054 0.004161 -0.008244
# 2 -0.001479 0.006572 -0.001415 -0.004459 -0.000966 0.004119
# 3 -0.003904 -0.001415 0.009372 0.004189 -0.000925 0.002015
# 4 0.001054 -0.004459 0.004189 0.028989 -0.000651 -0.007154
# 5 0.004161 -0.000966 -0.000925 -0.000651 0.025190 0.001087
# 6 -0.008244 0.004119 0.002015 -0.007154 0.001087 0.045430
#
#
# Mechanical properties :
#
#
# Convention : Reuss Voigt Hill
#
# Bulk Modulus (GPa) = 45.41787 55.97703 50.69745
# Shear Modulus (GPa) = 32.01916 42.77007 37.39461
#
# Velocity S-wave (km/s) = 3.50606 4.05214 3.78895
# Velocity P-wave (km/s) = 5.81603 6.58659 6.21327
#
# Compressibility (1/GPa) = 0.02201777
#
# Stress axis : x y z
#
# Youngs Moduli (GPa) = 50.84126 152.15907 106.70398
#
# Poissons Ratio (x) = 0.22497 0.41659
# Poissons Ratio (y) = 0.07517 0.15097
# Poissons Ratio (z) = 0.19849 0.21529
#
# Static dielectric constant tensor:
#      x y z
#    x 2.097410 0.036710 0.003140 
#    y 0.036710 2.113400 -0.037710 
#    z 0.003140 -0.037710 2.123590 
# 
# From -- ./inp_files/431440.got.cif
#   From: 2010.05.17/outbox.cif.g08.bks.cpg/sg2_216_cif.got.tgz:431440.got - 2010.06.03 11:33:40.
