data_PCOD9082560
_publ_section_title
;
Structure prediction by ZEFSAII (Michael W. Deem and Ramdas Pophale) SiO2 
 PCOD9082560
Probable space group: P -1
;
_chemical_formula_sum "Si O2"
_cell_formula_units_Z 14
_cell_length_a 12.355307
_cell_length_b 7.289656
_cell_length_c 12.936658
_cell_angle_alpha 113.465406
_cell_angle_beta 144.269866
_cell_angle_gamma 85.151402
_cell_volume 558.737161
_symmetry_space_group_name_H-M "P -1"
_symmetry_group_IT_number 2
_symmetry_cell_setting 'triclinic'
loop_
_space_group_symop_operation_xyz
x,y,z
-x,-y,-z
loop_
_atom_site_type_symbol
_atom_site_label
_atom_site_fract_x
_atom_site_fract_y
_atom_site_fract_z
Si Si1 0.788332 0.524077 0.830730
Si Si2 0.311164 0.608911 0.057713
Si Si3 0.849519 0.555233 0.661119
Si Si4 0.774806 0.451159 0.354277
Si Si5 0.327911 0.150949 0.902478
Si Si6 0.026494 0.024464 0.812699
Si Si7 0.734441 0.909453 0.385827
O O1 0.645237 0.391805 0.785563
O O2 0.723795 0.472734 0.650792
O O3 0.859449 0.780097 0.974254
O O4 0.000000 0.500000 0.000000
O O5 0.493753 0.829724 0.203308
O O6 0.084238 0.589146 0.863544
O O7 0.310705 0.386486 0.957009
O O8 0.756436 0.413309 0.454897
O O9 0.884313 0.802532 0.713297
O O10 0.756364 0.678907 0.366642
O O11 0.000000 0.500000 0.500000
O O12 0.574764 0.243667 0.107784
O O13 0.201278 0.010944 0.871289
O O14 0.223684 0.031236 0.688384
O O15 0.882190 0.068217 0.624984
#
# Coordination Sequence:
#
# PCOD9082560 Si02
#       7
#     2   2   2   2   2   2   2
#     4   9  19  37  58  77 103 142 183 219 263 321
#     4   9  18  35  57  78 105 145 184 213 257 322
#     4  10  19  35  55  81 111 139 173 227 269 303
#     4  10  19  33  56  82 107 141 181 218 262 314
#     4  10  19  35  55  79 110 146 178 212 260 324
#     4  10  21  35  53  82 110 138 177 223 269 310
#     4  10  19  34  55  79 110 145 177 218 264 314
#
# _framework density 25.056505999999999
#
# number of rings (size 3 to 8) (size 9 to 14) (size 15 to 20)
#    0.000    2.286    0.000    4.286    0.000    0.000 
#    0.000   27.857    0.000    0.000    0.000    0.000 
#    0.000    0.000    0.000    0.000    0.000    0.000 
#
# Total GULP energy -78329.346169 kJ/mol
# GULP energy per Si atom -5594.953298 kJ/mol
# Density = 2.499948 g / cm^3
# Si number density = 25.056506 Si / 1000 Ang^3
#
#
#
# Elastic Constant Matrix: (Units=GPa)
#
#
# Indices 1 2 3 4 5 6 
#
# 1 112.5117 17.2942 33.5767 -10.6771 -31.2050 12.5483
# 2 17.2942 30.6488 10.5565 -4.9290 -10.7838 5.8315
# 3 33.5767 10.5565 93.1830 -8.1726 -8.6903 5.3696
# 4 -10.6771 -4.9290 -8.1726 30.1762 9.3681 -1.9039
# 5 -31.2050 -10.7838 -8.6903 9.3681 54.1908 -9.8617
# 6 12.5483 5.8315 5.3696 -1.9039 -9.8617 29.3437
#
#
#
# Elastic Compliance Matrix: (Units=1/GPa)
#
#
# Indices 1 2 3 4 5 6 
#
# 1 0.012179 -0.003307 -0.003305 0.001111 0.005249 -0.002110
# 2 -0.003307 0.037942 -0.002236 0.002909 0.004025 -0.004176
# 3 -0.003305 -0.002236 0.012307 0.002020 -0.000822 -0.000540
# 4 0.001111 0.002909 0.002020 0.036003 -0.004809 -0.000703
# 5 0.005249 0.004025 -0.000822 -0.004809 0.023852 0.004810
# 6 -0.002110 -0.004176 -0.000540 -0.000703 0.004810 0.037481
#
#
# Mechanical properties :
#
#
# Convention : Reuss Voigt Hill
#
# Bulk Modulus (GPa) = 22.35480 39.91094 31.13287
# Shear Modulus (GPa) = 25.99147 34.40321 30.19734
#
# Velocity S-wave (km/s) = 3.22423 3.70946 3.47532
# Velocity P-wave (km/s) = 4.77514 5.85745 5.34377
#
# Compressibility (1/GPa) = 0.04473312
#
# Stress axis : x y z
#
# Youngs Moduli (GPa) = 82.10664 26.35588 81.25168
#
# Poissons Ratio (x) = 0.08715 0.26857
# Poissons Ratio (y) = 0.27151 0.18165
# Poissons Ratio (z) = 0.27139 0.05892
#
# Static dielectric constant tensor:
#      x y z
#    x 1.959700 -0.039730 -0.007710 
#    y -0.039730 2.065240 -0.034090 
#    z -0.007710 -0.034090 1.988230 
# 
# From -- ./inp_files/164391.got.cif
#   From: 2010.05.17/outbox.cif.g08.bks.cpg/sg2_83_cif.got.tgz:164391.got - 2010.06.03 11:33:40.
