data_PCOD9082021
_publ_section_title
;
Structure prediction by ZEFSAII (Michael W. Deem and Ramdas Pophale) SiO2 
 PCOD9082021
Probable space group: P -1
;
_chemical_formula_sum "Si O2"
_cell_formula_units_Z 12
_cell_length_a 11.707949
_cell_length_b 9.677721
_cell_length_c 5.360534
_cell_angle_alpha 56.835587
_cell_angle_beta 116.833590
_cell_angle_gamma 108.151451
_cell_volume 451.994215
_symmetry_space_group_name_H-M "P -1"
_symmetry_group_IT_number 2
_symmetry_cell_setting 'triclinic'
loop_
_space_group_symop_operation_xyz
x,y,z
-x,-y,-z
loop_
_atom_site_type_symbol
_atom_site_label
_atom_site_fract_x
_atom_site_fract_y
_atom_site_fract_z
Si Si1 0.820136 0.231262 0.322222
Si Si2 0.891883 0.181345 0.948865
Si Si3 0.177943 0.247617 0.166040
Si Si4 0.457015 0.168513 0.403071
Si Si5 0.893186 0.580746 0.568443
Si Si6 0.449534 0.664606 0.171810
O O1 0.809410 0.140663 0.665202
O O2 0.959232 0.337709 0.373302
O O3 0.831515 0.113621 0.211467
O O4 0.699255 0.334375 0.053638
O O5 0.891626 0.382709 0.776221
O O6 0.038877 0.142573 0.111078
O O7 0.310473 0.169318 0.343928
O O8 0.170230 0.340136 0.332869
O O9 0.171092 0.368496 0.800318
O O10 0.532817 0.213870 0.690689
O O11 0.500000 0.000000 0.500000
O O12 0.479349 0.290286 0.064606
O O13 0.500000 0.500000 0.500000
#
# Coordination Sequence:
#
# PCOD9082021 Si02
#       6
#     2   2   2   2   2   2
#     4  10  20  35  56  92 139 158 210 273 360 377
#     4  10  19  32  60  90 134 171 206 280 342 398
#     4  10  20  35  61  91 121 168 238 259 321 394
#     4  12  28  50  70  94 142 196 231 267 335 431
#     4  10  19  32  60  92 131 170 209 282 339 396
#     4  12  28  44  71 105 138 180 227 295 345 387
#
# _framework density 26.549012000000001
#
# number of rings (size 3 to 8) (size 9 to 14) (size 15 to 20)
#    0.000    1.333    0.000    8.000    9.333    0.000 
#    0.000    0.000    0.000   24.000    0.000    0.000 
#    0.000    0.000    0.000    0.000    0.000    0.000 
#
# Total GULP energy -67265.345611 kJ/mol
# GULP energy per Si atom -5605.445468 kJ/mol
# Density = 2.648859 g / cm^3
# Si number density = 26.549012 Si / 1000 Ang^3
#
#
#
# Elastic Constant Matrix: (Units=GPa)
#
#
# Indices 1 2 3 4 5 6 
#
# 1 192.3681 67.8965 85.8582 14.2114 13.8669 -41.0070
# 2 67.8965 128.2753 58.2895 30.6621 8.0588 -30.9628
# 3 85.8582 58.2895 183.5941 37.0152 2.8976 -24.8678
# 4 14.2114 30.6621 37.0152 53.6662 -18.8292 -7.7563
# 5 13.8669 8.0588 2.8976 -18.8292 62.1023 -1.5315
# 6 -41.0070 -30.9628 -24.8678 -7.7563 -1.5315 41.6104
#
#
#
# Elastic Compliance Matrix: (Units=1/GPa)
#
#
# Indices 1 2 3 4 5 6 
#
# 1 0.008228 -0.002152 -0.002735 0.001360 -0.000892 0.005094
# 2 -0.002152 0.012210 -0.000915 -0.005988 -0.002748 0.005201
# 3 -0.002735 -0.000915 0.008025 -0.004568 -0.001017 0.000531
# 4 0.001360 -0.005988 -0.004568 0.028024 0.009176 -0.000284
# 5 -0.000892 -0.002748 -0.001017 0.009176 0.019461 -0.001106
# 6 0.005094 0.005201 0.000531 -0.000284 -0.001106 0.033146
#
#
# Mechanical properties :
#
#
# Convention : Reuss Voigt Hill
#
# Bulk Modulus (GPa) = 59.31397 103.14732 81.23065
# Shear Modulus (GPa) = 39.58264 50.95534 45.26899
#
# Velocity S-wave (km/s) = 3.86544 4.38573 4.13378
# Velocity P-wave (km/s) = 6.50477 8.03630 7.31075
#
# Compressibility (1/GPa) = 0.01685943
#
# Stress axis : x y z
#
# Youngs Moduli (GPa) = 121.53245 81.90115 124.60530
#
# Poissons Ratio (x) = 0.17625 0.34078
# Poissons Ratio (y) = 0.26153 0.11403
# Poissons Ratio (z) = 0.33238 0.07495
#
# Static dielectric constant tensor:
#      x y z
#    x 2.093880 0.008100 -0.075790 
#    y 0.008100 2.139240 0.019860 
#    z -0.075790 0.019860 2.128860 
# 
# From -- ./inp_files/60257.got.cif
#   From: 2010.05.17/outbox.cif.g08.bks.cpg/sg2_31_cif.got.tgz:60257.got - 2010.06.03 11:33:40.
