data_PCOD9082449
_publ_section_title
;
Structure prediction by ZEFSAII (Michael W. Deem and Ramdas Pophale) SiO2 
 PCOD9082449
Probable space group: P -1
;
_chemical_formula_sum "Si O2"
_cell_formula_units_Z 16
_cell_length_a 5.486815
_cell_length_b 7.701167
_cell_length_c 20.706384
_cell_angle_alpha 92.384356
_cell_angle_beta 64.190601
_cell_angle_gamma 74.901133
_cell_volume 748.283513
_symmetry_space_group_name_H-M "P -1"
_symmetry_group_IT_number 2
_symmetry_cell_setting 'triclinic'
loop_
_space_group_symop_operation_xyz
x,y,z
-x,-y,-z
loop_
_atom_site_type_symbol
_atom_site_label
_atom_site_fract_x
_atom_site_fract_y
_atom_site_fract_z
Si Si1 0.753367 0.875586 0.874211
Si Si2 0.399217 0.730639 0.808812
Si Si3 0.181694 0.519720 0.345842
Si Si4 0.754506 0.426512 0.052412
Si Si5 0.947563 0.934945 0.396821
Si Si6 0.454392 0.758599 0.019017
Si Si7 0.465218 0.438253 0.574990
Si Si8 0.637273 0.995453 0.567445
O O1 0.581954 0.830714 0.832565
O O2 0.085425 0.849408 0.822611
O O3 0.605651 0.074763 0.923292
O O4 0.711160 0.755888 0.939869
O O5 0.596228 0.611802 0.729544
O O6 0.315115 0.596231 0.866909
O O7 0.332194 0.496082 0.398469
O O8 0.110967 0.739243 0.344708
O O9 0.873882 0.491728 0.372908
O O10 0.484098 0.584641 0.057730
O O11 0.785748 0.239981 0.006320
O O12 0.000000 0.500000 0.000000
O O13 0.663442 0.040377 0.392816
O O14 0.162624 0.043862 0.393850
O O15 0.812526 0.903716 0.482268
O O16 0.500000 0.500000 0.500000
O O17 0.557756 0.216062 0.568555
#
# Coordination Sequence:
#
# PCOD9082449 Si02
#       8
#     2   2   2   2   2   2   2   2
#     4  10  21  35  57  83 112 153 194 234 280 332
#     4  11  22  36  56  81 115 156 188 231 285 343
#     4  10  20  34  53  76 106 139 179 216 276 335
#     4  10  19  34  57  85 114 147 193 244 278 324
#     4   8  14  26  45  68  93 121 157 206 244 302
#     4   9  20  34  55  86 112 145 199 243 276 324
#     4  10  19  33  55  80 101 136 175 227 267 326
#     4   8  14  25  45  72  92 115 159 204 253 290
#
# _framework density 21.382272
#
# number of rings (size 3 to 8) (size 9 to 14) (size 15 to 20)
#    0.000    2.500    1.250    1.125    1.750    1.500 
#    0.000    0.000    5.500    0.000    0.000    0.000 
#    0.000    0.000    0.000    0.000    0.000    0.000 
#
# Total GULP energy -89122.824405 kJ/mol
# GULP energy per Si atom -5570.176525 kJ/mol
# Density = 2.133360 g / cm^3
# Si number density = 21.382272 Si / 1000 Ang^3
#
#
#
# Elastic Constant Matrix: (Units=GPa)
#
#
# Indices 1 2 3 4 5 6 
#
# 1 153.4109 3.9942 45.2539 18.7371 -13.1705 -10.7492
# 2 3.9942 33.1912 9.6172 7.7748 4.9216 1.3090
# 3 45.2539 9.6172 93.7171 32.8014 -3.6901 3.3447
# 4 18.7371 7.7748 32.8014 25.2970 -0.9967 2.9159
# 5 -13.1705 4.9216 -3.6901 -0.9967 28.7675 5.4852
# 6 -10.7492 1.3090 3.3447 2.9159 5.4852 13.5362
#
#
#
# Elastic Compliance Matrix: (Units=1/GPa)
#
#
# Indices 1 2 3 4 5 6 
#
# 1 0.008527 0.000005 -0.003336 -0.002766 0.001970 0.007393
# 2 0.000005 0.033535 0.000015 -0.010777 -0.006427 0.001683
# 3 -0.003336 0.000015 0.020919 -0.024285 0.000873 -0.002942
# 4 -0.002766 -0.010777 -0.024285 0.077986 0.002648 -0.013027
# 5 0.001970 -0.006427 0.000873 0.002648 0.039773 -0.014717
# 6 0.007393 0.001683 -0.002942 -0.013027 -0.014717 0.089082
#
#
# Mechanical properties :
#
#
# Convention : Reuss Voigt Hill
#
# Bulk Modulus (GPa) = 17.74664 44.22776 30.98720
# Shear Modulus (GPa) = 16.93554 28.28372 22.60963
#
# Velocity S-wave (km/s) = 2.81737 3.64093 3.25530
# Velocity P-wave (km/s) = 4.34754 6.19713 5.35283
#
# Compressibility (1/GPa) = 0.05634868
#
# Stress axis : x y z
#
# Youngs Moduli (GPa) = 117.26776 29.81993 47.80349
#
# Poissons Ratio (x) = -0.00014 0.15949
# Poissons Ratio (y) = -0.00057 -0.00073
# Poissons Ratio (z) = 0.39125 -0.00046
#
# Static dielectric constant tensor:
#      x y z
#    x -7.905720 17.319010 -0.940690 
#    y 17.319010 -28.637980 1.652630 
#    z -0.940690 1.652630 1.635280 
# 
# From -- ./inp_files/44936.got.cif
#   From: 2010.05.17/outbox.cif.g08.bks.cpg/sg2_23_cif.got.tgz:44936.got - 2010.06.03 11:33:40.
