data_PCOD9082128
_publ_section_title
;
Structure prediction by ZEFSAII (Michael W. Deem and Ramdas Pophale) SiO2 
 PCOD9082128
Probable space group: P -1
;
_chemical_formula_sum "Si O2"
_cell_formula_units_Z 12
_cell_length_a 11.970205
_cell_length_b 22.054676
_cell_length_c 8.568836
_cell_angle_alpha 141.861522
_cell_angle_beta 142.677250
_cell_angle_gamma 23.649262
_cell_volume 534.268839
_symmetry_space_group_name_H-M "P -1"
_symmetry_group_IT_number 2
_symmetry_cell_setting 'triclinic'
loop_
_space_group_symop_operation_xyz
x,y,z
-x,-y,-z
loop_
_atom_site_type_symbol
_atom_site_label
_atom_site_fract_x
_atom_site_fract_y
_atom_site_fract_z
Si Si1 0.211188 0.228258 0.695618
Si Si2 0.205423 0.088616 0.145753
Si Si3 0.236128 0.879897 0.155470
Si Si4 0.269919 0.450216 0.087687
Si Si5 0.729857 0.349544 0.625613
Si Si6 0.096977 0.062075 0.652744
O O1 0.188849 0.200215 0.437121
O O2 0.069579 0.389780 0.920293
O O3 0.996296 0.241366 0.576817
O O4 0.532051 0.077550 0.812427
O O5 0.257187 0.057051 0.955419
O O6 0.908413 0.153244 0.984666
O O7 0.255788 0.958980 0.463394
O O8 0.547491 0.719000 0.106611
O O9 0.000000 0.000000 0.000000
O O10 0.450098 0.420282 0.373274
O O11 0.312529 0.516069 0.130599
O O12 0.832567 0.240049 0.659517
O O13 0.000000 0.000000 0.500000
#
# Coordination Sequence:
#
# PCOD9082128 Si02
#       6
#     2   2   2   2   2   2
#     4   9  18  34  57  74 107 137 179 221 254 311
#     4  10  19  33  51  84 105 135 176 223 262 300
#     4  11  18  35  58  73 106 144 179 204 261 330
#     4   9  17  33  59  78  95 143 188 206 252 319
#     4   9  16  34  56  77  99 141 180 213 255 306
#     4  10  21  31  52  84 109 135 173 222 258 314
#
# _framework density 22.460602999999999
#
# number of rings (size 3 to 8) (size 9 to 14) (size 15 to 20)
#    1.000    1.333    3.333    0.000    0.000    0.667 
#    0.000    9.167    0.000    0.000    0.000    0.000 
#    0.000    0.000    0.000    0.000    0.000    0.000 
#
# Total GULP energy -66864.530808 kJ/mol
# GULP energy per Si atom -5572.044234 kJ/mol
# Density = 2.240948 g / cm^3
# Si number density = 22.460603 Si / 1000 Ang^3
#
#
#
# Elastic Constant Matrix: (Units=GPa)
#
#
# Indices 1 2 3 4 5 6 
#
# 1 60.8310 36.0268 34.4798 6.1370 -14.1733 -7.9664
# 2 36.0268 126.2167 47.6911 28.7814 -3.1869 1.4583
# 3 34.4798 47.6911 112.9851 12.4128 -16.9161 13.6859
# 4 6.1370 28.7814 12.4128 34.4550 0.7182 4.6509
# 5 -14.1733 -3.1869 -16.9161 0.7182 25.8503 -5.5578
# 6 -7.9664 1.4583 13.6859 4.6509 -5.5578 51.7604
#
#
#
# Elastic Compliance Matrix: (Units=1/GPa)
#
#
# Indices 1 2 3 4 5 6 
#
# 1 0.025947 -0.005548 -0.004655 0.000550 0.011901 0.006609
# 2 -0.005548 0.012504 -0.003183 -0.008242 -0.003351 0.000016
# 3 -0.004655 -0.003183 0.012824 -0.000766 0.004728 -0.003441
# 4 0.000550 -0.008242 -0.000766 0.036562 -0.002893 -0.003076
# 5 0.011901 -0.003351 0.004728 -0.002893 0.049311 0.006231
# 6 0.006609 0.000016 -0.003441 -0.003076 0.006231 0.022192
#
#
# Mechanical properties :
#
#
# Convention : Reuss Voigt Hill
#
# Bulk Modulus (GPa) = 40.81420 59.60313 50.20867
# Shear Modulus (GPa) = 25.73615 34.53548 30.13582
#
# Velocity S-wave (km/s) = 3.38869 3.92548 3.66692
# Velocity P-wave (km/s) = 5.78981 6.86587 6.35067
#
# Compressibility (1/GPa) = 0.02450128
#
# Stress axis : x y z
#
# Youngs Moduli (GPa) = 38.54054 79.97459 77.98012
#
# Poissons Ratio (x) = 0.44373 0.36302
# Poissons Ratio (y) = 0.21384 0.24820
# Poissons Ratio (z) = 0.17942 0.25455
#
# Static dielectric constant tensor:
#      x y z
#    x 2.010240 0.029040 0.060160 
#    y 0.029040 1.825390 0.052940 
#    z 0.060160 0.052940 1.833990 
# 
# From -- ./inp_files/162452.got.cif
#   From: 2010.05.17/outbox.cif.g08.bks.cpg/sg2_82_cif.got.tgz:162452.got - 2010.06.03 11:33:40.
