data_PCOD9082837
_publ_section_title
;
Structure prediction by ZEFSAII (Michael W. Deem and Ramdas Pophale) SiO2 
 PCOD9082837
Probable space group: P -1
;
_chemical_formula_sum "Si O2"
_cell_formula_units_Z 14
_cell_length_a 7.524086
_cell_length_b 11.042863
_cell_length_c 9.306519
_cell_angle_alpha 75.484650
_cell_angle_beta 128.334952
_cell_angle_gamma 110.780598
_cell_volume 566.588680
_symmetry_space_group_name_H-M "P -1"
_symmetry_group_IT_number 2
_symmetry_cell_setting 'triclinic'
loop_
_space_group_symop_operation_xyz
x,y,z
-x,-y,-z
loop_
_atom_site_type_symbol
_atom_site_label
_atom_site_fract_x
_atom_site_fract_y
_atom_site_fract_z
Si Si1 0.706082 0.267369 0.404321
Si Si2 0.049930 0.180897 0.386128
Si Si3 0.255376 0.510289 0.814893
Si Si4 0.897976 0.233732 0.794481
Si Si5 0.923462 0.355127 0.064988
Si Si6 0.680495 0.885241 0.955383
Si Si7 0.625643 0.925791 0.231157
O O1 0.924930 0.230629 0.444664
O O2 0.736657 0.422019 0.356405
O O3 0.470212 0.203542 0.216871
O O4 0.708440 0.209913 0.580631
O O5 0.100223 0.281395 0.249277
O O6 0.275526 0.145061 0.572093
O O7 0.848990 0.052752 0.275029
O O8 0.076128 0.370692 0.787123
O O9 0.207148 0.618729 0.866105
O O10 0.500000 0.500000 0.000000
O O11 0.057109 0.131979 0.914021
O O12 0.817384 0.271812 0.898169
O O13 0.000000 0.500000 0.000000
O O14 0.591411 0.015742 0.855352
O O15 0.596763 0.849674 0.088879
#
# Coordination Sequence:
#
# PCOD9082837 Si02
#       7
#     2   2   2   2   2   2   2
#     4  10  19  33  59  85 110 156 201 239 282 352
#     4   9  17  35  61  83 115 156 201 237 289 343
#     4  10  19  36  61  85 113 151 205 240 285 348
#     4  11  20  36  58  84 122 155 185 245 303 341
#     4   9  21  37  59  88 125 154 183 242 306 352
#     4  10  19  33  58  85 117 145 199 246 286 333
#     4   9  18  33  59  90 109 153 206 249 271 333
#
# _framework density 24.709282999999999
#
# number of rings (size 3 to 8) (size 9 to 14) (size 15 to 20)
#    0.000    2.286    2.857    0.429    0.000    0.000 
#    0.000    2.143   18.857    0.000    0.000    0.000 
#    0.000    0.000    0.000    0.000    0.000    0.000 
#
# Total GULP energy -78156.512825 kJ/mol
# GULP energy per Si atom -5582.608059 kJ/mol
# Density = 2.465304 g / cm^3
# Si number density = 24.709283 Si / 1000 Ang^3
#
#
#
# Elastic Constant Matrix: (Units=GPa)
#
#
# Indices 1 2 3 4 5 6 
#
# 1 87.6588 10.4659 43.8591 -12.6060 2.5794 -19.8502
# 2 10.4659 102.3814 53.2950 -19.4717 -0.6168 -0.9204
# 3 43.8591 53.2950 206.8773 -35.2034 0.4334 -8.1202
# 4 -12.6060 -19.4717 -35.2034 46.2497 -3.8032 0.5691
# 5 2.5794 -0.6168 0.4334 -3.8032 33.0672 1.4114
# 6 -19.8502 -0.9204 -8.1202 0.5691 1.4114 29.1062
#
#
#
# Elastic Compliance Matrix: (Units=1/GPa)
#
#
# Indices 1 2 3 4 5 6 
#
# 1 0.015180 0.000248 -0.002546 0.002076 -0.001320 0.009674
# 2 0.000248 0.011654 -0.002540 0.003093 0.000598 -0.000261
# 3 -0.002546 -0.002540 0.006583 0.003285 0.000446 -0.000066
# 4 0.002076 0.003093 0.003285 0.026198 0.002790 0.001783
# 5 -0.001320 0.000598 0.000446 0.002790 0.030769 -0.002304
# 6 0.009674 -0.000261 -0.000066 0.001783 -0.002304 0.041005
#
#
# Mechanical properties :
#
#
# Convention : Reuss Voigt Hill
#
# Bulk Modulus (GPa) = 42.12252 68.01749 55.07001
# Shear Modulus (GPa) = 33.56167 40.97111 37.26639
#
# Velocity S-wave (km/s) = 3.68946 4.07643 3.88776
# Velocity P-wave (km/s) = 5.93580 7.05289 6.51832
#
# Compressibility (1/GPa) = 0.02374027
#
# Stress axis : x y z
#
# Youngs Moduli (GPa) = 65.87459 85.80942 151.89669
#
# Poissons Ratio (x) = -0.02124 0.38678
# Poissons Ratio (y) = -0.01631 0.38579
# Poissons Ratio (z) = 0.16774 0.21794
#
# Static dielectric constant tensor:
#      x y z
#    x 2.061660 0.097050 -0.091490 
#    y 0.097050 2.108750 -0.102640 
#    z -0.091490 -0.102640 2.103050 
# 
# From -- ./inp_files/178402.got.cif
#   From: 2010.05.17/outbox.cif.g08.bks.cpg/sg2_90_cif.got.tgz:178402.got - 2010.06.03 11:33:40.
