data_PCOD9082895
_publ_section_title
;
Structure prediction by ZEFSAII (Michael W. Deem and Ramdas Pophale) SiO2 
 PCOD9082895
Probable space group: P -1
;
_chemical_formula_sum "Si O2"
_cell_formula_units_Z 16
_cell_length_a 23.182731
_cell_length_b 5.130006
_cell_length_c 6.849372
_cell_angle_alpha 72.210440
_cell_angle_beta 69.790606
_cell_angle_gamma 76.247488
_cell_volume 719.871135
_symmetry_space_group_name_H-M "P -1"
_symmetry_group_IT_number 2
_symmetry_cell_setting 'triclinic'
loop_
_space_group_symop_operation_xyz
x,y,z
-x,-y,-z
loop_
_atom_site_type_symbol
_atom_site_label
_atom_site_fract_x
_atom_site_fract_y
_atom_site_fract_z
Si Si1 0.057350 0.048093 0.587994
Si Si2 0.626116 0.037517 0.756417
Si Si3 0.854287 0.963783 0.136822
Si Si4 0.544382 0.221673 0.446366
Si Si5 0.042753 0.304320 0.148828
Si Si6 0.840233 0.299781 0.691881
Si Si7 0.571627 0.501690 0.980679
Si Si8 0.771302 0.913956 0.584713
O O1 0.095919 0.788888 0.483272
O O2 0.991665 0.970922 0.752896
O O3 0.097077 0.058520 0.734889
O O4 0.050743 0.300309 0.379058
O O5 0.588080 0.803243 0.941163
O O6 0.698273 0.922282 0.690021
O O7 0.593607 0.094547 0.574712
O O8 0.614527 0.336000 0.805435
O O9 0.790128 0.974069 0.325289
O O10 0.888149 0.717528 0.015705
O O11 0.848495 0.204967 0.928024
O O12 0.500000 0.500000 0.500000
O O13 0.500000 0.000000 0.500000
O O14 0.581004 0.307740 0.199906
O O15 0.000000 0.500000 0.000000
O O16 0.810635 0.615550 0.645877
O O17 0.794654 0.124955 0.664199
O O18 0.500000 0.500000 0.000000
#
# Coordination Sequence:
#
# PCOD9082895 Si02
#       8
#     2   2   2   2   2   2   2   2
#     4   9  20  36  57  94 126 163 217 270 322 387
#     4  12  25  42  64  99 130 169 212 265 311 386
#     4  10  22  40  63  87 129 175 216 270 324 379
#     4  12  23  40  67  98 128 164 203 249 316 382
#     4  10  19  33  58  92 129 167 213 265 329 383
#     4  10  23  43  65  90 125 173 219 271 325 376
#     4  12  23  42  69  93 132 165 203 254 323 376
#     4  11  25  43  64  91 129 168 223 264 315 380
#
# _framework density 22.226201
#
# number of rings (size 3 to 8) (size 9 to 14) (size 15 to 20)
#    0.000    1.250    2.500    3.000    0.000    7.500 
#    0.000    0.000    0.000    0.000    0.000    0.000 
#    0.000    0.000    0.000    0.000    0.000    0.000 
#
# Total GULP energy -89262.003436 kJ/mol
# GULP energy per Si atom -5578.875215 kJ/mol
# Density = 2.217561 g / cm^3
# Si number density = 22.226201 Si / 1000 Ang^3
#
#
#
# Elastic Constant Matrix: (Units=GPa)
#
#
# Indices 1 2 3 4 5 6 
#
# 1 83.8625 15.9717 14.3197 4.0583 -4.2410 -1.9588
# 2 15.9717 76.4383 12.7746 -3.6460 5.6258 2.0240
# 3 14.3197 12.7746 131.3740 -15.4918 25.2684 -3.1468
# 4 4.0583 -3.6460 -15.4918 32.6814 -9.0028 -1.6275
# 5 -4.2410 5.6258 25.2684 -9.0028 32.7861 2.8437
# 6 -1.9588 2.0240 -3.1468 -1.6275 2.8437 33.4610
#
#
#
# Elastic Compliance Matrix: (Units=1/GPa)
#
#
# Indices 1 2 3 4 5 6 
#
# 1 0.013044 -0.002728 -0.001978 -0.001989 0.003101 0.000382
# 2 -0.002728 0.013965 -0.000585 0.001043 -0.001939 -0.000844
# 3 -0.001978 -0.000585 0.009588 0.002907 -0.006881 0.001547
# 4 -0.001989 0.001043 0.002907 0.034222 0.006617 0.001196
# 5 0.003101 -0.001939 -0.006881 0.006617 0.038642 -0.003311
# 6 0.000382 -0.000844 0.001547 0.001196 -0.003311 0.030444
#
#
# Mechanical properties :
#
#
# Convention : Reuss Voigt Hill
#
# Bulk Modulus (GPa) = 38.44081 41.97853 40.20967
# Shear Modulus (GPa) = 31.41542 36.35962 33.88752
#
# Velocity S-wave (km/s) = 3.76365 4.04900 3.90893
# Velocity P-wave (km/s) = 6.01827 6.38648 6.20511
#
# Compressibility (1/GPa) = 0.02601402
#
# Stress axis : x y z
#
# Youngs Moduli (GPa) = 76.66604 71.60757 104.30097
#
# Poissons Ratio (x) = 0.19535 0.20633
# Poissons Ratio (y) = 0.20915 0.06100
# Poissons Ratio (z) = 0.15166 0.04188
#
# Static dielectric constant tensor:
#      x y z
#    x 1.816240 0.014820 -0.018840 
#    y 0.014820 1.762340 -0.000910 
#    z -0.018840 -0.000910 1.860220 
# 
# From -- ./inp_files/121434.got.cif
#   From: 2010.05.17/outbox.cif.g08.bks.cpg/sg2_61_cif.got.tgz:121434.got - 2010.06.03 11:33:40.
