data_PCOD9082576
_publ_section_title
;
Structure prediction by ZEFSAII (Michael W. Deem and Ramdas Pophale) SiO2 
 PCOD9082576
Probable space group: P -1
;
_chemical_formula_sum "Si O2"
_cell_formula_units_Z 10
_cell_length_a 15.194913
_cell_length_b 9.217740
_cell_length_c 9.051170
_cell_angle_alpha 132.991974
_cell_angle_beta 33.350052
_cell_angle_gamma 147.955506
_cell_volume 368.290373
_symmetry_space_group_name_H-M "P -1"
_symmetry_group_IT_number 2
_symmetry_cell_setting 'triclinic'
loop_
_space_group_symop_operation_xyz
x,y,z
-x,-y,-z
loop_
_atom_site_type_symbol
_atom_site_label
_atom_site_fract_x
_atom_site_fract_y
_atom_site_fract_z
Si Si1 0.984423 0.019884 0.859913
Si Si2 0.524434 0.272722 0.115735
Si Si3 0.565470 0.378026 0.467145
Si Si4 0.198846 0.743104 0.782947
Si Si5 0.896327 0.287218 0.662772
O O1 0.202331 0.326996 0.709630
O O2 0.995422 0.814441 0.629759
O O3 0.801043 0.020443 0.064207
O O4 0.000000 0.000000 0.000000
O O5 0.466984 0.223456 0.340576
O O6 0.546009 0.525019 0.233109
O O7 0.307199 0.989764 0.149076
O O8 0.743314 0.326940 0.828670
O O9 0.602550 0.220516 0.408286
O O10 0.097318 0.576097 0.656091
O O11 0.000000 0.500000 0.000000
#
# Coordination Sequence:
#
# PCOD9082576 Si02
#       5
#     2   2   2   2   2
#     4  10  21  34  52  79 111 141 174 212 260 317
#     4   9  17  32  54  84 104 132 174 223 265 307
#     4   9  18  35  57  80 107 133 172 227 262 299
#     4  10  19  35  53  84 105 131 181 223 257 300
#     4  10  19  33  56  83 101 141 175 218 265 307
#
# _framework density 27.152488000000002
#
# number of rings (size 3 to 8) (size 9 to 14) (size 15 to 20)
#    0.000    2.400    4.000    0.000    0.000    8.000 
#    0.000    0.000    0.000   12.000    0.000    0.000 
#    0.000    0.000    0.000    0.000    0.000    0.000 
#
# Total GULP energy -55846.519676 kJ/mol
# GULP energy per Si atom -5584.651968 kJ/mol
# Density = 2.709069 g / cm^3
# Si number density = 27.152488 Si / 1000 Ang^3
#
#
#
# Elastic Constant Matrix: (Units=GPa)
#
#
# Indices 1 2 3 4 5 6 
#
# 1 139.2723 45.9058 68.9161 13.8679 -53.7663 -49.1122
# 2 45.9058 111.1248 29.2951 22.5254 -13.0354 -40.9636
# 3 68.9161 29.2951 177.8575 42.1508 -53.2509 -31.8449
# 4 13.8679 22.5254 42.1508 44.4115 -10.7503 -16.6694
# 5 -53.7663 -13.0354 -53.2509 -10.7503 46.7682 13.2365
# 6 -49.1122 -40.9636 -31.8449 -16.6694 13.2365 63.9497
#
#
#
# Elastic Compliance Matrix: (Units=1/GPa)
#
#
# Indices 1 2 3 4 5 6 
#
# 1 0.017976 -0.002610 -0.000546 0.003963 0.017610 0.009250
# 2 -0.002610 0.012705 0.000519 -0.004390 -0.001448 0.005548
# 3 -0.000546 0.000519 0.010558 -0.007331 0.009487 0.001296
# 4 0.003963 -0.004390 -0.007331 0.032544 0.001098 0.004838
# 5 0.017610 -0.001448 0.009487 0.001098 0.050237 0.007209
# 6 0.009250 0.005548 0.001296 0.004838 0.007209 0.026709
#
#
# Mechanical properties :
#
#
# Convention : Reuss Voigt Hill
#
# Bulk Modulus (GPa) = 27.80490 79.60984 53.70737
# Shear Modulus (GPa) = 29.76304 49.96838 39.86571
#
# Velocity S-wave (km/s) = 3.31440 4.29451 3.83589
# Velocity P-wave (km/s) = 4.99094 7.34667 6.28025
#
# Compressibility (1/GPa) = 0.03596488
#
# Stress axis : x y z
#
# Youngs Moduli (GPa) = 55.62936 78.70672 94.71145
#
# Poissons Ratio (x) = 0.20542 0.05174
# Poissons Ratio (y) = 0.14519 -0.04913
# Poissons Ratio (z) = 0.03039 -0.04083
#
# Static dielectric constant tensor:
#      x y z
#    x 2.258920 0.071070 -0.000710 
#    y 0.071070 2.156470 -0.064480 
#    z -0.000710 -0.064480 2.208940 
# 
# From -- ./inp_files/153332.got.cif
#   From: 2010.05.17/outbox.cif.g08.bks.cpg/sg2_77_cif.got.tgz:153332.got - 2010.06.03 11:33:40.
