data_PCOD9082309
_publ_section_title
;
Structure prediction by ZEFSAII (Michael W. Deem and Ramdas Pophale) SiO2 
 PCOD9082309
Probable space group: P -1
;
_chemical_formula_sum "Si O2"
_cell_formula_units_Z 16
_cell_length_a 9.310394
_cell_length_b 5.143907
_cell_length_c 23.854062
_cell_angle_alpha 92.110471
_cell_angle_beta 136.045754
_cell_angle_gamma 81.232101
_cell_volume 779.225787
_symmetry_space_group_name_H-M "P -1"
_symmetry_group_IT_number 2
_symmetry_cell_setting 'triclinic'
loop_
_space_group_symop_operation_xyz
x,y,z
-x,-y,-z
loop_
_atom_site_type_symbol
_atom_site_label
_atom_site_fract_x
_atom_site_fract_y
_atom_site_fract_z
Si Si1 0.905826 0.501646 0.765148
Si Si2 0.672184 0.586286 0.388814
Si Si3 0.948093 0.951391 0.049977
Si Si4 0.023111 0.163438 0.441527
Si Si5 0.228070 0.313949 0.390049
Si Si6 0.651670 0.291818 0.484078
Si Si7 0.283825 0.940689 0.236987
Si Si8 0.262109 0.492041 0.952230
O O1 0.901146 0.589885 0.700430
O O2 0.832103 0.222705 0.752141
O O3 0.129799 0.473080 0.858168
O O4 0.760104 0.748033 0.759029
O O5 0.831363 0.718945 0.472009
O O6 0.553718 0.474696 0.406247
O O7 0.525056 0.798490 0.310926
O O8 0.794171 0.335526 0.386530
O O9 0.807156 0.731258 0.027183
O O10 0.168803 0.891584 0.146244
O O11 0.825966 0.228087 0.041740
O O12 0.000000 0.000000 0.000000
O O13 0.098547 0.191575 0.399224
O O14 0.119618 0.854979 0.474192
O O15 0.457241 0.139006 0.437738
O O16 0.293419 0.559655 0.444108
O O17 0.500000 0.500000 0.000000
#
# Coordination Sequence:
#
# PCOD9082309 Si02
#       8
#     2   2   2   2   2   2   2   2
#     4  10  21  37  62  86 118 151 200 244 290 366
#     4  10  20  35  52  75 110 153 199 238 296 350
#     4  10  21  40  68  96 125 161 209 257 303 382
#     4  10  21  33  51  76 112 151 193 248 293 341
#     4  10  20  32  51  81 107 146 198 239 290 339
#     4  10  19  33  54  76 105 153 195 241 294 345
#     4  10  21  38  61  88 112 159 198 241 296 361
#     4  10  21  40  67  95 127 164 202 250 324 375
#
# _framework density 20.533200999999998
#
# number of rings (size 3 to 8) (size 9 to 14) (size 15 to 20)
#    0.000    2.000    1.250    2.250    1.750    0.000 
#    2.250    0.000    0.000    0.000    0.000    0.000 
#    0.000    0.000    0.000    0.000    0.000    0.000 
#
# Total GULP energy -89099.818830 kJ/mol
# GULP energy per Si atom -5568.738677 kJ/mol
# Density = 2.048647 g / cm^3
# Si number density = 20.533201 Si / 1000 Ang^3
#
#
#
# Elastic Constant Matrix: (Units=GPa)
#
#
# Indices 1 2 3 4 5 6 
#
# 1 83.1330 15.7863 36.2777 -13.4855 -11.0281 10.4442
# 2 15.7863 73.2965 10.2654 -7.8000 4.5350 3.9778
# 3 36.2777 10.2654 98.0432 -20.4501 -10.7346 9.5516
# 4 -13.4855 -7.8000 -20.4501 23.5087 4.3079 -0.9080
# 5 -11.0281 4.5350 -10.7346 4.3079 31.5205 -12.1432
# 6 10.4442 3.9778 9.5516 -0.9080 -12.1432 33.9589
#
#
#
# Elastic Compliance Matrix: (Units=1/GPa)
#
#
# Indices 1 2 3 4 5 6 
#
# 1 0.015614 -0.002436 -0.004171 0.003881 0.003032 -0.002156
# 2 -0.002436 0.015053 -0.000031 0.004314 -0.004594 -0.002533
# 3 -0.004171 -0.000031 0.014063 0.009520 0.001279 -0.001957
# 4 0.003881 0.004314 0.009520 0.055287 -0.005443 -0.004845
# 5 0.003032 -0.004594 0.001279 -0.005443 0.039757 0.013317
# 6 -0.002156 -0.002533 -0.001957 -0.004845 0.013317 0.035590
#
#
# Mechanical properties :
#
#
# Convention : Reuss Voigt Hill
#
# Bulk Modulus (GPa) = 31.79310 42.12574 36.95942
# Shear Modulus (GPa) = 25.10986 30.60717 27.85852
#
# Velocity S-wave (km/s) = 3.50078 3.86504 3.68741
# Velocity P-wave (km/s) = 5.64429 6.36227 6.01400
#
# Compressibility (1/GPa) = 0.03145336
#
# Stress axis : x y z
#
# Youngs Moduli (GPa) = 64.04362 66.43175 71.11071
#
# Poissons Ratio (x) = 0.16185 0.29660
# Poissons Ratio (y) = 0.15603 0.00221
# Poissons Ratio (z) = 0.26712 0.00206
#
# Static dielectric constant tensor:
#      x y z
#    x 1.819530 0.021420 0.024120 
#    y 0.021420 1.860850 -0.000330 
#    z 0.024120 -0.000330 1.728810 
# 
# From -- ./inp_files/585080.got.cif
#   From: 2010.05.17/outbox.cif.g08.bks.cpg/sg2_293_cif.got.tgz:585080.got - 2010.06.03 11:33:40.
