data_PCOD9082657
_publ_section_title
;
Structure prediction by ZEFSAII (Michael W. Deem and Ramdas Pophale) SiO2 
 PCOD9082657
Probable space group: P -1
;
_chemical_formula_sum "Si O2"
_cell_formula_units_Z 16
_cell_length_a 15.019705
_cell_length_b 7.130888
_cell_length_c 12.239211
_cell_angle_alpha 101.090856
_cell_angle_beta 32.408847
_cell_angle_gamma 107.750097
_cell_volume 663.672681
_symmetry_space_group_name_H-M "P -1"
_symmetry_group_IT_number 2
_symmetry_cell_setting 'triclinic'
loop_
_space_group_symop_operation_xyz
x,y,z
-x,-y,-z
loop_
_atom_site_type_symbol
_atom_site_label
_atom_site_fract_x
_atom_site_fract_y
_atom_site_fract_z
Si Si1 0.297642 0.240534 0.122924
Si Si2 0.185140 0.809289 0.586981
Si Si3 0.919108 0.549514 0.979160
Si Si4 0.448177 0.635689 0.728339
Si Si5 0.938381 0.259047 0.537513
Si Si6 0.595983 0.281551 0.982545
Si Si7 0.268306 0.135754 0.707402
Si Si8 0.573720 0.816711 0.238098
O O1 0.450844 0.203164 0.033140
O O2 0.113726 0.195284 0.368388
O O3 0.347766 0.478490 0.069943
O O4 0.297248 0.143732 0.993503
O O5 0.128904 0.817119 0.522060
O O6 0.387003 0.825228 0.392331
O O7 0.164635 0.979036 0.710195
O O8 0.061343 0.608097 0.743812
O O9 0.750023 0.383907 0.097995
O O10 0.846427 0.734579 0.107591
O O11 0.000000 0.500000 0.000000
O O12 0.485382 0.752319 0.816872
O O13 0.576386 0.727585 0.509494
O O14 0.457494 0.412434 0.717891
O O15 0.000000 0.500000 0.500000
O O16 0.769349 0.210925 0.783235
O O17 0.349151 0.056303 0.720867
#
# Coordination Sequence:
#
# PCOD9082657 Si02
#       8
#     2   2   2   2   2   2   2   2
#     4   9  17  31  55  87 112 147 203 260 295 345
#     4  12  22  36  61  93 122 159 200 259 315 360
#     4  11  22  39  60  90 121 159 209 253 301 367
#     4  10  21  39  59  85 120 161 205 252 302 369
#     4  10  19  33  56  89 118 156 210 254 297 363
#     4   9  17  33  54  83 113 152 203 253 300 340
#     4  11  23  39  57  89 128 161 197 251 317 368
#     4  10  19  36  61  86 117 160 208 245 304 374
#
# _framework density 24.108270000000001
#
# number of rings (size 3 to 8) (size 9 to 14) (size 15 to 20)
#    0.000    1.750    1.250    6.750    1.750    0.000 
#    2.250    0.625    0.000    0.750    0.000    0.000 
#    0.000    0.000    0.000    0.000    0.000    0.000 
#
# Total GULP energy -89526.728834 kJ/mol
# GULP energy per Si atom -5595.420552 kJ/mol
# Density = 2.405340 g / cm^3
# Si number density = 24.108270 Si / 1000 Ang^3
#
#
#
# Elastic Constant Matrix: (Units=GPa)
#
#
# Indices 1 2 3 4 5 6 
#
# 1 97.9555 11.6619 13.4067 14.8487 1.5808 21.1594
# 2 11.6619 53.1235 11.9933 -4.3571 3.3916 11.2426
# 3 13.4067 11.9933 111.7005 13.1998 5.5278 -10.0549
# 4 14.8487 -4.3571 13.1998 34.8832 -2.1476 3.8511
# 5 1.5808 3.3916 5.5278 -2.1476 40.2460 14.6183
# 6 21.1594 11.2426 -10.0549 3.8511 14.6183 35.6246
#
#
#
# Elastic Compliance Matrix: (Units=1/GPa)
#
#
# Indices 1 2 3 4 5 6 
#
# 1 0.013001 -0.001085 -0.001908 -0.003822 0.002779 -0.008646
# 2 -0.001085 0.022174 -0.003864 0.005830 0.002290 -0.009014
# 3 -0.001908 -0.003864 0.011090 -0.004981 -0.004202 0.007746
# 4 -0.003822 0.005830 -0.004981 0.033901 0.004510 -0.006491
# 5 0.002779 0.002290 -0.004202 0.004510 0.031532 -0.016986
# 6 -0.008646 -0.009014 0.007746 -0.006491 -0.016986 0.045908
#
#
# Mechanical properties :
#
#
# Convention : Reuss Voigt Hill
#
# Bulk Modulus (GPa) = 30.72056 37.43371 34.07713
# Shear Modulus (GPa) = 27.44666 37.19860 32.32263
#
# Velocity S-wave (km/s) = 3.37779 3.93234 3.66557
# Velocity P-wave (km/s) = 5.28990 6.01488 5.66400
#
# Compressibility (1/GPa) = 0.03255149
#
# Stress axis : x y z
#
# Youngs Moduli (GPa) = 76.91702 45.09746 90.16976
#
# Poissons Ratio (x) = 0.04891 0.17205
# Poissons Ratio (y) = 0.08342 0.34845
# Poissons Ratio (z) = 0.14677 0.17427
#
# Static dielectric constant tensor:
#      x y z
#    x 1.934030 -0.029290 -0.047470 
#    y -0.029290 2.061150 0.009470 
#    z -0.047470 0.009470 1.891480 
# 
# From -- ./inp_files/176093.got.cif
#   From: 2010.05.17/outbox.cif.g08.bks.cpg/sg2_89_cif.got.tgz:176093.got - 2010.06.03 11:33:40.
