data_PCOD9082806
_publ_section_title
;
Structure prediction by ZEFSAII (Michael W. Deem and Ramdas Pophale) SiO2 
 PCOD9082806
Probable space group: P -1
;
_chemical_formula_sum "Si O2"
_cell_formula_units_Z 16
_cell_length_a 12.973071
_cell_length_b 10.371869
_cell_length_c 14.323224
_cell_angle_alpha 86.058439
_cell_angle_beta 43.815881
_cell_angle_gamma 122.795670
_cell_volume 688.180976
_symmetry_space_group_name_H-M "P -1"
_symmetry_group_IT_number 2
_symmetry_cell_setting 'triclinic'
loop_
_space_group_symop_operation_xyz
x,y,z
-x,-y,-z
loop_
_atom_site_type_symbol
_atom_site_label
_atom_site_fract_x
_atom_site_fract_y
_atom_site_fract_z
Si Si1 0.218016 0.292762 0.573539
Si Si2 0.302095 0.122668 0.404771
Si Si3 0.886630 0.259710 0.329328
Si Si4 0.481206 0.172805 0.097361
Si Si5 0.813525 0.442301 0.494158
Si Si6 0.020074 0.370104 0.030535
Si Si7 0.548491 0.141461 0.859108
Si Si8 0.903019 0.805251 0.133915
O O1 0.152244 0.136125 0.546352
O O2 0.195973 0.422483 0.546455
O O3 0.559799 0.531231 0.359929
O O4 0.054566 0.148968 0.785374
O O5 0.259826 0.055323 0.326870
O O6 0.644995 0.398663 0.173186
O O7 0.226421 0.945261 0.528511
O O8 0.764043 0.298753 0.454066
O O9 0.232305 0.528020 0.104577
O O10 0.842077 0.219090 0.249636
O O11 0.568021 0.089189 0.073719
O O12 0.393411 0.093887 0.050326
O O13 0.593612 0.258247 0.732135
O O14 0.129117 0.647927 0.321581
O O15 0.952656 0.214640 0.003863
O O16 0.000000 0.500000 0.000000
O O17 0.000000 0.000000 0.000000
#
# Coordination Sequence:
#
# PCOD9082806 Si02
#       8
#     2   2   2   2   2   2   2   2
#     4  10  22  38  57  81 114 145 184 221 272 336
#     4  10  20  36  55  77 111 145 176 226 276 322
#     4  10  19  33  58  78 105 144 181 223 276 317
#     4   9  18  35  57  77 108 141 179 225 271 318
#     4  10  19  35  59  85 107 148 185 222 277 325
#     4  10  21  34  53  82 108 136 184 229 272 323
#     4   9  18  35  59  81 113 140 182 236 272 314
#     4  10  21  40  57  78 113 150 179 224 274 324
#
# _framework density 23.249699
#
# number of rings (size 3 to 8) (size 9 to 14) (size 15 to 20)
#    0.000    2.250    1.250    1.500    0.000    1.500 
#    6.750    1.250    0.000    0.000    0.000    0.000 
#    0.000    0.000    0.000    0.000    0.000    0.000 
#
# Total GULP energy -89478.630405 kJ/mol
# GULP energy per Si atom -5592.414400 kJ/mol
# Density = 2.319678 g / cm^3
# Si number density = 23.249699 Si / 1000 Ang^3
#
#
#
# Elastic Constant Matrix: (Units=GPa)
#
#
# Indices 1 2 3 4 5 6 
#
# 1 92.6273 54.8412 52.4137 30.9462 34.3229 -4.8615
# 2 54.8412 167.0338 76.3313 50.3585 37.9079 -19.8732
# 3 52.4137 76.3313 153.6867 32.5159 56.8098 0.8507
# 4 30.9462 50.3585 32.5159 46.3021 13.2593 -1.4572
# 5 34.3229 37.9079 56.8098 13.2593 53.6269 -6.2856
# 6 -4.8615 -19.8732 0.8507 -1.4572 -6.2856 33.9778
#
#
#
# Elastic Compliance Matrix: (Units=1/GPa)
#
#
# Indices 1 2 3 4 5 6 
#
# 1 0.017292 -0.001379 -0.001000 -0.007284 -0.007227 0.000043
# 2 -0.001379 0.011455 -0.002904 -0.008960 -0.001224 0.005965
# 3 -0.001000 -0.002904 0.012762 -0.002180 -0.010785 -0.004250
# 4 -0.007284 -0.008960 -0.002180 0.036526 0.003810 -0.003957
# 5 -0.007227 -0.001224 -0.010785 0.003810 0.035231 0.005201
# 6 0.000043 0.005965 -0.004250 -0.003957 0.005201 0.033825
#
#
# Mechanical properties :
#
#
# Convention : Reuss Voigt Hill
#
# Bulk Modulus (GPa) = 32.31750 86.72446 59.52098
# Shear Modulus (GPa) = 29.76690 42.09881 35.93286
#
# Velocity S-wave (km/s) = 3.58203 4.25988 3.93557
# Velocity P-wave (km/s) = 5.57120 7.84715 6.80500
#
# Compressibility (1/GPa) = 0.03094299
#
# Stress axis : x y z
#
# Youngs Moduli (GPa) = 57.82947 87.29511 78.35893
#
# Poissons Ratio (x) = 0.12038 0.07836
# Poissons Ratio (y) = 0.07975 0.22757
# Poissons Ratio (z) = 0.05783 0.25352
#
# Static dielectric constant tensor:
#      x y z
#    x 1.898460 0.054090 -0.076150 
#    y 0.054090 1.869870 0.034450 
#    z -0.076150 0.034450 1.926180 
# 
# From -- ./inp_files/327114.got.cif
#   From: 2010.05.17/outbox.cif.g08.bks.cpg/sg2_164_cif.got.tgz:327114.got - 2010.06.03 11:33:40.
