data_PCOD9082434
_publ_section_title
;
Structure prediction by ZEFSAII (Michael W. Deem and Ramdas Pophale) SiO2 
 PCOD9082434
Probable space group: P -1
;
_chemical_formula_sum "Si O2"
_cell_formula_units_Z 14
_cell_length_a 11.674728
_cell_length_b 10.835579
_cell_length_c 7.782641
_cell_angle_alpha 64.121069
_cell_angle_beta 68.486825
_cell_angle_gamma 36.268807
_cell_volume 523.809762
_symmetry_space_group_name_H-M "P -1"
_symmetry_group_IT_number 2
_symmetry_cell_setting 'triclinic'
loop_
_space_group_symop_operation_xyz
x,y,z
-x,-y,-z
loop_
_atom_site_type_symbol
_atom_site_label
_atom_site_fract_x
_atom_site_fract_y
_atom_site_fract_z
Si Si1 0.379439 0.611791 0.279743
Si Si2 0.084294 0.052587 0.305339
Si Si3 0.511951 0.072212 0.625539
Si Si4 0.671972 0.164271 0.262418
Si Si5 0.775495 0.496208 0.323758
Si Si6 0.070686 0.760886 0.104263
Si Si7 0.652615 0.680662 0.902616
O O1 0.590849 0.381266 0.240892
O O2 0.316238 0.552102 0.491900
O O3 0.241361 0.700633 0.137259
O O4 0.302168 0.820213 0.275519
O O5 0.999134 0.262980 0.313672
O O6 0.000000 0.000000 0.500000
O O7 0.986158 0.146130 0.112992
O O8 0.633748 0.099775 0.487054
O O9 0.299234 0.305729 0.655784
O O10 0.500000 0.000000 0.500000
O O11 0.610084 0.878616 0.814428
O O12 0.526522 0.237859 0.146670
O O13 0.884832 0.945871 0.212320
O O14 0.685874 0.595546 0.125165
O O15 0.158969 0.531711 0.179596
#
# Coordination Sequence:
#
# PCOD9082434 Si02
#       7
#     2   2   2   2   2   2   2
#     4   9  18  34  53  75 104 137 171 209 253 300
#     4   9  18  33  53  75 103 137 170 208 257 305
#     4   9  17  32  54  76 101 136 171 209 257 304
#     4   9  19  33  52  80 105 132 175 212 247 302
#     4   9  17  32  54  75 100 135 171 208 254 301
#     4  10  19  33  55  78 103 136 172 211 251 300
#     4   9  18  33  53  75 106 139 168 209 256 300
#
# _framework density 26.727260000000001
#
# number of rings (size 3 to 8) (size 9 to 14) (size 15 to 20)
#    0.000    2.857    0.000    1.714    0.000    1.143 
#    0.000    8.571    0.000   30.857    0.000    0.000 
#    0.000    0.000    0.000    0.000    0.000    0.000 
#
# Total GULP energy -78283.022602 kJ/mol
# GULP energy per Si atom -5591.644472 kJ/mol
# Density = 2.666643 g / cm^3
# Si number density = 26.727260 Si / 1000 Ang^3
#
#
#
# Elastic Constant Matrix: (Units=GPa)
#
#
# Indices 1 2 3 4 5 6 
#
# 1 42.0639 66.8525 22.5486 6.4686 12.4088 6.8835
# 2 66.8525 331.9943 49.3764 27.6680 -10.9865 40.3083
# 3 22.5486 49.3764 129.5651 -7.1514 20.5776 7.1492
# 4 6.4686 27.6680 -7.1514 55.7521 2.3390 2.3888
# 5 12.4088 -10.9865 20.5776 2.3390 35.9833 1.0734
# 6 6.8835 40.3083 7.1492 2.3888 1.0734 50.5617
#
#
#
# Elastic Compliance Matrix: (Units=1/GPa)
#
#
# Indices 1 2 3 4 5 6 
#
# 1 0.044681 -0.009637 -0.001424 0.000061 -0.017605 0.002172
# 2 -0.009637 0.005962 -0.001528 -0.002160 0.006255 -0.003256
# 3 -0.001424 -0.001528 0.009566 0.002383 -0.005603 0.000066
# 4 0.000061 -0.002160 0.002383 0.019423 -0.003321 0.000529
# 5 -0.017605 0.006255 -0.005603 -0.003321 0.039265 -0.002474
# 6 0.002172 -0.003256 0.000066 0.000529 -0.002474 0.022096
#
#
# Mechanical properties :
#
#
# Convention : Reuss Voigt Hill
#
# Bulk Modulus (GPa) = 28.54533 86.79759 57.67146
# Shear Modulus (GPa) = 28.11368 52.78246 40.44807
#
# Velocity S-wave (km/s) = 3.24678 4.44876 3.89442
# Velocity P-wave (km/s) = 4.97582 7.67687 6.46889
#
# Compressibility (1/GPa) = 0.03503200
#
# Stress axis : x y z
#
# Youngs Moduli (GPa) = 22.38064 167.72353 104.53753
#
# Poissons Ratio (x) = 1.61635 0.14884
# Poissons Ratio (y) = 0.21568 0.15973
# Poissons Ratio (z) = 0.03187 0.25628
#
# Static dielectric constant tensor:
#      x y z
#    x 2.162760 0.011960 0.013920 
#    y 0.011960 2.074920 -0.052670 
#    z 0.013920 -0.052670 2.181370 
# 
# From -- ./inp_files/44157.got.cif
#   From: 2010.05.17/outbox.cif.g08.bks.cpg/sg2_23_cif.got.tgz:44157.got - 2010.06.03 11:33:40.
