data_PCOD9082609
_publ_section_title
;
Structure prediction by ZEFSAII (Michael W. Deem and Ramdas Pophale) SiO2 
 PCOD9082609
Probable space group: P -1
;
_chemical_formula_sum "Si O2"
_cell_formula_units_Z 12
_cell_length_a 12.716724
_cell_length_b 12.616212
_cell_length_c 9.400954
_cell_angle_alpha 77.374739
_cell_angle_beta 148.767814
_cell_angle_gamma 121.326419
_cell_volume 574.537461
_symmetry_space_group_name_H-M "P -1"
_symmetry_group_IT_number 2
_symmetry_cell_setting 'triclinic'
loop_
_space_group_symop_operation_xyz
x,y,z
-x,-y,-z
loop_
_atom_site_type_symbol
_atom_site_label
_atom_site_fract_x
_atom_site_fract_y
_atom_site_fract_z
Si Si1 0.255019 0.995356 0.693015
Si Si2 0.591134 0.607247 0.246659
Si Si3 0.075438 0.319699 0.637496
Si Si4 0.745742 0.828877 0.593261
Si Si5 0.477412 0.772361 0.865593
Si Si6 0.382329 0.080821 0.310731
O O1 0.010079 0.836098 0.405600
O O2 0.326844 0.105414 0.624620
O O3 0.500000 0.000000 0.000000
O O4 0.265804 0.065491 0.830440
O O5 0.837258 0.634459 0.440936
O O6 0.662815 0.689091 0.454806
O O7 0.327437 0.439492 0.992296
O O8 0.515718 0.671324 0.019701
O O9 0.811362 0.291507 0.386848
O O10 0.609980 0.828854 0.578137
O O11 0.066402 0.945766 0.954672
O O12 0.477849 0.805992 0.691630
O O13 0.500000 0.000000 0.500000
#
# Coordination Sequence:
#
# PCOD9082609 Si02
#       6
#     2   2   2   2   2   2
#     4   9  17  33  59  85 108 137 182 231 271 321
#     4  10  21  36  57  83 112 145 181 230 281 330
#     4  10  19  33  56  85 113 142 181 226 280 333
#     4  10  22  38  57  85 115 145 187 231 278 332
#     4  10  20  35  58  84 109 142 187 233 275 323
#     4  11  22  37  59  83 112 149 189 233 277 326
#
# _framework density 20.886365000000001
#
# number of rings (size 3 to 8) (size 9 to 14) (size 15 to 20)
#    0.000    2.000    0.000    4.500    0.000    6.667 
#    0.000    0.833    0.000   23.000    0.000    0.000 
#    0.000    0.000    0.000    0.000    0.000    0.000 
#
# Total GULP energy -66810.747472 kJ/mol
# GULP energy per Si atom -5567.562289 kJ/mol
# Density = 2.083883 g / cm^3
# Si number density = 20.886365 Si / 1000 Ang^3
#
#
#
# Elastic Constant Matrix: (Units=GPa)
#
#
# Indices 1 2 3 4 5 6 
#
# 1 167.7200 26.3396 68.1489 4.2455 -10.0019 0.2209
# 2 26.3396 36.6719 22.7367 5.4631 -7.3944 -2.9047
# 3 68.1489 22.7367 81.8681 16.9205 -11.8443 -7.0144
# 4 4.2455 5.4631 16.9205 49.3763 -13.9397 -6.9212
# 5 -10.0019 -7.3944 -11.8443 -13.9397 42.6201 3.1547
# 6 0.2209 -2.9047 -7.0144 -6.9212 3.1547 25.9092
#
#
#
# Elastic Compliance Matrix: (Units=1/GPa)
#
#
# Indices 1 2 3 4 5 6 
#
# 1 0.009447 -0.002358 -0.007715 0.001942 0.000445 -0.001969
# 2 -0.002358 0.034014 -0.006860 -0.000058 0.003307 0.001558
# 3 -0.007715 -0.006860 0.022124 -0.005317 0.001133 0.003728
# 4 0.001942 -0.000058 -0.005317 0.024380 0.006628 0.004243
# 5 0.000445 0.003307 0.001133 0.006628 0.026684 -0.000805
# 6 -0.001969 0.001558 0.003728 0.004243 -0.000805 0.041029
#
#
# Mechanical properties :
#
#
# Convention : Reuss Voigt Hill
#
# Bulk Modulus (GPa) = 31.52542 57.85674 44.69108
# Shear Modulus (GPa) = 24.73801 34.85009 29.79405
#
# Velocity S-wave (km/s) = 3.44526 4.08923 3.78098
# Velocity P-wave (km/s) = 5.56354 7.07507 6.36434
#
# Compressibility (1/GPa) = 0.03172043
#
# Stress axis : x y z
#
# Youngs Moduli (GPa) = 105.84892 29.39924 45.19881
#
# Poissons Ratio (x) = 0.06932 0.34872
# Poissons Ratio (y) = 0.24956 0.31007
# Poissons Ratio (z) = 0.81664 0.20168
#
# Static dielectric constant tensor:
#      x y z
#    x 1.864030 -0.042810 -0.003620 
#    y -0.042810 1.772150 0.013800 
#    z -0.003620 0.013800 1.777210 
# 
# From -- ./inp_files/267974.got.cif
#   From: 2010.05.17/outbox.cif.g08.bks.cpg/sg2_134_cif.got.tgz:267974.got - 2010.06.03 11:33:40.
