data_PCOD9082933
_publ_section_title
;
Structure prediction by ZEFSAII (Michael W. Deem and Ramdas Pophale) SiO2 
 PCOD9082933
Probable space group: P -1
;
_chemical_formula_sum "Si O2"
_cell_formula_units_Z 14
_cell_length_a 9.877710
_cell_length_b 8.167298
_cell_length_c 12.464309
_cell_angle_alpha 108.942020
_cell_angle_beta 144.041444
_cell_angle_gamma 73.854668
_cell_volume 558.270531
_symmetry_space_group_name_H-M "P -1"
_symmetry_group_IT_number 2
_symmetry_cell_setting 'triclinic'
loop_
_space_group_symop_operation_xyz
x,y,z
-x,-y,-z
loop_
_atom_site_type_symbol
_atom_site_label
_atom_site_fract_x
_atom_site_fract_y
_atom_site_fract_z
Si Si1 0.251133 0.570243 0.159567
Si Si2 0.578909 0.092979 0.741289
Si Si3 0.061746 0.526557 0.719844
Si Si4 0.734822 0.064121 0.346609
Si Si5 0.663446 0.394973 0.275397
Si Si6 0.133563 0.747710 0.320687
Si Si7 0.155236 0.101462 0.302338
O O1 0.272223 0.737100 0.133391
O O2 0.428560 0.435615 0.194238
O O3 0.302445 0.641832 0.326837
O O4 0.000000 0.500000 0.000000
O O5 0.364484 0.124295 0.527192
O O6 0.462593 0.066495 0.776645
O O7 0.735154 0.942500 0.753173
O O8 0.860215 0.470488 0.495707
O O9 0.049772 0.383182 0.775008
O O10 0.992663 0.721868 0.751295
O O11 0.289520 0.524800 0.792874
O O12 0.695542 0.187974 0.247729
O O13 0.727677 0.182291 0.474410
O O14 0.000000 0.000000 0.500000
O O15 0.046425 0.920226 0.236632
#
# Coordination Sequence:
#
# PCOD9082933 Si02
#       7
#     2   2   2   2   2   2   2
#     4  11  23  40  56  78 121 165 198 228 266 350
#     4   9  18  32  54  81 110 149 185 234 294 336
#     4  10  19  33  59  87 118 138 182 258 304 341
#     4  10  20  33  61  93 118 139 180 256 313 340
#     4  10  21  33  55  90 117 146 191 234 299 349
#     4   9  21  34  58  88 112 152 191 232 301 346
#     4   9  16  32  54  86 114 135 181 248 300 341
#
# _framework density 25.077446999999999
#
# number of rings (size 3 to 8) (size 9 to 14) (size 15 to 20)
#    0.000    2.286    1.429    2.571    6.000    1.143 
#    0.000    1.429    0.000    4.286    0.000    0.000 
#    0.000    0.000    0.000    0.000    0.000    0.000 
#
# Total GULP energy -78203.226915 kJ/mol
# GULP energy per Si atom -5585.944780 kJ/mol
# Density = 2.502037 g / cm^3
# Si number density = 25.077447 Si / 1000 Ang^3
#
#
#
# Elastic Constant Matrix: (Units=GPa)
#
#
# Indices 1 2 3 4 5 6 
#
# 1 155.1897 64.5872 40.0134 9.9383 51.8691 30.1317
# 2 64.5872 92.8932 36.4119 45.8008 29.6612 17.9078
# 3 40.0134 36.4119 64.8442 -6.3106 16.2677 8.5874
# 4 9.9383 45.8008 -6.3106 3.2330 15.1076 13.6981
# 5 51.8691 29.6612 16.2677 15.1076 36.0341 8.8569
# 6 30.1317 17.9078 8.5874 13.6981 8.8569 41.7837
#
#
#
# Elastic Compliance Matrix: (Units=1/GPa)
#
#
# Indices 1 2 3 4 5 6 
#
# 1 0.012635 0.002382 -0.006114 -0.007848 -0.013238 -0.003497
# 2 0.002382 0.005466 0.001872 0.018230 -0.014616 -0.007323
# 3 -0.006114 0.001872 0.015500 -0.011576 0.004304 0.003304
# 4 -0.007848 0.018230 -0.011576 -0.026361 0.010961 0.006544
# 5 -0.013238 -0.014616 0.004304 0.010961 0.052236 0.000260
# 6 -0.003497 -0.007323 0.003304 0.006544 0.000260 0.026713
#
#
# Mechanical properties :
#
#
# Convention : Reuss Voigt Hill
#
# Bulk Modulus (GPa) = 33.46720 66.10577 49.78648
# Shear Modulus (GPa) = 50.06619 27.67114 38.86866
#
# Velocity S-wave (km/s) = 4.47303 3.32539 3.94121
# Velocity P-wave (km/s) = 6.32865 6.41578 6.37236
#
# Compressibility (1/GPa) = 0.02988000
#
# Stress axis : x y z
#
# Youngs Moduli (GPa) = 79.14751 182.96290 64.51795
#
# Poissons Ratio (x) = -0.43589 0.39446
# Poissons Ratio (y) = -0.18856 -0.12075
# Poissons Ratio (z) = 0.48390 -0.34243
#
# Static dielectric constant tensor:
#      x y z
#    x 2.037230 0.060640 0.006450 
#    y 0.060640 2.085350 0.063130 
#    z 0.006450 0.063130 2.069520 
# 
# From -- ./inp_files/182758.got.cif
#   From: 2010.05.17/outbox.cif.g08.bks.cpg/sg2_92_cif.got.tgz:182758.got - 2010.06.03 11:33:40.
