data_PCOD9082627
_publ_section_title
;
Structure prediction by ZEFSAII (Michael W. Deem and Ramdas Pophale) SiO2 
 PCOD9082627
Probable space group: P -1
;
_chemical_formula_sum "Si O2"
_cell_formula_units_Z 14
_cell_length_a 11.335103
_cell_length_b 15.314542
_cell_length_c 15.960490
_cell_angle_alpha 150.857072
_cell_angle_beta 148.706160
_cell_angle_gamma 54.168333
_cell_volume 540.709425
_symmetry_space_group_name_H-M "P -1"
_symmetry_group_IT_number 2
_symmetry_cell_setting 'triclinic'
loop_
_space_group_symop_operation_xyz
x,y,z
-x,-y,-z
loop_
_atom_site_type_symbol
_atom_site_label
_atom_site_fract_x
_atom_site_fract_y
_atom_site_fract_z
Si Si1 0.674809 0.506209 0.686654
Si Si2 0.736893 0.002779 0.540735
Si Si3 0.888739 0.123666 0.423573
Si Si4 0.220140 0.765619 0.389323
Si Si5 0.815679 0.270097 0.342446
Si Si6 0.776871 0.637374 0.586268
Si Si7 0.143257 0.105186 0.312612
O O1 0.500000 0.500000 0.500000
O O2 0.603859 0.266155 0.463797
O O3 0.544001 0.539927 0.715896
O O4 0.007456 0.725977 0.055768
O O5 0.592185 0.041648 0.407597
O O6 0.898949 0.921193 0.522552
O O7 0.651099 0.879284 0.476201
O O8 0.947024 0.186576 0.609253
O O9 0.925962 0.311957 0.540713
O O10 0.539110 0.909804 0.024448
O O11 0.000000 0.500000 0.000000
O O12 0.909548 0.504393 0.553384
O O13 0.948397 0.159201 0.286861
O O14 0.727508 0.714667 0.534260
O O15 0.966945 0.857879 0.950128
#
# Coordination Sequence:
#
# PCOD9082627 Si02
#       7
#     2   2   2   2   2   2   2
#     4  11  19  34  58  83 109 144 191 232 278 331
#     4  10  20  36  53  81 117 144 185 239 278 339
#     4  10  19  33  56  87 110 147 189 237 288 329
#     4  10  22  33  54  84 116 148 183 234 291 339
#     4  10  20  34  58  87 116 142 193 244 279 331
#     4  11  20  35  57  83 117 153 186 239 284 330
#     4  10  22  34  54  86 118 150 190 233 286 337
#
# _framework density 25.891909999999999
#
# number of rings (size 3 to 8) (size 9 to 14) (size 15 to 20)
#    0.000    1.714    2.857    2.571    4.000    0.000 
#    0.000    0.714    0.000    0.857    0.000    0.000 
#    0.000    0.000    0.000    0.000    0.000    0.000 
#
# Total GULP energy -78089.296543 kJ/mol
# GULP energy per Si atom -5577.806896 kJ/mol
# Density = 2.583298 g / cm^3
# Si number density = 25.891910 Si / 1000 Ang^3
#
#
#
# Elastic Constant Matrix: (Units=GPa)
#
#
# Indices 1 2 3 4 5 6 
#
# 1 82.1209 49.4795 20.3648 -4.4991 -18.4895 29.9273
# 2 49.4795 218.5302 29.4488 23.7197 -16.0958 42.6634
# 3 20.3648 29.4488 51.2981 12.0021 -15.4067 5.3072
# 4 -4.4991 23.7197 12.0021 26.8371 0.6432 -8.8623
# 5 -18.4895 -16.0958 -15.4067 0.6432 28.1776 0.4256
# 6 29.9273 42.6634 5.3072 -8.8623 0.4256 65.2652
#
#
#
# Elastic Compliance Matrix: (Units=1/GPa)
#
#
# Indices 1 2 3 4 5 6 
#
# 1 0.019241 -0.002457 -0.004020 0.004905 0.009006 -0.006282
# 2 -0.002457 0.007159 0.000188 -0.008455 0.002844 -0.004735
# 3 -0.004020 0.000188 0.028869 -0.014986 0.013637 -0.002751
# 4 0.004905 -0.008455 -0.014986 0.056575 -0.011281 0.012252
# 5 0.009006 0.002844 0.013637 -0.011281 0.050873 -0.008962
# 6 -0.006282 -0.004735 -0.002751 0.012252 -0.008962 0.023244
#
#
# Mechanical properties :
#
#
# Convention : Reuss Voigt Hill
#
# Bulk Modulus (GPa) = 23.42536 61.17059 42.29798
# Shear Modulus (GPa) = 23.49972 40.89970 32.19971
#
# Velocity S-wave (km/s) = 3.01592 3.97877 3.53033
# Velocity P-wave (km/s) = 4.60377 6.69210 5.74364
#
# Compressibility (1/GPa) = 0.04268878
#
# Stress axis : x y z
#
# Youngs Moduli (GPa) = 51.97324 139.69290 34.63964
#
# Poissons Ratio (x) = 0.34326 0.13927
# Poissons Ratio (y) = 0.12771 -0.00652
# Poissons Ratio (z) = 0.20896 -0.02628
#
# Static dielectric constant tensor:
#      x y z
#    x 2.131870 -0.050550 -0.030550 
#    y -0.050550 2.306550 -0.128150 
#    z -0.030550 -0.128150 2.100300 
# 
# From -- ./inp_files/153742.got.cif
#   From: 2010.05.17/outbox.cif.g08.bks.cpg/sg2_77_cif.got.tgz:153742.got - 2010.06.03 11:33:40.
