data_PCOD9082164
_publ_section_title
;
Structure prediction by ZEFSAII (Michael W. Deem and Ramdas Pophale) SiO2 
 PCOD9082164
Probable space group: P -1
;
_chemical_formula_sum "Si O2"
_cell_formula_units_Z 14
_cell_length_a 12.829724
_cell_length_b 16.127200
_cell_length_c 11.965876
_cell_angle_alpha 45.073278
_cell_angle_beta 127.505789
_cell_angle_gamma 153.145380
_cell_volume 790.099018
_symmetry_space_group_name_H-M "P -1"
_symmetry_group_IT_number 2
_symmetry_cell_setting 'triclinic'
loop_
_space_group_symop_operation_xyz
x,y,z
-x,-y,-z
loop_
_atom_site_type_symbol
_atom_site_label
_atom_site_fract_x
_atom_site_fract_y
_atom_site_fract_z
Si Si1 0.140723 0.236498 0.482114
Si Si2 0.658600 0.227247 0.859543
Si Si3 0.237351 0.301274 0.972613
Si Si4 0.605561 0.381096 0.859048
Si Si5 0.859688 0.835426 0.207412
Si Si6 0.040984 0.329628 0.992658
Si Si7 0.251332 0.051489 0.666623
O O1 0.299870 0.444227 0.322875
O O2 0.146321 0.249069 0.606566
O O3 0.225003 0.167545 0.571873
O O4 0.883704 0.063088 0.428603
O O5 0.670495 0.312782 0.898333
O O6 0.513525 0.199207 0.704266
O O7 0.898503 0.344753 0.868881
O O8 0.500000 0.000000 0.000000
O O9 0.209354 0.282836 0.837986
O O10 0.500000 0.500000 0.000000
O O11 0.106123 0.310020 0.941580
O O12 0.104352 0.082423 0.125076
O O13 0.335294 0.206587 0.865079
O O14 0.733513 0.479826 0.966791
O O15 0.890955 0.130042 0.162350
#
# Coordination Sequence:
#
# PCOD9082164 Si02
#       7
#     2   2   2   2   2   2   2
#     4  10  19  33  55  87 117 140 176 237 287 337
#     4  10  19  33  52  79 117 149 179 232 281 337
#     4  11  22  37  56  81 114 154 191 230 269 325
#     4  11  20  33  57  89 111 144 183 231 296 336
#     4  11  21  35  56  84 118 143 184 233 280 330
#     4  10  19  35  53  81 117 145 190 225 276 337
#     4   9  18  31  54  83 115 144 177 229 290 330
#
# _framework density 17.719297999999998
#
# number of rings (size 3 to 8) (size 9 to 14) (size 15 to 20)
#    0.000    1.714    4.286    1.714    0.000    0.000 
#    0.000    0.000    0.000    1.714    0.000    0.000 
#    0.000    0.000    0.000    0.000    0.000    0.000 
#
# Total GULP energy -78080.628817 kJ/mol
# GULP energy per Si atom -5577.187773 kJ/mol
# Density = 1.767897 g / cm^3
# Si number density = 17.719298 Si / 1000 Ang^3
#
#
#
# Elastic Constant Matrix: (Units=GPa)
#
#
# Indices 1 2 3 4 5 6 
#
# 1 113.7943 41.8474 31.1837 24.0084 -3.3763 -15.1210
# 2 41.8474 116.0965 33.8653 18.8408 -8.5197 -7.7114
# 3 31.1837 33.8653 54.0763 18.9591 -1.3339 -2.2942
# 4 24.0084 18.8408 18.9591 30.1269 -7.3640 0.9406
# 5 -3.3763 -8.5197 -1.3339 -7.3640 25.6335 2.0381
# 6 -15.1210 -7.7114 -2.2942 0.9406 2.0381 29.0302
#
#
#
# Elastic Compliance Matrix: (Units=1/GPa)
#
#
# Indices 1 2 3 4 5 6 
#
# 1 0.012817 -0.002204 -0.003167 -0.007490 -0.001855 0.006213
# 2 -0.002204 0.011474 -0.005272 -0.001479 0.002718 0.001340
# 3 -0.003167 -0.005272 0.028026 -0.012890 -0.004405 -0.000108
# 4 -0.007490 -0.001479 -0.012890 0.051705 0.013335 -0.007924
# 5 -0.001855 0.002718 -0.004405 0.013335 0.043597 -0.004085
# 6 0.006213 0.001340 -0.000108 -0.007924 -0.004085 0.038574
#
#
# Mechanical properties :
#
#
# Convention : Reuss Voigt Hill
#
# Bulk Modulus (GPa) = 32.22588 55.30665 43.76627
# Shear Modulus (GPa) = 22.95427 28.76284 25.85855
#
# Velocity S-wave (km/s) = 3.60313 4.03333 3.82428
# Velocity P-wave (km/s) = 5.96124 7.27810 6.65233
#
# Compressibility (1/GPa) = 0.03103096
#
# Stress axis : x y z
#
# Youngs Moduli (GPa) = 78.02146 87.15031 35.68075
#
# Poissons Ratio (x) = 0.19208 0.11300
# Poissons Ratio (y) = 0.17196 0.18812
# Poissons Ratio (z) = 0.24709 0.45949
#
# Static dielectric constant tensor:
#      x y z
#    x 1.615530 0.019770 -0.007420 
#    y 0.019770 1.675390 0.002340 
#    z -0.007420 0.002340 1.594080 
# 
# From -- ./inp_files/254613.got.cif
#   From: 2010.05.17/outbox.cif.g08.bks.cpg/sg2_128_cif.got.tgz:254613.got - 2010.06.03 11:33:40.
